ligand
 OpenBabel11021811483D
libRbt.so/2013.1/901 2013/11/27
 34 36  0  0  0  0  0  0  0  0999 V2000
    6.0844    6.0570    9.0749 C   0  0  2  0  0  0  0  0  0  0  0  0
    6.5846    5.6474    7.7924 O   0  0  0  0  0  0  0  0  0  0  0  0
    9.2559    7.3490    4.9235 C   0  0  2  0  0  0  0  0  0  0  0  0
    9.9123    8.3012    4.0344 N   0  0  0  0  0  0  0  0  0  0  0  0
   11.6029    9.0068    6.6676 C   0  0  2  0  0  0  0  0  0  0  0  0
    6.1405    4.8162   10.0360 C   0  0  2  0  0  0  0  0  0  0  0  0
    7.5200    4.3310   10.1968 N   0  0  0  0  0  0  0  0  0  0  0  0
    7.7306    7.3560    4.5725 C   0  0  0  0  0  0  0  0  0  0  0  0
   13.0779    8.6146    6.2967 C   0  0  2  0  0  0  0  0  0  0  0  0
   13.0978    7.9390    5.0501 O   0  0  0  0  0  0  0  0  0  0  0  0
    5.2499    3.6897    9.4684 C   0  0  1  0  0  0  0  0  0  0  0  0
    5.2903    2.5536   10.3473 O   0  0  0  0  0  0  0  0  0  0  0  0
    7.0285    6.3169    5.5108 C   0  0  2  0  0  0  0  0  0  0  0  0
    5.5788    6.2819    5.2305 N   0  0  0  0  0  0  0  0  0  0  0  0
   13.6621    7.7032    7.4446 C   0  0  1  0  0  0  0  0  0  0  0  0
   15.0625    7.2888    7.1310 N   0  0  0  0  0  0  0  0  0  0  0  0
    3.8094    4.2289    9.3012 C   0  0  2  0  0  0  0  0  0  0  0  0
    2.9697    3.1928    8.7627 O   0  0  0  0  0  0  0  0  0  0  0  0
    7.2429    6.6823    7.0019 C   0  0  2  0  0  0  0  0  0  0  0  0
   13.6175    8.4953    8.7959 C   0  0  1  0  0  0  0  0  0  0  0  0
   14.4281    9.6630    8.6926 O   0  0  0  0  0  0  0  0  0  0  0  0
    3.8217    5.4816    8.3446 C   0  0  2  0  0  0  0  0  0  0  0  0
    4.7022    6.5284    8.8989 O   0  0  0  0  0  0  0  0  0  0  0  0
    8.7612    6.7310    7.3056 C   0  0  2  0  0  0  0  0  0  0  0  0
    8.9337    7.0857    8.6737 O   0  0  0  0  0  0  0  0  0  0  0  0
   12.1405    8.9129    9.0812 C   0  0  0  0  0  0  0  0  0  0  0  0
   11.5924    9.7101    7.9576 O   0  0  0  0  0  0  0  0  0  0  0  0
    2.4040    6.0828    8.1591 C   0  0  2  0  0  0  0  0  0  0  0  0
    2.4413    7.0808    7.1423 O   0  0  0  0  0  0  0  0  0  0  0  0
    9.4746    7.7872    6.4297 C   0  0  1  0  0  0  0  0  0  0  0  0
   10.8778    7.7504    6.7817 O   0  0  0  0  0  0  0  0  0  0  0  0
    1.9004    6.7326    9.4373 C   0  0  0  0  0  0  0  0  0  0  0  0
   14.1457    7.6683    9.9617 C   0  0  0  0  0  0  0  0  0  0  0  0
   15.0097    6.0603    6.3156 C   0  0  0  0  0  0  0  0  0  0  0  0
  1  2  1  6  0  0  0
  1  6  1  0  0  0  0
  1 23  1  0  0  0  0
  3  4  1  6  0  0  0
  3  8  1  0  0  0  0
  3 30  1  0  0  0  0
  5  9  1  0  0  0  0
  5 27  1  0  0  0  0
  5 31  1  1  0  0  0
  6  7  1  6  0  0  0
  6 11  1  0  0  0  0
  8 13  1  0  0  0  0
  9 10  1  6  0  0  0
  9 15  1  0  0  0  0
 11 12  1  1  0  0  0
 11 17  1  0  0  0  0
 13 14  1  6  0  0  0
 13 19  1  0  0  0  0
 15 16  1  6  0  0  0
 15 20  1  0  0  0  0
 16 34  1  0  0  0  0
 17 18  1  6  0  0  0
 17 22  1  0  0  0  0
 19  2  1  1  0  0  0
 19 24  1  0  0  0  0
 20 21  1  6  0  0  0
 20 26  1  0  0  0  0
 20 33  1  0  0  0  0
 22 23  1  1  0  0  0
 22 28  1  0  0  0  0
 24 25  1  1  0  0  0
 24 30  1  0  0  0  0
 26 27  1  0  0  0  0
 28 29  1  6  0  0  0
 28 32  1  0  0  0  0
 30 31  1  1  0  0  0
M  END
>  <CHROM.1>
-150.01629542,-150.76285990,-87.06072356,-171.60800289,95.11905256,-148.95173441
8.55958214,6.73919092,7.68911394,-2.87741607,-0.21755354,-1.09831332

>  <Name>
ligand

>  <RI>
0

>  <Rbt.Current_Directory>
/home/itssahil/PROJECTS/Mol_Feturizer/New_Systems/rnas/3TD1

>  <Rbt.Executable>
rbdock ($Id: //depot/dev/client3/rdock/2013.1/src/exe/rbdock.cxx#4 $)

>  <Rbt.Library>
libRbt.so (2013.1, Build901 2013/11/27)

>  <Rbt.Parameter_File>
/export/apps/rDock/src/rDock_2013.1_src/data/scripts/dock_solv.prm

>  <Rbt.Receptor>
prm/pocket_docking_2.prm

>  <SCORE>
-18.1029

>  <SCORE.INTER>
-16.7688

>  <SCORE.INTER.CONST>
1

>  <SCORE.INTER.POLAR>
0

>  <SCORE.INTER.ROT>
6

>  <SCORE.INTER.SOLV>
20.1667

>  <SCORE.INTER.VDW>
-25.5014

>  <SCORE.INTER.norm>
-0.4932

>  <SCORE.INTRA>
-1.33406

>  <SCORE.INTRA.DIHEDRAL>
-3.42045

>  <SCORE.INTRA.DIHEDRAL.0>
19.5869

>  <SCORE.INTRA.POLAR>
0

>  <SCORE.INTRA.POLAR.0>
0

>  <SCORE.INTRA.REPUL>
0

>  <SCORE.INTRA.REPUL.0>
0

>  <SCORE.INTRA.SOLV>
-0.00123325

>  <SCORE.INTRA.SOLV.lig_0>
-70.101

>  <SCORE.INTRA.VDW>
0.376781

>  <SCORE.INTRA.VDW.0>
-3.39718

>  <SCORE.INTRA.norm>
-0.0392371

>  <SCORE.RESTR>
0

>  <SCORE.RESTR.CAVITY>
0

>  <SCORE.RESTR.norm>
0

>  <SCORE.SYSTEM>
0

>  <SCORE.SYSTEM.CONST>
0

>  <SCORE.SYSTEM.DIHEDRAL>
0

>  <SCORE.SYSTEM.SOLV>
0

>  <SCORE.SYSTEM.norm>
0

>  <SCORE.heavy>
34

>  <SCORE.norm>
-0.532437

>  <RMSD>
0.500

$$$$
ligand
 OpenBabel11021811483D
libRbt.so/2013.1/901 2013/11/27
 34 36  0  0  0  0  0  0  0  0999 V2000
    5.9732    6.2390    8.7432 C   0  0  2  0  0  0  0  0  0  0  0  0
    6.4387    5.8119    7.4535 O   0  0  0  0  0  0  0  0  0  0  0  0
    9.3443    7.3643    4.7315 C   0  0  2  0  0  0  0  0  0  0  0  0
   10.0807    8.2722    3.8588 N   0  0  0  0  0  0  0  0  0  0  0  0
   11.5808    9.0582    6.5808 C   0  0  2  0  0  0  0  0  0  0  0  0
    6.1118    5.0283    9.7340 C   0  0  2  0  0  0  0  0  0  0  0  0
    7.5134    4.5977    9.8533 N   0  0  0  0  0  0  0  0  0  0  0  0
    7.8500    7.3774    4.2663 C   0  0  0  0  0  0  0  0  0  0  0  0
   13.0496    8.6347    6.2193 C   0  0  2  0  0  0  0  0  0  0  0  0
   13.0630    7.9588    4.9728 O   0  0  0  0  0  0  0  0  0  0  0  0
    5.2424    3.8550    9.2319 C   0  0  1  0  0  0  0  0  0  0  0  0
    5.3584    2.7461   10.1383 O   0  0  0  0  0  0  0  0  0  0  0  0
    7.0631    6.3853    5.1879 C   0  0  2  0  0  0  0  0  0  0  0  0
    5.6381    6.3580    4.8004 N   0  0  0  0  0  0  0  0  0  0  0  0
   13.6069    7.7113    7.3708 C   0  0  1  0  0  0  0  0  0  0  0  0
   15.0002    7.2672    7.0662 N   0  0  0  0  0  0  0  0  0  0  0  0
    3.7777    4.3372    9.1071 C   0  0  2  0  0  0  0  0  0  0  0  0
    2.9569    3.2570    8.6296 O   0  0  0  0  0  0  0  0  0  0  0  0
    7.1708    6.8062    6.6759 C   0  0  2  0  0  0  0  0  0  0  0  0
   13.5706    8.5042    8.7219 C   0  0  1  0  0  0  0  0  0  0  0  0
   14.4064    9.6544    8.6238 O   0  0  0  0  0  0  0  0  0  0  0  0
    3.7070    5.5624    8.1179 C   0  0  2  0  0  0  0  0  0  0  0  0
    4.5687    6.6552    8.6093 O   0  0  0  0  0  0  0  0  0  0  0  0
    8.6627    6.8471    7.0913 C   0  0  2  0  0  0  0  0  0  0  0  0
    8.7377    7.2532    8.4540 O   0  0  0  0  0  0  0  0  0  0  0  0
   12.1010    8.9531    8.9978 C   0  0  0  0  0  0  0  0  0  0  0  0
   11.5771    9.7617    7.8708 O   0  0  0  0  0  0  0  0  0  0  0  0
    2.2619    6.1068    7.9723 C   0  0  2  0  0  0  0  0  0  0  0  0
    2.2394    7.1345    6.9851 O   0  0  0  0  0  0  0  0  0  0  0  0
    9.4564    7.8586    6.2321 C   0  0  1  0  0  0  0  0  0  0  0  0
   10.8285    7.8175    6.6903 O   0  0  0  0  0  0  0  0  0  0  0  0
    1.7526    6.6970    9.2769 C   0  0  0  0  0  0  0  0  0  0  0  0
   14.0736    7.6663    9.8910 C   0  0  0  0  0  0  0  0  0  0  0  0
   14.9274    6.0069    6.3023 C   0  0  0  0  0  0  0  0  0  0  0  0
  1  2  1  6  0  0  0
  1  6  1  0  0  0  0
  1 23  1  0  0  0  0
  3  4  1  6  0  0  0
  3  8  1  0  0  0  0
  3 30  1  0  0  0  0
  5  9  1  0  0  0  0
  5 27  1  0  0  0  0
  5 31  1  1  0  0  0
  6  7  1  6  0  0  0
  6 11  1  0  0  0  0
  8 13  1  0  0  0  0
  9 10  1  6  0  0  0
  9 15  1  0  0  0  0
 11 12  1  1  0  0  0
 11 17  1  0  0  0  0
 13 14  1  6  0  0  0
 13 19  1  0  0  0  0
 15 16  1  6  0  0  0
 15 20  1  0  0  0  0
 16 34  1  0  0  0  0
 17 18  1  6  0  0  0
 17 22  1  0  0  0  0
 19  2  1  1  0  0  0
 19 24  1  0  0  0  0
 20 21  1  6  0  0  0
 20 26  1  0  0  0  0
 20 33  1  0  0  0  0
 22 23  1  1  0  0  0
 22 28  1  0  0  0  0
 24 25  1  1  0  0  0
 24 30  1  0  0  0  0
 26 27  1  0  0  0  0
 28 29  1  6  0  0  0
 28 32  1  0  0  0  0
 30 31  1  1  0  0  0
M  END
>  <CHROM.1>
-142.89927914,-157.18442591,-89.57912386,-175.11505373,95.00456014,-144.34845543
8.51499625,6.81017059,7.50373585,-2.90783480,-0.22377362,-1.14522231

>  <Name>
ligand

>  <RI>
0

>  <Rbt.Current_Directory>
/home/itssahil/PROJECTS/Mol_Feturizer/New_Systems/rnas/3TD1

>  <Rbt.Executable>
rbdock ($Id: //depot/dev/client3/rdock/2013.1/src/exe/rbdock.cxx#4 $)

>  <Rbt.Library>
libRbt.so (2013.1, Build901 2013/11/27)

>  <Rbt.Parameter_File>
/export/apps/rDock/src/rDock_2013.1_src/data/scripts/dock_solv.prm

>  <Rbt.Receptor>
prm/pocket_docking_2.prm

>  <SCORE>
-17.8894

>  <SCORE.INTER>
-16.9065

>  <SCORE.INTER.CONST>
1

>  <SCORE.INTER.POLAR>
0

>  <SCORE.INTER.ROT>
6

>  <SCORE.INTER.SOLV>
19.3766

>  <SCORE.INTER.VDW>
-25.3299

>  <SCORE.INTER.norm>
-0.49725

>  <SCORE.INTRA>
-0.982854

>  <SCORE.INTRA.DIHEDRAL>
-2.5517

>  <SCORE.INTRA.DIHEDRAL.0>
19.5869

>  <SCORE.INTRA.POLAR>
0

>  <SCORE.INTRA.POLAR.0>
0

>  <SCORE.INTRA.REPUL>
0

>  <SCORE.INTRA.REPUL.0>
0

>  <SCORE.INTRA.SOLV>
-0.220825

>  <SCORE.INTRA.SOLV.lig_0>
-70.101

>  <SCORE.INTRA.VDW>
0.40341

>  <SCORE.INTRA.VDW.0>
-3.39718

>  <SCORE.INTRA.norm>
-0.0289075

>  <SCORE.RESTR>
0

>  <SCORE.RESTR.CAVITY>
0

>  <SCORE.RESTR.norm>
0

>  <SCORE.SYSTEM>
0

>  <SCORE.SYSTEM.CONST>
0

>  <SCORE.SYSTEM.DIHEDRAL>
0

>  <SCORE.SYSTEM.SOLV>
0

>  <SCORE.SYSTEM.norm>
0

>  <SCORE.heavy>
34

>  <SCORE.norm>
-0.526158

>  <RMSD>
0.502

$$$$
ligand
 OpenBabel11021811483D
libRbt.so/2013.1/901 2013/11/27
 34 36  0  0  0  0  0  0  0  0999 V2000
    6.0873    6.0325    9.0810 C   0  0  2  0  0  0  0  0  0  0  0  0
    6.6023    5.6258    7.8035 O   0  0  0  0  0  0  0  0  0  0  0  0
    9.2148    7.3602    4.9003 C   0  0  2  0  0  0  0  0  0  0  0  0
    9.8518    8.3221    4.0075 N   0  0  0  0  0  0  0  0  0  0  0  0
   11.5894    9.0098    6.6124 C   0  0  2  0  0  0  0  0  0  0  0  0
    6.0953    4.7798   10.0282 C   0  0  2  0  0  0  0  0  0  0  0  0
    7.4596    4.2601   10.2094 N   0  0  0  0  0  0  0  0  0  0  0  0
    7.6833    7.3655    4.5778 C   0  0  0  0  0  0  0  0  0  0  0  0
   13.0630    8.6230    6.2304 C   0  0  2  0  0  0  0  0  0  0  0  0
   13.0760    7.9478    4.9835 O   0  0  0  0  0  0  0  0  0  0  0  0
    5.1895    3.6814    9.4304 C   0  0  1  0  0  0  0  0  0  0  0  0
    5.1860    2.5348   10.2963 O   0  0  0  0  0  0  0  0  0  0  0  0
    7.0018    6.3162    5.5199 C   0  0  2  0  0  0  0  0  0  0  0  0
    5.5473    6.2790    5.2662 N   0  0  0  0  0  0  0  0  0  0  0  0
   13.6590    7.7135    7.3736 C   0  0  1  0  0  0  0  0  0  0  0  0
   15.0586    7.3042    7.0494 N   0  0  0  0  0  0  0  0  0  0  0  0
    3.7657    4.2567    9.2422 C   0  0  2  0  0  0  0  0  0  0  0  0
    2.9123    3.2472    8.6755 O   0  0  0  0  0  0  0  0  0  0  0  0
    7.2427    6.6694    7.0099 C   0  0  2  0  0  0  0  0  0  0  0  0
   13.6218    8.5051    8.7255 C   0  0  1  0  0  0  0  0  0  0  0  0
   14.4273    9.6757    8.6163 O   0  0  0  0  0  0  0  0  0  0  0  0
    3.8261    5.5197    8.3009 C   0  0  2  0  0  0  0  0  0  0  0  0
    4.7202    6.5387    8.8843 O   0  0  0  0  0  0  0  0  0  0  0  0
    8.7663    6.7203    7.2858 C   0  0  2  0  0  0  0  0  0  0  0  0
    8.9631    7.0638    8.6535 O   0  0  0  0  0  0  0  0  0  0  0  0
   12.1454    8.9173    9.0219 C   0  0  0  0  0  0  0  0  0  0  0  0
   11.5861    9.7128    7.9027 O   0  0  0  0  0  0  0  0  0  0  0  0
    2.4268    6.1566    8.0956 C   0  0  2  0  0  0  0  0  0  0  0  0
    2.5089    7.1700    7.0967 O   0  0  0  0  0  0  0  0  0  0  0  0
    9.4601    7.7862    6.4060 C   0  0  1  0  0  0  0  0  0  0  0  0
   10.8697    7.7508    6.7316 O   0  0  0  0  0  0  0  0  0  0  0  0
    1.9109    6.7971    9.3736 C   0  0  0  0  0  0  0  0  0  0  0  0
   14.1616    7.6798    9.8870 C   0  0  0  0  0  0  0  0  0  0  0  0
   15.0083    6.0247    6.3163 C   0  0  0  0  0  0  0  0  0  0  0  0
  1  2  1  6  0  0  0
  1  6  1  0  0  0  0
  1 23  1  0  0  0  0
  3  4  1  6  0  0  0
  3  8  1  0  0  0  0
  3 30  1  0  0  0  0
  5  9  1  0  0  0  0
  5 27  1  0  0  0  0
  5 31  1  1  0  0  0
  6  7  1  6  0  0  0
  6 11  1  0  0  0  0
  8 13  1  0  0  0  0
  9 10  1  6  0  0  0
  9 15  1  0  0  0  0
 11 12  1  1  0  0  0
 11 17  1  0  0  0  0
 13 14  1  1  0  0  0
 13 19  1  0  0  0  0
 15 16  1  6  0  0  0
 15 20  1  0  0  0  0
 16 34  1  0  0  0  0
 17 18  1  6  0  0  0
 17 22  1  0  0  0  0
 19  2  1  1  0  0  0
 19 24  1  0  0  0  0
 20 21  1  6  0  0  0
 20 26  1  0  0  0  0
 20 33  1  0  0  0  0
 22 23  1  1  0  0  0
 22 28  1  0  0  0  0
 24 25  1  1  0  0  0
 24 30  1  0  0  0  0
 26 27  1  0  0  0  0
 28 29  1  6  0  0  0
 28 32  1  0  0  0  0
 30 31  1  1  0  0  0
M  END
>  <CHROM.1>
-152.89089249,-148.87360759,-91.01847780,-171.91736891,95.00285947,-149.68812530
8.54638997,6.74594797,7.65264139,-2.87213150,-0.21102667,-1.08001690

>  <Name>
ligand

>  <RI>
0

>  <Rbt.Current_Directory>
/home/itssahil/PROJECTS/Mol_Feturizer/New_Systems/rnas/3TD1

>  <Rbt.Executable>
rbdock ($Id: //depot/dev/client3/rdock/2013.1/src/exe/rbdock.cxx#4 $)

>  <Rbt.Library>
libRbt.so (2013.1, Build901 2013/11/27)

>  <Rbt.Parameter_File>
/export/apps/rDock/src/rDock_2013.1_src/data/scripts/dock_solv.prm

>  <Rbt.Receptor>
prm/pocket_docking_2.prm

>  <SCORE>
-18.218

>  <SCORE.INTER>
-16.5539

>  <SCORE.INTER.CONST>
1

>  <SCORE.INTER.POLAR>
0

>  <SCORE.INTER.ROT>
6

>  <SCORE.INTER.SOLV>
20.4343

>  <SCORE.INTER.VDW>
-25.4474

>  <SCORE.INTER.norm>
-0.48688

>  <SCORE.INTRA>
-1.66409

>  <SCORE.INTRA.DIHEDRAL>
-3.6581

>  <SCORE.INTRA.DIHEDRAL.0>
19.5869

>  <SCORE.INTRA.POLAR>
0

>  <SCORE.INTRA.POLAR.0>
0

>  <SCORE.INTRA.REPUL>
0

>  <SCORE.INTRA.REPUL.0>
0

>  <SCORE.INTRA.SOLV>
0.0705798

>  <SCORE.INTRA.SOLV.lig_0>
-70.101

>  <SCORE.INTRA.VDW>
0.129675

>  <SCORE.INTRA.VDW.0>
-3.39718

>  <SCORE.INTRA.norm>
-0.0489437

>  <SCORE.RESTR>
0

>  <SCORE.RESTR.CAVITY>
0

>  <SCORE.RESTR.norm>
0

>  <SCORE.SYSTEM>
0

>  <SCORE.SYSTEM.CONST>
0

>  <SCORE.SYSTEM.DIHEDRAL>
0

>  <SCORE.SYSTEM.SOLV>
0

>  <SCORE.SYSTEM.norm>
0

>  <SCORE.heavy>
34

>  <SCORE.norm>
-0.535824

>  <RMSD>
0.507

$$$$
ligand
 OpenBabel11021811483D
libRbt.so/2013.1/901 2013/11/27
 34 36  0  0  0  0  0  0  0  0999 V2000
    6.0571    6.1278    9.0840 C   0  0  2  0  0  0  0  0  0  0  0  0
    6.5881    5.6931    7.8224 O   0  0  0  0  0  0  0  0  0  0  0  0
    9.2448    7.3576    4.9184 C   0  0  2  0  0  0  0  0  0  0  0  0
    9.8978    8.2988    4.0151 N   0  0  0  0  0  0  0  0  0  0  0  0
   11.6013    9.0336    6.6539 C   0  0  2  0  0  0  0  0  0  0  0  0
    6.0818    4.9039   10.0679 C   0  0  2  0  0  0  0  0  0  0  0  0
    7.4541    4.4152   10.2730 N   0  0  0  0  0  0  0  0  0  0  0  0
    7.7173    7.3648    4.5772 C   0  0  0  0  0  0  0  0  0  0  0  0
   13.0745    8.6480    6.2691 C   0  0  2  0  0  0  0  0  0  0  0  0
   13.0871    7.9836    5.0164 O   0  0  0  0  0  0  0  0  0  0  0  0
    5.2004    3.7717    9.4974 C   0  0  1  0  0  0  0  0  0  0  0  0
    5.2121    2.6512   10.3969 O   0  0  0  0  0  0  0  0  0  0  0  0
    7.0189    6.3374    5.5309 C   0  0  2  0  0  0  0  0  0  0  0  0
    5.5673    6.3029    5.2604 N   0  0  0  0  0  0  0  0  0  0  0  0
   13.6687    7.7277    7.4047 C   0  0  1  0  0  0  0  0  0  0  0  0
   15.0677    7.3191    7.0776 N   0  0  0  0  0  0  0  0  0  0  0  0
    3.7675    4.3146    9.2834 C   0  0  2  0  0  0  0  0  0  0  0  0
    2.9367    3.2731    8.7416 O   0  0  0  0  0  0  0  0  0  0  0  0
    7.2438    6.7179    7.0167 C   0  0  2  0  0  0  0  0  0  0  0  0
   13.6320    8.5076    8.7634 C   0  0  1  0  0  0  0  0  0  0  0  0
   14.4393    9.6778    8.6648 O   0  0  0  0  0  0  0  0  0  0  0  0
    3.8111    5.5502    8.3055 C   0  0  2  0  0  0  0  0  0  0  0  0
    4.6823    6.6024    8.8639 O   0  0  0  0  0  0  0  0  0  0  0  0
    8.7641    6.7661    7.3101 C   0  0  2  0  0  0  0  0  0  0  0  0
    8.9463    7.1349    8.6732 O   0  0  0  0  0  0  0  0  0  0  0  0
   12.1561    8.9193    9.0628 C   0  0  0  0  0  0  0  0  0  0  0  0
   11.5984    9.7254    7.9502 O   0  0  0  0  0  0  0  0  0  0  0  0
    2.4017    6.1546    8.0727 C   0  0  2  0  0  0  0  0  0  0  0  0
    2.4803    7.1718    7.0775 O   0  0  0  0  0  0  0  0  0  0  0  0
    9.4743    7.8112    6.4185 C   0  0  1  0  0  0  0  0  0  0  0  0
   10.8797    7.7747    6.7619 O   0  0  0  0  0  0  0  0  0  0  0  0
    1.8449    6.7800    9.3410 C   0  0  0  0  0  0  0  0  0  0  0  0
   14.1701    7.6713    9.9179 C   0  0  0  0  0  0  0  0  0  0  0  0
   15.0129    6.0803    6.2780 C   0  0  0  0  0  0  0  0  0  0  0  0
  1  2  1  6  0  0  0
  1  6  1  0  0  0  0
  1 23  1  0  0  0  0
  3  4  1  6  0  0  0
  3  8  1  0  0  0  0
  3 30  1  0  0  0  0
  5  9  1  0  0  0  0
  5 27  1  0  0  0  0
  5 31  1  1  0  0  0
  6  7  1  6  0  0  0
  6 11  1  0  0  0  0
  8 13  1  0  0  0  0
  9 10  1  6  0  0  0
  9 15  1  0  0  0  0
 11 12  1  1  0  0  0
 11 17  1  0  0  0  0
 13 14  1  6  0  0  0
 13 19  1  0  0  0  0
 15 16  1  6  0  0  0
 15 20  1  0  0  0  0
 16 34  1  0  0  0  0
 17 18  1  6  0  0  0
 17 22  1  0  0  0  0
 19  2  1  1  0  0  0
 19 24  1  0  0  0  0
 20 21  1  6  0  0  0
 20 26  1  0  0  0  0
 20 33  1  0  0  0  0
 22 23  1  1  0  0  0
 22 28  1  0  0  0  0
 24 25  1  1  0  0  0
 24 30  1  0  0  0  0
 26 27  1  0  0  0  0
 28 29  1  6  0  0  0
 28 32  1  0  0  0  0
 30 31  1  1  0  0  0
M  END
>  <CHROM.1>
-151.43586201,-148.72684687,-88.35803663,-173.91436686,96.23555726,-148.88061648
8.54884225,6.78191880,7.67549805,-2.88124875,-0.21426659,-1.10821044

>  <Name>
ligand

>  <RI>
0

>  <Rbt.Current_Directory>
/home/itssahil/PROJECTS/Mol_Feturizer/New_Systems/rnas/3TD1

>  <Rbt.Executable>
rbdock ($Id: //depot/dev/client3/rdock/2013.1/src/exe/rbdock.cxx#4 $)

>  <Rbt.Library>
libRbt.so (2013.1, Build901 2013/11/27)

>  <Rbt.Parameter_File>
/export/apps/rDock/src/rDock_2013.1_src/data/scripts/dock_solv.prm

>  <Rbt.Receptor>
prm/pocket_docking_2.prm

>  <SCORE>
-18.1497

>  <SCORE.INTER>
-16.8789

>  <SCORE.INTER.CONST>
1

>  <SCORE.INTER.POLAR>
0

>  <SCORE.INTER.ROT>
6

>  <SCORE.INTER.SOLV>
20.7038

>  <SCORE.INTER.VDW>
-25.7539

>  <SCORE.INTER.norm>
-0.496438

>  <SCORE.INTRA>
-1.27083

>  <SCORE.INTRA.DIHEDRAL>
-3.17489

>  <SCORE.INTRA.DIHEDRAL.0>
19.5869

>  <SCORE.INTRA.POLAR>
0

>  <SCORE.INTRA.POLAR.0>
0

>  <SCORE.INTRA.REPUL>
0

>  <SCORE.INTRA.REPUL.0>
0

>  <SCORE.INTRA.SOLV>
0.12529

>  <SCORE.INTRA.SOLV.lig_0>
-70.101

>  <SCORE.INTRA.VDW>
0.253967

>  <SCORE.INTRA.VDW.0>
-3.39718

>  <SCORE.INTRA.norm>
-0.0373774

>  <SCORE.RESTR>
0

>  <SCORE.RESTR.CAVITY>
0

>  <SCORE.RESTR.norm>
0

>  <SCORE.SYSTEM>
0

>  <SCORE.SYSTEM.CONST>
0

>  <SCORE.SYSTEM.DIHEDRAL>
0

>  <SCORE.SYSTEM.SOLV>
0

>  <SCORE.SYSTEM.norm>
0

>  <SCORE.heavy>
34

>  <SCORE.norm>
-0.533815

>  <RMSD>
0.512

$$$$
ligand
 OpenBabel11021811483D
libRbt.so/2013.1/901 2013/11/27
 34 36  0  0  0  0  0  0  0  0999 V2000
    6.0822    6.0638    9.1067 C   0  0  2  0  0  0  0  0  0  0  0  0
    6.6069    5.6407    7.8385 O   0  0  0  0  0  0  0  0  0  0  0  0
    9.2048    7.3432    4.9035 C   0  0  2  0  0  0  0  0  0  0  0  0
    9.8392    8.2959    3.9992 N   0  0  0  0  0  0  0  0  0  0  0  0
   11.5945    8.9994    6.6093 C   0  0  2  0  0  0  0  0  0  0  0  0
    6.0929    4.8259   10.0731 C   0  0  2  0  0  0  0  0  0  0  0  0
    7.4594    4.3177   10.2698 N   0  0  0  0  0  0  0  0  0  0  0  0
    7.6709    7.3530    4.5925 C   0  0  0  0  0  0  0  0  0  0  0  0
   13.0711    8.6153    6.2365 C   0  0  2  0  0  0  0  0  0  0  0  0
   13.0936    7.9442    4.9875 O   0  0  0  0  0  0  0  0  0  0  0  0
    5.1974    3.7127    9.4874 C   0  0  1  0  0  0  0  0  0  0  0  0
    5.1963    2.5795   10.3710 O   0  0  0  0  0  0  0  0  0  0  0  0
    6.9921    6.3134    5.5471 C   0  0  2  0  0  0  0  0  0  0  0  0
    5.5355    6.2808    5.3047 N   0  0  0  0  0  0  0  0  0  0  0  0
   13.6600    7.7028    7.3810 C   0  0  1  0  0  0  0  0  0  0  0  0
   15.0623    7.2960    7.0654 N   0  0  0  0  0  0  0  0  0  0  0  0
    3.7710    4.2759    9.2826 C   0  0  2  0  0  0  0  0  0  0  0  0
    2.9271    3.2523    8.7269 O   0  0  0  0  0  0  0  0  0  0  0  0
    7.2458    6.6760    7.0327 C   0  0  2  0  0  0  0  0  0  0  0  0
   13.6124    8.4900    8.7351 C   0  0  1  0  0  0  0  0  0  0  0  0
   14.4175    9.6618    8.6353 O   0  0  0  0  0  0  0  0  0  0  0  0
    3.8287    5.5246    8.3224 C   0  0  2  0  0  0  0  0  0  0  0  0
    4.7131    6.5582    8.8948 O   0  0  0  0  0  0  0  0  0  0  0  0
    8.7716    6.7220    7.2968 C   0  0  2  0  0  0  0  0  0  0  0  0
    8.9803    7.0743    8.6605 O   0  0  0  0  0  0  0  0  0  0  0  0
   12.1336    8.8998    9.0224 C   0  0  0  0  0  0  0  0  0  0  0  0
   11.5813    9.6982    7.9018 O   0  0  0  0  0  0  0  0  0  0  0  0
    2.4266    6.1493    8.0996 C   0  0  2  0  0  0  0  0  0  0  0  0
    2.5113    7.1603    7.0986 O   0  0  0  0  0  0  0  0  0  0  0  0
    9.4634    7.7786    6.4043 C   0  0  1  0  0  0  0  0  0  0  0  0
   10.8753    7.7393    6.7195 O   0  0  0  0  0  0  0  0  0  0  0  0
    1.8912    6.7892    9.3698 C   0  0  0  0  0  0  0  0  0  0  0  0
   14.1450    7.6615    9.8977 C   0  0  0  0  0  0  0  0  0  0  0  0
   15.0140    6.0911    6.2151 C   0  0  0  0  0  0  0  0  0  0  0  0
  1  2  1  6  0  0  0
  1  6  1  0  0  0  0
  1 23  1  0  0  0  0
  3  4  1  6  0  0  0
  3  8  1  0  0  0  0
  3 30  1  0  0  0  0
  5  9  1  0  0  0  0
  5 27  1  0  0  0  0
  5 31  1  1  0  0  0
  6  7  1  6  0  0  0
  6 11  1  0  0  0  0
  8 13  1  0  0  0  0
  9 10  1  6  0  0  0
  9 15  1  0  0  0  0
 11 12  1  1  0  0  0
 11 17  1  0  0  0  0
 13 14  1  1  0  0  0
 13 19  1  0  0  0  0
 15 16  1  6  0  0  0
 15 20  1  0  0  0  0
 16 34  1  0  0  0  0
 17 18  1  6  0  0  0
 17 22  1  0  0  0  0
 19  2  1  1  0  0  0
 19 24  1  0  0  0  0
 20 21  1  6  0  0  0
 20 26  1  0  0  0  0
 20 33  1  0  0  0  0
 22 23  1  1  0  0  0
 22 28  1  0  0  0  0
 24 25  1  1  0  0  0
 24 30  1  0  0  0  0
 26 27  1  0  0  0  0
 28 29  1  6  0  0  0
 28 32  1  0  0  0  0
 30 31  1  1  0  0  0
M  END
>  <CHROM.1>
-152.85439528,-147.80858608,-85.53826938,-172.70369546,96.07802363,-150.62302835
8.54595841,6.75013054,7.66695871,-2.87296203,-0.21138013,-1.09625854

>  <Name>
ligand

>  <RI>
0

>  <Rbt.Current_Directory>
/home/itssahil/PROJECTS/Mol_Feturizer/New_Systems/rnas/3TD1

>  <Rbt.Executable>
rbdock ($Id: //depot/dev/client3/rdock/2013.1/src/exe/rbdock.cxx#4 $)

>  <Rbt.Library>
libRbt.so (2013.1, Build901 2013/11/27)

>  <Rbt.Parameter_File>
/export/apps/rDock/src/rDock_2013.1_src/data/scripts/dock_solv.prm

>  <Rbt.Receptor>
prm/pocket_docking_2.prm

>  <SCORE>
-18.2629

>  <SCORE.INTER>
-16.9163

>  <SCORE.INTER.CONST>
1

>  <SCORE.INTER.POLAR>
0

>  <SCORE.INTER.ROT>
6

>  <SCORE.INTER.SOLV>
20.5358

>  <SCORE.INTER.VDW>
-25.7228

>  <SCORE.INTER.norm>
-0.497537

>  <SCORE.INTRA>
-1.35139

>  <SCORE.INTRA.DIHEDRAL>
-3.65076

>  <SCORE.INTRA.DIHEDRAL.0>
19.5869

>  <SCORE.INTRA.POLAR>
0

>  <SCORE.INTRA.POLAR.0>
0

>  <SCORE.INTRA.REPUL>
0

>  <SCORE.INTRA.REPUL.0>
0

>  <SCORE.INTRA.SOLV>
0.128336

>  <SCORE.INTRA.SOLV.lig_0>
-70.101

>  <SCORE.INTRA.VDW>
0.409828

>  <SCORE.INTRA.VDW.0>
-3.39718

>  <SCORE.INTRA.norm>
-0.0397466

>  <SCORE.RESTR>
0.00472746

>  <SCORE.RESTR.CAVITY>
0.00472746

>  <SCORE.RESTR.norm>
0.000139043

>  <SCORE.SYSTEM>
0

>  <SCORE.SYSTEM.CONST>
0

>  <SCORE.SYSTEM.DIHEDRAL>
0

>  <SCORE.SYSTEM.SOLV>
0

>  <SCORE.SYSTEM.norm>
0

>  <SCORE.heavy>
34

>  <SCORE.norm>
-0.537144

>  <RMSD>
0.518

$$$$
ligand
 OpenBabel11021811483D
libRbt.so/2013.1/901 2013/11/27
 34 36  0  0  0  0  0  0  0  0999 V2000
    6.1382    6.1098    8.9975 C   0  0  2  0  0  0  0  0  0  0  0  0
    6.6576    5.6656    7.7344 O   0  0  0  0  0  0  0  0  0  0  0  0
    9.1761    7.3210    4.7048 C   0  0  2  0  0  0  0  0  0  0  0  0
    9.7934    8.2621    3.7767 N   0  0  0  0  0  0  0  0  0  0  0  0
   11.6350    8.9557    6.4256 C   0  0  2  0  0  0  0  0  0  0  0  0
    6.1704    4.8930    9.9900 C   0  0  2  0  0  0  0  0  0  0  0  0
    7.5440    4.4042   10.1863 N   0  0  0  0  0  0  0  0  0  0  0  0
    7.6323    7.3567    4.4495 C   0  0  0  0  0  0  0  0  0  0  0  0
   13.1333    8.5880    6.1306 C   0  0  2  0  0  0  0  0  0  0  0  0
   13.2334    7.9515    4.8674 O   0  0  0  0  0  0  0  0  0  0  0  0
    5.2827    3.7577    9.4353 C   0  0  1  0  0  0  0  0  0  0  0  0
    5.3013    2.6437   10.3427 O   0  0  0  0  0  0  0  0  0  0  0  0
    6.9709    6.3296    5.4296 C   0  0  2  0  0  0  0  0  0  0  0  0
    5.5061    6.3217    5.2401 N   0  0  0  0  0  0  0  0  0  0  0  0
   13.6586    7.6466    7.2827 C   0  0  1  0  0  0  0  0  0  0  0  0
   15.0793    7.2543    7.0398 N   0  0  0  0  0  0  0  0  0  0  0  0
    3.8486    4.3007    9.2302 C   0  0  2  0  0  0  0  0  0  0  0  0
    3.0119    3.2563    8.7032 O   0  0  0  0  0  0  0  0  0  0  0  0
    7.2844    6.6891    6.9045 C   0  0  2  0  0  0  0  0  0  0  0  0
   13.5266    8.3961    8.6525 C   0  0  1  0  0  0  0  0  0  0  0  0
   14.3295    9.5734    8.6326 O   0  0  0  0  0  0  0  0  0  0  0  0
    3.8847    5.5292    8.2432 C   0  0  2  0  0  0  0  0  0  0  0  0
    4.7620    6.5844    8.7863 O   0  0  0  0  0  0  0  0  0  0  0  0
    8.8193    6.7093    7.1131 C   0  0  2  0  0  0  0  0  0  0  0  0
    9.0832    7.0592    8.4678 O   0  0  0  0  0  0  0  0  0  0  0  0
   12.0310    8.7919    8.8628 C   0  0  0  0  0  0  0  0  0  0  0  0
   11.5415    9.6187    7.7335 O   0  0  0  0  0  0  0  0  0  0  0  0
    2.4740    6.1335    8.0185 C   0  0  2  0  0  0  0  0  0  0  0  0
    2.5421    7.1333    7.0051 O   0  0  0  0  0  0  0  0  0  0  0  0
    9.4962    7.7533    6.1946 C   0  0  1  0  0  0  0  0  0  0  0  0
   10.9177    7.6901    6.4586 O   0  0  0  0  0  0  0  0  0  0  0  0
    1.9356    6.7820    9.2832 C   0  0  0  0  0  0  0  0  0  0  0  0
   13.9941    7.5381    9.8217 C   0  0  0  0  0  0  0  0  0  0  0  0
   15.0865    6.0156    6.2382 C   0  0  0  0  0  0  0  0  0  0  0  0
  1  2  1  6  0  0  0
  1  6  1  0  0  0  0
  1 23  1  0  0  0  0
  3  4  1  6  0  0  0
  3  8  1  0  0  0  0
  3 30  1  0  0  0  0
  5  9  1  0  0  0  0
  5 27  1  0  0  0  0
  5 31  1  1  0  0  0
  6  7  1  6  0  0  0
  6 11  1  0  0  0  0
  8 13  1  0  0  0  0
  9 10  1  6  0  0  0
  9 15  1  0  0  0  0
 11 12  1  1  0  0  0
 11 17  1  0  0  0  0
 13 14  1  1  0  0  0
 13 19  1  0  0  0  0
 15 16  1  6  0  0  0
 15 20  1  0  0  0  0
 16 34  1  0  0  0  0
 17 18  1  6  0  0  0
 17 22  1  0  0  0  0
 19  2  1  1  0  0  0
 19 24  1  0  0  0  0
 20 21  1  6  0  0  0
 20 26  1  0  0  0  0
 20 33  1  0  0  0  0
 22 23  1  1  0  0  0
 22 28  1  0  0  0  0
 24 25  1  1  0  0  0
 24 30  1  0  0  0  0
 26 27  1  0  0  0  0
 28 29  1  6  0  0  0
 28 32  1  0  0  0  0
 30 31  1  6  0  0  0
M  END
>  <CHROM.1>
-152.56274242,-145.39252714,-89.65298304,-173.28439461,100.82596477,-156.72640493
8.57058756,6.73584802,7.55849609,-2.87364934,-0.20338385,-1.10347530

>  <Name>
ligand

>  <RI>
0

>  <Rbt.Current_Directory>
/home/itssahil/PROJECTS/Mol_Feturizer/New_Systems/rnas/3TD1

>  <Rbt.Executable>
rbdock ($Id: //depot/dev/client3/rdock/2013.1/src/exe/rbdock.cxx#4 $)

>  <Rbt.Library>
libRbt.so (2013.1, Build901 2013/11/27)

>  <Rbt.Parameter_File>
/export/apps/rDock/src/rDock_2013.1_src/data/scripts/dock_solv.prm

>  <Rbt.Receptor>
prm/pocket_docking_4.prm

>  <SCORE>
-18.3389

>  <SCORE.INTER>
-16.6779

>  <SCORE.INTER.CONST>
1

>  <SCORE.INTER.POLAR>
0

>  <SCORE.INTER.ROT>
6

>  <SCORE.INTER.SOLV>
19.7866

>  <SCORE.INTER.VDW>
-25.3142

>  <SCORE.INTER.norm>
-0.490527

>  <SCORE.INTRA>
-1.66099

>  <SCORE.INTRA.DIHEDRAL>
-3.37672

>  <SCORE.INTRA.DIHEDRAL.0>
19.5869

>  <SCORE.INTRA.POLAR>
0

>  <SCORE.INTRA.POLAR.0>
0

>  <SCORE.INTRA.REPUL>
0

>  <SCORE.INTRA.REPUL.0>
0

>  <SCORE.INTRA.SOLV>
0.0557617

>  <SCORE.INTRA.SOLV.lig_0>
-70.101

>  <SCORE.INTRA.VDW>
-0.000509355

>  <SCORE.INTRA.VDW.0>
-3.39718

>  <SCORE.INTRA.norm>
-0.0488526

>  <SCORE.RESTR>
0

>  <SCORE.RESTR.CAVITY>
0

>  <SCORE.RESTR.norm>
0

>  <SCORE.SYSTEM>
0

>  <SCORE.SYSTEM.CONST>
0

>  <SCORE.SYSTEM.DIHEDRAL>
0

>  <SCORE.SYSTEM.SOLV>
0

>  <SCORE.SYSTEM.norm>
0

>  <SCORE.heavy>
34

>  <SCORE.norm>
-0.53938

>  <RMSD>
0.556

$$$$
ligand
 OpenBabel11021811483D
libRbt.so/2013.1/901 2013/11/27
 34 36  0  0  0  0  0  0  0  0999 V2000
    6.1791    5.8435    9.3660 C   0  0  2  0  0  0  0  0  0  0  0  0
    6.7564    5.4419    8.1138 O   0  0  0  0  0  0  0  0  0  0  0  0
    9.1249    7.2749    5.0655 C   0  0  2  0  0  0  0  0  0  0  0  0
    9.6809    8.2642    4.1488 N   0  0  0  0  0  0  0  0  0  0  0  0
   11.5894    8.9338    6.6542 C   0  0  2  0  0  0  0  0  0  0  0  0
    6.0650    4.5700   10.2779 C   0  0  2  0  0  0  0  0  0  0  0  0
    7.3879    3.9788   10.5323 N   0  0  0  0  0  0  0  0  0  0  0  0
    7.5741    7.2611    4.8546 C   0  0  0  0  0  0  0  0  0  0  0  0
   13.0692    8.5834    6.2612 C   0  0  2  0  0  0  0  0  0  0  0  0
   13.0895    7.9074    5.0148 O   0  0  0  0  0  0  0  0  0  0  0  0
    5.1483    3.5324    9.5941 C   0  0  1  0  0  0  0  0  0  0  0  0
    5.0331    2.3672   10.4270 O   0  0  0  0  0  0  0  0  0  0  0  0
    6.9787    6.1828    5.8218 C   0  0  2  0  0  0  0  0  0  0  0  0
    5.5103    6.1264    5.6732 N   0  0  0  0  0  0  0  0  0  0  0  0
   13.6965    7.6903    7.4006 C   0  0  1  0  0  0  0  0  0  0  0  0
   15.1033    7.3157    7.0661 N   0  0  0  0  0  0  0  0  0  0  0  0
    3.7692    4.1821    9.3305 C   0  0  2  0  0  0  0  0  0  0  0  0
    2.9071    3.2300    8.6834 O   0  0  0  0  0  0  0  0  0  0  0  0
    7.3217    6.5111    7.2974 C   0  0  2  0  0  0  0  0  0  0  0  0
   13.6498    8.4823    8.7520 C   0  0  1  0  0  0  0  0  0  0  0  0
   14.4251    9.6724    8.6356 O   0  0  0  0  0  0  0  0  0  0  0  0
    3.9517    5.4624    8.4292 C   0  0  2  0  0  0  0  0  0  0  0  0
    4.8538    6.4216    9.0958 O   0  0  0  0  0  0  0  0  0  0  0  0
    8.8604    6.5818    7.4636 C   0  0  2  0  0  0  0  0  0  0  0  0
    9.1507    6.9021    8.8202 O   0  0  0  0  0  0  0  0  0  0  0  0
   12.1660    8.8578    9.0594 C   0  0  0  0  0  0  0  0  0  0  0  0
   11.5784    9.6379    7.9438 O   0  0  0  0  0  0  0  0  0  0  0  0
    2.6011    6.1729    8.1517 C   0  0  2  0  0  0  0  0  0  0  0  0
    2.7883    7.1752    7.1559 O   0  0  0  0  0  0  0  0  0  0  0  0
    9.4724    7.6757    6.5579 C   0  0  1  0  0  0  0  0  0  0  0  0
   10.9022    7.6574    6.7801 O   0  0  0  0  0  0  0  0  0  0  0  0
    2.0568    6.8467    9.4004 C   0  0  0  0  0  0  0  0  0  0  0  0
   14.2190    7.6719    9.9101 C   0  0  0  0  0  0  0  0  0  0  0  0
   15.0754    6.0639    6.2855 C   0  0  0  0  0  0  0  0  0  0  0  0
  1  2  1  6  0  0  0
  1  6  1  0  0  0  0
  1 23  1  0  0  0  0
  3  4  1  6  0  0  0
  3  8  1  0  0  0  0
  3 30  1  0  0  0  0
  5  9  1  0  0  0  0
  5 27  1  0  0  0  0
  5 31  1  1  0  0  0
  6  7  1  6  0  0  0
  6 11  1  0  0  0  0
  8 13  1  0  0  0  0
  9 10  1  6  0  0  0
  9 15  1  0  0  0  0
 11 12  1  1  0  0  0
 11 17  1  0  0  0  0
 13 14  1  1  0  0  0
 13 19  1  0  0  0  0
 15 16  1  6  0  0  0
 15 20  1  0  0  0  0
 16 34  1  0  0  0  0
 17 18  1  6  0  0  0
 17 22  1  0  0  0  0
 19  2  1  1  0  0  0
 19 24  1  0  0  0  0
 20 21  1  6  0  0  0
 20 26  1  0  0  0  0
 20 33  1  0  0  0  0
 22 23  1  1  0  0  0
 22 28  1  0  0  0  0
 24 25  1  1  0  0  0
 24 30  1  0  0  0  0
 26 27  1  0  0  0  0
 28 29  1  6  0  0  0
 28 32  1  0  0  0  0
 30 31  1  6  0  0  0
M  END
>  <CHROM.1>
-161.74997657,-141.46102933,-88.67686986,-170.04933597,95.87245772,-153.93019916
8.57888567,6.66249445,7.78074922,-2.84908289,-0.20547380,-1.04647151

>  <Name>
ligand

>  <RI>
0

>  <Rbt.Current_Directory>
/home/itssahil/PROJECTS/Mol_Feturizer/New_Systems/rnas/3TD1

>  <Rbt.Executable>
rbdock ($Id: //depot/dev/client3/rdock/2013.1/src/exe/rbdock.cxx#4 $)

>  <Rbt.Library>
libRbt.so (2013.1, Build901 2013/11/27)

>  <Rbt.Parameter_File>
/export/apps/rDock/src/rDock_2013.1_src/data/scripts/dock_solv.prm

>  <Rbt.Receptor>
prm/pocket_docking_2.prm

>  <SCORE>
-18.3565

>  <SCORE.INTER>
-16.3581

>  <SCORE.INTER.CONST>
1

>  <SCORE.INTER.POLAR>
0

>  <SCORE.INTER.ROT>
6

>  <SCORE.INTER.SOLV>
21.1263

>  <SCORE.INTER.VDW>
-25.5475

>  <SCORE.INTER.norm>
-0.481121

>  <SCORE.INTRA>
-2.00162

>  <SCORE.INTRA.DIHEDRAL>
-4.4381

>  <SCORE.INTRA.DIHEDRAL.0>
19.5869

>  <SCORE.INTRA.POLAR>
0

>  <SCORE.INTRA.POLAR.0>
0

>  <SCORE.INTRA.REPUL>
0

>  <SCORE.INTRA.REPUL.0>
0

>  <SCORE.INTRA.SOLV>
0.437171

>  <SCORE.INTRA.SOLV.lig_0>
-70.101

>  <SCORE.INTRA.VDW>
-0.00116062

>  <SCORE.INTRA.VDW.0>
-3.39718

>  <SCORE.INTRA.norm>
-0.0588713

>  <SCORE.RESTR>
0.00325826

>  <SCORE.RESTR.CAVITY>
0.00325826

>  <SCORE.RESTR.norm>
9.58312e-05

>  <SCORE.SYSTEM>
0

>  <SCORE.SYSTEM.CONST>
0

>  <SCORE.SYSTEM.DIHEDRAL>
0

>  <SCORE.SYSTEM.SOLV>
0

>  <SCORE.SYSTEM.norm>
0

>  <SCORE.heavy>
34

>  <SCORE.norm>
-0.539896

>  <RMSD>
0.597

$$$$
ligand
 OpenBabel11021811483D
libRbt.so/2013.1/901 2013/11/27
 34 36  0  0  0  0  0  0  0  0999 V2000
    6.2142    6.0322    9.0900 C   0  0  2  0  0  0  0  0  0  0  0  0
    6.7385    5.5910    7.8278 O   0  0  0  0  0  0  0  0  0  0  0  0
    9.0926    7.2901    4.6920 C   0  0  2  0  0  0  0  0  0  0  0  0
    9.6585    8.2439    3.7443 N   0  0  0  0  0  0  0  0  0  0  0  0
   11.6272    8.9174    6.3416 C   0  0  2  0  0  0  0  0  0  0  0  0
    6.1859    4.7983   10.0611 C   0  0  2  0  0  0  0  0  0  0  0  0
    7.5375    4.2567   10.2711 N   0  0  0  0  0  0  0  0  0  0  0  0
    7.5376    7.3232    4.5170 C   0  0  0  0  0  0  0  0  0  0  0  0
   13.1299    8.5665    6.0487 C   0  0  2  0  0  0  0  0  0  0  0  0
   13.2407    7.9448    4.7790 O   0  0  0  0  0  0  0  0  0  0  0  0
    5.2674    3.7056    9.4722 C   0  0  1  0  0  0  0  0  0  0  0  0
    5.2305    2.5763   10.3600 O   0  0  0  0  0  0  0  0  0  0  0  0
    6.9306    6.2826    5.5178 C   0  0  2  0  0  0  0  0  0  0  0  0
    5.4581    6.2717    5.4039 N   0  0  0  0  0  0  0  0  0  0  0  0
   13.6591    7.6173    7.1925 C   0  0  1  0  0  0  0  0  0  0  0  0
   15.0843    7.2404    6.9511 N   0  0  0  0  0  0  0  0  0  0  0  0
    3.8574    4.3037    9.2535 C   0  0  2  0  0  0  0  0  0  0  0  0
    2.9926    3.2995    8.6947 O   0  0  0  0  0  0  0  0  0  0  0  0
    7.3187    6.6262    6.9786 C   0  0  2  0  0  0  0  0  0  0  0  0
   13.5149    8.3505    8.5699 C   0  0  1  0  0  0  0  0  0  0  0  0
   14.3072    9.5351    8.5662 O   0  0  0  0  0  0  0  0  0  0  0  0
    3.9544    5.5467    8.2890 C   0  0  2  0  0  0  0  0  0  0  0  0
    4.8598    6.5600    8.8649 O   0  0  0  0  0  0  0  0  0  0  0  0
    8.8623    6.6495    7.1081 C   0  0  2  0  0  0  0  0  0  0  0  0
    9.1946    6.9847    8.4515 O   0  0  0  0  0  0  0  0  0  0  0  0
   12.0150    8.7304    8.7785 C   0  0  0  0  0  0  0  0  0  0  0  0
   11.5225    9.5651    7.6564 O   0  0  0  0  0  0  0  0  0  0  0  0
    2.5703    6.2057    8.0523 C   0  0  2  0  0  0  0  0  0  0  0  0
    2.6928    7.2240    7.0627 O   0  0  0  0  0  0  0  0  0  0  0  0
    9.4878    7.7063    6.1682 C   0  0  1  0  0  0  0  0  0  0  0  0
   10.9212    7.6452    6.3579 O   0  0  0  0  0  0  0  0  0  0  0  0
    2.0312    6.8456    9.3210 C   0  0  0  0  0  0  0  0  0  0  0  0
   13.9855    7.4839    9.7315 C   0  0  0  0  0  0  0  0  0  0  0  0
   15.1058    5.9934    6.1628 C   0  0  0  0  0  0  0  0  0  0  0  0
  1  2  1  6  0  0  0
  1  6  1  0  0  0  0
  1 23  1  0  0  0  0
  3  4  1  6  0  0  0
  3  8  1  0  0  0  0
  3 30  1  0  0  0  0
  5  9  1  0  0  0  0
  5 27  1  0  0  0  0
  5 31  1  1  0  0  0
  6  7  1  6  0  0  0
  6 11  1  0  0  0  0
  8 13  1  0  0  0  0
  9 10  1  6  0  0  0
  9 15  1  0  0  0  0
 11 12  1  1  0  0  0
 11 17  1  0  0  0  0
 13 14  1  1  0  0  0
 13 19  1  0  0  0  0
 15 16  1  6  0  0  0
 15 20  1  0  0  0  0
 16 34  1  0  0  0  0
 17 18  1  6  0  0  0
 17 22  1  0  0  0  0
 19  2  1  1  0  0  0
 19 24  1  0  0  0  0
 20 21  1  6  0  0  0
 20 26  1  0  0  0  0
 20 33  1  0  0  0  0
 22 23  1  1  0  0  0
 22 28  1  0  0  0  0
 24 25  1  1  0  0  0
 24 30  1  0  0  0  0
 26 27  1  0  0  0  0
 28 29  1  6  0  0  0
 28 32  1  0  0  0  0
 30 31  1  6  0  0  0
M  END
>  <CHROM.1>
-157.37520093,-141.96554870,-90.95905798,-173.57036570,102.55745667,-160.29118354
8.58064096,6.70400600,7.55647307,-2.85582117,-0.19067541,-1.08294577

>  <Name>
ligand

>  <RI>
0

>  <Rbt.Current_Directory>
/home/itssahil/PROJECTS/Mol_Feturizer/New_Systems/rnas/3TD1

>  <Rbt.Executable>
rbdock ($Id: //depot/dev/client3/rdock/2013.1/src/exe/rbdock.cxx#4 $)

>  <Rbt.Library>
libRbt.so (2013.1, Build901 2013/11/27)

>  <Rbt.Parameter_File>
/export/apps/rDock/src/rDock_2013.1_src/data/scripts/dock_solv.prm

>  <Rbt.Receptor>
prm/pocket_docking_4.prm

>  <SCORE>
-18.5746

>  <SCORE.INTER>
-16.507

>  <SCORE.INTER.CONST>
1

>  <SCORE.INTER.POLAR>
0

>  <SCORE.INTER.ROT>
6

>  <SCORE.INTER.SOLV>
19.9407

>  <SCORE.INTER.VDW>
-25.2516

>  <SCORE.INTER.norm>
-0.485501

>  <SCORE.INTRA>
-2.06753

>  <SCORE.INTRA.DIHEDRAL>
-3.95446

>  <SCORE.INTRA.DIHEDRAL.0>
19.5869

>  <SCORE.INTRA.POLAR>
0

>  <SCORE.INTRA.POLAR.0>
0

>  <SCORE.INTRA.REPUL>
0

>  <SCORE.INTRA.REPUL.0>
0

>  <SCORE.INTRA.SOLV>
0.122342

>  <SCORE.INTRA.SOLV.lig_0>
-70.101

>  <SCORE.INTRA.VDW>
-0.151467

>  <SCORE.INTRA.VDW.0>
-3.39718

>  <SCORE.INTRA.norm>
-0.0608096

>  <SCORE.RESTR>
0

>  <SCORE.RESTR.CAVITY>
0

>  <SCORE.RESTR.norm>
0

>  <SCORE.SYSTEM>
0

>  <SCORE.SYSTEM.CONST>
0

>  <SCORE.SYSTEM.DIHEDRAL>
0

>  <SCORE.SYSTEM.SOLV>
0

>  <SCORE.SYSTEM.norm>
0

>  <SCORE.heavy>
34

>  <SCORE.norm>
-0.546311

>  <RMSD>
0.609

$$$$
ligand
 OpenBabel11021811483D
libRbt.so/2013.1/901 2013/11/27
 34 36  0  0  0  0  0  0  0  0999 V2000
    6.1904    5.8260    9.3932 C   0  0  2  0  0  0  0  0  0  0  0  0
    6.7787    5.4248    8.1461 O   0  0  0  0  0  0  0  0  0  0  0  0
    9.0855    7.2701    5.0581 C   0  0  2  0  0  0  0  0  0  0  0  0
    9.6233    8.2632    4.1348 N   0  0  0  0  0  0  0  0  0  0  0  0
   11.5830    8.9205    6.6108 C   0  0  2  0  0  0  0  0  0  0  0  0
    6.0766    4.5538   10.3071 C   0  0  2  0  0  0  0  0  0  0  0  0
    7.4008    3.9704   10.5722 N   0  0  0  0  0  0  0  0  0  0  0  0
    7.5306    7.2588    4.8793 C   0  0  0  0  0  0  0  0  0  0  0  0
   13.0671    8.5723    6.2323 C   0  0  2  0  0  0  0  0  0  0  0  0
   13.1000    7.8900    4.9896 O   0  0  0  0  0  0  0  0  0  0  0  0
    5.1705    3.5098    9.6190 C   0  0  1  0  0  0  0  0  0  0  0  0
    5.0555    2.3458   10.4536 O   0  0  0  0  0  0  0  0  0  0  0  0
    6.9543    6.1764    5.8535 C   0  0  2  0  0  0  0  0  0  0  0  0
    5.4831    6.1221    5.7351 N   0  0  0  0  0  0  0  0  0  0  0  0
   13.6870    7.6867    7.3816 C   0  0  1  0  0  0  0  0  0  0  0  0
   15.0977    7.3143    7.0611 N   0  0  0  0  0  0  0  0  0  0  0  0
    3.7898    4.1515    9.3440 C   0  0  2  0  0  0  0  0  0  0  0  0
    2.9374    3.1933    8.6929 O   0  0  0  0  0  0  0  0  0  0  0  0
    7.3281    6.4974    7.3232 C   0  0  2  0  0  0  0  0  0  0  0  0
   13.6266    8.4854    8.7285 C   0  0  1  0  0  0  0  0  0  0  0  0
   14.3995    9.6771    8.6127 O   0  0  0  0  0  0  0  0  0  0  0  0
    3.9718    5.4308    8.4413 C   0  0  2  0  0  0  0  0  0  0  0  0
    4.8639    6.3963    9.1122 O   0  0  0  0  0  0  0  0  0  0  0  0
    8.8699    6.5658    7.4578 C   0  0  2  0  0  0  0  0  0  0  0  0
    9.1886    6.8795    8.8097 O   0  0  0  0  0  0  0  0  0  0  0  0
   12.1391    8.8583    9.0213 C   0  0  0  0  0  0  0  0  0  0  0  0
   11.5590    9.6311    7.8967 O   0  0  0  0  0  0  0  0  0  0  0  0
    2.6194    6.1333    8.1526 C   0  0  2  0  0  0  0  0  0  0  0  0
    2.8158    7.1608    7.1846 O   0  0  0  0  0  0  0  0  0  0  0  0
    9.4642    7.6636    6.5449 C   0  0  1  0  0  0  0  0  0  0  0  0
   10.8983    7.6428    6.7373 O   0  0  0  0  0  0  0  0  0  0  0  0
    2.0422    6.7717    9.4052 C   0  0  0  0  0  0  0  0  0  0  0  0
   14.1880    7.6825    9.8956 C   0  0  0  0  0  0  0  0  0  0  0  0
   15.0780    6.0794    6.2539 C   0  0  0  0  0  0  0  0  0  0  0  0
  1  2  1  6  0  0  0
  1  6  1  0  0  0  0
  1 23  1  0  0  0  0
  3  4  1  6  0  0  0
  3  8  1  0  0  0  0
  3 30  1  0  0  0  0
  5  9  1  0  0  0  0
  5 27  1  0  0  0  0
  5 31  1  1  0  0  0
  6  7  1  6  0  0  0
  6 11  1  0  0  0  0
  8 13  1  0  0  0  0
  9 10  1  6  0  0  0
  9 15  1  0  0  0  0
 11 12  1  1  0  0  0
 11 17  1  0  0  0  0
 13 14  1  1  0  0  0
 13 19  1  0  0  0  0
 15 16  1  6  0  0  0
 15 20  1  0  0  0  0
 16 34  1  0  0  0  0
 17 18  1  6  0  0  0
 17 22  1  0  0  0  0
 19  2  1  1  0  0  0
 19 24  1  0  0  0  0
 20 21  1  6  0  0  0
 20 26  1  0  0  0  0
 20 33  1  0  0  0  0
 22 23  1  1  0  0  0
 22 28  1  0  0  0  0
 24 25  1  1  0  0  0
 24 30  1  0  0  0  0
 26 27  1  0  0  0  0
 28 29  1  6  0  0  0
 28 32  1  0  0  0  0
 30 31  1  6  0  0  0
M  END
>  <CHROM.1>
-162.54054374,-139.58589950,-87.08928345,-171.73552537,96.21312361,-155.83708665
8.57721352,6.64845296,7.78101130,-2.84183054,-0.20459487,-1.04186817

>  <Name>
ligand

>  <RI>
0

>  <Rbt.Current_Directory>
/home/itssahil/PROJECTS/Mol_Feturizer/New_Systems/rnas/3TD1

>  <Rbt.Executable>
rbdock ($Id: //depot/dev/client3/rdock/2013.1/src/exe/rbdock.cxx#4 $)

>  <Rbt.Library>
libRbt.so (2013.1, Build901 2013/11/27)

>  <Rbt.Parameter_File>
/export/apps/rDock/src/rDock_2013.1_src/data/scripts/dock_solv.prm

>  <Rbt.Receptor>
prm/pocket_docking_2.prm

>  <SCORE>
-18.4544

>  <SCORE.INTER>
-16.4314

>  <SCORE.INTER.CONST>
1

>  <SCORE.INTER.POLAR>
0

>  <SCORE.INTER.ROT>
6

>  <SCORE.INTER.SOLV>
21.1074

>  <SCORE.INTER.VDW>
-25.5901

>  <SCORE.INTER.norm>
-0.483275

>  <SCORE.INTRA>
-2.03222

>  <SCORE.INTRA.DIHEDRAL>
-4.69392

>  <SCORE.INTRA.DIHEDRAL.0>
19.5869

>  <SCORE.INTRA.POLAR>
0

>  <SCORE.INTRA.POLAR.0>
0

>  <SCORE.INTRA.REPUL>
0

>  <SCORE.INTRA.REPUL.0>
0

>  <SCORE.INTRA.SOLV>
0.533363

>  <SCORE.INTRA.SOLV.lig_0>
-70.101

>  <SCORE.INTRA.VDW>
0.048063

>  <SCORE.INTRA.VDW.0>
-3.39718

>  <SCORE.INTRA.norm>
-0.0597711

>  <SCORE.RESTR>
0.00914906

>  <SCORE.RESTR.CAVITY>
0.00914906

>  <SCORE.RESTR.norm>
0.00026909

>  <SCORE.SYSTEM>
0

>  <SCORE.SYSTEM.CONST>
0

>  <SCORE.SYSTEM.DIHEDRAL>
0

>  <SCORE.SYSTEM.SOLV>
0

>  <SCORE.SYSTEM.norm>
0

>  <SCORE.heavy>
34

>  <SCORE.norm>
-0.542777

>  <RMSD>
0.621

$$$$
ligand
 OpenBabel11021811483D
libRbt.so/2013.1/901 2013/11/27
 34 36  0  0  0  0  0  0  0  0999 V2000
    6.1734    6.1013    8.9499 C   0  0  2  0  0  0  0  0  0  0  0  0
    6.7023    5.6554    7.6914 O   0  0  0  0  0  0  0  0  0  0  0  0
    9.1106    7.3292    4.5833 C   0  0  2  0  0  0  0  0  0  0  0  0
    9.6975    8.2768    3.6422 N   0  0  0  0  0  0  0  0  0  0  0  0
   11.6471    8.9270    6.2302 C   0  0  2  0  0  0  0  0  0  0  0  0
    6.1707    4.8783    9.9353 C   0  0  2  0  0  0  0  0  0  0  0  0
    7.5327    4.3644   10.1474 N   0  0  0  0  0  0  0  0  0  0  0  0
    7.5582    7.3786    4.3901 C   0  0  0  0  0  0  0  0  0  0  0  0
   13.1532    8.5462    5.9983 C   0  0  2  0  0  0  0  0  0  0  0  0
   13.2951    7.8767    4.7564 O   0  0  0  0  0  0  0  0  0  0  0  0
    5.2711    3.7620    9.3617 C   0  0  1  0  0  0  0  0  0  0  0  0
    5.2577    2.6425   10.2624 O   0  0  0  0  0  0  0  0  0  0  0  0
    6.9287    6.3445    5.3837 C   0  0  2  0  0  0  0  0  0  0  0  0
    5.4575    6.3490    5.2526 N   0  0  0  0  0  0  0  0  0  0  0  0
   13.6330    7.6332    7.1924 C   0  0  1  0  0  0  0  0  0  0  0  0
   15.0596    7.2295    7.0104 N   0  0  0  0  0  0  0  0  0  0  0  0
    3.8497    4.3312    9.1402 C   0  0  2  0  0  0  0  0  0  0  0  0
    3.0021    3.3048    8.5956 O   0  0  0  0  0  0  0  0  0  0  0  0
    7.3032    6.6843    6.8490 C   0  0  2  0  0  0  0  0  0  0  0  0
   13.4559    8.4187    8.5368 C   0  0  1  0  0  0  0  0  0  0  0  0
   14.2644    9.5920    8.5150 O   0  0  0  0  0  0  0  0  0  0  0  0
    3.9208    5.5647    8.1613 C   0  0  2  0  0  0  0  0  0  0  0  0
    4.8088    6.6012    8.7228 O   0  0  0  0  0  0  0  0  0  0  0  0
    8.8454    6.6914    6.9965 C   0  0  2  0  0  0  0  0  0  0  0  0
    9.1654    7.0233    8.3437 O   0  0  0  0  0  0  0  0  0  0  0  0
   11.9557    8.8252    8.6833 C   0  0  0  0  0  0  0  0  0  0  0  0
   11.5103    9.6241    7.5164 O   0  0  0  0  0  0  0  0  0  0  0  0
    2.5241    6.1950    7.9211 C   0  0  2  0  0  0  0  0  0  0  0  0
    2.6264    7.2096    6.9255 O   0  0  0  0  0  0  0  0  0  0  0  0
    9.4929    7.7415    6.0640 C   0  0  1  0  0  0  0  0  0  0  0  0
   10.9232    7.6654    6.2704 O   0  0  0  0  0  0  0  0  0  0  0  0
    1.9728    6.8317    9.1862 C   0  0  0  0  0  0  0  0  0  0  0  0
   13.8776    7.5896    9.7437 C   0  0  0  0  0  0  0  0  0  0  0  0
   15.0880    5.9490    6.2780 C   0  0  0  0  0  0  0  0  0  0  0  0
  1  2  1  6  0  0  0
  1  6  1  0  0  0  0
  1 23  1  0  0  0  0
  3  4  1  6  0  0  0
  3  8  1  0  0  0  0
  3 30  1  0  0  0  0
  5  9  1  0  0  0  0
  5 27  1  0  0  0  0
  5 31  1  1  0  0  0
  6  7  1  6  0  0  0
  6 11  1  0  0  0  0
  8 13  1  0  0  0  0
  9 10  1  6  0  0  0
  9 15  1  0  0  0  0
 11 12  1  1  0  0  0
 11 17  1  0  0  0  0
 13 14  1  1  0  0  0
 13 19  1  0  0  0  0
 15 16  1  6  0  0  0
 15 20  1  0  0  0  0
 16 34  1  0  0  0  0
 17 18  1  6  0  0  0
 17 22  1  0  0  0  0
 19  2  1  1  0  0  0
 19 24  1  0  0  0  0
 20 21  1  6  0  0  0
 20 26  1  0  0  0  0
 20 33  1  0  0  0  0
 22 23  1  1  0  0  0
 22 28  1  0  0  0  0
 24 25  1  1  0  0  0
 24 30  1  0  0  0  0
 26 27  1  0  0  0  0
 28 29  1  6  0  0  0
 28 32  1  0  0  0  0
 30 31  1  6  0  0  0
M  END
>  <CHROM.1>
-155.29708195,-142.23715015,-91.36533555,-173.92647802,101.12377719,-161.68095348
8.56419990,6.73941642,7.46560461,-2.86702094,-0.19531008,-1.08814614

>  <Name>
ligand

>  <RI>
0

>  <Rbt.Current_Directory>
/home/itssahil/PROJECTS/Mol_Feturizer/New_Systems/rnas/3TD1

>  <Rbt.Executable>
rbdock ($Id: //depot/dev/client3/rdock/2013.1/src/exe/rbdock.cxx#4 $)

>  <Rbt.Library>
libRbt.so (2013.1, Build901 2013/11/27)

>  <Rbt.Parameter_File>
/export/apps/rDock/src/rDock_2013.1_src/data/scripts/dock_solv.prm

>  <Rbt.Receptor>
prm/pocket_docking_4.prm

>  <SCORE>
-18.3228

>  <SCORE.INTER>
-16.1811

>  <SCORE.INTER.CONST>
1

>  <SCORE.INTER.POLAR>
0

>  <SCORE.INTER.ROT>
6

>  <SCORE.INTER.SOLV>
19.6587

>  <SCORE.INTER.VDW>
-24.9403

>  <SCORE.INTER.norm>
-0.475914

>  <SCORE.INTRA>
-2.14175

>  <SCORE.INTRA.DIHEDRAL>
-4.07053

>  <SCORE.INTRA.DIHEDRAL.0>
19.5869

>  <SCORE.INTRA.POLAR>
0

>  <SCORE.INTRA.POLAR.0>
0

>  <SCORE.INTRA.REPUL>
0

>  <SCORE.INTRA.REPUL.0>
0

>  <SCORE.INTRA.SOLV>
0.0877446

>  <SCORE.INTRA.SOLV.lig_0>
-70.101

>  <SCORE.INTRA.VDW>
-0.150357

>  <SCORE.INTRA.VDW.0>
-3.39718

>  <SCORE.INTRA.norm>
-0.0629927

>  <SCORE.RESTR>
0

>  <SCORE.RESTR.CAVITY>
0

>  <SCORE.RESTR.norm>
0

>  <SCORE.SYSTEM>
0

>  <SCORE.SYSTEM.CONST>
0

>  <SCORE.SYSTEM.DIHEDRAL>
0

>  <SCORE.SYSTEM.SOLV>
0

>  <SCORE.SYSTEM.norm>
0

>  <SCORE.heavy>
34

>  <SCORE.norm>
-0.538907

>  <RMSD>
0.629

$$$$
ligand
 OpenBabel11021811483D
libRbt.so/2013.1/901 2013/11/27
 34 36  0  0  0  0  0  0  0  0999 V2000
    6.1757    6.0021    9.0974 C   0  0  2  0  0  0  0  0  0  0  0  0
    6.7112    5.5754    7.8350 O   0  0  0  0  0  0  0  0  0  0  0  0
    9.0475    7.3177    4.7096 C   0  0  2  0  0  0  0  0  0  0  0  0
    9.6083    8.2846    3.7723 N   0  0  0  0  0  0  0  0  0  0  0  0
   11.6043    8.9099    6.2739 C   0  0  2  0  0  0  0  0  0  0  0  0
    6.1540    4.7608   10.0593 C   0  0  2  0  0  0  0  0  0  0  0  0
    7.5097    4.2308   10.2728 N   0  0  0  0  0  0  0  0  0  0  0  0
    7.4915    7.3542    4.5445 C   0  0  0  0  0  0  0  0  0  0  0  0
   13.1092    8.5265    6.0381 C   0  0  2  0  0  0  0  0  0  0  0  0
   13.2391    7.8122    4.8200 O   0  0  0  0  0  0  0  0  0  0  0  0
    5.2495    3.6637    9.4573 C   0  0  1  0  0  0  0  0  0  0  0  0
    5.2187    2.5275   10.3365 O   0  0  0  0  0  0  0  0  0  0  0  0
    6.8899    6.2998    5.5340 C   0  0  2  0  0  0  0  0  0  0  0  0
    5.4167    6.2913    5.4288 N   0  0  0  0  0  0  0  0  0  0  0  0
   13.6070    7.6601    7.2591 C   0  0  1  0  0  0  0  0  0  0  0  0
   15.0331    7.2553    7.0750 N   0  0  0  0  0  0  0  0  0  0  0  0
    3.8350    4.2497    9.2351 C   0  0  2  0  0  0  0  0  0  0  0  0
    2.9831    3.2413    8.6641 O   0  0  0  0  0  0  0  0  0  0  0  0
    7.2870    6.6223    6.9972 C   0  0  2  0  0  0  0  0  0  0  0  0
   13.4426    8.4940    8.5757 C   0  0  1  0  0  0  0  0  0  0  0  0
   14.2459    9.6688    8.5009 O   0  0  0  0  0  0  0  0  0  0  0  0
    3.9252    5.5007    8.2803 C   0  0  2  0  0  0  0  0  0  0  0  0
    4.8175    6.5184    8.8687 O   0  0  0  0  0  0  0  0  0  0  0  0
    8.8313    6.6428    7.1177 C   0  0  2  0  0  0  0  0  0  0  0  0
    9.1720    6.9585    8.4637 O   0  0  0  0  0  0  0  0  0  0  0  0
   11.9426    8.8999    8.7253 C   0  0  0  0  0  0  0  0  0  0  0  0
   11.4799    9.6535    7.5351 O   0  0  0  0  0  0  0  0  0  0  0  0
    2.5361    6.1479    8.0407 C   0  0  2  0  0  0  0  0  0  0  0  0
    2.6507    7.1625    7.0464 O   0  0  0  0  0  0  0  0  0  0  0  0
    9.4519    7.7125    6.1893 C   0  0  1  0  0  0  0  0  0  0  0  0
   10.8864    7.6479    6.3693 O   0  0  0  0  0  0  0  0  0  0  0  0
    1.9922    6.7895    9.3065 C   0  0  0  0  0  0  0  0  0  0  0  0
   13.8823    7.7117    9.8071 C   0  0  0  0  0  0  0  0  0  0  0  0
   15.0606    5.9925    6.3124 C   0  0  0  0  0  0  0  0  0  0  0  0
  1  2  1  6  0  0  0
  1  6  1  0  0  0  0
  1 23  1  0  0  0  0
  3  4  1  6  0  0  0
  3  8  1  0  0  0  0
  3 30  1  0  0  0  0
  5  9  1  0  0  0  0
  5 27  1  0  0  0  0
  5 31  1  1  0  0  0
  6  7  1  6  0  0  0
  6 11  1  0  0  0  0
  8 13  1  0  0  0  0
  9 10  1  6  0  0  0
  9 15  1  0  0  0  0
 11 12  1  1  0  0  0
 11 17  1  0  0  0  0
 13 14  1  1  0  0  0
 13 19  1  0  0  0  0
 15 16  1  6  0  0  0
 15 20  1  0  0  0  0
 16 34  1  0  0  0  0
 17 18  1  6  0  0  0
 17 22  1  0  0  0  0
 19  2  1  1  0  0  0
 19 24  1  0  0  0  0
 20 21  1  6  0  0  0
 20 26  1  0  0  0  0
 20 33  1  0  0  0  0
 22 23  1  1  0  0  0
 22 28  1  0  0  0  0
 24 25  1  1  0  0  0
 24 30  1  0  0  0  0
 26 27  1  0  0  0  0
 28 29  1  6  0  0  0
 28 32  1  0  0  0  0
 30 31  1  6  0  0  0
M  END
>  <CHROM.1>
-157.32582693,-141.01413105,-87.72588846,-172.80335069,98.41588381,-162.20612177
8.54261555,6.70861336,7.56222045,-2.85151020,-0.19863677,-1.06877933

>  <Name>
ligand

>  <RI>
0

>  <Rbt.Current_Directory>
/home/itssahil/PROJECTS/Mol_Feturizer/New_Systems/rnas/3TD1

>  <Rbt.Executable>
rbdock ($Id: //depot/dev/client3/rdock/2013.1/src/exe/rbdock.cxx#4 $)

>  <Rbt.Library>
libRbt.so (2013.1, Build901 2013/11/27)

>  <Rbt.Parameter_File>
/export/apps/rDock/src/rDock_2013.1_src/data/scripts/dock_solv.prm

>  <Rbt.Receptor>
prm/pocket_docking_3.prm

>  <SCORE>
-18.4789

>  <SCORE.INTER>
-16.2003

>  <SCORE.INTER.CONST>
1

>  <SCORE.INTER.POLAR>
0

>  <SCORE.INTER.ROT>
6

>  <SCORE.INTER.SOLV>
20.0412

>  <SCORE.INTER.VDW>
-25.0806

>  <SCORE.INTER.norm>
-0.47648

>  <SCORE.INTRA>
-2.27947

>  <SCORE.INTRA.DIHEDRAL>
-4.80058

>  <SCORE.INTRA.DIHEDRAL.0>
19.5869

>  <SCORE.INTRA.POLAR>
0

>  <SCORE.INTRA.POLAR.0>
0

>  <SCORE.INTRA.REPUL>
0

>  <SCORE.INTRA.REPUL.0>
0

>  <SCORE.INTRA.SOLV>
0.170924

>  <SCORE.INTRA.SOLV.lig_0>
-70.101

>  <SCORE.INTRA.VDW>
0.0353597

>  <SCORE.INTRA.VDW.0>
-3.39718

>  <SCORE.INTRA.norm>
-0.0670432

>  <SCORE.RESTR>
0.000860663

>  <SCORE.RESTR.CAVITY>
0.000860663

>  <SCORE.RESTR.norm>
2.53136e-05

>  <SCORE.SYSTEM>
0

>  <SCORE.SYSTEM.CONST>
0

>  <SCORE.SYSTEM.DIHEDRAL>
0

>  <SCORE.SYSTEM.SOLV>
0

>  <SCORE.SYSTEM.norm>
0

>  <SCORE.heavy>
34

>  <SCORE.norm>
-0.543498

>  <RMSD>
0.634

$$$$
ligand
 OpenBabel11021811483D
libRbt.so/2013.1/901 2013/11/27
 34 36  0  0  0  0  0  0  0  0999 V2000
    5.9904    6.1952    8.9534 C   0  0  2  0  0  0  0  0  0  0  0  0
    6.4302    5.7768    7.6519 O   0  0  0  0  0  0  0  0  0  0  0  0
    9.1917    7.3717    4.8072 C   0  0  2  0  0  0  0  0  0  0  0  0
    9.8852    8.2943    3.9151 N   0  0  0  0  0  0  0  0  0  0  0  0
   11.5272    9.0210    6.6166 C   0  0  2  0  0  0  0  0  0  0  0  0
    6.2519    5.0151    9.9561 C   0  0  2  0  0  0  0  0  0  0  0  0
    7.6834    4.6820   10.0224 N   0  0  0  0  0  0  0  0  0  0  0  0
    7.6739    7.4048    4.4264 C   0  0  0  0  0  0  0  0  0  0  0  0
   13.0018    8.6206    6.2530 C   0  0  2  0  0  0  0  0  0  0  0  0
   13.0288    7.9771    4.9897 O   0  0  0  0  0  0  0  0  0  0  0  0
    5.4444    3.7769    9.5098 C   0  0  1  0  0  0  0  0  0  0  0  0
    5.6729    2.6952   10.4276 O   0  0  0  0  0  0  0  0  0  0  0  0
    6.9320    6.3972    5.3683 C   0  0  2  0  0  0  0  0  0  0  0  0
    5.4874    6.3878    5.0604 N   0  0  0  0  0  0  0  0  0  0  0  0
   13.5613    7.6730    7.3838 C   0  0  1  0  0  0  0  0  0  0  0  0
   14.9604    7.2498    7.0761 N   0  0  0  0  0  0  0  0  0  0  0  0
    3.9463    4.1571    9.4399 C   0  0  2  0  0  0  0  0  0  0  0  0
    3.1818    3.0154    9.0147 O   0  0  0  0  0  0  0  0  0  0  0  0
    7.1255    6.7837    6.8569 C   0  0  2  0  0  0  0  0  0  0  0  0
   13.5098    8.4306    8.7545 C   0  0  1  0  0  0  0  0  0  0  0  0
   14.3353    9.5906    8.6909 O   0  0  0  0  0  0  0  0  0  0  0  0
    3.7516    5.3563    8.4356 C   0  0  2  0  0  0  0  0  0  0  0  0
    4.5566    6.5135    8.8728 O   0  0  0  0  0  0  0  0  0  0  0  0
    8.6384    6.8057    7.1893 C   0  0  2  0  0  0  0  0  0  0  0  0
    8.7922    7.1804    8.5543 O   0  0  0  0  0  0  0  0  0  0  0  0
   12.0345    8.8587    9.0331 C   0  0  0  0  0  0  0  0  0  0  0  0
   11.5095    9.6911    7.9241 O   0  0  0  0  0  0  0  0  0  0  0  0
    2.2680    5.7995    8.3431 C   0  0  2  0  0  0  0  0  0  0  0  0
    1.4501    4.6645    8.0711 O   0  0  0  0  0  0  0  0  0  0  0  0
    9.3908    7.8313    6.3098 C   0  0  1  0  0  0  0  0  0  0  0  0
   10.7859    7.7711    6.6897 O   0  0  0  0  0  0  0  0  0  0  0  0
    2.0549    6.8105    7.2287 C   0  0  0  0  0  0  0  0  0  0  0  0
   14.0140    7.5676    9.9047 C   0  0  0  0  0  0  0  0  0  0  0  0
   14.9047    5.9891    6.3115 C   0  0  0  0  0  0  0  0  0  0  0  0
  1  2  1  6  0  0  0
  1  6  1  0  0  0  0
  1 23  1  0  0  0  0
  3  4  1  6  0  0  0
  3  8  1  0  0  0  0
  3 30  1  0  0  0  0
  5  9  1  0  0  0  0
  5 27  1  0  0  0  0
  5 31  1  1  0  0  0
  6  7  1  6  0  0  0
  6 11  1  0  0  0  0
  8 13  1  0  0  0  0
  9 10  1  6  0  0  0
  9 15  1  0  0  0  0
 11 12  1  1  0  0  0
 11 17  1  0  0  0  0
 13 14  1  6  0  0  0
 13 19  1  0  0  0  0
 15 16  1  6  0  0  0
 15 20  1  0  0  0  0
 16 34  1  0  0  0  0
 17 18  1  6  0  0  0
 17 22  1  0  0  0  0
 19  2  1  1  0  0  0
 19 24  1  0  0  0  0
 20 21  1  6  0  0  0
 20 26  1  0  0  0  0
 20 33  1  0  0  0  0
 22 23  1  1  0  0  0
 22 28  1  0  0  0  0
 24 25  1  1  0  0  0
 24 30  1  0  0  0  0
 26 27  1  0  0  0  0
 28 29  1  6  0  0  0
 28 32  1  0  0  0  0
 30 31  1  1  0  0  0
M  END
>  <CHROM.1>
-139.66773768,-154.64962987,-91.10900779,-52.07326897,97.35767178,-148.37066708
8.49309115,6.67801813,7.60831942,-2.88147631,-0.24324025,-1.11086852

>  <Name>
ligand

>  <RI>
0

>  <Rbt.Current_Directory>
/home/itssahil/PROJECTS/Mol_Feturizer/New_Systems/rnas/3TD1

>  <Rbt.Executable>
rbdock ($Id: //depot/dev/client3/rdock/2013.1/src/exe/rbdock.cxx#4 $)

>  <Rbt.Library>
libRbt.so (2013.1, Build901 2013/11/27)

>  <Rbt.Parameter_File>
/export/apps/rDock/src/rDock_2013.1_src/data/scripts/dock_solv.prm

>  <Rbt.Receptor>
prm/pocket_docking_4.prm

>  <SCORE>
-17.0696

>  <SCORE.INTER>
-16.3079

>  <SCORE.INTER.CONST>
1

>  <SCORE.INTER.POLAR>
0

>  <SCORE.INTER.ROT>
6

>  <SCORE.INTER.SOLV>
18.2021

>  <SCORE.INTER.VDW>
-24.5393

>  <SCORE.INTER.norm>
-0.479644

>  <SCORE.INTRA>
-0.761738

>  <SCORE.INTRA.DIHEDRAL>
-1.6858

>  <SCORE.INTRA.DIHEDRAL.0>
19.5869

>  <SCORE.INTRA.POLAR>
0

>  <SCORE.INTRA.POLAR.0>
0

>  <SCORE.INTRA.REPUL>
0

>  <SCORE.INTRA.REPUL.0>
0

>  <SCORE.INTRA.SOLV>
0.411319

>  <SCORE.INTRA.SOLV.lig_0>
-70.101

>  <SCORE.INTRA.VDW>
-0.1245

>  <SCORE.INTRA.VDW.0>
-3.39718

>  <SCORE.INTRA.norm>
-0.0224041

>  <SCORE.RESTR>
0

>  <SCORE.RESTR.CAVITY>
0

>  <SCORE.RESTR.norm>
0

>  <SCORE.SYSTEM>
0

>  <SCORE.SYSTEM.CONST>
0

>  <SCORE.SYSTEM.DIHEDRAL>
0

>  <SCORE.SYSTEM.SOLV>
0

>  <SCORE.SYSTEM.norm>
0

>  <SCORE.heavy>
34

>  <SCORE.norm>
-0.502048

>  <RMSD>
0.643

$$$$
ligand
 OpenBabel11021811483D
libRbt.so/2013.1/901 2013/11/27
 34 36  0  0  0  0  0  0  0  0999 V2000
    6.2914    5.8729    9.2981 C   0  0  2  0  0  0  0  0  0  0  0  0
    6.8447    5.4667    8.0366 O   0  0  0  0  0  0  0  0  0  0  0  0
    9.0234    7.2954    4.8475 C   0  0  2  0  0  0  0  0  0  0  0  0
    9.5312    8.2862    3.9049 N   0  0  0  0  0  0  0  0  0  0  0  0
   11.6186    8.9012    6.3875 C   0  0  2  0  0  0  0  0  0  0  0  0
    6.2239    4.6088   10.2276 C   0  0  2  0  0  0  0  0  0  0  0  0
    7.5636    4.0453   10.4556 N   0  0  0  0  0  0  0  0  0  0  0  0
    7.4615    7.3132    4.7487 C   0  0  0  0  0  0  0  0  0  0  0  0
   13.1183    8.5620    6.0669 C   0  0  2  0  0  0  0  0  0  0  0  0
   13.2088    7.9260    4.8027 O   0  0  0  0  0  0  0  0  0  0  0  0
    5.3101    3.5462    9.5793 C   0  0  1  0  0  0  0  0  0  0  0  0
    5.2375    2.3894   10.4286 O   0  0  0  0  0  0  0  0  0  0  0  0
    6.9162    6.2334    5.7435 C   0  0  2  0  0  0  0  0  0  0  0  0
    5.4401    6.2064    5.7004 N   0  0  0  0  0  0  0  0  0  0  0  0
   13.6815    7.6323    7.2105 C   0  0  1  0  0  0  0  0  0  0  0  0
   15.1051    7.2670    6.9434 N   0  0  0  0  0  0  0  0  0  0  0  0
    3.9129    4.1671    9.3428 C   0  0  2  0  0  0  0  0  0  0  0  0
    3.0529    3.1913    8.7289 O   0  0  0  0  0  0  0  0  0  0  0  0
    7.3706    6.5359    7.1943 C   0  0  2  0  0  0  0  0  0  0  0  0
   13.5588    8.3807    8.5818 C   0  0  1  0  0  0  0  0  0  0  0  0
   14.3385    9.5732    8.5470 O   0  0  0  0  0  0  0  0  0  0  0  0
    4.0489    5.4393    8.4222 C   0  0  2  0  0  0  0  0  0  0  0  0
    4.9491    6.4231    9.0545 O   0  0  0  0  0  0  0  0  0  0  0  0
    8.9183    6.5757    7.2500 C   0  0  2  0  0  0  0  0  0  0  0  0
    9.3115    6.8727    8.5859 O   0  0  0  0  0  0  0  0  0  0  0  0
   12.0598    8.7479    8.8176 C   0  0  0  0  0  0  0  0  0  0  0  0
   11.5350    9.5638    7.6963 O   0  0  0  0  0  0  0  0  0  0  0  0
    2.6787    6.1213    8.1703 C   0  0  2  0  0  0  0  0  0  0  0  0
    2.8251    7.1242    7.1684 O   0  0  0  0  0  0  0  0  0  0  0  0
    9.4849    7.6700    6.3156 C   0  0  1  0  0  0  0  0  0  0  0  0
   10.9264    7.6221    6.4340 O   0  0  0  0  0  0  0  0  0  0  0  0
    2.1460    6.7875    9.4281 C   0  0  0  0  0  0  0  0  0  0  0  0
   14.0629    7.5332    9.7434 C   0  0  0  0  0  0  0  0  0  0  0  0
   15.1235    5.9999    6.1877 C   0  0  0  0  0  0  0  0  0  0  0  0
  1  2  1  6  0  0  0
  1  6  1  0  0  0  0
  1 23  1  0  0  0  0
  3  4  1  6  0  0  0
  3  8  1  0  0  0  0
  3 30  1  0  0  0  0
  5  9  1  0  0  0  0
  5 27  1  0  0  0  0
  5 31  1  1  0  0  0
  6  7  1  6  0  0  0
  6 11  1  0  0  0  0
  8 13  1  0  0  0  0
  9 10  1  6  0  0  0
  9 15  1  0  0  0  0
 11 12  1  1  0  0  0
 11 17  1  0  0  0  0
 13 14  1  1  0  0  0
 13 19  1  0  0  0  0
 15 16  1  6  0  0  0
 15 20  1  0  0  0  0
 16 34  1  0  0  0  0
 17 18  1  6  0  0  0
 17 22  1  0  0  0  0
 19  2  1  1  0  0  0
 19 24  1  0  0  0  0
 20 21  1  6  0  0  0
 20 26  1  0  0  0  0
 20 33  1  0  0  0  0
 22 23  1  1  0  0  0
 22 28  1  0  0  0  0
 24 25  1  1  0  0  0
 24 30  1  0  0  0  0
 26 27  1  0  0  0  0
 28 29  1  6  0  0  0
 28 32  1  0  0  0  0
 30 31  1  6  0  0  0
M  END
>  <CHROM.1>
-161.68738469,-137.76393024,-91.81243845,-170.65567786,100.91146626,-162.13850372
8.61385143,6.64403452,7.66420269,-2.82974807,-0.18801997,-1.03741789

>  <Name>
ligand

>  <RI>
0

>  <Rbt.Current_Directory>
/home/itssahil/PROJECTS/Mol_Feturizer/New_Systems/rnas/3TD1

>  <Rbt.Executable>
rbdock ($Id: //depot/dev/client3/rdock/2013.1/src/exe/rbdock.cxx#4 $)

>  <Rbt.Library>
libRbt.so (2013.1, Build901 2013/11/27)

>  <Rbt.Parameter_File>
/export/apps/rDock/src/rDock_2013.1_src/data/scripts/dock_solv.prm

>  <Rbt.Receptor>
prm/pocket_docking_4.prm

>  <SCORE>
-18.6291

>  <SCORE.INTER>
-16.4113

>  <SCORE.INTER.CONST>
1

>  <SCORE.INTER.POLAR>
0

>  <SCORE.INTER.ROT>
6

>  <SCORE.INTER.SOLV>
20.3086

>  <SCORE.INTER.VDW>
-25.3104

>  <SCORE.INTER.norm>
-0.482686

>  <SCORE.INTRA>
-2.21775

>  <SCORE.INTRA.DIHEDRAL>
-4.32946

>  <SCORE.INTRA.DIHEDRAL.0>
19.5869

>  <SCORE.INTRA.POLAR>
0

>  <SCORE.INTRA.POLAR.0>
0

>  <SCORE.INTRA.REPUL>
0

>  <SCORE.INTRA.REPUL.0>
0

>  <SCORE.INTRA.SOLV>
0.431077

>  <SCORE.INTRA.SOLV.lig_0>
-70.101

>  <SCORE.INTRA.VDW>
-0.268558

>  <SCORE.INTRA.VDW.0>
-3.39718

>  <SCORE.INTRA.norm>
-0.0652279

>  <SCORE.RESTR>
0

>  <SCORE.RESTR.CAVITY>
0

>  <SCORE.RESTR.norm>
0

>  <SCORE.SYSTEM>
0

>  <SCORE.SYSTEM.CONST>
0

>  <SCORE.SYSTEM.DIHEDRAL>
0

>  <SCORE.SYSTEM.SOLV>
0

>  <SCORE.SYSTEM.norm>
0

>  <SCORE.heavy>
34

>  <SCORE.norm>
-0.547914

>  <RMSD>
0.664

$$$$
ligand
 OpenBabel11021811483D
libRbt.so/2013.1/901 2013/11/27
 34 36  0  0  0  0  0  0  0  0999 V2000
    6.2724    5.9512    9.2398 C   0  0  2  0  0  0  0  0  0  0  0  0
    6.7974    5.5283    7.9716 O   0  0  0  0  0  0  0  0  0  0  0  0
    9.0463    7.2959    4.7968 C   0  0  2  0  0  0  0  0  0  0  0  0
    9.5756    8.2687    3.8473 N   0  0  0  0  0  0  0  0  0  0  0  0
   11.6111    8.9263    6.3536 C   0  0  2  0  0  0  0  0  0  0  0  0
    6.2489    4.7047   10.1948 C   0  0  2  0  0  0  0  0  0  0  0  0
    7.6024    4.1650   10.3969 N   0  0  0  0  0  0  0  0  0  0  0  0
    7.4869    7.3135    4.6643 C   0  0  0  0  0  0  0  0  0  0  0  0
   13.1156    8.5771    6.0682 C   0  0  2  0  0  0  0  0  0  0  0  0
   13.2275    7.9116    4.8210 O   0  0  0  0  0  0  0  0  0  0  0  0
    5.3337    3.6166    9.5923 C   0  0  1  0  0  0  0  0  0  0  0  0
    5.3013    2.4758   10.4653 O   0  0  0  0  0  0  0  0  0  0  0  0
    6.9190    6.2527    5.6669 C   0  0  2  0  0  0  0  0  0  0  0  0
    5.4441    6.2263    5.5927 N   0  0  0  0  0  0  0  0  0  0  0  0
   13.6561    7.6734    7.2432 C   0  0  1  0  0  0  0  0  0  0  0  0
   15.0834    7.2995    7.0105 N   0  0  0  0  0  0  0  0  0  0  0  0
    3.9216    4.2127    9.3822 C   0  0  2  0  0  0  0  0  0  0  0  0
    3.0598    3.2130    8.8109 O   0  0  0  0  0  0  0  0  0  0  0  0
    7.3427    6.5813    7.1213 C   0  0  2  0  0  0  0  0  0  0  0  0
   13.5103    8.4538    8.5942 C   0  0  1  0  0  0  0  0  0  0  0  0
   14.2930    9.6438    8.5457 O   0  0  0  0  0  0  0  0  0  0  0  0
    4.0137    5.4685    8.4339 C   0  0  2  0  0  0  0  0  0  0  0  0
    4.9161    6.4773    9.0224 O   0  0  0  0  0  0  0  0  0  0  0  0
    8.8889    6.6206    7.2094 C   0  0  2  0  0  0  0  0  0  0  0  0
    9.2538    6.9417    8.5477 O   0  0  0  0  0  0  0  0  0  0  0  0
   12.0080    8.8290    8.7942 C   0  0  0  0  0  0  0  0  0  0  0  0
   11.5053    9.6194    7.6449 O   0  0  0  0  0  0  0  0  0  0  0  0
    2.6273    6.1258    8.2066 C   0  0  2  0  0  0  0  0  0  0  0  0
    2.7380    7.1318    7.2032 O   0  0  0  0  0  0  0  0  0  0  0  0
    9.4768    7.6970    6.2674 C   0  0  1  0  0  0  0  0  0  0  0  0
   10.9154    7.6499    6.4174 O   0  0  0  0  0  0  0  0  0  0  0  0
    2.1047    6.7816    9.4741 C   0  0  0  0  0  0  0  0  0  0  0  0
   13.9915    7.6328    9.7843 C   0  0  0  0  0  0  0  0  0  0  0  0
   15.1124    6.0297    6.2595 C   0  0  0  0  0  0  0  0  0  0  0  0
  1  2  1  6  0  0  0
  1  6  1  0  0  0  0
  1 23  1  0  0  0  0
  3  4  1  6  0  0  0
  3  8  1  0  0  0  0
  3 30  1  0  0  0  0
  5  9  1  0  0  0  0
  5 27  1  0  0  0  0
  5 31  1  1  0  0  0
  6  7  1  6  0  0  0
  6 11  1  0  0  0  0
  8 13  1  0  0  0  0
  9 10  1  6  0  0  0
  9 15  1  0  0  0  0
 11 12  1  1  0  0  0
 11 17  1  0  0  0  0
 13 14  1  1  0  0  0
 13 19  1  0  0  0  0
 15 16  1  6  0  0  0
 15 20  1  0  0  0  0
 16 34  1  0  0  0  0
 17 18  1  6  0  0  0
 17 22  1  0  0  0  0
 19  2  1  1  0  0  0
 19 24  1  0  0  0  0
 20 21  1  6  0  0  0
 20 26  1  0  0  0  0
 20 33  1  0  0  0  0
 22 23  1  1  0  0  0
 22 28  1  0  0  0  0
 24 25  1  1  0  0  0
 24 30  1  0  0  0  0
 26 27  1  0  0  0  0
 28 29  1  6  0  0  0
 28 32  1  0  0  0  0
 30 31  1  6  0  0  0
M  END
>  <CHROM.1>
-158.87579711,-140.47751180,-90.60939932,-171.95371707,100.52835188,-161.93604697
8.59926706,6.68570617,7.65315917,-2.83472701,-0.19495772,-1.06265962

>  <Name>
ligand

>  <RI>
0

>  <Rbt.Current_Directory>
/home/itssahil/PROJECTS/Mol_Feturizer/New_Systems/rnas/3TD1

>  <Rbt.Executable>
rbdock ($Id: //depot/dev/client3/rdock/2013.1/src/exe/rbdock.cxx#4 $)

>  <Rbt.Library>
libRbt.so (2013.1, Build901 2013/11/27)

>  <Rbt.Parameter_File>
/export/apps/rDock/src/rDock_2013.1_src/data/scripts/dock_solv.prm

>  <Rbt.Receptor>
prm/pocket_docking_3.prm

>  <SCORE>
-18.614

>  <SCORE.INTER>
-16.334

>  <SCORE.INTER.CONST>
1

>  <SCORE.INTER.POLAR>
0

>  <SCORE.INTER.ROT>
6

>  <SCORE.INTER.SOLV>
20.3532

>  <SCORE.INTER.VDW>
-25.2737

>  <SCORE.INTER.norm>
-0.480411

>  <SCORE.INTRA>
-2.28

>  <SCORE.INTRA.DIHEDRAL>
-4.45388

>  <SCORE.INTRA.DIHEDRAL.0>
19.5869

>  <SCORE.INTRA.POLAR>
0

>  <SCORE.INTRA.POLAR.0>
0

>  <SCORE.INTRA.REPUL>
0

>  <SCORE.INTRA.REPUL.0>
0

>  <SCORE.INTRA.SOLV>
0.205278

>  <SCORE.INTRA.SOLV.lig_0>
-70.101

>  <SCORE.INTRA.VDW>
-0.155703

>  <SCORE.INTRA.VDW.0>
-3.39718

>  <SCORE.INTRA.norm>
-0.0670589

>  <SCORE.RESTR>
0

>  <SCORE.RESTR.CAVITY>
0

>  <SCORE.RESTR.norm>
0

>  <SCORE.SYSTEM>
0

>  <SCORE.SYSTEM.CONST>
0

>  <SCORE.SYSTEM.DIHEDRAL>
0

>  <SCORE.SYSTEM.SOLV>
0

>  <SCORE.SYSTEM.norm>
0

>  <SCORE.heavy>
34

>  <SCORE.norm>
-0.54747

>  <RMSD>
0.667

$$$$
ligand
 OpenBabel11021811483D
libRbt.so/2013.1/901 2013/11/27
 34 36  0  0  0  0  0  0  0  0999 V2000
    6.2711    5.9346    9.2823 C   0  0  2  0  0  0  0  0  0  0  0  0
    6.8275    5.5123    8.0275 O   0  0  0  0  0  0  0  0  0  0  0  0
    9.0371    7.2991    4.8358 C   0  0  2  0  0  0  0  0  0  0  0  0
    9.5530    8.2770    3.8842 N   0  0  0  0  0  0  0  0  0  0  0  0
   11.6116    8.9339    6.3730 C   0  0  2  0  0  0  0  0  0  0  0  0
    6.2069    4.6836   10.2296 C   0  0  2  0  0  0  0  0  0  0  0  0
    7.5483    4.1282   10.4674 N   0  0  0  0  0  0  0  0  0  0  0  0
    7.4764    7.3113    4.7194 C   0  0  0  0  0  0  0  0  0  0  0  0
   13.1142    8.5918    6.0696 C   0  0  2  0  0  0  0  0  0  0  0  0
   13.2150    7.9326    4.8181 O   0  0  0  0  0  0  0  0  0  0  0  0
    5.2977    3.6085    9.5955 C   0  0  1  0  0  0  0  0  0  0  0  0
    5.2281    2.4637   10.4611 O   0  0  0  0  0  0  0  0  0  0  0  0
    6.9227    6.2450    5.7241 C   0  0  2  0  0  0  0  0  0  0  0  0
    5.4472    6.2133    5.6649 N   0  0  0  0  0  0  0  0  0  0  0  0
   13.6709    7.6846    7.2343 C   0  0  1  0  0  0  0  0  0  0  0  0
   15.0970    7.3172    6.9843 N   0  0  0  0  0  0  0  0  0  0  0  0
    3.8987    4.2210    9.3483 C   0  0  2  0  0  0  0  0  0  0  0  0
    3.0429    3.2335    8.7473 O   0  0  0  0  0  0  0  0  0  0  0  0
    7.3601    6.5702    7.1752 C   0  0  2  0  0  0  0  0  0  0  0  0
   13.5368    8.4582    8.5905 C   0  0  1  0  0  0  0  0  0  0  0  0
   14.3145    9.6513    8.5391 O   0  0  0  0  0  0  0  0  0  0  0  0
    4.0313    5.4804    8.4098 C   0  0  2  0  0  0  0  0  0  0  0  0
    4.9272    6.4764    9.0291 O   0  0  0  0  0  0  0  0  0  0  0  0
    8.9070    6.6151    7.2475 C   0  0  2  0  0  0  0  0  0  0  0  0
    9.2844    6.9330    8.5831 O   0  0  0  0  0  0  0  0  0  0  0  0
   12.0355    8.8267    8.8086 C   0  0  0  0  0  0  0  0  0  0  0  0
   11.5173    9.6205    7.6686 O   0  0  0  0  0  0  0  0  0  0  0  0
    2.6590    6.1538    8.1465 C   0  0  2  0  0  0  0  0  0  0  0  0
    2.8054    7.1505    7.1383 O   0  0  0  0  0  0  0  0  0  0  0  0
    9.4812    7.6968    6.3032 C   0  0  1  0  0  0  0  0  0  0  0  0
   10.9214    7.6546    6.4383 O   0  0  0  0  0  0  0  0  0  0  0  0
    2.1169    6.8261    9.3970 C   0  0  0  0  0  0  0  0  0  0  0  0
   14.0341    7.6334    9.7713 C   0  0  0  0  0  0  0  0  0  0  0  0
   15.1221    6.0665    6.2021 C   0  0  0  0  0  0  0  0  0  0  0  0
  1  2  1  6  0  0  0
  1  6  1  0  0  0  0
  1 23  1  0  0  0  0
  3  4  1  6  0  0  0
  3  8  1  0  0  0  0
  3 30  1  0  0  0  0
  5  9  1  0  0  0  0
  5 27  1  0  0  0  0
  5 31  1  1  0  0  0
  6  7  1  6  0  0  0
  6 11  1  0  0  0  0
  8 13  1  0  0  0  0
  9 10  1  6  0  0  0
  9 15  1  0  0  0  0
 11 12  1  1  0  0  0
 11 17  1  0  0  0  0
 13 14  1  1  0  0  0
 13 19  1  0  0  0  0
 15 16  1  6  0  0  0
 15 20  1  0  0  0  0
 16 34  1  0  0  0  0
 17 18  1  6  0  0  0
 17 22  1  0  0  0  0
 19  2  1  1  0  0  0
 19 24  1  0  0  0  0
 20 21  1  6  0  0  0
 20 26  1  0  0  0  0
 20 33  1  0  0  0  0
 22 23  1  1  0  0  0
 22 28  1  0  0  0  0
 24 25  1  1  0  0  0
 24 30  1  0  0  0  0
 26 27  1  0  0  0  0
 28 29  1  6  0  0  0
 28 32  1  0  0  0  0
 30 31  1  6  0  0  0
M  END
>  <CHROM.1>
-161.22868962,-138.35778298,-89.41146547,-171.13008342,100.58426311,-161.89348433
8.60307922,6.68911408,7.66028784,-2.83441036,-0.19494391,-1.05611056

>  <Name>
ligand

>  <RI>
0

>  <Rbt.Current_Directory>
/home/itssahil/PROJECTS/Mol_Feturizer/New_Systems/rnas/3TD1

>  <Rbt.Executable>
rbdock ($Id: //depot/dev/client3/rdock/2013.1/src/exe/rbdock.cxx#4 $)

>  <Rbt.Library>
libRbt.so (2013.1, Build901 2013/11/27)

>  <Rbt.Parameter_File>
/export/apps/rDock/src/rDock_2013.1_src/data/scripts/dock_solv.prm

>  <Rbt.Receptor>
prm/pocket_docking_3.prm

>  <SCORE>
-18.7104

>  <SCORE.INTER>
-16.5366

>  <SCORE.INTER.CONST>
1

>  <SCORE.INTER.POLAR>
0

>  <SCORE.INTER.ROT>
6

>  <SCORE.INTER.SOLV>
20.6107

>  <SCORE.INTER.VDW>
-25.4947

>  <SCORE.INTER.norm>
-0.486371

>  <SCORE.INTRA>
-2.17376

>  <SCORE.INTRA.DIHEDRAL>
-4.46942

>  <SCORE.INTRA.DIHEDRAL.0>
19.5869

>  <SCORE.INTRA.POLAR>
0

>  <SCORE.INTRA.POLAR.0>
0

>  <SCORE.INTRA.REPUL>
0

>  <SCORE.INTRA.REPUL.0>
0

>  <SCORE.INTRA.SOLV>
0.39617

>  <SCORE.INTRA.SOLV.lig_0>
-70.101

>  <SCORE.INTRA.VDW>
-0.137129

>  <SCORE.INTRA.VDW.0>
-3.39718

>  <SCORE.INTRA.norm>
-0.063934

>  <SCORE.RESTR>
0

>  <SCORE.RESTR.CAVITY>
0

>  <SCORE.RESTR.norm>
0

>  <SCORE.SYSTEM>
0

>  <SCORE.SYSTEM.CONST>
0

>  <SCORE.SYSTEM.DIHEDRAL>
0

>  <SCORE.SYSTEM.SOLV>
0

>  <SCORE.SYSTEM.norm>
0

>  <SCORE.heavy>
34

>  <SCORE.norm>
-0.550305

>  <RMSD>
0.669

$$$$
ligand
 OpenBabel11021811483D
libRbt.so/2013.1/901 2013/11/27
 34 36  0  0  0  0  0  0  0  0999 V2000
    6.3196    5.9566    9.2191 C   0  0  2  0  0  0  0  0  0  0  0  0
    6.8719    5.5293    7.9642 O   0  0  0  0  0  0  0  0  0  0  0  0
    9.0538    7.2972    4.7431 C   0  0  2  0  0  0  0  0  0  0  0  0
    9.5693    8.2720    3.7880 N   0  0  0  0  0  0  0  0  0  0  0  0
   11.6808    8.8810    6.2889 C   0  0  2  0  0  0  0  0  0  0  0  0
    6.2549    4.7087   10.1704 C   0  0  2  0  0  0  0  0  0  0  0  0
    7.5956    4.1510   10.4065 N   0  0  0  0  0  0  0  0  0  0  0  0
    7.4917    7.3373    4.6554 C   0  0  0  0  0  0  0  0  0  0  0  0
   13.1912    8.5227    6.0492 C   0  0  2  0  0  0  0  0  0  0  0  0
   13.3392    7.8723    4.7978 O   0  0  0  0  0  0  0  0  0  0  0  0
    5.3417    3.6338    9.5418 C   0  0  1  0  0  0  0  0  0  0  0  0
    5.2716    2.4918   10.4110 O   0  0  0  0  0  0  0  0  0  0  0  0
    6.9379    6.2745    5.6638 C   0  0  2  0  0  0  0  0  0  0  0  0
    5.4612    6.2689    5.6316 N   0  0  0  0  0  0  0  0  0  0  0  0
   13.6847    7.5994    7.2296 C   0  0  1  0  0  0  0  0  0  0  0  0
   15.1159    7.2163    7.0397 N   0  0  0  0  0  0  0  0  0  0  0  0
    3.9434    4.2487    9.2962 C   0  0  2  0  0  0  0  0  0  0  0  0
    3.0839    3.2614    8.7004 O   0  0  0  0  0  0  0  0  0  0  0  0
    7.4073    6.5831    7.1085 C   0  0  2  0  0  0  0  0  0  0  0  0
   13.5002    8.3637    8.5851 C   0  0  1  0  0  0  0  0  0  0  0  0
   14.2937    9.5474    8.5783 O   0  0  0  0  0  0  0  0  0  0  0  0
    4.0766    5.5050    8.3535 C   0  0  2  0  0  0  0  0  0  0  0  0
    4.9763    6.5008    8.9676 O   0  0  0  0  0  0  0  0  0  0  0  0
    8.9558    6.6006    7.1527 C   0  0  2  0  0  0  0  0  0  0  0  0
    9.3631    6.9036    8.4830 O   0  0  0  0  0  0  0  0  0  0  0  0
   11.9952    8.7491    8.7399 C   0  0  0  0  0  0  0  0  0  0  0  0
   11.5376    9.5585    7.5849 O   0  0  0  0  0  0  0  0  0  0  0  0
    2.7052    6.1807    8.0916 C   0  0  2  0  0  0  0  0  0  0  0  0
    2.8602    7.2042    7.1119 O   0  0  0  0  0  0  0  0  0  0  0  0
    9.5315    7.6780    6.2044 C   0  0  1  0  0  0  0  0  0  0  0  0
   10.9730    7.6099    6.3128 O   0  0  0  0  0  0  0  0  0  0  0  0
    2.1459    6.8181    9.3527 C   0  0  0  0  0  0  0  0  0  0  0  0
   13.9346    7.5234    9.7797 C   0  0  0  0  0  0  0  0  0  0  0  0
   15.1627    6.0035    6.2007 C   0  0  0  0  0  0  0  0  0  0  0  0
  1  2  1  6  0  0  0
  1  6  1  0  0  0  0
  1 23  1  0  0  0  0
  3  4  1  6  0  0  0
  3  8  1  0  0  0  0
  3 30  1  0  0  0  0
  5  9  1  0  0  0  0
  5 27  1  0  0  0  0
  5 31  1  1  0  0  0
  6  7  1  6  0  0  0
  6 11  1  0  0  0  0
  8 13  1  0  0  0  0
  9 10  1  6  0  0  0
  9 15  1  0  0  0  0
 11 12  1  1  0  0  0
 11 17  1  0  0  0  0
 13 14  1  1  0  0  0
 13 19  1  0  0  0  0
 15 16  1  6  0  0  0
 15 20  1  0  0  0  0
 16 34  1  0  0  0  0
 17 18  1  6  0  0  0
 17 22  1  0  0  0  0
 19  2  1  1  0  0  0
 19 24  1  0  0  0  0
 20 21  1  6  0  0  0
 20 26  1  0  0  0  0
 20 33  1  0  0  0  0
 22 23  1  1  0  0  0
 22 28  1  0  0  0  0
 24 25  1  1  0  0  0
 24 30  1  0  0  0  0
 26 27  1  0  0  0  0
 28 29  1  6  0  0  0
 28 32  1  0  0  0  0
 30 31  1  6  0  0  0
M  END
>  <CHROM.1>
-161.10851851,-137.05588067,-87.05121121,-173.03772177,102.63809839,-165.89037569
8.63597850,6.67260227,7.61018968,-2.84045617,-0.18609697,-1.05680771

>  <Name>
ligand

>  <RI>
0

>  <Rbt.Current_Directory>
/home/itssahil/PROJECTS/Mol_Feturizer/New_Systems/rnas/3TD1

>  <Rbt.Executable>
rbdock ($Id: //depot/dev/client3/rdock/2013.1/src/exe/rbdock.cxx#4 $)

>  <Rbt.Library>
libRbt.so (2013.1, Build901 2013/11/27)

>  <Rbt.Parameter_File>
/export/apps/rDock/src/rDock_2013.1_src/data/scripts/dock_solv.prm

>  <Rbt.Receptor>
prm/pocket_docking_4.prm

>  <SCORE>
-18.7214

>  <SCORE.INTER>
-16.5532

>  <SCORE.INTER.CONST>
1

>  <SCORE.INTER.POLAR>
0

>  <SCORE.INTER.ROT>
6

>  <SCORE.INTER.SOLV>
20.0281

>  <SCORE.INTER.VDW>
-25.3115

>  <SCORE.INTER.norm>
-0.486859

>  <SCORE.INTRA>
-2.18416

>  <SCORE.INTRA.DIHEDRAL>
-4.68515

>  <SCORE.INTRA.DIHEDRAL.0>
19.5869

>  <SCORE.INTRA.POLAR>
0

>  <SCORE.INTRA.POLAR.0>
0

>  <SCORE.INTRA.REPUL>
0

>  <SCORE.INTRA.REPUL.0>
0

>  <SCORE.INTRA.SOLV>
0.366943

>  <SCORE.INTRA.SOLV.lig_0>
-70.101

>  <SCORE.INTRA.VDW>
-0.0250572

>  <SCORE.INTRA.VDW.0>
-3.39718

>  <SCORE.INTRA.norm>
-0.0642399

>  <SCORE.RESTR>
0.0159324

>  <SCORE.RESTR.CAVITY>
0.0159324

>  <SCORE.RESTR.norm>
0.000468599

>  <SCORE.SYSTEM>
0

>  <SCORE.SYSTEM.CONST>
0

>  <SCORE.SYSTEM.DIHEDRAL>
0

>  <SCORE.SYSTEM.SOLV>
0

>  <SCORE.SYSTEM.norm>
0

>  <SCORE.heavy>
34

>  <SCORE.norm>
-0.55063

>  <RMSD>
0.680

$$$$
ligand
 OpenBabel11021811483D
libRbt.so/2013.1/901 2013/11/27
 34 36  0  0  0  0  0  0  0  0999 V2000
    6.3077    5.7816    9.3853 C   0  0  2  0  0  0  0  0  0  0  0  0
    6.8793    5.3893    8.1275 O   0  0  0  0  0  0  0  0  0  0  0  0
    9.0465    7.2644    4.9575 C   0  0  2  0  0  0  0  0  0  0  0  0
    9.5460    8.2674    4.0234 N   0  0  0  0  0  0  0  0  0  0  0  0
   11.6254    8.8807    6.4510 C   0  0  2  0  0  0  0  0  0  0  0  0
    6.1833    4.4986   10.2824 C   0  0  2  0  0  0  0  0  0  0  0  0
    7.5011    3.8923   10.5276 N   0  0  0  0  0  0  0  0  0  0  0  0
    7.4847    7.2661    4.8546 C   0  0  0  0  0  0  0  0  0  0  0  0
   13.1216    8.5391    6.1169 C   0  0  2  0  0  0  0  0  0  0  0  0
   13.1950    7.8620    4.8731 O   0  0  0  0  0  0  0  0  0  0  0  0
    5.2561    3.4775    9.5881 C   0  0  1  0  0  0  0  0  0  0  0  0
    5.1314    2.3038   10.4076 O   0  0  0  0  0  0  0  0  0  0  0  0
    6.9485    6.1733    5.8401 C   0  0  2  0  0  0  0  0  0  0  0  0
    5.4729    6.1306    5.7928 N   0  0  0  0  0  0  0  0  0  0  0  0
   13.7091    7.6509    7.2811 C   0  0  1  0  0  0  0  0  0  0  0  0
   15.1302    7.2846    7.0025 N   0  0  0  0  0  0  0  0  0  0  0  0
    3.8826    4.1429    9.3344 C   0  0  2  0  0  0  0  0  0  0  0  0
    3.0106    3.2064    8.6778 O   0  0  0  0  0  0  0  0  0  0  0  0
    7.3958    6.4702    7.2943 C   0  0  2  0  0  0  0  0  0  0  0  0
   13.6046    8.4438    8.6287 C   0  0  1  0  0  0  0  0  0  0  0  0
   14.3765    9.6386    8.5414 O   0  0  0  0  0  0  0  0  0  0  0  0
    4.0754    5.4319    8.4478 C   0  0  2  0  0  0  0  0  0  0  0  0
    4.9874    6.3749    9.1240 O   0  0  0  0  0  0  0  0  0  0  0  0
    8.9428    6.5263    7.3545 C   0  0  2  0  0  0  0  0  0  0  0  0
    9.3292    6.8179    8.6935 O   0  0  0  0  0  0  0  0  0  0  0  0
   12.1075    8.8106    8.8772 C   0  0  0  0  0  0  0  0  0  0  0  0
   11.5595    9.5860    7.7384 O   0  0  0  0  0  0  0  0  0  0  0  0
    2.7310    6.1579    8.1809 C   0  0  2  0  0  0  0  0  0  0  0  0
    2.9306    7.1854    7.2136 O   0  0  0  0  0  0  0  0  0  0  0  0
    9.5000    7.6334    6.4295 C   0  0  1  0  0  0  0  0  0  0  0  0
   10.9416    7.6003    6.5514 O   0  0  0  0  0  0  0  0  0  0  0  0
    2.1826    6.8014    9.4438 C   0  0  0  0  0  0  0  0  0  0  0  0
   14.1327    7.6381    9.8092 C   0  0  0  0  0  0  0  0  0  0  0  0
   15.1401    6.0412    6.2083 C   0  0  0  0  0  0  0  0  0  0  0  0
  1  2  1  6  0  0  0
  1  6  1  0  0  0  0
  1 23  1  0  0  0  0
  3  4  1  6  0  0  0
  3  8  1  0  0  0  0
  3 30  1  0  0  0  0
  5  9  1  0  0  0  0
  5 27  1  0  0  0  0
  5 31  1  1  0  0  0
  6  7  1  6  0  0  0
  6 11  1  0  0  0  0
  8 13  1  0  0  0  0
  9 10  1  6  0  0  0
  9 15  1  0  0  0  0
 11 12  1  1  0  0  0
 11 17  1  0  0  0  0
 13 14  1  1  0  0  0
 13 19  1  0  0  0  0
 15 16  1  6  0  0  0
 15 20  1  0  0  0  0
 16 34  1  0  0  0  0
 17 18  1  6  0  0  0
 17 22  1  0  0  0  0
 19  2  1  1  0  0  0
 19 24  1  0  0  0  0
 20 21  1  6  0  0  0
 20 26  1  0  0  0  0
 20 33  1  0  0  0  0
 22 23  1  1  0  0  0
 22 28  1  0  0  0  0
 24 25  1  1  0  0  0
 24 30  1  0  0  0  0
 26 27  1  0  0  0  0
 28 29  1  6  0  0  0
 28 32  1  0  0  0  0
 30 31  1  6  0  0  0
M  END
>  <CHROM.1>
-164.56150739,-137.24235847,-87.96674864,-171.04665129,98.03724897,-160.97501241
8.62832026,6.62381007,7.72256292,-2.82701906,-0.19209866,-1.02410814

>  <Name>
ligand

>  <RI>
0

>  <Rbt.Current_Directory>
/home/itssahil/PROJECTS/Mol_Feturizer/New_Systems/rnas/3TD1

>  <Rbt.Executable>
rbdock ($Id: //depot/dev/client3/rdock/2013.1/src/exe/rbdock.cxx#4 $)

>  <Rbt.Library>
libRbt.so (2013.1, Build901 2013/11/27)

>  <Rbt.Parameter_File>
/export/apps/rDock/src/rDock_2013.1_src/data/scripts/dock_solv.prm

>  <Rbt.Receptor>
prm/pocket_docking_3.prm

>  <SCORE>
-18.7488

>  <SCORE.INTER>
-16.3991

>  <SCORE.INTER.CONST>
1

>  <SCORE.INTER.POLAR>
0

>  <SCORE.INTER.ROT>
6

>  <SCORE.INTER.SOLV>
20.6343

>  <SCORE.INTER.VDW>
-25.4108

>  <SCORE.INTER.norm>
-0.482325

>  <SCORE.INTRA>
-2.34972

>  <SCORE.INTRA.DIHEDRAL>
-5.10531

>  <SCORE.INTRA.DIHEDRAL.0>
19.5869

>  <SCORE.INTRA.POLAR>
0

>  <SCORE.INTRA.POLAR.0>
0

>  <SCORE.INTRA.REPUL>
0

>  <SCORE.INTRA.REPUL.0>
0

>  <SCORE.INTRA.SOLV>
0.554432

>  <SCORE.INTRA.SOLV.lig_0>
-70.101

>  <SCORE.INTRA.VDW>
-0.0742817

>  <SCORE.INTRA.VDW.0>
-3.39718

>  <SCORE.INTRA.norm>
-0.0691095

>  <SCORE.RESTR>
0

>  <SCORE.RESTR.CAVITY>
0

>  <SCORE.RESTR.norm>
0

>  <SCORE.SYSTEM>
0

>  <SCORE.SYSTEM.CONST>
0

>  <SCORE.SYSTEM.DIHEDRAL>
0

>  <SCORE.SYSTEM.SOLV>
0

>  <SCORE.SYSTEM.norm>
0

>  <SCORE.heavy>
34

>  <SCORE.norm>
-0.551435

>  <RMSD>
0.682

$$$$
ligand
 OpenBabel11021811483D
libRbt.so/2013.1/901 2013/11/27
 34 36  0  0  0  0  0  0  0  0999 V2000
    6.2837    5.8236    9.3746 C   0  0  2  0  0  0  0  0  0  0  0  0
    6.8638    5.4172    8.1252 O   0  0  0  0  0  0  0  0  0  0  0  0
    9.0032    7.2587    4.9169 C   0  0  2  0  0  0  0  0  0  0  0  0
    9.4970    8.2525    3.9701 N   0  0  0  0  0  0  0  0  0  0  0  0
   11.6067    8.8739    6.3919 C   0  0  2  0  0  0  0  0  0  0  0  0
    6.1629    4.5527   10.2893 C   0  0  2  0  0  0  0  0  0  0  0  0
    7.4833    3.9582   10.5493 N   0  0  0  0  0  0  0  0  0  0  0  0
    7.4404    7.2682    4.8325 C   0  0  0  0  0  0  0  0  0  0  0  0
   13.1087    8.5280    6.0891 C   0  0  2  0  0  0  0  0  0  0  0  0
   13.2053    7.8438    4.8508 O   0  0  0  0  0  0  0  0  0  0  0  0
    5.2454    3.5161    9.6051 C   0  0  1  0  0  0  0  0  0  0  0  0
    5.1241    2.3533   10.4406 O   0  0  0  0  0  0  0  0  0  0  0  0
    6.9101    6.1851    5.8319 C   0  0  2  0  0  0  0  0  0  0  0  0
    5.4338    6.1501    5.8023 N   0  0  0  0  0  0  0  0  0  0  0  0
   13.6716    7.6454    7.2697 C   0  0  1  0  0  0  0  0  0  0  0  0
   15.0973    7.2753    7.0211 N   0  0  0  0  0  0  0  0  0  0  0  0
    3.8691    4.1692    9.3355 C   0  0  2  0  0  0  0  0  0  0  0  0
    3.0062    3.2180    8.6880 O   0  0  0  0  0  0  0  0  0  0  0  0
    7.3762    6.4895    7.2786 C   0  0  2  0  0  0  0  0  0  0  0  0
   13.5420    8.4460    8.6105 C   0  0  1  0  0  0  0  0  0  0  0  0
   14.3175    9.6391    8.5317 O   0  0  0  0  0  0  0  0  0  0  0  0
    4.0582    5.4467    8.4316 C   0  0  2  0  0  0  0  0  0  0  0  0
    4.9610    6.4049    9.0987 O   0  0  0  0  0  0  0  0  0  0  0  0
    8.9241    6.5376    7.3200 C   0  0  2  0  0  0  0  0  0  0  0  0
    9.3280    6.8362    8.6523 O   0  0  0  0  0  0  0  0  0  0  0  0
   12.0410    8.8166    8.8274 C   0  0  0  0  0  0  0  0  0  0  0  0
   11.5167    9.5864    7.6737 O   0  0  0  0  0  0  0  0  0  0  0  0
    2.7106    6.1604    8.1480 C   0  0  2  0  0  0  0  0  0  0  0  0
    2.9142    7.1945    7.1887 O   0  0  0  0  0  0  0  0  0  0  0  0
    9.4762    7.6353    6.3809 C   0  0  1  0  0  0  0  0  0  0  0  0
   10.9190    7.5951    6.4859 O   0  0  0  0  0  0  0  0  0  0  0  0
    2.1369    6.7922    9.4056 C   0  0  0  0  0  0  0  0  0  0  0  0
   14.0454    7.6461    9.8056 C   0  0  0  0  0  0  0  0  0  0  0  0
   15.1206    6.0350    6.2223 C   0  0  0  0  0  0  0  0  0  0  0  0
  1  2  1  6  0  0  0
  1  6  1  0  0  0  0
  1 23  1  0  0  0  0
  3  4  1  6  0  0  0
  3  8  1  0  0  0  0
  3 30  1  0  0  0  0
  5  9  1  0  0  0  0
  5 27  1  0  0  0  0
  5 31  1  1  0  0  0
  6  7  1  6  0  0  0
  6 11  1  0  0  0  0
  8 13  1  0  0  0  0
  9 10  1  6  0  0  0
  9 15  1  0  0  0  0
 11 12  1  1  0  0  0
 11 17  1  0  0  0  0
 13 14  1  1  0  0  0
 13 19  1  0  0  0  0
 15 16  1  6  0  0  0
 15 20  1  0  0  0  0
 16 34  1  0  0  0  0
 17 18  1  6  0  0  0
 17 22  1  0  0  0  0
 19  2  1  1  0  0  0
 19 24  1  0  0  0  0
 20 21  1  6  0  0  0
 20 26  1  0  0  0  0
 20 33  1  0  0  0  0
 22 23  1  1  0  0  0
 22 28  1  0  0  0  0
 24 25  1  1  0  0  0
 24 30  1  0  0  0  0
 26 27  1  0  0  0  0
 28 29  1  6  0  0  0
 28 32  1  0  0  0  0
 30 31  1  6  0  0  0
M  END
>  <CHROM.1>
-164.63218629,-135.97444937,-87.39257337,-172.29884631,99.06828205,-163.00065007
8.60005808,6.63494995,7.70446200,-2.82807972,-0.19137590,-1.03352144

>  <Name>
ligand

>  <RI>
0

>  <Rbt.Current_Directory>
/home/itssahil/PROJECTS/Mol_Feturizer/New_Systems/rnas/3TD1

>  <Rbt.Executable>
rbdock ($Id: //depot/dev/client3/rdock/2013.1/src/exe/rbdock.cxx#4 $)

>  <Rbt.Library>
libRbt.so (2013.1, Build901 2013/11/27)

>  <Rbt.Parameter_File>
/export/apps/rDock/src/rDock_2013.1_src/data/scripts/dock_solv.prm

>  <Rbt.Receptor>
prm/pocket_docking_3.prm

>  <SCORE>
-18.7282

>  <SCORE.INTER>
-16.4003

>  <SCORE.INTER.CONST>
1

>  <SCORE.INTER.POLAR>
0

>  <SCORE.INTER.ROT>
6

>  <SCORE.INTER.SOLV>
20.6732

>  <SCORE.INTER.VDW>
-25.4246

>  <SCORE.INTER.norm>
-0.482362

>  <SCORE.INTRA>
-2.3279

>  <SCORE.INTRA.DIHEDRAL>
-5.16139

>  <SCORE.INTRA.DIHEDRAL.0>
19.5869

>  <SCORE.INTRA.POLAR>
0

>  <SCORE.INTRA.POLAR.0>
0

>  <SCORE.INTRA.REPUL>
0

>  <SCORE.INTRA.REPUL.0>
0

>  <SCORE.INTRA.SOLV>
0.587687

>  <SCORE.INTRA.SOLV.lig_0>
-70.101

>  <SCORE.INTRA.VDW>
-0.0410512

>  <SCORE.INTRA.VDW.0>
-3.39718

>  <SCORE.INTRA.norm>
-0.0684677

>  <SCORE.RESTR>
0

>  <SCORE.RESTR.CAVITY>
0

>  <SCORE.RESTR.norm>
0

>  <SCORE.SYSTEM>
0

>  <SCORE.SYSTEM.CONST>
0

>  <SCORE.SYSTEM.DIHEDRAL>
0

>  <SCORE.SYSTEM.SOLV>
0

>  <SCORE.SYSTEM.norm>
0

>  <SCORE.heavy>
34

>  <SCORE.norm>
-0.55083

>  <RMSD>
0.689

$$$$
ligand
 OpenBabel11021811483D
libRbt.so/2013.1/901 2013/11/27
 34 36  0  0  0  0  0  0  0  0999 V2000
    6.2808    5.9176    9.3012 C   0  0  2  0  0  0  0  0  0  0  0  0
    6.8611    5.4985    8.0562 O   0  0  0  0  0  0  0  0  0  0  0  0
    9.0046    7.3053    4.8309 C   0  0  2  0  0  0  0  0  0  0  0  0
    9.5015    8.2894    3.8756 N   0  0  0  0  0  0  0  0  0  0  0  0
   11.6139    8.9252    6.3274 C   0  0  2  0  0  0  0  0  0  0  0  0
    6.1854    4.6614   10.2390 C   0  0  2  0  0  0  0  0  0  0  0  0
    7.5166    4.0932   10.5024 N   0  0  0  0  0  0  0  0  0  0  0  0
    7.4417    7.3206    4.7481 C   0  0  0  0  0  0  0  0  0  0  0  0
   13.1217    8.5808    6.0534 C   0  0  2  0  0  0  0  0  0  0  0  0
   13.2442    7.9079    4.8112 O   0  0  0  0  0  0  0  0  0  0  0  0
    5.2815    3.5980    9.5782 C   0  0  1  0  0  0  0  0  0  0  0  0
    5.1834    2.4485   10.4348 O   0  0  0  0  0  0  0  0  0  0  0  0
    6.9080    6.2478    5.7567 C   0  0  2  0  0  0  0  0  0  0  0  0
    5.4315    6.2188    5.7291 N   0  0  0  0  0  0  0  0  0  0  0  0
   13.6589    7.6870    7.2375 C   0  0  1  0  0  0  0  0  0  0  0  0
   15.0893    7.3179    7.0160 N   0  0  0  0  0  0  0  0  0  0  0  0
    3.8933    4.2238    9.3044 C   0  0  2  0  0  0  0  0  0  0  0  0
    3.0428    3.2474    8.6786 O   0  0  0  0  0  0  0  0  0  0  0  0
    7.3770    6.5618    7.2004 C   0  0  2  0  0  0  0  0  0  0  0  0
   13.5013    8.4755    8.5826 C   0  0  1  0  0  0  0  0  0  0  0  0
   14.2791    9.6685    8.5313 O   0  0  0  0  0  0  0  0  0  0  0  0
    4.0570    5.4879    8.3770 C   0  0  2  0  0  0  0  0  0  0  0  0
    4.9474    6.4724    9.0222 O   0  0  0  0  0  0  0  0  0  0  0  0
    8.9252    6.6038    7.2397 C   0  0  2  0  0  0  0  0  0  0  0  0
    9.3317    6.9113    8.5692 O   0  0  0  0  0  0  0  0  0  0  0  0
   11.9962    8.8453    8.7709 C   0  0  0  0  0  0  0  0  0  0  0  0
   11.4972    9.6261    7.6135 O   0  0  0  0  0  0  0  0  0  0  0  0
    2.6965    6.1745    8.0881 C   0  0  2  0  0  0  0  0  0  0  0  0
    2.8753    7.1837    7.0978 O   0  0  0  0  0  0  0  0  0  0  0  0
    9.4807    7.6915    6.2913 C   0  0  1  0  0  0  0  0  0  0  0  0
   10.9235    7.6462    6.3950 O   0  0  0  0  0  0  0  0  0  0  0  0
    2.1270    6.8336    9.3334 C   0  0  0  0  0  0  0  0  0  0  0  0
   13.9787    7.6642    9.7808 C   0  0  0  0  0  0  0  0  0  0  0  0
   15.1285    6.0694    6.2307 C   0  0  0  0  0  0  0  0  0  0  0  0
  1  2  1  6  0  0  0
  1  6  1  0  0  0  0
  1 23  1  0  0  0  0
  3  4  1  6  0  0  0
  3  8  1  0  0  0  0
  3 30  1  0  0  0  0
  5  9  1  0  0  0  0
  5 27  1  0  0  0  0
  5 31  1  1  0  0  0
  6  7  1  6  0  0  0
  6 11  1  0  0  0  0
  8 13  1  0  0  0  0
  9 10  1  6  0  0  0
  9 15  1  0  0  0  0
 11 12  1  1  0  0  0
 11 17  1  0  0  0  0
 13 14  1  1  0  0  0
 13 19  1  0  0  0  0
 15 16  1  6  0  0  0
 15 20  1  0  0  0  0
 16 34  1  0  0  0  0
 17 18  1  6  0  0  0
 17 22  1  0  0  0  0
 19  2  1  1  0  0  0
 19 24  1  0  0  0  0
 20 21  1  6  0  0  0
 20 26  1  0  0  0  0
 20 33  1  0  0  0  0
 22 23  1  1  0  0  0
 22 28  1  0  0  0  0
 24 25  1  1  0  0  0
 24 30  1  0  0  0  0
 26 27  1  0  0  0  0
 28 29  1  6  0  0  0
 28 32  1  0  0  0  0
 30 31  1  6  0  0  0
M  END
>  <CHROM.1>
-163.39289324,-135.80865519,-88.56744924,-171.60997235,100.72097888,-164.40273400
8.59952766,6.68917400,7.65058505,-2.83258517,-0.19397260,-1.04607833

>  <Name>
ligand

>  <RI>
0

>  <Rbt.Current_Directory>
/home/itssahil/PROJECTS/Mol_Feturizer/New_Systems/rnas/3TD1

>  <Rbt.Executable>
rbdock ($Id: //depot/dev/client3/rdock/2013.1/src/exe/rbdock.cxx#4 $)

>  <Rbt.Library>
libRbt.so (2013.1, Build901 2013/11/27)

>  <Rbt.Parameter_File>
/export/apps/rDock/src/rDock_2013.1_src/data/scripts/dock_solv.prm

>  <Rbt.Receptor>
prm/pocket_docking_5.prm

>  <SCORE>
-18.7716

>  <SCORE.INTER>
-16.4926

>  <SCORE.INTER.CONST>
1

>  <SCORE.INTER.POLAR>
0

>  <SCORE.INTER.ROT>
6

>  <SCORE.INTER.SOLV>
20.6866

>  <SCORE.INTER.VDW>
-25.4906

>  <SCORE.INTER.norm>
-0.485075

>  <SCORE.INTRA>
-2.27902

>  <SCORE.INTRA.DIHEDRAL>
-4.81973

>  <SCORE.INTRA.DIHEDRAL.0>
19.5869

>  <SCORE.INTRA.POLAR>
0

>  <SCORE.INTRA.POLAR.0>
0

>  <SCORE.INTRA.REPUL>
0

>  <SCORE.INTRA.REPUL.0>
0

>  <SCORE.INTRA.SOLV>
0.536682

>  <SCORE.INTRA.SOLV.lig_0>
-70.101

>  <SCORE.INTRA.VDW>
-0.137492

>  <SCORE.INTRA.VDW.0>
-3.39718

>  <SCORE.INTRA.norm>
-0.0670299

>  <SCORE.RESTR>
0

>  <SCORE.RESTR.CAVITY>
0

>  <SCORE.RESTR.norm>
0

>  <SCORE.SYSTEM>
0

>  <SCORE.SYSTEM.CONST>
0

>  <SCORE.SYSTEM.DIHEDRAL>
0

>  <SCORE.SYSTEM.SOLV>
0

>  <SCORE.SYSTEM.norm>
0

>  <SCORE.heavy>
34

>  <SCORE.norm>
-0.552105

>  <RMSD>
0.689

$$$$
ligand
 OpenBabel11021811483D
libRbt.so/2013.1/901 2013/11/27
 34 36  0  0  0  0  0  0  0  0999 V2000
    6.3140    5.9108    9.1813 C   0  0  2  0  0  0  0  0  0  0  0  0
    6.8341    5.4894    7.9107 O   0  0  0  0  0  0  0  0  0  0  0  0
    9.0231    7.2667    4.6996 C   0  0  2  0  0  0  0  0  0  0  0  0
    9.5354    8.2427    3.7440 N   0  0  0  0  0  0  0  0  0  0  0  0
   11.6197    8.8874    6.2369 C   0  0  2  0  0  0  0  0  0  0  0  0
    6.2812    4.6601   10.1306 C   0  0  2  0  0  0  0  0  0  0  0  0
    7.6306    4.1084   10.3287 N   0  0  0  0  0  0  0  0  0  0  0  0
    7.4614    7.2880    4.5982 C   0  0  0  0  0  0  0  0  0  0  0  0
   13.1341    8.5398    6.0070 C   0  0  2  0  0  0  0  0  0  0  0  0
   13.2913    7.8667    4.7687 O   0  0  0  0  0  0  0  0  0  0  0  0
    5.3566    3.5823    9.5241 C   0  0  1  0  0  0  0  0  0  0  0  0
    5.3157    2.4378   10.3919 O   0  0  0  0  0  0  0  0  0  0  0  0
    6.9114    6.2238    5.6072 C   0  0  2  0  0  0  0  0  0  0  0  0
    5.4352    6.2007    5.5622 N   0  0  0  0  0  0  0  0  0  0  0  0
   13.6346    7.6447    7.2060 C   0  0  1  0  0  0  0  0  0  0  0  0
   15.0700    7.2725    7.0262 N   0  0  0  0  0  0  0  0  0  0  0  0
    3.9492    4.1909    9.3183 C   0  0  2  0  0  0  0  0  0  0  0  0
    3.0787    3.2008    8.7433 O   0  0  0  0  0  0  0  0  0  0  0  0
    7.3646    6.5451    7.0543 C   0  0  2  0  0  0  0  0  0  0  0  0
   13.4396    8.4333    8.5461 C   0  0  1  0  0  0  0  0  0  0  0  0
   14.2211    9.6247    8.5176 O   0  0  0  0  0  0  0  0  0  0  0  0
    4.0506    5.4503    8.3757 C   0  0  2  0  0  0  0  0  0  0  0  0
    4.9618    6.4489    8.9678 O   0  0  0  0  0  0  0  0  0  0  0  0
    8.9123    6.5810    7.1118 C   0  0  2  0  0  0  0  0  0  0  0  0
    9.3044    6.8955    8.4440 O   0  0  0  0  0  0  0  0  0  0  0  0
   11.9305    8.8063    8.6905 C   0  0  0  0  0  0  0  0  0  0  0  0
   11.4670    9.5884    7.5192 O   0  0  0  0  0  0  0  0  0  0  0  0
    2.6693    6.1198    8.1529 C   0  0  2  0  0  0  0  0  0  0  0  0
    2.7909    7.1414    7.1666 O   0  0  0  0  0  0  0  0  0  0  0  0
    9.4836    7.6604    6.1631 C   0  0  1  0  0  0  0  0  0  0  0  0
   10.9248    7.6098    6.2842 O   0  0  0  0  0  0  0  0  0  0  0  0
    2.1450    6.7582    9.4286 C   0  0  0  0  0  0  0  0  0  0  0  0
   13.8801    7.6209    9.7575 C   0  0  0  0  0  0  0  0  0  0  0  0
   15.1315    6.0541    6.1964 C   0  0  0  0  0  0  0  0  0  0  0  0
  1  2  1  6  0  0  0
  1  6  1  0  0  0  0
  1 23  1  0  0  0  0
  3  4  1  6  0  0  0
  3  8  1  0  0  0  0
  3 30  1  0  0  0  0
  5  9  1  0  0  0  0
  5 27  1  0  0  0  0
  5 31  1  1  0  0  0
  6  7  1  6  0  0  0
  6 11  1  0  0  0  0
  8 13  1  0  0  0  0
  9 10  1  6  0  0  0
  9 15  1  0  0  0  0
 11 12  1  1  0  0  0
 11 17  1  0  0  0  0
 13 14  1  1  0  0  0
 13 19  1  0  0  0  0
 15 16  1  6  0  0  0
 15 20  1  0  0  0  0
 16 34  1  0  0  0  0
 17 18  1  6  0  0  0
 17 22  1  0  0  0  0
 19  2  1  1  0  0  0
 19 24  1  0  0  0  0
 20 21  1  6  0  0  0
 20 26  1  0  0  0  0
 20 33  1  0  0  0  0
 22 23  1  1  0  0  0
 22 28  1  0  0  0  0
 24 25  1  1  0  0  0
 24 30  1  0  0  0  0
 26 27  1  0  0  0  0
 28 29  1  6  0  0  0
 28 32  1  0  0  0  0
 30 31  1  6  0  0  0
M  END
>  <CHROM.1>
-159.96768587,-139.43005345,-86.32805219,-172.70454349,101.61866085,-165.49626039
8.60412844,6.65810333,7.58593877,-2.83161842,-0.19529376,-1.06248387

>  <Name>
ligand

>  <RI>
0

>  <Rbt.Current_Directory>
/home/itssahil/PROJECTS/Mol_Feturizer/New_Systems/rnas/3TD1

>  <Rbt.Executable>
rbdock ($Id: //depot/dev/client3/rdock/2013.1/src/exe/rbdock.cxx#4 $)

>  <Rbt.Library>
libRbt.so (2013.1, Build901 2013/11/27)

>  <Rbt.Parameter_File>
/export/apps/rDock/src/rDock_2013.1_src/data/scripts/dock_solv.prm

>  <Rbt.Receptor>
prm/pocket_docking_6.prm

>  <SCORE>
-18.7286

>  <SCORE.INTER>
-16.3858

>  <SCORE.INTER.CONST>
1

>  <SCORE.INTER.POLAR>
0

>  <SCORE.INTER.ROT>
6

>  <SCORE.INTER.SOLV>
19.7088

>  <SCORE.INTER.VDW>
-25.0935

>  <SCORE.INTER.norm>
-0.481935

>  <SCORE.INTRA>
-2.34275

>  <SCORE.INTRA.DIHEDRAL>
-4.97385

>  <SCORE.INTRA.DIHEDRAL.0>
19.5869

>  <SCORE.INTRA.POLAR>
0

>  <SCORE.INTRA.POLAR.0>
0

>  <SCORE.INTRA.REPUL>
0

>  <SCORE.INTRA.REPUL.0>
0

>  <SCORE.INTRA.SOLV>
0.186658

>  <SCORE.INTRA.SOLV.lig_0>
-70.101

>  <SCORE.INTRA.VDW>
0.0508419

>  <SCORE.INTRA.VDW.0>
-3.39718

>  <SCORE.INTRA.norm>
-0.0689045

>  <SCORE.RESTR>
0

>  <SCORE.RESTR.CAVITY>
0

>  <SCORE.RESTR.norm>
0

>  <SCORE.SYSTEM>
0

>  <SCORE.SYSTEM.CONST>
0

>  <SCORE.SYSTEM.DIHEDRAL>
0

>  <SCORE.SYSTEM.SOLV>
0

>  <SCORE.SYSTEM.norm>
0

>  <SCORE.heavy>
34

>  <SCORE.norm>
-0.55084

>  <RMSD>
0.694

$$$$
ligand
 OpenBabel11021811483D
libRbt.so/2013.1/901 2013/11/27
 34 36  0  0  0  0  0  0  0  0999 V2000
    6.2036    5.9302    9.1712 C   0  0  2  0  0  0  0  0  0  0  0  0
    6.7276    5.5053    7.9033 O   0  0  0  0  0  0  0  0  0  0  0  0
    8.9426    7.2587    4.6969 C   0  0  2  0  0  0  0  0  0  0  0  0
    9.4746    8.2311    3.7485 N   0  0  0  0  0  0  0  0  0  0  0  0
   11.5980    8.7824    6.1436 C   0  0  2  0  0  0  0  0  0  0  0  0
    6.1687    4.6823   10.1241 C   0  0  2  0  0  0  0  0  0  0  0  0
    7.5177    4.1318   10.3277 N   0  0  0  0  0  0  0  0  0  0  0  0
    7.3814    7.3228    4.6064 C   0  0  0  0  0  0  0  0  0  0  0  0
   13.1002    8.3729    5.9362 C   0  0  2  0  0  0  0  0  0  0  0  0
   13.2334    7.6178    4.7434 O   0  0  0  0  0  0  0  0  0  0  0  0
    5.2463    3.6023    9.5181 C   0  0  1  0  0  0  0  0  0  0  0  0
    5.2035    2.4602   10.3891 O   0  0  0  0  0  0  0  0  0  0  0  0
    6.8095    6.2628    5.6075 C   0  0  2  0  0  0  0  0  0  0  0  0
    5.3330    6.2796    5.5723 N   0  0  0  0  0  0  0  0  0  0  0  0
   13.5744    7.5405    7.1899 C   0  0  1  0  0  0  0  0  0  0  0  0
   14.9970    7.1122    7.0340 N   0  0  0  0  0  0  0  0  0  0  0  0
    3.8392    4.2096    9.3064 C   0  0  2  0  0  0  0  0  0  0  0  0
    2.9708    3.2174    8.7319 O   0  0  0  0  0  0  0  0  0  0  0  0
    7.2806    6.5558    7.0549 C   0  0  2  0  0  0  0  0  0  0  0  0
   13.4073    8.4185    8.4770 C   0  0  1  0  0  0  0  0  0  0  0  0
   14.2262    9.5803    8.3728 O   0  0  0  0  0  0  0  0  0  0  0  0
    3.9427    5.4662    8.3605 C   0  0  2  0  0  0  0  0  0  0  0  0
    4.8517    6.4670    8.9522 O   0  0  0  0  0  0  0  0  0  0  0  0
    8.8291    6.5496    7.1022 C   0  0  2  0  0  0  0  0  0  0  0  0
    9.2381    6.8387    8.4350 O   0  0  0  0  0  0  0  0  0  0  0  0
   11.9111    8.8478    8.5974 C   0  0  0  0  0  0  0  0  0  0  0  0
   11.4703    9.5681    7.3787 O   0  0  0  0  0  0  0  0  0  0  0  0
    2.5618    6.1345    8.1317 C   0  0  2  0  0  0  0  0  0  0  0  0
    2.6852    7.1514    7.1408 O   0  0  0  0  0  0  0  0  0  0  0  0
    9.4230    7.6237    6.1614 C   0  0  1  0  0  0  0  0  0  0  0  0
   10.8630    7.5332    6.2722 O   0  0  0  0  0  0  0  0  0  0  0  0
    2.0348    6.7788    9.4033 C   0  0  0  0  0  0  0  0  0  0  0  0
   13.8243    7.6712    9.7377 C   0  0  0  0  0  0  0  0  0  0  0  0
   15.0136    5.7989    6.3618 C   0  0  0  0  0  0  0  0  0  0  0  0
  1  2  1  6  0  0  0
  1  6  1  0  0  0  0
  1 23  1  0  0  0  0
  3  4  1  6  0  0  0
  3  8  1  0  0  0  0
  3 30  1  0  0  0  0
  5  9  1  0  0  0  0
  5 27  1  0  0  0  0
  5 31  1  1  0  0  0
  6  7  1  6  0  0  0
  6 11  1  0  0  0  0
  8 13  1  0  0  0  0
  9 10  1  6  0  0  0
  9 15  1  0  0  0  0
 11 12  1  1  0  0  0
 11 17  1  0  0  0  0
 13 14  1  1  0  0  0
 13 19  1  0  0  0  0
 15 16  1  6  0  0  0
 15 20  1  0  0  0  0
 16 34  1  0  0  0  0
 17 18  1  6  0  0  0
 17 22  1  0  0  0  0
 19  2  1  1  0  0  0
 19 24  1  0  0  0  0
 20 21  1  6  0  0  0
 20 26  1  0  0  0  0
 20 33  1  0  0  0  0
 22 23  1  1  0  0  0
 22 28  1  0  0  0  0
 24 25  1  1  0  0  0
 24 30  1  0  0  0  0
 26 27  1  0  0  0  0
 28 29  1  6  0  0  0
 28 32  1  0  0  0  0
 30 31  1  6  0  0  0
M  END
>  <CHROM.1>
-158.96897660,-138.26471434,-89.99384092,-172.58881805,97.61802552,-166.09177273
8.52578588,6.63230248,7.56593678,-2.83490779,-0.17793485,-1.04690740

>  <Name>
ligand

>  <RI>
0

>  <Rbt.Current_Directory>
/home/itssahil/PROJECTS/Mol_Feturizer/New_Systems/rnas/3TD1

>  <Rbt.Executable>
rbdock ($Id: //depot/dev/client3/rdock/2013.1/src/exe/rbdock.cxx#4 $)

>  <Rbt.Library>
libRbt.so (2013.1, Build901 2013/11/27)

>  <Rbt.Parameter_File>
/export/apps/rDock/src/rDock_2013.1_src/data/scripts/dock_solv.prm

>  <Rbt.Receptor>
prm/pocket_docking_7.prm

>  <SCORE>
-18.4374

>  <SCORE.INTER>
-15.8191

>  <SCORE.INTER.CONST>
1

>  <SCORE.INTER.POLAR>
0

>  <SCORE.INTER.ROT>
6

>  <SCORE.INTER.SOLV>
19.6764

>  <SCORE.INTER.VDW>
-24.7049

>  <SCORE.INTER.norm>
-0.465268

>  <SCORE.INTRA>
-2.62978

>  <SCORE.INTRA.DIHEDRAL>
-5.22965

>  <SCORE.INTRA.DIHEDRAL.0>
19.5869

>  <SCORE.INTRA.POLAR>
0

>  <SCORE.INTRA.POLAR.0>
0

>  <SCORE.INTRA.REPUL>
0

>  <SCORE.INTRA.REPUL.0>
0

>  <SCORE.INTRA.SOLV>
0.271006

>  <SCORE.INTRA.SOLV.lig_0>
-70.101

>  <SCORE.INTRA.VDW>
-0.150463

>  <SCORE.INTRA.VDW.0>
-3.39718

>  <SCORE.INTRA.norm>
-0.0773466

>  <SCORE.RESTR>
0.0115237

>  <SCORE.RESTR.CAVITY>
0.0115237

>  <SCORE.RESTR.norm>
0.000338934

>  <SCORE.SYSTEM>
0

>  <SCORE.SYSTEM.CONST>
0

>  <SCORE.SYSTEM.DIHEDRAL>
0

>  <SCORE.SYSTEM.SOLV>
0

>  <SCORE.SYSTEM.norm>
0

>  <SCORE.heavy>
34

>  <SCORE.norm>
-0.542276

>  <RMSD>
0.707

$$$$
ligand
 OpenBabel11021811483D
libRbt.so/2013.1/901 2013/11/27
 34 36  0  0  0  0  0  0  0  0999 V2000
    6.2758    5.9976    9.1432 C   0  0  2  0  0  0  0  0  0  0  0  0
    6.8158    5.5522    7.8891 O   0  0  0  0  0  0  0  0  0  0  0  0
    9.0477    7.2620    4.6710 C   0  0  2  0  0  0  0  0  0  0  0  0
    9.5795    8.2199    3.7078 N   0  0  0  0  0  0  0  0  0  0  0  0
   11.6636    8.8558    6.1668 C   0  0  2  0  0  0  0  0  0  0  0  0
    6.2191    4.7632   10.1124 C   0  0  2  0  0  0  0  0  0  0  0  0
    7.5615    4.2075   10.3436 N   0  0  0  0  0  0  0  0  0  0  0  0
    7.4870    7.3055    4.5611 C   0  0  0  0  0  0  0  0  0  0  0  0
   13.1745    8.4729    5.9723 C   0  0  2  0  0  0  0  0  0  0  0  0
   13.3352    7.7425    4.7675 O   0  0  0  0  0  0  0  0  0  0  0  0
    5.2990    3.6805    9.5077 C   0  0  1  0  0  0  0  0  0  0  0  0
    5.2363    2.5509   10.3935 O   0  0  0  0  0  0  0  0  0  0  0  0
    6.9159    6.2606    5.5784 C   0  0  2  0  0  0  0  0  0  0  0  0
    5.4398    6.2591    5.5259 N   0  0  0  0  0  0  0  0  0  0  0  0
   13.6446    7.6241    7.2165 C   0  0  1  0  0  0  0  0  0  0  0  0
   15.0755    7.2203    7.0722 N   0  0  0  0  0  0  0  0  0  0  0  0
    3.8990    4.2933    9.2668 C   0  0  2  0  0  0  0  0  0  0  0  0
    3.0331    3.2985    8.6931 O   0  0  0  0  0  0  0  0  0  0  0  0
    7.3664    6.5906    7.0244 C   0  0  2  0  0  0  0  0  0  0  0  0
   13.4469    8.4751    8.5174 C   0  0  1  0  0  0  0  0  0  0  0  0
   14.2493    9.6508    8.4461 O   0  0  0  0  0  0  0  0  0  0  0  0
    4.0243    5.5361    8.3054 C   0  0  2  0  0  0  0  0  0  0  0  0
    4.9306    6.5395    8.8968 O   0  0  0  0  0  0  0  0  0  0  0  0
    8.9142    6.6039    7.0897 C   0  0  2  0  0  0  0  0  0  0  0  0
    9.3042    6.9266    8.4205 O   0  0  0  0  0  0  0  0  0  0  0  0
   11.9428    8.8795    8.6254 C   0  0  0  0  0  0  0  0  0  0  0  0
   11.5074    9.6160    7.4144 O   0  0  0  0  0  0  0  0  0  0  0  0
    2.6510    6.2094    8.0470 C   0  0  2  0  0  0  0  0  0  0  0  0
    2.7950    7.2105    7.0428 O   0  0  0  0  0  0  0  0  0  0  0  0
    9.5065    7.6644    6.1326 C   0  0  1  0  0  0  0  0  0  0  0  0
   10.9462    7.5935    6.2619 O   0  0  0  0  0  0  0  0  0  0  0  0
    2.1103    6.8760    9.3012 C   0  0  0  0  0  0  0  0  0  0  0  0
   13.8584    7.7105    9.7695 C   0  0  0  0  0  0  0  0  0  0  0  0
   15.1270    5.9733    6.2852 C   0  0  0  0  0  0  0  0  0  0  0  0
  1  2  1  6  0  0  0
  1  6  1  0  0  0  0
  1 23  1  0  0  0  0
  3  4  1  6  0  0  0
  3  8  1  0  0  0  0
  3 30  1  0  0  0  0
  5  9  1  0  0  0  0
  5 27  1  0  0  0  0
  5 31  1  1  0  0  0
  6  7  1  6  0  0  0
  6 11  1  0  0  0  0
  8 13  1  0  0  0  0
  9 10  1  6  0  0  0
  9 15  1  0  0  0  0
 11 12  1  1  0  0  0
 11 17  1  0  0  0  0
 13 14  1  1  0  0  0
 13 19  1  0  0  0  0
 15 16  1  6  0  0  0
 15 20  1  0  0  0  0
 16 34  1  0  0  0  0
 17 18  1  6  0  0  0
 17 22  1  0  0  0  0
 19  2  1  1  0  0  0
 19 24  1  0  0  0  0
 20 21  1  6  0  0  0
 20 26  1  0  0  0  0
 20 33  1  0  0  0  0
 22 23  1  1  0  0  0
 22 28  1  0  0  0  0
 24 25  1  1  0  0  0
 24 30  1  0  0  0  0
 26 27  1  0  0  0  0
 28 29  1  6  0  0  0
 28 32  1  0  0  0  0
 30 31  1  6  0  0  0
M  END
>  <CHROM.1>
-160.01195288,-138.45273345,-85.69010974,-172.50930023,99.93847945,-166.06678619
8.59910246,6.69543042,7.55053026,-2.84465487,-0.19061494,-1.07490895

>  <Name>
ligand

>  <RI>
0

>  <Rbt.Current_Directory>
/home/itssahil/PROJECTS/Mol_Feturizer/New_Systems/rnas/3TD1

>  <Rbt.Executable>
rbdock ($Id: //depot/dev/client3/rdock/2013.1/src/exe/rbdock.cxx#4 $)

>  <Rbt.Library>
libRbt.so (2013.1, Build901 2013/11/27)

>  <Rbt.Parameter_File>
/export/apps/rDock/src/rDock_2013.1_src/data/scripts/dock_solv.prm

>  <Rbt.Receptor>
prm/pocket_docking_6.prm

>  <SCORE>
-18.7544

>  <SCORE.INTER>
-16.3914

>  <SCORE.INTER.CONST>
1

>  <SCORE.INTER.POLAR>
0

>  <SCORE.INTER.ROT>
6

>  <SCORE.INTER.SOLV>
19.9027

>  <SCORE.INTER.VDW>
-25.1618

>  <SCORE.INTER.norm>
-0.4821

>  <SCORE.INTRA>
-2.36298

>  <SCORE.INTRA.DIHEDRAL>
-5.17212

>  <SCORE.INTRA.DIHEDRAL.0>
19.5869

>  <SCORE.INTRA.POLAR>
0

>  <SCORE.INTRA.POLAR.0>
0

>  <SCORE.INTRA.REPUL>
0

>  <SCORE.INTRA.REPUL.0>
0

>  <SCORE.INTRA.SOLV>
0.262618

>  <SCORE.INTRA.SOLV.lig_0>
-70.101

>  <SCORE.INTRA.VDW>
0.0917648

>  <SCORE.INTRA.VDW.0>
-3.39718

>  <SCORE.INTRA.norm>
-0.0694996

>  <SCORE.RESTR>
0

>  <SCORE.RESTR.CAVITY>
0

>  <SCORE.RESTR.norm>
0

>  <SCORE.SYSTEM>
0

>  <SCORE.SYSTEM.CONST>
0

>  <SCORE.SYSTEM.DIHEDRAL>
0

>  <SCORE.SYSTEM.SOLV>
0

>  <SCORE.SYSTEM.norm>
0

>  <SCORE.heavy>
34

>  <SCORE.norm>
-0.5516

>  <RMSD>
0.709

$$$$
ligand
 OpenBabel11021811483D
libRbt.so/2013.1/901 2013/11/27
 34 36  0  0  0  0  0  0  0  0999 V2000
    6.2561    5.9250    9.1250 C   0  0  2  0  0  0  0  0  0  0  0  0
    6.7945    5.5005    7.8631 O   0  0  0  0  0  0  0  0  0  0  0  0
    9.0019    7.2595    4.6545 C   0  0  2  0  0  0  0  0  0  0  0  0
    9.5338    8.2340    3.7082 N   0  0  0  0  0  0  0  0  0  0  0  0
   11.6703    8.7660    6.1097 C   0  0  2  0  0  0  0  0  0  0  0  0
    6.1840    4.6710   10.0678 C   0  0  2  0  0  0  0  0  0  0  0  0
    7.5199    4.0964   10.2902 N   0  0  0  0  0  0  0  0  0  0  0  0
    7.4406    7.3311    4.5718 C   0  0  0  0  0  0  0  0  0  0  0  0
   13.1751    8.3547    5.9271 C   0  0  2  0  0  0  0  0  0  0  0  0
   13.3277    7.6030    4.7344 O   0  0  0  0  0  0  0  0  0  0  0  0
    5.2542    3.6111    9.4381 C   0  0  1  0  0  0  0  0  0  0  0  0
    5.1774    2.4637   10.2997 O   0  0  0  0  0  0  0  0  0  0  0  0
    6.8688    6.2687    5.5705 C   0  0  2  0  0  0  0  0  0  0  0  0
    5.3922    6.2924    5.5426 N   0  0  0  0  0  0  0  0  0  0  0  0
   13.6263    7.5177    7.1861 C   0  0  1  0  0  0  0  0  0  0  0  0
   15.0506    7.0875    7.0536 N   0  0  0  0  0  0  0  0  0  0  0  0
    3.8613    4.2435    9.2071 C   0  0  2  0  0  0  0  0  0  0  0  0
    2.9864    3.2703    8.6105 O   0  0  0  0  0  0  0  0  0  0  0  0
    7.3482    6.5526    7.0171 C   0  0  2  0  0  0  0  0  0  0  0  0
   13.4383    8.3921    8.4728 C   0  0  1  0  0  0  0  0  0  0  0  0
   14.2608    9.5528    8.3863 O   0  0  0  0  0  0  0  0  0  0  0  0
    4.0020    5.5050    8.2725 C   0  0  2  0  0  0  0  0  0  0  0  0
    4.9173    6.4861    8.8872 O   0  0  0  0  0  0  0  0  0  0  0  0
    8.8968    6.5393    7.0568 C   0  0  2  0  0  0  0  0  0  0  0  0
    9.3136    6.8200    8.3890 O   0  0  0  0  0  0  0  0  0  0  0  0
   11.9410    8.8235    8.5687 C   0  0  0  0  0  0  0  0  0  0  0  0
   11.5225    9.5482    7.3448 O   0  0  0  0  0  0  0  0  0  0  0  0
    2.6365    6.1981    8.0254 C   0  0  2  0  0  0  0  0  0  0  0  0
    2.7954    7.2247    7.0496 O   0  0  0  0  0  0  0  0  0  0  0  0
    9.4910    7.6152    6.1183 C   0  0  1  0  0  0  0  0  0  0  0  0
   10.9312    7.5177    6.2217 O   0  0  0  0  0  0  0  0  0  0  0  0
    2.0950    6.8354    9.2944 C   0  0  0  0  0  0  0  0  0  0  0  0
   13.8323    7.6403    9.7383 C   0  0  0  0  0  0  0  0  0  0  0  0
   15.0836    5.8263    6.2886 C   0  0  0  0  0  0  0  0  0  0  0  0
  1  2  1  6  0  0  0
  1  6  1  0  0  0  0
  1 23  1  0  0  0  0
  3  4  1  6  0  0  0
  3  8  1  0  0  0  0
  3 30  1  0  0  0  0
  5  9  1  0  0  0  0
  5 27  1  0  0  0  0
  5 31  1  1  0  0  0
  6  7  1  6  0  0  0
  6 11  1  0  0  0  0
  8 13  1  0  0  0  0
  9 10  1  6  0  0  0
  9 15  1  0  0  0  0
 11 12  1  1  0  0  0
 11 17  1  0  0  0  0
 13 14  1  1  0  0  0
 13 19  1  0  0  0  0
 15 16  1  6  0  0  0
 15 20  1  0  0  0  0
 16 34  1  0  0  0  0
 17 18  1  6  0  0  0
 17 22  1  0  0  0  0
 19  2  1  1  0  0  0
 19 24  1  0  0  0  0
 20 21  1  6  0  0  0
 20 26  1  0  0  0  0
 20 33  1  0  0  0  0
 22 23  1  1  0  0  0
 22 28  1  0  0  0  0
 24 25  1  1  0  0  0
 24 30  1  0  0  0  0
 26 27  1  0  0  0  0
 28 29  1  6  0  0  0
 28 32  1  0  0  0  0
 30 31  1  6  0  0  0
M  END
>  <CHROM.1>
-160.50081861,-137.15199931,-85.79744205,-172.90322640,98.24109305,-167.52189241
8.57719195,6.63462868,7.51854402,-2.84228617,-0.17673767,-1.04575772

>  <Name>
ligand

>  <RI>
0

>  <Rbt.Current_Directory>
/home/itssahil/PROJECTS/Mol_Feturizer/New_Systems/rnas/3TD1

>  <Rbt.Executable>
rbdock ($Id: //depot/dev/client3/rdock/2013.1/src/exe/rbdock.cxx#4 $)

>  <Rbt.Library>
libRbt.so (2013.1, Build901 2013/11/27)

>  <Rbt.Parameter_File>
/export/apps/rDock/src/rDock_2013.1_src/data/scripts/dock_solv.prm

>  <Rbt.Receptor>
prm/pocket_docking_7.prm

>  <SCORE>
-18.3941

>  <SCORE.INTER>
-15.881

>  <SCORE.INTER.CONST>
1

>  <SCORE.INTER.POLAR>
0

>  <SCORE.INTER.ROT>
6

>  <SCORE.INTER.SOLV>
19.4176

>  <SCORE.INTER.VDW>
-24.6598

>  <SCORE.INTER.norm>
-0.467087

>  <SCORE.INTRA>
-2.51317

>  <SCORE.INTRA.DIHEDRAL>
-5.52665

>  <SCORE.INTRA.DIHEDRAL.0>
19.5869

>  <SCORE.INTRA.POLAR>
0

>  <SCORE.INTRA.POLAR.0>
0

>  <SCORE.INTRA.REPUL>
0

>  <SCORE.INTRA.REPUL.0>
0

>  <SCORE.INTRA.SOLV>
0.335994

>  <SCORE.INTRA.SOLV.lig_0>
-70.101

>  <SCORE.INTRA.VDW>
0.0821578

>  <SCORE.INTRA.VDW.0>
-3.39718

>  <SCORE.INTRA.norm>
-0.0739168

>  <SCORE.RESTR>
0

>  <SCORE.RESTR.CAVITY>
0

>  <SCORE.RESTR.norm>
0

>  <SCORE.SYSTEM>
0

>  <SCORE.SYSTEM.CONST>
0

>  <SCORE.SYSTEM.DIHEDRAL>
0

>  <SCORE.SYSTEM.SOLV>
0

>  <SCORE.SYSTEM.norm>
0

>  <SCORE.heavy>
34

>  <SCORE.norm>
-0.541004

>  <RMSD>
0.709

$$$$
ligand
 OpenBabel11021811483D
libRbt.so/2013.1/901 2013/11/27
 34 36  0  0  0  0  0  0  0  0999 V2000
    6.3533    5.8374    9.3855 C   0  0  2  0  0  0  0  0  0  0  0  0
    6.6914    5.4842    8.0352 O   0  0  0  0  0  0  0  0  0  0  0  0
    9.0936    7.2891    4.9965 C   0  0  2  0  0  0  0  0  0  0  0  0
    9.6661    8.2722    4.0833 N   0  0  0  0  0  0  0  0  0  0  0  0
   11.5752    8.9118    6.6165 C   0  0  2  0  0  0  0  0  0  0  0  0
    6.1919    4.5093   10.2081 C   0  0  2  0  0  0  0  0  0  0  0  0
    7.4433    3.7358   10.2183 N   0  0  0  0  0  0  0  0  0  0  0  0
    7.5432    7.2986    4.7820 C   0  0  0  0  0  0  0  0  0  0  0  0
   13.0536    8.5509    6.2278 C   0  0  2  0  0  0  0  0  0  0  0  0
   13.0749    7.8959    4.9703 O   0  0  0  0  0  0  0  0  0  0  0  0
    5.0558    3.6628    9.5941 C   0  0  1  0  0  0  0  0  0  0  0  0
    4.8973    2.4492   10.3469 O   0  0  0  0  0  0  0  0  0  0  0  0
    6.9299    6.2269    5.7454 C   0  0  2  0  0  0  0  0  0  0  0  0
    5.4611    6.1925    5.5933 N   0  0  0  0  0  0  0  0  0  0  0  0
   13.6624    7.6313    7.3562 C   0  0  1  0  0  0  0  0  0  0  0  0
   15.0671    7.2460    7.0250 N   0  0  0  0  0  0  0  0  0  0  0  0
    3.7561    4.5021    9.5874 C   0  0  2  0  0  0  0  0  0  0  0  0
    2.6902    3.7298    9.0078 O   0  0  0  0  0  0  0  0  0  0  0  0
    7.2743    6.5469    7.2225 C   0  0  2  0  0  0  0  0  0  0  0  0
   13.6153    8.4007    8.7205 C   0  0  1  0  0  0  0  0  0  0  0  0
   14.4051    9.5836    8.6297 O   0  0  0  0  0  0  0  0  0  0  0  0
    3.9869    5.8273    8.7657 C   0  0  2  0  0  0  0  0  0  0  0  0
    5.0956    6.5998    9.3591 O   0  0  0  0  0  0  0  0  0  0  0  0
    8.8134    6.5945    7.3923 C   0  0  2  0  0  0  0  0  0  0  0  0
    9.1052    6.9075    8.7503 O   0  0  0  0  0  0  0  0  0  0  0  0
   12.1338    8.7884    9.0240 C   0  0  0  0  0  0  0  0  0  0  0  0
   11.5632    9.5940    7.9178 O   0  0  0  0  0  0  0  0  0  0  0  0
    2.7216    6.7243    8.7455 C   0  0  2  0  0  0  0  0  0  0  0  0
    2.1832    6.8146   10.0620 O   0  0  0  0  0  0  0  0  0  0  0  0
    9.4435    7.6814    6.4906 C   0  0  1  0  0  0  0  0  0  0  0  0
   10.8724    7.6415    6.7159 O   0  0  0  0  0  0  0  0  0  0  0  0
    1.6460    6.1536    7.8360 C   0  0  0  0  0  0  0  0  0  0  0  0
   14.1668    7.5643    9.8685 C   0  0  0  0  0  0  0  0  0  0  0  0
   15.0304    6.0065    6.2254 C   0  0  0  0  0  0  0  0  0  0  0  0
  1  2  1  6  0  0  0
  1  6  1  0  0  0  0
  1 23  1  0  0  0  0
  3  4  1  6  0  0  0
  3  8  1  0  0  0  0
  3 30  1  0  0  0  0
  5  9  1  0  0  0  0
  5 27  1  0  0  0  0
  5 31  1  1  0  0  0
  6  7  1  6  0  0  0
  6 11  1  0  0  0  0
  8 13  1  0  0  0  0
  9 10  1  6  0  0  0
  9 15  1  0  0  0  0
 11 12  1  1  0  0  0
 11 17  1  0  0  0  0
 13 14  1  1  0  0  0
 13 19  1  0  0  0  0
 15 16  1  6  0  0  0
 15 20  1  0  0  0  0
 16 34  1  0  0  0  0
 17 18  1  6  0  0  0
 17 22  1  0  0  0  0
 19  2  1  1  0  0  0
 19 24  1  0  0  0  0
 20 21  1  6  0  0  0
 20 26  1  0  0  0  0
 20 33  1  0  0  0  0
 22 23  1  1  0  0  0
 22 28  1  0  0  0  0
 24 25  1  1  0  0  0
 24 30  1  0  0  0  0
 26 27  1  0  0  0  0
 28 29  1  1  0  0  0
 28 32  1  0  0  0  0
 30 31  1  6  0  0  0
M  END
>  <CHROM.1>
-162.04119477,-153.08561491,-88.79178026,45.97900944,96.86514290,-154.21533687
8.53137628,6.67042214,7.83176411,-2.84508555,-0.19484379,-1.12006238

>  <Name>
ligand

>  <RI>
0

>  <Rbt.Current_Directory>
/home/itssahil/PROJECTS/Mol_Feturizer/New_Systems/rnas/3TD1

>  <Rbt.Executable>
rbdock ($Id: //depot/dev/client3/rdock/2013.1/src/exe/rbdock.cxx#4 $)

>  <Rbt.Library>
libRbt.so (2013.1, Build901 2013/11/27)

>  <Rbt.Parameter_File>
/export/apps/rDock/src/rDock_2013.1_src/data/scripts/dock_solv.prm

>  <Rbt.Receptor>
prm/pocket_docking_4.prm

>  <SCORE>
-19.2919

>  <SCORE.INTER>
-16.3227

>  <SCORE.INTER.CONST>
1

>  <SCORE.INTER.POLAR>
0

>  <SCORE.INTER.ROT>
6

>  <SCORE.INTER.SOLV>
21.2106

>  <SCORE.INTER.VDW>
-25.552

>  <SCORE.INTER.norm>
-0.480081

>  <SCORE.INTRA>
-2.96913

>  <SCORE.INTRA.DIHEDRAL>
-6.17696

>  <SCORE.INTRA.DIHEDRAL.0>
19.5869

>  <SCORE.INTRA.POLAR>
0

>  <SCORE.INTRA.POLAR.0>
0

>  <SCORE.INTRA.REPUL>
0

>  <SCORE.INTRA.REPUL.0>
0

>  <SCORE.INTRA.SOLV>
-0.285611

>  <SCORE.INTRA.SOLV.lig_0>
-70.101

>  <SCORE.INTRA.VDW>
0.262155

>  <SCORE.INTRA.VDW.0>
-3.39718

>  <SCORE.INTRA.norm>
-0.0873274

>  <SCORE.RESTR>
0

>  <SCORE.RESTR.CAVITY>
0

>  <SCORE.RESTR.norm>
0

>  <SCORE.SYSTEM>
0

>  <SCORE.SYSTEM.CONST>
0

>  <SCORE.SYSTEM.DIHEDRAL>
0

>  <SCORE.SYSTEM.SOLV>
0

>  <SCORE.SYSTEM.norm>
0

>  <SCORE.heavy>
34

>  <SCORE.norm>
-0.567408

>  <RMSD>
0.733

$$$$
ligand
 OpenBabel11021811483D
libRbt.so/2013.1/901 2013/11/27
 34 36  0  0  0  0  0  0  0  0999 V2000
    6.3919    5.8526    9.3555 C   0  0  2  0  0  0  0  0  0  0  0  0
    6.7003    5.5111    7.9951 O   0  0  0  0  0  0  0  0  0  0  0  0
    9.1563    7.3063    4.9939 C   0  0  2  0  0  0  0  0  0  0  0  0
    9.7442    8.2861    4.0870 N   0  0  0  0  0  0  0  0  0  0  0  0
   11.6023    8.9429    6.6593 C   0  0  2  0  0  0  0  0  0  0  0  0
    6.2479    4.5174   10.1698 C   0  0  2  0  0  0  0  0  0  0  0  0
    7.4987    3.7434   10.1458 N   0  0  0  0  0  0  0  0  0  0  0  0
    7.6103    7.3116    4.7499 C   0  0  0  0  0  0  0  0  0  0  0  0
   13.0809    8.5883    6.2650 C   0  0  2  0  0  0  0  0  0  0  0  0
   13.1017    7.9475    5.0002 O   0  0  0  0  0  0  0  0  0  0  0  0
    5.0981    3.6767    9.5734 C   0  0  1  0  0  0  0  0  0  0  0  0
    4.9555    2.4566   10.3189 O   0  0  0  0  0  0  0  0  0  0  0  0
    6.9808    6.2433    5.7067 C   0  0  2  0  0  0  0  0  0  0  0  0
    5.5153    6.2052    5.5268 N   0  0  0  0  0  0  0  0  0  0  0  0
   13.6920    7.6570    7.3824 C   0  0  1  0  0  0  0  0  0  0  0  0
   15.0969    7.2773    7.0455 N   0  0  0  0  0  0  0  0  0  0  0  0
    3.7991    4.5165    9.6025 C   0  0  2  0  0  0  0  0  0  0  0  0
    2.7203    3.7497    9.0396 O   0  0  0  0  0  0  0  0  0  0  0  0
    7.2964    6.5710    7.1885 C   0  0  2  0  0  0  0  0  0  0  0  0
   13.6454    8.4110    8.7553 C   0  0  1  0  0  0  0  0  0  0  0  0
   14.4335    9.5958    8.6770 O   0  0  0  0  0  0  0  0  0  0  0  0
    4.0125    5.8487    8.7875 C   0  0  2  0  0  0  0  0  0  0  0  0
    5.1344    6.6156    9.3632 O   0  0  0  0  0  0  0  0  0  0  0  0
    8.8319    6.6227    7.3873 C   0  0  2  0  0  0  0  0  0  0  0  0
    9.0973    6.9427    8.7491 O   0  0  0  0  0  0  0  0  0  0  0  0
   12.1636    8.7932    9.0647 C   0  0  0  0  0  0  0  0  0  0  0  0
   11.5908    9.6104    7.9682 O   0  0  0  0  0  0  0  0  0  0  0  0
    2.7476    6.7463    8.8029 C   0  0  2  0  0  0  0  0  0  0  0  0
    2.2337    6.8190   10.1302 O   0  0  0  0  0  0  0  0  0  0  0  0
    9.4769    7.7065    6.4925 C   0  0  1  0  0  0  0  0  0  0  0  0
   10.9014    7.6706    6.7452 O   0  0  0  0  0  0  0  0  0  0  0  0
    1.6551    6.1884    7.9057 C   0  0  0  0  0  0  0  0  0  0  0  0
   14.1992    7.5624    9.8933 C   0  0  0  0  0  0  0  0  0  0  0  0
   15.0626    6.0312    6.2561 C   0  0  0  0  0  0  0  0  0  0  0  0
  1  2  1  6  0  0  0
  1  6  1  0  0  0  0
  1 23  1  0  0  0  0
  3  4  1  6  0  0  0
  3  8  1  0  0  0  0
  3 30  1  0  0  0  0
  5  9  1  0  0  0  0
  5 27  1  0  0  0  0
  5 31  1  1  0  0  0
  6  7  1  6  0  0  0
  6 11  1  0  0  0  0
  8 13  1  0  0  0  0
  9 10  1  6  0  0  0
  9 15  1  0  0  0  0
 11 12  1  1  0  0  0
 11 17  1  0  0  0  0
 13 14  1  1  0  0  0
 13 19  1  0  0  0  0
 15 16  1  6  0  0  0
 15 20  1  0  0  0  0
 16 34  1  0  0  0  0
 17 18  1  6  0  0  0
 17 22  1  0  0  0  0
 19  2  1  1  0  0  0
 19 24  1  0  0  0  0
 20 21  1  6  0  0  0
 20 26  1  0  0  0  0
 20 33  1  0  0  0  0
 22 23  1  1  0  0  0
 22 28  1  0  0  0  0
 24 25  1  1  0  0  0
 24 30  1  0  0  0  0
 26 27  1  0  0  0  0
 28 29  1  1  0  0  0
 28 32  1  0  0  0  0
 30 31  1  6  0  0  0
M  END
>  <CHROM.1>
-160.58102963,-155.82243863,-89.96646858,45.64003993,97.14872223,-152.89077943
8.56669479,6.69021781,7.84067777,-2.84817960,-0.19877768,-1.12970070

>  <Name>
ligand

>  <RI>
0

>  <Rbt.Current_Directory>
/home/itssahil/PROJECTS/Mol_Feturizer/New_Systems/rnas/3TD1

>  <Rbt.Executable>
rbdock ($Id: //depot/dev/client3/rdock/2013.1/src/exe/rbdock.cxx#4 $)

>  <Rbt.Library>
libRbt.so (2013.1, Build901 2013/11/27)

>  <Rbt.Parameter_File>
/export/apps/rDock/src/rDock_2013.1_src/data/scripts/dock_solv.prm

>  <Rbt.Receptor>
prm/pocket_docking_4.prm

>  <SCORE>
-19.1991

>  <SCORE.INTER>
-16.2197

>  <SCORE.INTER.CONST>
1

>  <SCORE.INTER.POLAR>
0

>  <SCORE.INTER.ROT>
6

>  <SCORE.INTER.SOLV>
21.2878

>  <SCORE.INTER.VDW>
-25.5091

>  <SCORE.INTER.norm>
-0.477051

>  <SCORE.INTRA>
-2.97931

>  <SCORE.INTRA.DIHEDRAL>
-6.08729

>  <SCORE.INTRA.DIHEDRAL.0>
19.5869

>  <SCORE.INTRA.POLAR>
0

>  <SCORE.INTRA.POLAR.0>
0

>  <SCORE.INTRA.REPUL>
0

>  <SCORE.INTRA.REPUL.0>
0

>  <SCORE.INTRA.SOLV>
-0.431317

>  <SCORE.INTRA.SOLV.lig_0>
-70.101

>  <SCORE.INTRA.VDW>
0.279989

>  <SCORE.INTRA.VDW.0>
-3.39718

>  <SCORE.INTRA.norm>
-0.0876269

>  <SCORE.RESTR>
0

>  <SCORE.RESTR.CAVITY>
0

>  <SCORE.RESTR.norm>
0

>  <SCORE.SYSTEM>
0

>  <SCORE.SYSTEM.CONST>
0

>  <SCORE.SYSTEM.DIHEDRAL>
0

>  <SCORE.SYSTEM.SOLV>
0

>  <SCORE.SYSTEM.norm>
0

>  <SCORE.heavy>
34

>  <SCORE.norm>
-0.564678

>  <RMSD>
0.734

$$$$
ligand
 OpenBabel11021811483D
libRbt.so/2013.1/901 2013/11/27
 34 36  0  0  0  0  0  0  0  0999 V2000
    6.3362    5.8865    9.2811 C   0  0  2  0  0  0  0  0  0  0  0  0
    6.6168    5.5452    7.9145 O   0  0  0  0  0  0  0  0  0  0  0  0
    9.1171    7.2995    4.9257 C   0  0  2  0  0  0  0  0  0  0  0  0
    9.7207    8.2678    4.0169 N   0  0  0  0  0  0  0  0  0  0  0  0
   11.5608    8.9295    6.5607 C   0  0  2  0  0  0  0  0  0  0  0  0
    6.2174    4.5515   10.0996 C   0  0  2  0  0  0  0  0  0  0  0  0
    7.4717    3.7844   10.0492 N   0  0  0  0  0  0  0  0  0  0  0  0
    7.5740    7.3110    4.6639 C   0  0  0  0  0  0  0  0  0  0  0  0
   13.0406    8.5412    6.2050 C   0  0  2  0  0  0  0  0  0  0  0  0
   13.0722    7.8433    4.9710 O   0  0  0  0  0  0  0  0  0  0  0  0
    5.0596    3.7038    9.5293 C   0  0  1  0  0  0  0  0  0  0  0  0
    4.9401    2.4838   10.2790 O   0  0  0  0  0  0  0  0  0  0  0  0
    6.9276    6.2549    5.6230 C   0  0  2  0  0  0  0  0  0  0  0  0
    5.4641    6.2231    5.4266 N   0  0  0  0  0  0  0  0  0  0  0  0
   13.6247    7.6549    7.3724 C   0  0  1  0  0  0  0  0  0  0  0  0
   15.0297    7.2448    7.0741 N   0  0  0  0  0  0  0  0  0  0  0  0
    3.7569    4.5364    9.5859 C   0  0  2  0  0  0  0  0  0  0  0  0
    2.6704    3.7629    9.0474 O   0  0  0  0  0  0  0  0  0  0  0  0
    7.2280    6.5945    7.1053 C   0  0  2  0  0  0  0  0  0  0  0  0
   13.5671    8.4710    8.7089 C   0  0  1  0  0  0  0  0  0  0  0  0
   14.3700    9.6422    8.5888 O   0  0  0  0  0  0  0  0  0  0  0  0
    3.9451    5.8688    8.7650 C   0  0  2  0  0  0  0  0  0  0  0  0
    5.0749    6.6426    9.3154 O   0  0  0  0  0  0  0  0  0  0  0  0
    8.7614    6.6395    7.3214 C   0  0  2  0  0  0  0  0  0  0  0  0
    9.0129    6.9706    8.6832 O   0  0  0  0  0  0  0  0  0  0  0  0
   12.0856    8.8832    8.9785 C   0  0  0  0  0  0  0  0  0  0  0  0
   11.5382    9.6560    7.8377 O   0  0  0  0  0  0  0  0  0  0  0  0
    2.6758    6.7594    8.8070 C   0  0  2  0  0  0  0  0  0  0  0  0
    2.1771    6.8118   10.1411 O   0  0  0  0  0  0  0  0  0  0  0  0
    9.4226    7.7117    6.4242 C   0  0  1  0  0  0  0  0  0  0  0  0
   10.8439    7.6703    6.6936 O   0  0  0  0  0  0  0  0  0  0  0  0
    1.5757    6.2076    7.9154 C   0  0  0  0  0  0  0  0  0  0  0  0
   14.0945    7.6690    9.8924 C   0  0  0  0  0  0  0  0  0  0  0  0
   14.9896    6.0147    6.2602 C   0  0  0  0  0  0  0  0  0  0  0  0
  1  2  1  6  0  0  0
  1  6  1  0  0  0  0
  1 23  1  0  0  0  0
  3  4  1  6  0  0  0
  3  8  1  0  0  0  0
  3 30  1  0  0  0  0
  5  9  1  0  0  0  0
  5 27  1  0  0  0  0
  5 31  1  1  0  0  0
  6  7  1  6  0  0  0
  6 11  1  0  0  0  0
  8 13  1  0  0  0  0
  9 10  1  6  0  0  0
  9 15  1  0  0  0  0
 11 12  1  1  0  0  0
 11 17  1  0  0  0  0
 13 14  1  1  0  0  0
 13 19  1  0  0  0  0
 15 16  1  6  0  0  0
 15 20  1  0  0  0  0
 16 34  1  0  0  0  0
 17 18  1  6  0  0  0
 17 22  1  0  0  0  0
 19  2  1  1  0  0  0
 19 24  1  0  0  0  0
 20 21  1  6  0  0  0
 20 26  1  0  0  0  0
 20 33  1  0  0  0  0
 22 23  1  1  0  0  0
 22 28  1  0  0  0  0
 24 25  1  1  0  0  0
 24 30  1  0  0  0  0
 26 27  1  0  0  0  0
 28 29  1  1  0  0  0
 28 32  1  0  0  0  0
 30 31  1  6  0  0  0
M  END
>  <CHROM.1>
-158.72983422,-157.85310505,-86.05558361,44.63872867,95.16870786,-153.16093472
8.51031909,6.70521000,7.79047523,-2.85002629,-0.20174062,-1.14659223

>  <Name>
ligand

>  <RI>
0

>  <Rbt.Current_Directory>
/home/itssahil/PROJECTS/Mol_Feturizer/New_Systems/rnas/3TD1

>  <Rbt.Executable>
rbdock ($Id: //depot/dev/client3/rdock/2013.1/src/exe/rbdock.cxx#4 $)

>  <Rbt.Library>
libRbt.so (2013.1, Build901 2013/11/27)

>  <Rbt.Parameter_File>
/export/apps/rDock/src/rDock_2013.1_src/data/scripts/dock_solv.prm

>  <Rbt.Receptor>
prm/pocket_docking_2.prm

>  <SCORE>
-19.1993

>  <SCORE.INTER>
-16.2118

>  <SCORE.INTER.CONST>
1

>  <SCORE.INTER.POLAR>
0

>  <SCORE.INTER.ROT>
6

>  <SCORE.INTER.SOLV>
21.1781

>  <SCORE.INTER.VDW>
-25.4672

>  <SCORE.INTER.norm>
-0.476817

>  <SCORE.INTRA>
-2.98757

>  <SCORE.INTRA.DIHEDRAL>
-6.56237

>  <SCORE.INTRA.DIHEDRAL.0>
19.5869

>  <SCORE.INTRA.POLAR>
0

>  <SCORE.INTRA.POLAR.0>
0

>  <SCORE.INTRA.REPUL>
0

>  <SCORE.INTRA.REPUL.0>
0

>  <SCORE.INTRA.SOLV>
-0.53694

>  <SCORE.INTRA.SOLV.lig_0>
-70.101

>  <SCORE.INTRA.VDW>
0.562085

>  <SCORE.INTRA.VDW.0>
-3.39718

>  <SCORE.INTRA.norm>
-0.0878697

>  <SCORE.RESTR>
0

>  <SCORE.RESTR.CAVITY>
0

>  <SCORE.RESTR.norm>
0

>  <SCORE.SYSTEM>
0

>  <SCORE.SYSTEM.CONST>
0

>  <SCORE.SYSTEM.DIHEDRAL>
0

>  <SCORE.SYSTEM.SOLV>
0

>  <SCORE.SYSTEM.norm>
0

>  <SCORE.heavy>
34

>  <SCORE.norm>
-0.564686

>  <RMSD>
0.738

$$$$
ligand
 OpenBabel11021811483D
libRbt.so/2013.1/901 2013/11/27
 34 36  0  0  0  0  0  0  0  0999 V2000
    6.3467    5.9353    9.2733 C   0  0  2  0  0  0  0  0  0  0  0  0
    6.6356    5.5836    7.9112 O   0  0  0  0  0  0  0  0  0  0  0  0
    9.1243    7.3244    4.9049 C   0  0  2  0  0  0  0  0  0  0  0  0
    9.7251    8.2888    3.9899 N   0  0  0  0  0  0  0  0  0  0  0  0
   11.5742    8.9610    6.5416 C   0  0  2  0  0  0  0  0  0  0  0  0
    6.2341    4.6069   10.1035 C   0  0  2  0  0  0  0  0  0  0  0  0
    7.4941    3.8486   10.0655 N   0  0  0  0  0  0  0  0  0  0  0  0
    7.5801    7.3368    4.6501 C   0  0  0  0  0  0  0  0  0  0  0  0
   13.0569    8.5782    6.1920 C   0  0  2  0  0  0  0  0  0  0  0  0
   13.0970    7.8874    4.9543 O   0  0  0  0  0  0  0  0  0  0  0  0
    5.0849    3.7456    9.5361 C   0  0  1  0  0  0  0  0  0  0  0  0
    4.9711    2.5316   10.2963 O   0  0  0  0  0  0  0  0  0  0  0  0
    6.9369    6.2849    5.6158 C   0  0  2  0  0  0  0  0  0  0  0  0
    5.4724    6.2542    5.4262 N   0  0  0  0  0  0  0  0  0  0  0  0
   13.6367    7.6869    7.3576 C   0  0  1  0  0  0  0  0  0  0  0  0
   15.0444    7.2819    7.0647 N   0  0  0  0  0  0  0  0  0  0  0  0
    3.7759    4.5691    9.5794 C   0  0  2  0  0  0  0  0  0  0  0  0
    2.6974    3.7828    9.0435 O   0  0  0  0  0  0  0  0  0  0  0  0
    7.2444    6.6293    7.0955 C   0  0  2  0  0  0  0  0  0  0  0  0
   13.5697    8.4954    8.6983 C   0  0  1  0  0  0  0  0  0  0  0  0
   14.3704    9.6693    8.5891 O   0  0  0  0  0  0  0  0  0  0  0  0
    3.9580    5.8954    8.7473 C   0  0  2  0  0  0  0  0  0  0  0  0
    5.0798    6.6824    9.2953 O   0  0  0  0  0  0  0  0  0  0  0  0
    8.7788    6.6732    7.3044 C   0  0  2  0  0  0  0  0  0  0  0  0
    9.0369    7.0088    8.6639 O   0  0  0  0  0  0  0  0  0  0  0  0
   12.0858    8.9024    8.9620 C   0  0  0  0  0  0  0  0  0  0  0  0
   11.5428    9.6803    7.8225 O   0  0  0  0  0  0  0  0  0  0  0  0
    2.6821    6.7770    8.7757 C   0  0  2  0  0  0  0  0  0  0  0  0
    2.1681    6.8247   10.1042 O   0  0  0  0  0  0  0  0  0  0  0  0
    9.4373    7.7414    6.4005 C   0  0  1  0  0  0  0  0  0  0  0  0
   10.8597    7.6993    6.6636 O   0  0  0  0  0  0  0  0  0  0  0  0
    1.5960    6.2182    7.8713 C   0  0  0  0  0  0  0  0  0  0  0  0
   14.0926    7.6881    9.8801 C   0  0  0  0  0  0  0  0  0  0  0  0
   15.0126    6.0338    6.2785 C   0  0  0  0  0  0  0  0  0  0  0  0
  1  2  1  6  0  0  0
  1  6  1  0  0  0  0
  1 23  1  0  0  0  0
  3  4  1  6  0  0  0
  3  8  1  0  0  0  0
  3 30  1  0  0  0  0
  5  9  1  0  0  0  0
  5 27  1  0  0  0  0
  5 31  1  1  0  0  0
  6  7  1  6  0  0  0
  6 11  1  0  0  0  0
  8 13  1  0  0  0  0
  9 10  1  6  0  0  0
  9 15  1  0  0  0  0
 11 12  1  1  0  0  0
 11 17  1  0  0  0  0
 13 14  1  1  0  0  0
 13 19  1  0  0  0  0
 15 16  1  6  0  0  0
 15 20  1  0  0  0  0
 16 34  1  0  0  0  0
 17 18  1  6  0  0  0
 17 22  1  0  0  0  0
 19  2  1  1  0  0  0
 19 24  1  0  0  0  0
 20 21  1  6  0  0  0
 20 26  1  0  0  0  0
 20 33  1  0  0  0  0
 22 23  1  1  0  0  0
 22 28  1  0  0  0  0
 24 25  1  1  0  0  0
 24 30  1  0  0  0  0
 26 27  1  0  0  0  0
 28 29  1  1  0  0  0
 28 32  1  0  0  0  0
 30 31  1  6  0  0  0
M  END
>  <CHROM.1>
-158.64666551,-157.11892825,-87.74681643,43.94073042,96.01560048,-153.79794565
8.52331567,6.73657350,7.77853363,-2.85041622,-0.20152400,-1.14719078

>  <Name>
ligand

>  <RI>
0

>  <Rbt.Current_Directory>
/home/itssahil/PROJECTS/Mol_Feturizer/New_Systems/rnas/3TD1

>  <Rbt.Executable>
rbdock ($Id: //depot/dev/client3/rdock/2013.1/src/exe/rbdock.cxx#4 $)

>  <Rbt.Library>
libRbt.so (2013.1, Build901 2013/11/27)

>  <Rbt.Parameter_File>
/export/apps/rDock/src/rDock_2013.1_src/data/scripts/dock_solv.prm

>  <Rbt.Receptor>
prm/pocket_docking_3.prm

>  <SCORE>
-19.1655

>  <SCORE.INTER>
-16.1544

>  <SCORE.INTER.CONST>
1

>  <SCORE.INTER.POLAR>
0

>  <SCORE.INTER.ROT>
6

>  <SCORE.INTER.SOLV>
21.2962

>  <SCORE.INTER.VDW>
-25.4683

>  <SCORE.INTER.norm>
-0.475128

>  <SCORE.INTRA>
-3.01115

>  <SCORE.INTRA.DIHEDRAL>
-6.26352

>  <SCORE.INTRA.DIHEDRAL.0>
19.5869

>  <SCORE.INTRA.POLAR>
0

>  <SCORE.INTRA.POLAR.0>
0

>  <SCORE.INTRA.REPUL>
0

>  <SCORE.INTRA.REPUL.0>
0

>  <SCORE.INTRA.SOLV>
-0.504431

>  <SCORE.INTRA.SOLV.lig_0>
-70.101

>  <SCORE.INTRA.VDW>
0.372821

>  <SCORE.INTRA.VDW.0>
-3.39718

>  <SCORE.INTRA.norm>
-0.0885633

>  <SCORE.RESTR>
0

>  <SCORE.RESTR.CAVITY>
0

>  <SCORE.RESTR.norm>
0

>  <SCORE.SYSTEM>
0

>  <SCORE.SYSTEM.CONST>
0

>  <SCORE.SYSTEM.DIHEDRAL>
0

>  <SCORE.SYSTEM.SOLV>
0

>  <SCORE.SYSTEM.norm>
0

>  <SCORE.heavy>
34

>  <SCORE.norm>
-0.563691

>  <RMSD>
0.741

$$$$
ligand
 OpenBabel11021811483D
libRbt.so/2013.1/901 2013/11/27
 34 36  0  0  0  0  0  0  0  0999 V2000
    5.6534    6.1772    8.7739 C   0  0  2  0  0  0  0  0  0  0  0  0
    6.1564    5.7376    7.5026 O   0  0  0  0  0  0  0  0  0  0  0  0
    9.0669    7.2454    4.7609 C   0  0  2  0  0  0  0  0  0  0  0  0
    9.8240    8.1472    3.8996 N   0  0  0  0  0  0  0  0  0  0  0  0
   11.0629    8.5164    7.7032 C   0  0  2  0  0  0  0  0  0  0  0  0
    5.7600    4.9754    9.7794 C   0  0  2  0  0  0  0  0  0  0  0  0
    7.1566    4.5435    9.9444 N   0  0  0  0  0  0  0  0  0  0  0  0
    7.5644    7.3413    4.3331 C   0  0  0  0  0  0  0  0  0  0  0  0
   12.6098    8.6744    7.4812 C   0  0  2  0  0  0  0  0  0  0  0  0
   12.8597    9.1994    6.1878 O   0  0  0  0  0  0  0  0  0  0  0  0
    4.9037    3.7991    9.2622 C   0  0  1  0  0  0  0  0  0  0  0  0
    4.9903    2.6984   10.1818 O   0  0  0  0  0  0  0  0  0  0  0  0
    6.7542    6.3561    5.2418 C   0  0  2  0  0  0  0  0  0  0  0  0
    5.3209    6.4061    4.8887 N   0  0  0  0  0  0  0  0  0  0  0  0
   13.2927    7.2636    7.6618 C   0  0  1  0  0  0  0  0  0  0  0  0
   14.7676    7.3572    7.4445 N   0  0  0  0  0  0  0  0  0  0  0  0
    3.4443    4.2827    9.0894 C   0  0  2  0  0  0  0  0  0  0  0  0
    2.6359    3.1995    8.5974 O   0  0  0  0  0  0  0  0  0  0  0  0
    6.9154    6.7227    6.7392 C   0  0  2  0  0  0  0  0  0  0  0  0
   12.9868    6.7306    9.1033 C   0  0  1  0  0  0  0  0  0  0  0  0
   13.5360    7.6229   10.0694 O   0  0  0  0  0  0  0  0  0  0  0  0
    3.4056    5.4989    8.0874 C   0  0  2  0  0  0  0  0  0  0  0  0
    4.2545    6.5946    8.5943 O   0  0  0  0  0  0  0  0  0  0  0  0
    8.4168    6.6824    7.1191 C   0  0  2  0  0  0  0  0  0  0  0  0
    8.5418    7.0397    8.4917 O   0  0  0  0  0  0  0  0  0  0  0  0
   11.4385    6.6542    9.2890 C   0  0  0  0  0  0  0  0  0  0  0  0
   10.8133    7.9766    9.0469 O   0  0  0  0  0  0  0  0  0  0  0  0
    1.9666    6.0444    7.8937 C   0  0  2  0  0  0  0  0  0  0  0  0
    1.9698    7.0390    6.8729 O   0  0  0  0  0  0  0  0  0  0  0  0
    9.2362    7.6846    6.2732 C   0  0  1  0  0  0  0  0  0  0  0  0
   10.6151    7.5664    6.6961 O   0  0  0  0  0  0  0  0  0  0  0  0
    1.4332    6.6796    9.1672 C   0  0  0  0  0  0  0  0  0  0  0  0
   13.5960    5.3553    9.3462 C   0  0  0  0  0  0  0  0  0  0  0  0
   15.1000    6.6270    6.2063 C   0  0  0  0  0  0  0  0  0  0  0  0
  1  2  1  6  0  0  0
  1  6  1  0  0  0  0
  1 23  1  0  0  0  0
  3  4  1  6  0  0  0
  3  8  1  0  0  0  0
  3 30  1  0  0  0  0
  5  9  1  0  0  0  0
  5 27  1  0  0  0  0
  5 31  1  6  0  0  0
  6  7  1  6  0  0  0
  6 11  1  0  0  0  0
  8 13  1  0  0  0  0
  9 10  1  6  0  0  0
  9 15  1  0  0  0  0
 11 12  1  1  0  0  0
 11 17  1  0  0  0  0
 13 14  1  6  0  0  0
 13 19  1  0  0  0  0
 15 16  1  1  0  0  0
 15 20  1  0  0  0  0
 16 34  1  0  0  0  0
 17 18  1  6  0  0  0
 17 22  1  0  0  0  0
 19  2  1  1  0  0  0
 19 24  1  0  0  0  0
 20 21  1  1  0  0  0
 20 26  1  0  0  0  0
 20 33  1  0  0  0  0
 22 23  1  1  0  0  0
 22 28  1  0  0  0  0
 24 25  1  1  0  0  0
 24 30  1  0  0  0  0
 26 27  1  0  0  0  0
 28 29  1  6  0  0  0
 28 32  1  0  0  0  0
 30 31  1  1  0  0  0
M  END
>  <CHROM.1>
-142.79601523,-152.60551717,-112.01528241,-173.64626790,148.81821087,-152.97221731
8.17231625,6.48192077,7.72108501,-2.96357909,-0.16175152,-1.04931427

>  <Name>
ligand

>  <RI>
0

>  <Rbt.Current_Directory>
/home/itssahil/PROJECTS/Mol_Feturizer/New_Systems/rnas/3TD1

>  <Rbt.Executable>
rbdock ($Id: //depot/dev/client3/rdock/2013.1/src/exe/rbdock.cxx#4 $)

>  <Rbt.Library>
libRbt.so (2013.1, Build901 2013/11/27)

>  <Rbt.Parameter_File>
/export/apps/rDock/src/rDock_2013.1_src/data/scripts/dock_solv.prm

>  <Rbt.Receptor>
prm/pocket_docking_3.prm

>  <SCORE>
-13.1747

>  <SCORE.INTER>
-11.3615

>  <SCORE.INTER.CONST>
1

>  <SCORE.INTER.POLAR>
0

>  <SCORE.INTER.ROT>
6

>  <SCORE.INTER.SOLV>
18.2872

>  <SCORE.INTER.VDW>
-21.2701

>  <SCORE.INTER.norm>
-0.334161

>  <SCORE.INTRA>
-1.81327

>  <SCORE.INTRA.DIHEDRAL>
-3.38007

>  <SCORE.INTRA.DIHEDRAL.0>
19.5869

>  <SCORE.INTRA.POLAR>
0

>  <SCORE.INTRA.POLAR.0>
0

>  <SCORE.INTRA.REPUL>
0

>  <SCORE.INTRA.REPUL.0>
0

>  <SCORE.INTRA.SOLV>
-1.12438

>  <SCORE.INTRA.SOLV.lig_0>
-70.101

>  <SCORE.INTRA.VDW>
0.438952

>  <SCORE.INTRA.VDW.0>
-3.39718

>  <SCORE.INTRA.norm>
-0.0533315

>  <SCORE.RESTR>
0

>  <SCORE.RESTR.CAVITY>
0

>  <SCORE.RESTR.norm>
0

>  <SCORE.SYSTEM>
0

>  <SCORE.SYSTEM.CONST>
0

>  <SCORE.SYSTEM.DIHEDRAL>
0

>  <SCORE.SYSTEM.SOLV>
0

>  <SCORE.SYSTEM.norm>
0

>  <SCORE.heavy>
34

>  <SCORE.norm>
-0.387493

>  <RMSD>
0.745

$$$$
ligand
 OpenBabel11021811483D
libRbt.so/2013.1/901 2013/11/27
 34 36  0  0  0  0  0  0  0  0999 V2000
    6.3776    5.8139    9.3946 C   0  0  2  0  0  0  0  0  0  0  0  0
    6.7018    5.4740    8.0374 O   0  0  0  0  0  0  0  0  0  0  0  0
    9.1065    7.3035    5.0155 C   0  0  2  0  0  0  0  0  0  0  0  0
    9.6772    8.2931    4.1082 N   0  0  0  0  0  0  0  0  0  0  0  0
   11.5771    8.9288    6.6152 C   0  0  2  0  0  0  0  0  0  0  0  0
    6.1967    4.4773   10.1992 C   0  0  2  0  0  0  0  0  0  0  0  0
    7.4338    3.6812   10.1911 N   0  0  0  0  0  0  0  0  0  0  0  0
    7.5570    7.3046    4.7943 C   0  0  0  0  0  0  0  0  0  0  0  0
   13.0556    8.5606    6.2336 C   0  0  2  0  0  0  0  0  0  0  0  0
   13.0766    7.8773    4.9912 O   0  0  0  0  0  0  0  0  0  0  0  0
    5.0420    3.6604    9.5799 C   0  0  1  0  0  0  0  0  0  0  0  0
    4.8657    2.4393   10.3163 O   0  0  0  0  0  0  0  0  0  0  0  0
    6.9458    6.2260    5.7513 C   0  0  2  0  0  0  0  0  0  0  0  0
    5.4780    6.1834    5.5926 N   0  0  0  0  0  0  0  0  0  0  0  0
   13.6661    7.6673    7.3820 C   0  0  1  0  0  0  0  0  0  0  0  0
   15.0709    7.2759    7.0585 N   0  0  0  0  0  0  0  0  0  0  0  0
    3.7578    4.5231    9.5927 C   0  0  2  0  0  0  0  0  0  0  0  0
    2.6748    3.7786    9.0084 O   0  0  0  0  0  0  0  0  0  0  0  0
    7.2819    6.5428    7.2310 C   0  0  2  0  0  0  0  0  0  0  0  0
   13.6194    8.4674    8.7286 C   0  0  1  0  0  0  0  0  0  0  0  0
   14.4080    9.6486    8.6105 O   0  0  0  0  0  0  0  0  0  0  0  0
    4.0080    5.8555    8.7884 C   0  0  2  0  0  0  0  0  0  0  0  0
    5.1339    6.5993    9.3862 O   0  0  0  0  0  0  0  0  0  0  0  0
    8.8200    6.5990    7.4077 C   0  0  2  0  0  0  0  0  0  0  0  0
    9.1040    6.9090    8.7680 O   0  0  0  0  0  0  0  0  0  0  0  0
   12.1377    8.8604    9.0245 C   0  0  0  0  0  0  0  0  0  0  0  0
   11.5655    9.6403    7.9008 O   0  0  0  0  0  0  0  0  0  0  0  0
    2.7592    6.7755    8.7884 C   0  0  2  0  0  0  0  0  0  0  0  0
    2.1774    6.7854   10.0894 O   0  0  0  0  0  0  0  0  0  0  0  0
    9.4475    7.6927    6.5124 C   0  0  1  0  0  0  0  0  0  0  0  0
   10.8757    7.6605    6.7439 O   0  0  0  0  0  0  0  0  0  0  0  0
    1.7063    6.2890    7.8063 C   0  0  0  0  0  0  0  0  0  0  0  0
   14.1726    7.6576    9.8948 C   0  0  0  0  0  0  0  0  0  0  0  0
   15.0342    6.0258    6.2757 C   0  0  0  0  0  0  0  0  0  0  0  0
  1  2  1  6  0  0  0
  1  6  1  0  0  0  0
  1 23  1  0  0  0  0
  3  4  1  6  0  0  0
  3  8  1  0  0  0  0
  3 30  1  0  0  0  0
  5  9  1  0  0  0  0
  5 27  1  0  0  0  0
  5 31  1  1  0  0  0
  6  7  1  6  0  0  0
  6 11  1  0  0  0  0
  8 13  1  0  0  0  0
  9 10  1  6  0  0  0
  9 15  1  0  0  0  0
 11 12  1  1  0  0  0
 11 17  1  0  0  0  0
 13 14  1  1  0  0  0
 13 19  1  0  0  0  0
 15 16  1  6  0  0  0
 15 20  1  0  0  0  0
 16 34  1  0  0  0  0
 17 18  1  6  0  0  0
 17 22  1  0  0  0  0
 19  2  1  1  0  0  0
 19 24  1  0  0  0  0
 20 21  1  6  0  0  0
 20 26  1  0  0  0  0
 20 33  1  0  0  0  0
 22 23  1  1  0  0  0
 22 28  1  0  0  0  0
 24 25  1  1  0  0  0
 24 30  1  0  0  0  0
 26 27  1  0  0  0  0
 28 29  1  1  0  0  0
 28 32  1  0  0  0  0
 30 31  1  6  0  0  0
M  END
>  <CHROM.1>
-162.87707480,-154.15107218,-88.24015479,42.10872162,95.20988098,-153.92461991
8.53848624,6.68890347,7.84081027,-2.84382807,-0.19666352,-1.11505420

>  <Name>
ligand

>  <RI>
0

>  <Rbt.Current_Directory>
/home/itssahil/PROJECTS/Mol_Feturizer/New_Systems/rnas/3TD1

>  <Rbt.Executable>
rbdock ($Id: //depot/dev/client3/rdock/2013.1/src/exe/rbdock.cxx#4 $)

>  <Rbt.Library>
libRbt.so (2013.1, Build901 2013/11/27)

>  <Rbt.Parameter_File>
/export/apps/rDock/src/rDock_2013.1_src/data/scripts/dock_solv.prm

>  <Rbt.Receptor>
prm/pocket_docking_2.prm

>  <SCORE>
-19.3722

>  <SCORE.INTER>
-16.1807

>  <SCORE.INTER.CONST>
1

>  <SCORE.INTER.POLAR>
0

>  <SCORE.INTER.ROT>
6

>  <SCORE.INTER.SOLV>
21.4203

>  <SCORE.INTER.VDW>
-25.5272

>  <SCORE.INTER.norm>
-0.475902

>  <SCORE.INTRA>
-3.19155

>  <SCORE.INTRA.DIHEDRAL>
-6.3534

>  <SCORE.INTRA.DIHEDRAL.0>
19.5869

>  <SCORE.INTRA.POLAR>
0

>  <SCORE.INTRA.POLAR.0>
0

>  <SCORE.INTRA.REPUL>
0

>  <SCORE.INTRA.REPUL.0>
0

>  <SCORE.INTRA.SOLV>
-0.308014

>  <SCORE.INTRA.SOLV.lig_0>
-70.101

>  <SCORE.INTRA.VDW>
0.139159

>  <SCORE.INTRA.VDW.0>
-3.39718

>  <SCORE.INTRA.norm>
-0.093869

>  <SCORE.RESTR>
0

>  <SCORE.RESTR.CAVITY>
0

>  <SCORE.RESTR.norm>
0

>  <SCORE.SYSTEM>
0

>  <SCORE.SYSTEM.CONST>
0

>  <SCORE.SYSTEM.DIHEDRAL>
0

>  <SCORE.SYSTEM.SOLV>
0

>  <SCORE.SYSTEM.norm>
0

>  <SCORE.heavy>
34

>  <SCORE.norm>
-0.569771

>  <RMSD>
0.746

$$$$
ligand
 OpenBabel11021811483D
libRbt.so/2013.1/901 2013/11/27
 34 36  0  0  0  0  0  0  0  0999 V2000
    6.3733    5.8063    9.3961 C   0  0  2  0  0  0  0  0  0  0  0  0
    6.7032    5.4704    8.0394 O   0  0  0  0  0  0  0  0  0  0  0  0
    9.0948    7.3180    5.0181 C   0  0  2  0  0  0  0  0  0  0  0  0
    9.6608    8.3128    4.1136 N   0  0  0  0  0  0  0  0  0  0  0  0
   11.5667    8.9415    6.6259 C   0  0  2  0  0  0  0  0  0  0  0  0
    6.2046    4.4676   10.1998 C   0  0  2  0  0  0  0  0  0  0  0  0
    7.4497    3.6841   10.1935 N   0  0  0  0  0  0  0  0  0  0  0  0
    7.5446    7.3176    4.8020 C   0  0  0  0  0  0  0  0  0  0  0  0
   13.0507    8.5808    6.2591 C   0  0  2  0  0  0  0  0  0  0  0  0
   13.0880    7.9021    5.0145 O   0  0  0  0  0  0  0  0  0  0  0  0
    5.0592    3.6393    9.5781 C   0  0  1  0  0  0  0  0  0  0  0  0
    4.8940    2.4161   10.3137 O   0  0  0  0  0  0  0  0  0  0  0  0
    6.9384    6.2335    5.7560 C   0  0  2  0  0  0  0  0  0  0  0  0
    5.4701    6.1892    5.6020 N   0  0  0  0  0  0  0  0  0  0  0  0
   13.6524    7.6858    7.4108 C   0  0  1  0  0  0  0  0  0  0  0  0
   15.0622    7.3013    7.1013 N   0  0  0  0  0  0  0  0  0  0  0  0
    3.7663    4.4889    9.5891 C   0  0  2  0  0  0  0  0  0  0  0  0
    2.6919    3.7338    9.0027 O   0  0  0  0  0  0  0  0  0  0  0  0
    7.2788    6.5440    7.2360 C   0  0  2  0  0  0  0  0  0  0  0  0
   13.5877    8.4807    8.7598 C   0  0  1  0  0  0  0  0  0  0  0  0
   14.3726    9.6655    8.6545 O   0  0  0  0  0  0  0  0  0  0  0  0
    4.0044    5.8242    8.7860 C   0  0  2  0  0  0  0  0  0  0  0  0
    5.1217    6.5790    9.3861 O   0  0  0  0  0  0  0  0  0  0  0  0
    8.8173    6.6019    7.4079 C   0  0  2  0  0  0  0  0  0  0  0  0
    9.1054    6.9060    8.7688 O   0  0  0  0  0  0  0  0  0  0  0  0
   12.1013    8.8666    9.0409 C   0  0  0  0  0  0  0  0  0  0  0  0
   11.5381    9.6483    7.9138 O   0  0  0  0  0  0  0  0  0  0  0  0
    2.7463    6.7314    8.7842 C   0  0  2  0  0  0  0  0  0  0  0  0
    2.2168    6.8107   10.1051 O   0  0  0  0  0  0  0  0  0  0  0  0
    9.4401    7.7008    6.5157 C   0  0  1  0  0  0  0  0  0  0  0  0
   10.8691    7.6699    6.7423 O   0  0  0  0  0  0  0  0  0  0  0  0
    1.6605    6.1801    7.8749 C   0  0  0  0  0  0  0  0  0  0  0  0
   14.1315    7.6689    9.9290 C   0  0  0  0  0  0  0  0  0  0  0  0
   15.0387    6.0602    6.3037 C   0  0  0  0  0  0  0  0  0  0  0  0
  1  2  1  6  0  0  0
  1  6  1  0  0  0  0
  1 23  1  0  0  0  0
  3  4  1  6  0  0  0
  3  8  1  0  0  0  0
  3 30  1  0  0  0  0
  5  9  1  0  0  0  0
  5 27  1  0  0  0  0
  5 31  1  1  0  0  0
  6  7  1  6  0  0  0
  6 11  1  0  0  0  0
  8 13  1  0  0  0  0
  9 10  1  6  0  0  0
  9 15  1  0  0  0  0
 11 12  1  1  0  0  0
 11 17  1  0  0  0  0
 13 14  1  1  0  0  0
 13 19  1  0  0  0  0
 15 16  1  6  0  0  0
 15 20  1  0  0  0  0
 16 34  1  0  0  0  0
 17 18  1  6  0  0  0
 17 22  1  0  0  0  0
 19  2  1  1  0  0  0
 19 24  1  0  0  0  0
 20 21  1  6  0  0  0
 20 26  1  0  0  0  0
 20 33  1  0  0  0  0
 22 23  1  1  0  0  0
 22 28  1  0  0  0  0
 24 25  1  1  0  0  0
 24 30  1  0  0  0  0
 26 27  1  0  0  0  0
 28 29  1  1  0  0  0
 28 32  1  0  0  0  0
 30 31  1  6  0  0  0
M  END
>  <CHROM.1>
-162.63568135,-153.68378791,-87.75883849,46.19345982,95.59795920,-154.84607909
8.53250191,6.68735483,7.85294045,-2.84294481,-0.20148355,-1.11357769

>  <Name>
ligand

>  <RI>
0

>  <Rbt.Current_Directory>
/home/itssahil/PROJECTS/Mol_Feturizer/New_Systems/rnas/3TD1

>  <Rbt.Executable>
rbdock ($Id: //depot/dev/client3/rdock/2013.1/src/exe/rbdock.cxx#4 $)

>  <Rbt.Library>
libRbt.so (2013.1, Build901 2013/11/27)

>  <Rbt.Parameter_File>
/export/apps/rDock/src/rDock_2013.1_src/data/scripts/dock_solv.prm

>  <Rbt.Receptor>
prm/pocket_docking_2.prm

>  <SCORE>
-19.2798

>  <SCORE.INTER>
-16.083

>  <SCORE.INTER.CONST>
1

>  <SCORE.INTER.POLAR>
0

>  <SCORE.INTER.ROT>
6

>  <SCORE.INTER.SOLV>
21.4232

>  <SCORE.INTER.VDW>
-25.4631

>  <SCORE.INTER.norm>
-0.473028

>  <SCORE.INTRA>
-3.19683

>  <SCORE.INTRA.DIHEDRAL>
-6.76762

>  <SCORE.INTRA.DIHEDRAL.0>
19.5869

>  <SCORE.INTRA.POLAR>
0

>  <SCORE.INTRA.POLAR.0>
0

>  <SCORE.INTRA.REPUL>
0

>  <SCORE.INTRA.REPUL.0>
0

>  <SCORE.INTRA.SOLV>
-0.349418

>  <SCORE.INTRA.SOLV.lig_0>
-70.101

>  <SCORE.INTRA.VDW>
0.361684

>  <SCORE.INTRA.VDW.0>
-3.39718

>  <SCORE.INTRA.norm>
-0.0940245

>  <SCORE.RESTR>
0

>  <SCORE.RESTR.CAVITY>
0

>  <SCORE.RESTR.norm>
0

>  <SCORE.SYSTEM>
0

>  <SCORE.SYSTEM.CONST>
0

>  <SCORE.SYSTEM.DIHEDRAL>
0

>  <SCORE.SYSTEM.SOLV>
0

>  <SCORE.SYSTEM.norm>
0

>  <SCORE.heavy>
34

>  <SCORE.norm>
-0.567053

>  <RMSD>
0.748

$$$$
ligand
 OpenBabel11021811483D
libRbt.so/2013.1/901 2013/11/27
 34 36  0  0  0  0  0  0  0  0999 V2000
    6.3807    5.8262    9.3935 C   0  0  2  0  0  0  0  0  0  0  0  0
    6.7039    5.4791    8.0379 O   0  0  0  0  0  0  0  0  0  0  0  0
    9.1061    7.2898    5.0027 C   0  0  2  0  0  0  0  0  0  0  0  0
    9.6775    8.2742    4.0903 N   0  0  0  0  0  0  0  0  0  0  0  0
   11.5860    8.9133    6.5937 C   0  0  2  0  0  0  0  0  0  0  0  0
    6.2179    4.4941   10.2094 C   0  0  2  0  0  0  0  0  0  0  0  0
    7.4639    3.7120   10.2032 N   0  0  0  0  0  0  0  0  0  0  0  0
    7.5560    7.2952    4.7858 C   0  0  0  0  0  0  0  0  0  0  0  0
   13.0653    8.5403    6.2199 C   0  0  2  0  0  0  0  0  0  0  0  0
   13.0901    7.8516    4.9806 O   0  0  0  0  0  0  0  0  0  0  0  0
    5.0703    3.6592    9.6008 C   0  0  1  0  0  0  0  0  0  0  0  0
    4.9105    2.4420   10.3476 O   0  0  0  0  0  0  0  0  0  0  0  0
    6.9439    6.2221    5.7485 C   0  0  2  0  0  0  0  0  0  0  0  0
    5.4755    6.1839    5.5941 N   0  0  0  0  0  0  0  0  0  0  0  0
   13.6691    7.6507    7.3748 C   0  0  1  0  0  0  0  0  0  0  0  0
   15.0744    7.2550    7.0589 N   0  0  0  0  0  0  0  0  0  0  0  0
    3.7764    4.5073    9.6114 C   0  0  2  0  0  0  0  0  0  0  0  0
    2.6999    3.7458    9.0370 O   0  0  0  0  0  0  0  0  0  0  0  0
    7.2852    6.5431    7.2260 C   0  0  2  0  0  0  0  0  0  0  0  0
   13.6183    8.4567    8.7177 C   0  0  1  0  0  0  0  0  0  0  0  0
   14.4099    9.6357    8.5978 O   0  0  0  0  0  0  0  0  0  0  0  0
    4.0086    5.8359    8.7956 C   0  0  2  0  0  0  0  0  0  0  0  0
    5.1280    6.5972    9.3834 O   0  0  0  0  0  0  0  0  0  0  0  0
    8.8240    6.5947    7.3982 C   0  0  2  0  0  0  0  0  0  0  0  0
    9.1129    6.9086    8.7566 O   0  0  0  0  0  0  0  0  0  0  0  0
   12.1362    8.8541    9.0056 C   0  0  0  0  0  0  0  0  0  0  0  0
   11.5704    9.6303    7.8761 O   0  0  0  0  0  0  0  0  0  0  0  0
    2.7494    6.7416    8.7928 C   0  0  2  0  0  0  0  0  0  0  0  0
    2.1945    6.7866   10.1048 O   0  0  0  0  0  0  0  0  0  0  0  0
    9.4526    7.6832    6.4973 C   0  0  1  0  0  0  0  0  0  0  0  0
   10.8813    7.6470    6.7248 O   0  0  0  0  0  0  0  0  0  0  0  0
    1.6821    6.2124    7.8490 C   0  0  0  0  0  0  0  0  0  0  0  0
   14.1649    7.6508    9.8897 C   0  0  0  0  0  0  0  0  0  0  0  0
   15.0385    5.9996    6.2845 C   0  0  0  0  0  0  0  0  0  0  0  0
  1  2  1  6  0  0  0
  1  6  1  0  0  0  0
  1 23  1  0  0  0  0
  3  4  1  6  0  0  0
  3  8  1  0  0  0  0
  3 30  1  0  0  0  0
  5  9  1  0  0  0  0
  5 27  1  0  0  0  0
  5 31  1  1  0  0  0
  6  7  1  6  0  0  0
  6 11  1  0  0  0  0
  8 13  1  0  0  0  0
  9 10  1  6  0  0  0
  9 15  1  0  0  0  0
 11 12  1  1  0  0  0
 11 17  1  0  0  0  0
 13 14  1  1  0  0  0
 13 19  1  0  0  0  0
 15 16  1  6  0  0  0
 15 20  1  0  0  0  0
 16 34  1  0  0  0  0
 17 18  1  6  0  0  0
 17 22  1  0  0  0  0
 19  2  1  1  0  0  0
 19 24  1  0  0  0  0
 20 21  1  6  0  0  0
 20 26  1  0  0  0  0
 20 33  1  0  0  0  0
 22 23  1  1  0  0  0
 22 28  1  0  0  0  0
 24 25  1  1  0  0  0
 24 30  1  0  0  0  0
 26 27  1  0  0  0  0
 28 29  1  1  0  0  0
 28 32  1  0  0  0  0
 30 31  1  6  0  0  0
M  END
>  <CHROM.1>
-162.09807120,-153.95586731,-88.38665937,43.79431593,95.39121336,-154.38424525
8.54487104,6.67824014,7.84016617,-2.84237394,-0.19630442,-1.11944247

>  <Name>
ligand

>  <RI>
0

>  <Rbt.Current_Directory>
/home/itssahil/PROJECTS/Mol_Feturizer/New_Systems/rnas/3TD1

>  <Rbt.Executable>
rbdock ($Id: //depot/dev/client3/rdock/2013.1/src/exe/rbdock.cxx#4 $)

>  <Rbt.Library>
libRbt.so (2013.1, Build901 2013/11/27)

>  <Rbt.Parameter_File>
/export/apps/rDock/src/rDock_2013.1_src/data/scripts/dock_solv.prm

>  <Rbt.Receptor>
prm/pocket_docking_2.prm

>  <SCORE>
-19.4439

>  <SCORE.INTER>
-16.2754

>  <SCORE.INTER.CONST>
1

>  <SCORE.INTER.POLAR>
0

>  <SCORE.INTER.ROT>
6

>  <SCORE.INTER.SOLV>
21.3303

>  <SCORE.INTER.VDW>
-25.5604

>  <SCORE.INTER.norm>
-0.478688

>  <SCORE.INTRA>
-3.17593

>  <SCORE.INTRA.DIHEDRAL>
-6.43237

>  <SCORE.INTRA.DIHEDRAL.0>
19.5869

>  <SCORE.INTRA.POLAR>
0

>  <SCORE.INTRA.POLAR.0>
0

>  <SCORE.INTRA.REPUL>
0

>  <SCORE.INTRA.REPUL.0>
0

>  <SCORE.INTRA.SOLV>
-0.321293

>  <SCORE.INTRA.SOLV.lig_0>
-70.101

>  <SCORE.INTRA.VDW>
0.200902

>  <SCORE.INTRA.VDW.0>
-3.39718

>  <SCORE.INTRA.norm>
-0.0934098

>  <SCORE.RESTR>
0.00742481

>  <SCORE.RESTR.CAVITY>
0.00742481

>  <SCORE.RESTR.norm>
0.000218377

>  <SCORE.SYSTEM>
0

>  <SCORE.SYSTEM.CONST>
0

>  <SCORE.SYSTEM.DIHEDRAL>
0

>  <SCORE.SYSTEM.SOLV>
0

>  <SCORE.SYSTEM.norm>
0

>  <SCORE.heavy>
34

>  <SCORE.norm>
-0.571879

>  <RMSD>
0.755

$$$$
ligand
 OpenBabel11021811483D
libRbt.so/2013.1/901 2013/11/27
 34 36  0  0  0  0  0  0  0  0999 V2000
    6.3612    5.8465    9.4058 C   0  0  2  0  0  0  0  0  0  0  0  0
    6.6978    5.4929    8.0552 O   0  0  0  0  0  0  0  0  0  0  0  0
    9.0916    7.2994    5.0109 C   0  0  2  0  0  0  0  0  0  0  0  0
    9.6610    8.2827    4.0960 N   0  0  0  0  0  0  0  0  0  0  0  0
   11.5786    8.9211    6.5927 C   0  0  2  0  0  0  0  0  0  0  0  0
    6.2060    4.5188   10.2302 C   0  0  2  0  0  0  0  0  0  0  0  0
    7.4598    3.7494   10.2387 N   0  0  0  0  0  0  0  0  0  0  0  0
    7.5408    7.3064    4.7993 C   0  0  0  0  0  0  0  0  0  0  0  0
   13.0578    8.5462    6.2203 C   0  0  2  0  0  0  0  0  0  0  0  0
   13.0824    7.8545    4.9827 O   0  0  0  0  0  0  0  0  0  0  0  0
    5.0713    3.6679    9.6196 C   0  0  1  0  0  0  0  0  0  0  0  0
    4.9184    2.4547   10.3741 O   0  0  0  0  0  0  0  0  0  0  0  0
    6.9309    6.2344    5.7645 C   0  0  2  0  0  0  0  0  0  0  0  0
    5.4619    6.1977    5.6151 N   0  0  0  0  0  0  0  0  0  0  0  0
   13.6606    7.6591    7.3775 C   0  0  1  0  0  0  0  0  0  0  0  0
   15.0658    7.2616    7.0630 N   0  0  0  0  0  0  0  0  0  0  0  0
    3.7689    4.5030    9.6147 C   0  0  2  0  0  0  0  0  0  0  0  0
    2.7043    3.7265    9.0382 O   0  0  0  0  0  0  0  0  0  0  0  0
    7.2775    6.5558    7.2408 C   0  0  2  0  0  0  0  0  0  0  0  0
   13.6100    8.4684    8.7184 C   0  0  1  0  0  0  0  0  0  0  0  0
   14.4024    9.6466    8.5959 O   0  0  0  0  0  0  0  0  0  0  0  0
    3.9936    5.8279    8.7909 C   0  0  2  0  0  0  0  0  0  0  0  0
    5.1010    6.6047    9.3811 O   0  0  0  0  0  0  0  0  0  0  0  0
    8.8169    6.6059    7.4077 C   0  0  2  0  0  0  0  0  0  0  0  0
    9.1108    6.9202    8.7650 O   0  0  0  0  0  0  0  0  0  0  0  0
   12.1281    8.8675    9.0049 C   0  0  0  0  0  0  0  0  0  0  0  0
   11.5632    9.6413    7.8733 O   0  0  0  0  0  0  0  0  0  0  0  0
    2.7254    6.7208    8.7723 C   0  0  2  0  0  0  0  0  0  0  0  0
    2.1742    6.7891   10.0849 O   0  0  0  0  0  0  0  0  0  0  0  0
    9.4436    7.6932    6.5041 C   0  0  1  0  0  0  0  0  0  0  0  0
   10.8731    7.6556    6.7268 O   0  0  0  0  0  0  0  0  0  0  0  0
    1.6605    6.1604    7.8440 C   0  0  0  0  0  0  0  0  0  0  0  0
   14.1557    7.6650    9.8926 C   0  0  0  0  0  0  0  0  0  0  0  0
   15.0275    6.0287    6.2534 C   0  0  0  0  0  0  0  0  0  0  0  0
  1  2  1  6  0  0  0
  1  6  1  0  0  0  0
  1 23  1  0  0  0  0
  3  4  1  6  0  0  0
  3  8  1  0  0  0  0
  3 30  1  0  0  0  0
  5  9  1  0  0  0  0
  5 27  1  0  0  0  0
  5 31  1  1  0  0  0
  6  7  1  6  0  0  0
  6 11  1  0  0  0  0
  8 13  1  0  0  0  0
  9 10  1  6  0  0  0
  9 15  1  0  0  0  0
 11 12  1  1  0  0  0
 11 17  1  0  0  0  0
 13 14  1  1  0  0  0
 13 19  1  0  0  0  0
 15 16  1  6  0  0  0
 15 20  1  0  0  0  0
 16 34  1  0  0  0  0
 17 18  1  6  0  0  0
 17 22  1  0  0  0  0
 19  2  1  1  0  0  0
 19 24  1  0  0  0  0
 20 21  1  6  0  0  0
 20 26  1  0  0  0  0
 20 33  1  0  0  0  0
 22 23  1  1  0  0  0
 22 28  1  0  0  0  0
 24 25  1  1  0  0  0
 24 30  1  0  0  0  0
 26 27  1  0  0  0  0
 28 29  1  1  0  0  0
 28 32  1  0  0  0  0
 30 31  1  6  0  0  0
M  END
>  <CHROM.1>
-161.94326757,-153.07057766,-86.53334113,44.82631394,95.39776824,-154.62579173
8.53491395,6.68561449,7.84479987,-2.84191764,-0.19762053,-1.12081972

>  <Name>
ligand

>  <RI>
0

>  <Rbt.Current_Directory>
/home/itssahil/PROJECTS/Mol_Feturizer/New_Systems/rnas/3TD1

>  <Rbt.Executable>
rbdock ($Id: //depot/dev/client3/rdock/2013.1/src/exe/rbdock.cxx#4 $)

>  <Rbt.Library>
libRbt.so (2013.1, Build901 2013/11/27)

>  <Rbt.Parameter_File>
/export/apps/rDock/src/rDock_2013.1_src/data/scripts/dock_solv.prm

>  <Rbt.Receptor>
prm/pocket_docking_2.prm

>  <SCORE>
-19.4199

>  <SCORE.INTER>
-16.4054

>  <SCORE.INTER.CONST>
1

>  <SCORE.INTER.POLAR>
0

>  <SCORE.INTER.ROT>
6

>  <SCORE.INTER.SOLV>
21.409

>  <SCORE.INTER.VDW>
-25.6733

>  <SCORE.INTER.norm>
-0.482513

>  <SCORE.INTRA>
-3.01447

>  <SCORE.INTRA.DIHEDRAL>
-6.45136

>  <SCORE.INTRA.DIHEDRAL.0>
19.5869

>  <SCORE.INTRA.POLAR>
0

>  <SCORE.INTRA.POLAR.0>
0

>  <SCORE.INTRA.REPUL>
0

>  <SCORE.INTRA.REPUL.0>
0

>  <SCORE.INTRA.SOLV>
-0.268075

>  <SCORE.INTRA.SOLV.lig_0>
-70.101

>  <SCORE.INTRA.VDW>
0.345242

>  <SCORE.INTRA.VDW.0>
-3.39718

>  <SCORE.INTRA.norm>
-0.088661

>  <SCORE.RESTR>
0

>  <SCORE.RESTR.CAVITY>
0

>  <SCORE.RESTR.norm>
0

>  <SCORE.SYSTEM>
0

>  <SCORE.SYSTEM.CONST>
0

>  <SCORE.SYSTEM.DIHEDRAL>
0

>  <SCORE.SYSTEM.SOLV>
0

>  <SCORE.SYSTEM.norm>
0

>  <SCORE.heavy>
34

>  <SCORE.norm>
-0.571174

>  <RMSD>
0.756

$$$$
ligand
 OpenBabel11021811483D
libRbt.so/2013.1/901 2013/11/27
 34 36  0  0  0  0  0  0  0  0999 V2000
    6.3942    5.8286    9.4270 C   0  0  2  0  0  0  0  0  0  0  0  0
    6.7338    5.4758    8.0769 O   0  0  0  0  0  0  0  0  0  0  0  0
    9.1059    7.2975    5.0246 C   0  0  2  0  0  0  0  0  0  0  0  0
    9.6661    8.2845    4.1081 N   0  0  0  0  0  0  0  0  0  0  0  0
   11.5881    8.9344    6.6037 C   0  0  2  0  0  0  0  0  0  0  0  0
    6.2156    4.4999   10.2450 C   0  0  2  0  0  0  0  0  0  0  0  0
    7.4586    3.7131   10.2577 N   0  0  0  0  0  0  0  0  0  0  0  0
    7.5543    7.2954    4.8186 C   0  0  0  0  0  0  0  0  0  0  0  0
   13.0699    8.5709    6.2303 C   0  0  2  0  0  0  0  0  0  0  0  0
   13.0994    7.8828    4.9907 O   0  0  0  0  0  0  0  0  0  0  0  0
    5.0729    3.6674    9.6241 C   0  0  1  0  0  0  0  0  0  0  0  0
    4.8986    2.4533   10.3728 O   0  0  0  0  0  0  0  0  0  0  0  0
    6.9542    6.2195    5.7856 C   0  0  2  0  0  0  0  0  0  0  0  0
    5.4849    6.1741    5.6416 N   0  0  0  0  0  0  0  0  0  0  0  0
   13.6789    7.6847    7.3850 C   0  0  1  0  0  0  0  0  0  0  0  0
   15.0867    7.2979    7.0695 N   0  0  0  0  0  0  0  0  0  0  0  0
    3.7822    4.5205    9.6150 C   0  0  2  0  0  0  0  0  0  0  0  0
    2.7104    3.7612    9.0291 O   0  0  0  0  0  0  0  0  0  0  0  0
    7.3043    6.5424    7.2608 C   0  0  2  0  0  0  0  0  0  0  0  0
   13.6226    8.4899    8.7282 C   0  0  1  0  0  0  0  0  0  0  0  0
   14.4068    9.6739    8.6090 O   0  0  0  0  0  0  0  0  0  0  0  0
    4.0303    5.8455    8.7980 C   0  0  2  0  0  0  0  0  0  0  0  0
    5.1449    6.6044    9.3979 O   0  0  0  0  0  0  0  0  0  0  0  0
    8.8439    6.6016    7.4221 C   0  0  2  0  0  0  0  0  0  0  0  0
    9.1409    6.9171    8.7785 O   0  0  0  0  0  0  0  0  0  0  0  0
   12.1380    8.8779    9.0157 C   0  0  0  0  0  0  0  0  0  0  0  0
   11.5677    9.6509    7.8863 O   0  0  0  0  0  0  0  0  0  0  0  0
    2.7747    6.7559    8.7757 C   0  0  2  0  0  0  0  0  0  0  0  0
    2.2091    6.8162   10.0825 O   0  0  0  0  0  0  0  0  0  0  0  0
    9.4610    7.6929    6.5167 C   0  0  1  0  0  0  0  0  0  0  0  0
   10.8914    7.6637    6.7342 O   0  0  0  0  0  0  0  0  0  0  0  0
    1.7132    6.2216    7.8283 C   0  0  0  0  0  0  0  0  0  0  0  0
   14.1739    7.6871    9.9001 C   0  0  0  0  0  0  0  0  0  0  0  0
   15.0588    6.0441    6.2923 C   0  0  0  0  0  0  0  0  0  0  0  0
  1  2  1  6  0  0  0
  1  6  1  0  0  0  0
  1 23  1  0  0  0  0
  3  4  1  6  0  0  0
  3  8  1  0  0  0  0
  3 30  1  0  0  0  0
  5  9  1  0  0  0  0
  5 27  1  0  0  0  0
  5 31  1  1  0  0  0
  6  7  1  6  0  0  0
  6 11  1  0  0  0  0
  8 13  1  0  0  0  0
  9 10  1  6  0  0  0
  9 15  1  0  0  0  0
 11 12  1  1  0  0  0
 11 17  1  0  0  0  0
 13 14  1  1  0  0  0
 13 19  1  0  0  0  0
 15 16  1  6  0  0  0
 15 20  1  0  0  0  0
 16 34  1  0  0  0  0
 17 18  1  6  0  0  0
 17 22  1  0  0  0  0
 19  2  1  1  0  0  0
 19 24  1  0  0  0  0
 20 21  1  6  0  0  0
 20 26  1  0  0  0  0
 20 33  1  0  0  0  0
 22 23  1  1  0  0  0
 22 28  1  0  0  0  0
 24 25  1  1  0  0  0
 24 30  1  0  0  0  0
 26 27  1  0  0  0  0
 28 29  1  1  0  0  0
 28 32  1  0  0  0  0
 30 31  1  6  0  0  0
M  END
>  <CHROM.1>
-163.32033243,-152.78641962,-88.27701704,44.26105438,95.65187500,-154.85819949
8.55414561,6.69396603,7.85575154,-2.84127920,-0.19842535,-1.11764176

>  <Name>
ligand

>  <RI>
0

>  <Rbt.Current_Directory>
/home/itssahil/PROJECTS/Mol_Feturizer/New_Systems/rnas/3TD1

>  <Rbt.Executable>
rbdock ($Id: //depot/dev/client3/rdock/2013.1/src/exe/rbdock.cxx#4 $)

>  <Rbt.Library>
libRbt.so (2013.1, Build901 2013/11/27)

>  <Rbt.Parameter_File>
/export/apps/rDock/src/rDock_2013.1_src/data/scripts/dock_solv.prm

>  <Rbt.Receptor>
prm/pocket_docking_2.prm

>  <SCORE>
-19.3848

>  <SCORE.INTER>
-16.2134

>  <SCORE.INTER.CONST>
1

>  <SCORE.INTER.POLAR>
0

>  <SCORE.INTER.ROT>
6

>  <SCORE.INTER.SOLV>
21.5361

>  <SCORE.INTER.VDW>
-25.5876

>  <SCORE.INTER.norm>
-0.476863

>  <SCORE.INTRA>
-3.17896

>  <SCORE.INTRA.DIHEDRAL>
-6.48876

>  <SCORE.INTRA.DIHEDRAL.0>
19.5869

>  <SCORE.INTRA.POLAR>
0

>  <SCORE.INTRA.POLAR.0>
0

>  <SCORE.INTRA.REPUL>
0

>  <SCORE.INTRA.REPUL.0>
0

>  <SCORE.INTRA.SOLV>
-0.269042

>  <SCORE.INTRA.SOLV.lig_0>
-70.101

>  <SCORE.INTRA.VDW>
0.199934

>  <SCORE.INTRA.VDW.0>
-3.39718

>  <SCORE.INTRA.norm>
-0.093499

>  <SCORE.RESTR>
0.00754364

>  <SCORE.RESTR.CAVITY>
0.00754364

>  <SCORE.RESTR.norm>
0.000221872

>  <SCORE.SYSTEM>
0

>  <SCORE.SYSTEM.CONST>
0

>  <SCORE.SYSTEM.DIHEDRAL>
0

>  <SCORE.SYSTEM.SOLV>
0

>  <SCORE.SYSTEM.norm>
0

>  <SCORE.heavy>
34

>  <SCORE.norm>
-0.570141

>  <RMSD>
0.766

$$$$
ligand
 OpenBabel11021811483D
libRbt.so/2013.1/901 2013/11/27
 34 36  0  0  0  0  0  0  0  0999 V2000
    6.4199    5.8214    9.3722 C   0  0  2  0  0  0  0  0  0  0  0  0
    6.7386    5.4721    8.0161 O   0  0  0  0  0  0  0  0  0  0  0  0
    9.1038    7.2860    4.9539 C   0  0  2  0  0  0  0  0  0  0  0  0
    9.6639    8.2714    4.0355 N   0  0  0  0  0  0  0  0  0  0  0  0
   11.5987    8.9132    6.5406 C   0  0  2  0  0  0  0  0  0  0  0  0
    6.2627    4.4908   10.1915 C   0  0  2  0  0  0  0  0  0  0  0  0
    7.5102    3.7111   10.1823 N   0  0  0  0  0  0  0  0  0  0  0  0
    7.5512    7.2912    4.7556 C   0  0  0  0  0  0  0  0  0  0  0  0
   13.0872    8.5503    6.1949 C   0  0  2  0  0  0  0  0  0  0  0  0
   13.1404    7.8649    4.9546 O   0  0  0  0  0  0  0  0  0  0  0  0
    5.1145    3.6524    9.5891 C   0  0  1  0  0  0  0  0  0  0  0  0
    4.9599    2.4366   10.3391 O   0  0  0  0  0  0  0  0  0  0  0  0
    6.9510    6.2171    5.7246 C   0  0  2  0  0  0  0  0  0  0  0  0
    5.4809    6.1786    5.5878 N   0  0  0  0  0  0  0  0  0  0  0  0
   13.6739    7.6616    7.3592 C   0  0  1  0  0  0  0  0  0  0  0  0
   15.0875    7.2752    7.0699 N   0  0  0  0  0  0  0  0  0  0  0  0
    3.8190    4.4981    9.6028 C   0  0  2  0  0  0  0  0  0  0  0  0
    2.7418    3.7334    9.0342 O   0  0  0  0  0  0  0  0  0  0  0  0
    7.3099    6.5370    7.1983 C   0  0  2  0  0  0  0  0  0  0  0  0
   13.5920    8.4638    8.7028 C   0  0  1  0  0  0  0  0  0  0  0  0
   14.3784    9.6479    8.6012 O   0  0  0  0  0  0  0  0  0  0  0  0
    4.0456    5.8254    8.7834 C   0  0  2  0  0  0  0  0  0  0  0  0
    5.1658    6.5901    9.3653 O   0  0  0  0  0  0  0  0  0  0  0  0
    8.8506    6.5889    7.3520 C   0  0  2  0  0  0  0  0  0  0  0  0
    9.1557    6.9018    8.7072 O   0  0  0  0  0  0  0  0  0  0  0  0
   12.1021    8.8513    8.9626 C   0  0  0  0  0  0  0  0  0  0  0  0
   11.5537    9.6269    7.8242 O   0  0  0  0  0  0  0  0  0  0  0  0
    2.7846    6.7287    8.7834 C   0  0  2  0  0  0  0  0  0  0  0  0
    2.2551    6.8040   10.1044 O   0  0  0  0  0  0  0  0  0  0  0  0
    9.4681    7.6783    6.4446 C   0  0  1  0  0  0  0  0  0  0  0  0
   10.8994    7.6423    6.6550 O   0  0  0  0  0  0  0  0  0  0  0  0
    1.7004    6.1755    7.8733 C   0  0  0  0  0  0  0  0  0  0  0  0
   14.1205    7.6583    9.8833 C   0  0  0  0  0  0  0  0  0  0  0  0
   15.0739    6.0314    6.2764 C   0  0  0  0  0  0  0  0  0  0  0  0
  1  2  1  6  0  0  0
  1  6  1  0  0  0  0
  1 23  1  0  0  0  0
  3  4  1  6  0  0  0
  3  8  1  0  0  0  0
  3 30  1  0  0  0  0
  5  9  1  0  0  0  0
  5 27  1  0  0  0  0
  5 31  1  1  0  0  0
  6  7  1  6  0  0  0
  6 11  1  0  0  0  0
  8 13  1  0  0  0  0
  9 10  1  6  0  0  0
  9 15  1  0  0  0  0
 11 12  1  1  0  0  0
 11 17  1  0  0  0  0
 13 14  1  1  0  0  0
 13 19  1  0  0  0  0
 15 16  1  6  0  0  0
 15 20  1  0  0  0  0
 16 34  1  0  0  0  0
 17 18  1  6  0  0  0
 17 22  1  0  0  0  0
 19  2  1  1  0  0  0
 19 24  1  0  0  0  0
 20 21  1  6  0  0  0
 20 26  1  0  0  0  0
 20 33  1  0  0  0  0
 22 23  1  1  0  0  0
 22 28  1  0  0  0  0
 24 25  1  1  0  0  0
 24 30  1  0  0  0  0
 26 27  1  0  0  0  0
 28 29  1  1  0  0  0
 28 32  1  0  0  0  0
 30 31  1  6  0  0  0
M  END
>  <CHROM.1>
-162.33315612,-153.39252762,-87.63987374,45.31971994,96.48054541,-156.42164106
8.56389865,6.67707449,7.81771656,-2.83933785,-0.19834105,-1.12197643

>  <Name>
ligand

>  <RI>
0

>  <Rbt.Current_Directory>
/home/itssahil/PROJECTS/Mol_Feturizer/New_Systems/rnas/3TD1

>  <Rbt.Executable>
rbdock ($Id: //depot/dev/client3/rdock/2013.1/src/exe/rbdock.cxx#4 $)

>  <Rbt.Library>
libRbt.so (2013.1, Build901 2013/11/27)

>  <Rbt.Parameter_File>
/export/apps/rDock/src/rDock_2013.1_src/data/scripts/dock_solv.prm

>  <Rbt.Receptor>
prm/pocket_docking_5.prm

>  <SCORE>
-19.4319

>  <SCORE.INTER>
-16.1922

>  <SCORE.INTER.CONST>
1

>  <SCORE.INTER.POLAR>
0

>  <SCORE.INTER.ROT>
6

>  <SCORE.INTER.SOLV>
21.1733

>  <SCORE.INTER.VDW>
-25.4526

>  <SCORE.INTER.norm>
-0.476242

>  <SCORE.INTRA>
-3.23972

>  <SCORE.INTRA.DIHEDRAL>
-6.7165

>  <SCORE.INTRA.DIHEDRAL.0>
19.5869

>  <SCORE.INTRA.POLAR>
0

>  <SCORE.INTRA.POLAR.0>
0

>  <SCORE.INTRA.REPUL>
0

>  <SCORE.INTRA.REPUL.0>
0

>  <SCORE.INTRA.SOLV>
-0.372515

>  <SCORE.INTRA.SOLV.lig_0>
-70.101

>  <SCORE.INTRA.VDW>
0.304792

>  <SCORE.INTRA.VDW.0>
-3.39718

>  <SCORE.INTRA.norm>
-0.0952857

>  <SCORE.RESTR>
0

>  <SCORE.RESTR.CAVITY>
0

>  <SCORE.RESTR.norm>
0

>  <SCORE.SYSTEM>
0

>  <SCORE.SYSTEM.CONST>
0

>  <SCORE.SYSTEM.DIHEDRAL>
0

>  <SCORE.SYSTEM.SOLV>
0

>  <SCORE.SYSTEM.norm>
0

>  <SCORE.heavy>
34

>  <SCORE.norm>
-0.571528

>  <RMSD>
0.767

$$$$
ligand
 OpenBabel11021811483D
libRbt.so/2013.1/901 2013/11/27
 34 36  0  0  0  0  0  0  0  0999 V2000
    6.4368    5.8531    9.3448 C   0  0  2  0  0  0  0  0  0  0  0  0
    6.7505    5.4940    7.9901 O   0  0  0  0  0  0  0  0  0  0  0  0
    9.0548    7.2937    4.8734 C   0  0  2  0  0  0  0  0  0  0  0  0
    9.6002    8.2759    3.9429 N   0  0  0  0  0  0  0  0  0  0  0  0
   11.5940    8.9069    6.4531 C   0  0  2  0  0  0  0  0  0  0  0  0
    6.2998    4.5288   10.1779 C   0  0  2  0  0  0  0  0  0  0  0  0
    7.5557    3.7628   10.1679 N   0  0  0  0  0  0  0  0  0  0  0  0
    7.4980    7.3112    4.7129 C   0  0  0  0  0  0  0  0  0  0  0  0
   13.0886    8.5514    6.1262 C   0  0  2  0  0  0  0  0  0  0  0  0
   13.1637    7.8903    4.8740 O   0  0  0  0  0  0  0  0  0  0  0  0
    5.1569    3.6721    9.5913 C   0  0  1  0  0  0  0  0  0  0  0  0
    5.0207    2.4620   10.3541 O   0  0  0  0  0  0  0  0  0  0  0  0
    6.9131    6.2405    5.6949 C   0  0  2  0  0  0  0  0  0  0  0  0
    5.4397    6.2136    5.5938 N   0  0  0  0  0  0  0  0  0  0  0  0
   13.6558    7.6405    7.2829 C   0  0  1  0  0  0  0  0  0  0  0  0
   15.0746    7.2606    7.0106 N   0  0  0  0  0  0  0  0  0  0  0  0
    3.8523    4.5036    9.6055 C   0  0  2  0  0  0  0  0  0  0  0  0
    2.7799    3.7215    9.0515 O   0  0  0  0  0  0  0  0  0  0  0  0
    7.3101    6.5555    7.1598 C   0  0  2  0  0  0  0  0  0  0  0  0
   13.5501    8.4165    8.6402 C   0  0  1  0  0  0  0  0  0  0  0  0
   14.3372    9.6028    8.5752 O   0  0  0  0  0  0  0  0  0  0  0  0
    4.0588    5.8253    8.7718 C   0  0  2  0  0  0  0  0  0  0  0  0
    5.1743    6.6078    9.3387 O   0  0  0  0  0  0  0  0  0  0  0  0
    8.8544    6.5953    7.2761 C   0  0  2  0  0  0  0  0  0  0  0  0
    9.1948    6.9039    8.6238 O   0  0  0  0  0  0  0  0  0  0  0  0
   12.0557    8.7982    8.8818 C   0  0  0  0  0  0  0  0  0  0  0  0
   11.5263    9.5955    7.7494 O   0  0  0  0  0  0  0  0  0  0  0  0
    2.7880    6.7146    8.7714 C   0  0  2  0  0  0  0  0  0  0  0  0
    2.2569    6.7834   10.0922 O   0  0  0  0  0  0  0  0  0  0  0  0
    9.4582    7.6810    6.3553 C   0  0  1  0  0  0  0  0  0  0  0  0
   10.8939    7.6336    6.5308 O   0  0  0  0  0  0  0  0  0  0  0  0
    1.7105    6.1499    7.8604 C   0  0  0  0  0  0  0  0  0  0  0  0
   14.0590    7.5885    9.8138 C   0  0  0  0  0  0  0  0  0  0  0  0
   15.0761    6.0149    6.2199 C   0  0  0  0  0  0  0  0  0  0  0  0
  1  2  1  6  0  0  0
  1  6  1  0  0  0  0
  1 23  1  0  0  0  0
  3  4  1  6  0  0  0
  3  8  1  0  0  0  0
  3 30  1  0  0  0  0
  5  9  1  0  0  0  0
  5 27  1  0  0  0  0
  5 31  1  1  0  0  0
  6  7  1  6  0  0  0
  6 11  1  0  0  0  0
  8 13  1  0  0  0  0
  9 10  1  6  0  0  0
  9 15  1  0  0  0  0
 11 12  1  1  0  0  0
 11 17  1  0  0  0  0
 13 14  1  1  0  0  0
 13 19  1  0  0  0  0
 15 16  1  6  0  0  0
 15 20  1  0  0  0  0
 16 34  1  0  0  0  0
 17 18  1  6  0  0  0
 17 22  1  0  0  0  0
 19  2  1  1  0  0  0
 19 24  1  0  0  0  0
 20 21  1  6  0  0  0
 20 26  1  0  0  0  0
 20 33  1  0  0  0  0
 22 23  1  1  0  0  0
 22 28  1  0  0  0  0
 24 25  1  1  0  0  0
 24 30  1  0  0  0  0
 26 27  1  0  0  0  0
 28 29  1  1  0  0  0
 28 32  1  0  0  0  0
 30 31  1  6  0  0  0
M  END
>  <CHROM.1>
-162.07430737,-151.91556344,-88.95382745,44.60450090,98.81122476,-159.06457378
8.56082991,6.67589384,7.77334885,-2.83262550,-0.19128828,-1.11857187

>  <Name>
ligand

>  <RI>
0

>  <Rbt.Current_Directory>
/home/itssahil/PROJECTS/Mol_Feturizer/New_Systems/rnas/3TD1

>  <Rbt.Executable>
rbdock ($Id: //depot/dev/client3/rdock/2013.1/src/exe/rbdock.cxx#4 $)

>  <Rbt.Library>
libRbt.so (2013.1, Build901 2013/11/27)

>  <Rbt.Parameter_File>
/export/apps/rDock/src/rDock_2013.1_src/data/scripts/dock_solv.prm

>  <Rbt.Receptor>
prm/pocket_docking_4.prm

>  <SCORE>
-19.3796

>  <SCORE.INTER>
-16.1335

>  <SCORE.INTER.CONST>
1

>  <SCORE.INTER.POLAR>
0

>  <SCORE.INTER.ROT>
6

>  <SCORE.INTER.SOLV>
20.9926

>  <SCORE.INTER.VDW>
-25.3532

>  <SCORE.INTER.norm>
-0.474515

>  <SCORE.INTRA>
-3.24886

>  <SCORE.INTRA.DIHEDRAL>
-6.34737

>  <SCORE.INTRA.DIHEDRAL.0>
19.5869

>  <SCORE.INTRA.POLAR>
0

>  <SCORE.INTRA.POLAR.0>
0

>  <SCORE.INTRA.REPUL>
0

>  <SCORE.INTRA.REPUL.0>
0

>  <SCORE.INTRA.SOLV>
-0.359495

>  <SCORE.INTRA.SOLV.lig_0>
-70.101

>  <SCORE.INTRA.VDW>
0.104576

>  <SCORE.INTRA.VDW.0>
-3.39718

>  <SCORE.INTRA.norm>
-0.0955546

>  <SCORE.RESTR>
0.00279406

>  <SCORE.RESTR.CAVITY>
0.00279406

>  <SCORE.RESTR.norm>
8.21783e-05

>  <SCORE.SYSTEM>
0

>  <SCORE.SYSTEM.CONST>
0

>  <SCORE.SYSTEM.DIHEDRAL>
0

>  <SCORE.SYSTEM.SOLV>
0

>  <SCORE.SYSTEM.norm>
0

>  <SCORE.heavy>
34

>  <SCORE.norm>
-0.569988

>  <RMSD>
0.779

$$$$
ligand
 OpenBabel11021811483D
libRbt.so/2013.1/901 2013/11/27
 34 36  0  0  0  0  0  0  0  0999 V2000
    6.4436    5.7907    9.4062 C   0  0  2  0  0  0  0  0  0  0  0  0
    6.7825    5.4428    8.0546 O   0  0  0  0  0  0  0  0  0  0  0  0
    9.0840    7.2929    4.9656 C   0  0  2  0  0  0  0  0  0  0  0  0
    9.6243    8.2888    4.0467 N   0  0  0  0  0  0  0  0  0  0  0  0
   11.6063    8.9090    6.5206 C   0  0  2  0  0  0  0  0  0  0  0  0
    6.2667    4.4590   10.2197 C   0  0  2  0  0  0  0  0  0  0  0  0
    7.5104    3.6732   10.2288 N   0  0  0  0  0  0  0  0  0  0  0  0
    7.5279    7.2970    4.7978 C   0  0  0  0  0  0  0  0  0  0  0  0
   13.0954    8.5518    6.1711 C   0  0  2  0  0  0  0  0  0  0  0  0
   13.1483    7.8682    4.9299 O   0  0  0  0  0  0  0  0  0  0  0  0
    5.1243    3.6276    9.5969 C   0  0  1  0  0  0  0  0  0  0  0  0
    4.9517    2.4108   10.3414 O   0  0  0  0  0  0  0  0  0  0  0  0
    6.9487    6.2117    5.7671 C   0  0  2  0  0  0  0  0  0  0  0  0
    5.4762    6.1716    5.6587 N   0  0  0  0  0  0  0  0  0  0  0  0
   13.6878    7.6636    7.3329 C   0  0  1  0  0  0  0  0  0  0  0  0
   15.1022    7.2827    7.0400 N   0  0  0  0  0  0  0  0  0  0  0  0
    3.8329    4.4796    9.5916 C   0  0  2  0  0  0  0  0  0  0  0  0
    2.7613    3.7214    9.0039 O   0  0  0  0  0  0  0  0  0  0  0  0
    7.3357    6.5172    7.2367 C   0  0  2  0  0  0  0  0  0  0  0  0
   13.6061    8.4638    8.6777 C   0  0  1  0  0  0  0  0  0  0  0  0
   14.3881    9.6509    8.5760 O   0  0  0  0  0  0  0  0  0  0  0  0
    4.0791    5.8076    8.7791 C   0  0  2  0  0  0  0  0  0  0  0  0
    5.1935    6.5655    9.3808 O   0  0  0  0  0  0  0  0  0  0  0  0
    8.8790    6.5707    7.3609 C   0  0  2  0  0  0  0  0  0  0  0  0
    9.2099    6.8703    8.7130 O   0  0  0  0  0  0  0  0  0  0  0  0
   12.1154    8.8458    8.9414 C   0  0  0  0  0  0  0  0  0  0  0  0
   11.5617    9.6209    7.8052 O   0  0  0  0  0  0  0  0  0  0  0  0
    2.8227    6.7170    8.7608 C   0  0  2  0  0  0  0  0  0  0  0  0
    2.2705    6.7895   10.0727 O   0  0  0  0  0  0  0  0  0  0  0  0
    9.4766    7.6706    6.4529 C   0  0  1  0  0  0  0  0  0  0  0  0
   10.9119    7.6354    6.6349 O   0  0  0  0  0  0  0  0  0  0  0  0
    1.7520    6.1730    7.8296 C   0  0  0  0  0  0  0  0  0  0  0  0
   14.1401    7.6588    9.8561 C   0  0  0  0  0  0  0  0  0  0  0  0
   15.0903    6.0611    6.2127 C   0  0  0  0  0  0  0  0  0  0  0  0
  1  2  1  6  0  0  0
  1  6  1  0  0  0  0
  1 23  1  0  0  0  0
  3  4  1  6  0  0  0
  3  8  1  0  0  0  0
  3 30  1  0  0  0  0
  5  9  1  0  0  0  0
  5 27  1  0  0  0  0
  5 31  1  1  0  0  0
  6  7  1  6  0  0  0
  6 11  1  0  0  0  0
  8 13  1  0  0  0  0
  9 10  1  6  0  0  0
  9 15  1  0  0  0  0
 11 12  1  1  0  0  0
 11 17  1  0  0  0  0
 13 14  1  1  0  0  0
 13 19  1  0  0  0  0
 15 16  1  6  0  0  0
 15 20  1  0  0  0  0
 16 34  1  0  0  0  0
 17 18  1  6  0  0  0
 17 22  1  0  0  0  0
 19  2  1  1  0  0  0
 19 24  1  0  0  0  0
 20 21  1  6  0  0  0
 20 26  1  0  0  0  0
 20 33  1  0  0  0  0
 22 23  1  1  0  0  0
 22 28  1  0  0  0  0
 24 25  1  1  0  0  0
 24 30  1  0  0  0  0
 26 27  1  0  0  0  0
 28 29  1  1  0  0  0
 28 32  1  0  0  0  0
 30 31  1  6  0  0  0
M  END
>  <CHROM.1>
-164.06551760,-151.17707838,-86.06131874,45.18614003,96.50768031,-157.55405414
8.57735041,6.66774166,7.81536323,-2.83329181,-0.19572710,-1.10775311

>  <Name>
ligand

>  <RI>
0

>  <Rbt.Current_Directory>
/home/itssahil/PROJECTS/Mol_Feturizer/New_Systems/rnas/3TD1

>  <Rbt.Executable>
rbdock ($Id: //depot/dev/client3/rdock/2013.1/src/exe/rbdock.cxx#4 $)

>  <Rbt.Library>
libRbt.so (2013.1, Build901 2013/11/27)

>  <Rbt.Parameter_File>
/export/apps/rDock/src/rDock_2013.1_src/data/scripts/dock_solv.prm

>  <Rbt.Receptor>
prm/pocket_docking_5.prm

>  <SCORE>
-19.5146

>  <SCORE.INTER>
-16.3462

>  <SCORE.INTER.CONST>
1

>  <SCORE.INTER.POLAR>
0

>  <SCORE.INTER.ROT>
6

>  <SCORE.INTER.SOLV>
21.1294

>  <SCORE.INTER.VDW>
-25.5406

>  <SCORE.INTER.norm>
-0.48077

>  <SCORE.INTRA>
-3.16841

>  <SCORE.INTRA.DIHEDRAL>
-6.78354

>  <SCORE.INTRA.DIHEDRAL.0>
19.5869

>  <SCORE.INTRA.POLAR>
0

>  <SCORE.INTRA.POLAR.0>
0

>  <SCORE.INTRA.REPUL>
0

>  <SCORE.INTRA.REPUL.0>
0

>  <SCORE.INTRA.SOLV>
-0.248249

>  <SCORE.INTRA.SOLV.lig_0>
-70.101

>  <SCORE.INTRA.VDW>
0.347488

>  <SCORE.INTRA.VDW.0>
-3.39718

>  <SCORE.INTRA.norm>
-0.0931885

>  <SCORE.RESTR>
0

>  <SCORE.RESTR.CAVITY>
0

>  <SCORE.RESTR.norm>
0

>  <SCORE.SYSTEM>
0

>  <SCORE.SYSTEM.CONST>
0

>  <SCORE.SYSTEM.DIHEDRAL>
0

>  <SCORE.SYSTEM.SOLV>
0

>  <SCORE.SYSTEM.norm>
0

>  <SCORE.heavy>
34

>  <SCORE.norm>
-0.573958

>  <RMSD>
0.779

$$$$
ligand
 OpenBabel11021811483D
libRbt.so/2013.1/901 2013/11/27
 34 36  0  0  0  0  0  0  0  0999 V2000
    6.3300    5.8344    9.2417 C   0  0  2  0  0  0  0  0  0  0  0  0
    6.6055    5.4921    7.8744 O   0  0  0  0  0  0  0  0  0  0  0  0
    8.9268    7.2859    4.7670 C   0  0  2  0  0  0  0  0  0  0  0  0
    9.4838    8.2684    3.8437 N   0  0  0  0  0  0  0  0  0  0  0  0
   11.4991    8.8411    6.3087 C   0  0  2  0  0  0  0  0  0  0  0  0
    6.2023    4.4996   10.0593 C   0  0  2  0  0  0  0  0  0  0  0  0
    7.4506    3.7229   10.0061 N   0  0  0  0  0  0  0  0  0  0  0  0
    7.3699    7.3278    4.6115 C   0  0  0  0  0  0  0  0  0  0  0  0
   12.9982    8.4480    6.0528 C   0  0  2  0  0  0  0  0  0  0  0  0
   13.1062    7.7263    4.8370 O   0  0  0  0  0  0  0  0  0  0  0  0
    5.0370    3.6613    9.4903 C   0  0  1  0  0  0  0  0  0  0  0  0
    4.9094    2.4416   10.2392 O   0  0  0  0  0  0  0  0  0  0  0  0
    6.7722    6.2569    5.5856 C   0  0  2  0  0  0  0  0  0  0  0  0
    5.2984    6.2526    5.4888 N   0  0  0  0  0  0  0  0  0  0  0  0
   13.5092    7.5855    7.2712 C   0  0  1  0  0  0  0  0  0  0  0  0
   14.9300    7.1717    7.0684 N   0  0  0  0  0  0  0  0  0  0  0  0
    3.7408    4.5039    9.5498 C   0  0  2  0  0  0  0  0  0  0  0  0
    2.6475    3.7393    9.0126 O   0  0  0  0  0  0  0  0  0  0  0  0
    7.1782    6.5528    7.0520 C   0  0  2  0  0  0  0  0  0  0  0  0
   13.3688    8.4274    8.5854 C   0  0  1  0  0  0  0  0  0  0  0  0
   14.1774    9.5973    8.4923 O   0  0  0  0  0  0  0  0  0  0  0  0
    3.9379    5.8356    8.7298 C   0  0  2  0  0  0  0  0  0  0  0  0
    5.0746    6.6001    9.2789 O   0  0  0  0  0  0  0  0  0  0  0  0
    8.7233    6.5687    7.1639 C   0  0  2  0  0  0  0  0  0  0  0  0
    9.0721    6.8601    8.5133 O   0  0  0  0  0  0  0  0  0  0  0  0
   11.8734    8.8427    8.7548 C   0  0  0  0  0  0  0  0  0  0  0  0
   11.3975    9.5924    7.5674 O   0  0  0  0  0  0  0  0  0  0  0  0
    2.6756    6.7358    8.7748 C   0  0  2  0  0  0  0  0  0  0  0  0
    2.1724    6.7809   10.1075 O   0  0  0  0  0  0  0  0  0  0  0  0
    9.3403    7.6538    6.2510 C   0  0  1  0  0  0  0  0  0  0  0  0
   10.7756    7.5838    6.4217 O   0  0  0  0  0  0  0  0  0  0  0  0
    1.5745    6.2005    7.8744 C   0  0  0  0  0  0  0  0  0  0  0  0
   13.8222    7.6495    9.8146 C   0  0  0  0  0  0  0  0  0  0  0  0
   14.9431    5.9592    6.2278 C   0  0  0  0  0  0  0  0  0  0  0  0
  1  2  1  6  0  0  0
  1  6  1  0  0  0  0
  1 23  1  0  0  0  0
  3  4  1  6  0  0  0
  3  8  1  0  0  0  0
  3 30  1  0  0  0  0
  5  9  1  0  0  0  0
  5 27  1  0  0  0  0
  5 31  1  1  0  0  0
  6  7  1  6  0  0  0
  6 11  1  0  0  0  0
  8 13  1  0  0  0  0
  9 10  1  6  0  0  0
  9 15  1  0  0  0  0
 11 12  1  1  0  0  0
 11 17  1  0  0  0  0
 13 14  1  1  0  0  0
 13 19  1  0  0  0  0
 15 16  1  6  0  0  0
 15 20  1  0  0  0  0
 16 34  1  0  0  0  0
 17 18  1  6  0  0  0
 17 22  1  0  0  0  0
 19  2  1  1  0  0  0
 19 24  1  0  0  0  0
 20 21  1  6  0  0  0
 20 26  1  0  0  0  0
 20 33  1  0  0  0  0
 22 23  1  1  0  0  0
 22 28  1  0  0  0  0
 24 25  1  1  0  0  0
 24 30  1  0  0  0  0
 26 27  1  0  0  0  0
 28 29  1  1  0  0  0
 28 32  1  0  0  0  0
 30 31  1  6  0  0  0
M  END
>  <CHROM.1>
-160.89396215,-153.30586373,-83.59728588,44.09706649,96.81865893,-161.69708748
8.43405849,6.65949869,7.69753966,-2.83306552,-0.18735262,-1.11998363

>  <Name>
ligand

>  <RI>
0

>  <Rbt.Current_Directory>
/home/itssahil/PROJECTS/Mol_Feturizer/New_Systems/rnas/3TD1

>  <Rbt.Executable>
rbdock ($Id: //depot/dev/client3/rdock/2013.1/src/exe/rbdock.cxx#4 $)

>  <Rbt.Library>
libRbt.so (2013.1, Build901 2013/11/27)

>  <Rbt.Parameter_File>
/export/apps/rDock/src/rDock_2013.1_src/data/scripts/dock_solv.prm

>  <Rbt.Receptor>
prm/pocket_docking_4.prm

>  <SCORE>
-19.2621

>  <SCORE.INTER>
-15.8733

>  <SCORE.INTER.CONST>
1

>  <SCORE.INTER.POLAR>
0

>  <SCORE.INTER.ROT>
6

>  <SCORE.INTER.SOLV>
20.5774

>  <SCORE.INTER.VDW>
-25.0413

>  <SCORE.INTER.norm>
-0.46686

>  <SCORE.INTRA>
-3.38882

>  <SCORE.INTRA.DIHEDRAL>
-7.29804

>  <SCORE.INTRA.DIHEDRAL.0>
19.5869

>  <SCORE.INTRA.POLAR>
0

>  <SCORE.INTRA.POLAR.0>
0

>  <SCORE.INTRA.REPUL>
0

>  <SCORE.INTRA.REPUL.0>
0

>  <SCORE.INTRA.SOLV>
-0.501312

>  <SCORE.INTRA.SOLV.lig_0>
-70.101

>  <SCORE.INTRA.VDW>
0.510857

>  <SCORE.INTRA.VDW.0>
-3.39718

>  <SCORE.INTRA.norm>
-0.0996712

>  <SCORE.RESTR>
0

>  <SCORE.RESTR.CAVITY>
0

>  <SCORE.RESTR.norm>
0

>  <SCORE.SYSTEM>
0

>  <SCORE.SYSTEM.CONST>
0

>  <SCORE.SYSTEM.DIHEDRAL>
0

>  <SCORE.SYSTEM.SOLV>
0

>  <SCORE.SYSTEM.norm>
0

>  <SCORE.heavy>
34

>  <SCORE.norm>
-0.566532

>  <RMSD>
0.788

$$$$
ligand
 OpenBabel11021811483D
libRbt.so/2013.1/901 2013/11/27
 34 36  0  0  0  0  0  0  0  0999 V2000
    6.3168    5.8829    9.2873 C   0  0  2  0  0  0  0  0  0  0  0  0
    6.6179    5.5309    7.9279 O   0  0  0  0  0  0  0  0  0  0  0  0
    8.9303    7.3201    4.8114 C   0  0  2  0  0  0  0  0  0  0  0  0
    9.4865    8.3017    3.8866 N   0  0  0  0  0  0  0  0  0  0  0  0
   11.5190    8.8592    6.3156 C   0  0  2  0  0  0  0  0  0  0  0  0
    6.2007    4.5550   10.1178 C   0  0  2  0  0  0  0  0  0  0  0  0
    7.4629    3.7998   10.0908 N   0  0  0  0  0  0  0  0  0  0  0  0
    7.3729    7.3681    4.6637 C   0  0  0  0  0  0  0  0  0  0  0  0
   13.0132    8.4518    6.0538 C   0  0  2  0  0  0  0  0  0  0  0  0
   13.1059    7.7079    4.8501 O   0  0  0  0  0  0  0  0  0  0  0  0
    5.0585    3.6903    9.5415 C   0  0  1  0  0  0  0  0  0  0  0  0
    4.9414    2.4767   10.3019 O   0  0  0  0  0  0  0  0  0  0  0  0
    6.7760    6.2981    5.6393 C   0  0  2  0  0  0  0  0  0  0  0  0
    5.3017    6.2995    5.5499 N   0  0  0  0  0  0  0  0  0  0  0  0
   13.5294    7.6077    7.2828 C   0  0  1  0  0  0  0  0  0  0  0  0
   14.9458    7.1810    7.0751 N   0  0  0  0  0  0  0  0  0  0  0  0
    3.7471    4.5105    9.5734 C   0  0  2  0  0  0  0  0  0  0  0  0
    2.6750    3.7211    9.0293 O   0  0  0  0  0  0  0  0  0  0  0  0
    7.1905    6.5905    7.1041 C   0  0  2  0  0  0  0  0  0  0  0  0
   13.4060    8.4736    8.5830 C   0  0  1  0  0  0  0  0  0  0  0  0
   14.2211    9.6364    8.4621 O   0  0  0  0  0  0  0  0  0  0  0  0
    3.9327    5.8366    8.7416 C   0  0  2  0  0  0  0  0  0  0  0  0
    5.0479    6.6269    9.2983 O   0  0  0  0  0  0  0  0  0  0  0  0
    8.7361    6.6005    7.2083 C   0  0  2  0  0  0  0  0  0  0  0  0
    9.0928    6.8886    8.5563 O   0  0  0  0  0  0  0  0  0  0  0  0
   11.9148    8.9016    8.7580 C   0  0  0  0  0  0  0  0  0  0  0  0
   11.4332    9.6332    7.5616 O   0  0  0  0  0  0  0  0  0  0  0  0
    2.6544    6.7150    8.7588 C   0  0  2  0  0  0  0  0  0  0  0  0
    2.1195    6.7483   10.0795 O   0  0  0  0  0  0  0  0  0  0  0  0
    9.3526    7.6844    6.2938 C   0  0  1  0  0  0  0  0  0  0  0  0
   10.7886    7.6087    6.4572 O   0  0  0  0  0  0  0  0  0  0  0  0
    1.5839    6.1628    7.8320 C   0  0  0  0  0  0  0  0  0  0  0  0
   13.8652    7.7146    9.8219 C   0  0  0  0  0  0  0  0  0  0  0  0
   14.9392    5.8565    6.4250 C   0  0  0  0  0  0  0  0  0  0  0  0
  1  2  1  6  0  0  0
  1  6  1  0  0  0  0
  1 23  1  0  0  0  0
  3  4  1  6  0  0  0
  3  8  1  0  0  0  0
  3 30  1  0  0  0  0
  5  9  1  0  0  0  0
  5 27  1  0  0  0  0
  5 31  1  1  0  0  0
  6  7  1  6  0  0  0
  6 11  1  0  0  0  0
  8 13  1  0  0  0  0
  9 10  1  6  0  0  0
  9 15  1  0  0  0  0
 11 12  1  1  0  0  0
 11 17  1  0  0  0  0
 13 14  1  1  0  0  0
 13 19  1  0  0  0  0
 15 16  1  6  0  0  0
 15 20  1  0  0  0  0
 16 34  1  0  0  0  0
 17 18  1  6  0  0  0
 17 22  1  0  0  0  0
 19  2  1  1  0  0  0
 19 24  1  0  0  0  0
 20 21  1  6  0  0  0
 20 26  1  0  0  0  0
 20 33  1  0  0  0  0
 22 23  1  1  0  0  0
 22 28  1  0  0  0  0
 24 25  1  1  0  0  0
 24 30  1  0  0  0  0
 26 27  1  0  0  0  0
 28 29  1  1  0  0  0
 28 32  1  0  0  0  0
 30 31  1  6  0  0  0
M  END
>  <CHROM.1>
-160.57519506,-151.68104088,-91.57992018,43.19093645,95.62709295,-161.51937469
8.44456571,6.68060371,7.72736533,-2.83192303,-0.18310227,-1.10306965

>  <Name>
ligand

>  <RI>
0

>  <Rbt.Current_Directory>
/home/itssahil/PROJECTS/Mol_Feturizer/New_Systems/rnas/3TD1

>  <Rbt.Executable>
rbdock ($Id: //depot/dev/client3/rdock/2013.1/src/exe/rbdock.cxx#4 $)

>  <Rbt.Library>
libRbt.so (2013.1, Build901 2013/11/27)

>  <Rbt.Parameter_File>
/export/apps/rDock/src/rDock_2013.1_src/data/scripts/dock_solv.prm

>  <Rbt.Receptor>
prm/pocket_docking_5.prm

>  <SCORE>
-19.4157

>  <SCORE.INTER>
-15.788

>  <SCORE.INTER.CONST>
1

>  <SCORE.INTER.POLAR>
0

>  <SCORE.INTER.ROT>
6

>  <SCORE.INTER.SOLV>
20.8935

>  <SCORE.INTER.VDW>
-25.0898

>  <SCORE.INTER.norm>
-0.464352

>  <SCORE.INTRA>
-3.62771

>  <SCORE.INTRA.DIHEDRAL>
-6.7831

>  <SCORE.INTRA.DIHEDRAL.0>
19.5869

>  <SCORE.INTRA.POLAR>
0

>  <SCORE.INTRA.POLAR.0>
0

>  <SCORE.INTRA.REPUL>
0

>  <SCORE.INTRA.REPUL.0>
0

>  <SCORE.INTRA.SOLV>
-0.38113

>  <SCORE.INTRA.SOLV.lig_0>
-70.101

>  <SCORE.INTRA.VDW>
-0.0455912

>  <SCORE.INTRA.VDW.0>
-3.39718

>  <SCORE.INTRA.norm>
-0.106697

>  <SCORE.RESTR>
0

>  <SCORE.RESTR.CAVITY>
0

>  <SCORE.RESTR.norm>
0

>  <SCORE.SYSTEM>
0

>  <SCORE.SYSTEM.CONST>
0

>  <SCORE.SYSTEM.DIHEDRAL>
0

>  <SCORE.SYSTEM.SOLV>
0

>  <SCORE.SYSTEM.norm>
0

>  <SCORE.heavy>
34

>  <SCORE.norm>
-0.57105

>  <RMSD>
0.794

$$$$
ligand
 OpenBabel11021811483D
libRbt.so/2013.1/901 2013/11/27
 34 36  0  0  0  0  0  0  0  0999 V2000
    6.3776    5.9850    9.1769 C   0  0  2  0  0  0  0  0  0  0  0  0
    6.6418    5.6158    7.8144 O   0  0  0  0  0  0  0  0  0  0  0  0
    9.0624    7.3120    4.7281 C   0  0  2  0  0  0  0  0  0  0  0  0
    9.6468    8.2644    3.7903 N   0  0  0  0  0  0  0  0  0  0  0  0
   11.5657    8.9434    6.3388 C   0  0  2  0  0  0  0  0  0  0  0  0
    6.3134    4.6692   10.0320 C   0  0  2  0  0  0  0  0  0  0  0  0
    7.5884    3.9374    9.9766 N   0  0  0  0  0  0  0  0  0  0  0  0
    7.5118    7.3388    4.5167 C   0  0  0  0  0  0  0  0  0  0  0  0
   13.0661    8.5635    6.0712 C   0  0  2  0  0  0  0  0  0  0  0  0
   13.1737    7.8614    4.8438 O   0  0  0  0  0  0  0  0  0  0  0  0
    5.1702    3.7739    9.5070 C   0  0  1  0  0  0  0  0  0  0  0  0
    5.1006    2.5712   10.2902 O   0  0  0  0  0  0  0  0  0  0  0  0
    6.8854    6.2996    5.5069 C   0  0  2  0  0  0  0  0  0  0  0  0
    5.4159    6.2828    5.3587 N   0  0  0  0  0  0  0  0  0  0  0  0
   13.5870    7.6853    7.2740 C   0  0  1  0  0  0  0  0  0  0  0  0
   15.0095    7.2833    7.0593 N   0  0  0  0  0  0  0  0  0  0  0  0
    3.8450    4.5700    9.5678 C   0  0  2  0  0  0  0  0  0  0  0  0
    2.7714    3.7517    9.0713 O   0  0  0  0  0  0  0  0  0  0  0  0
    7.2379    6.6500    6.9752 C   0  0  2  0  0  0  0  0  0  0  0  0
   13.4467    8.5058    8.6017 C   0  0  1  0  0  0  0  0  0  0  0  0
   14.2478    9.6819    8.5237 O   0  0  0  0  0  0  0  0  0  0  0  0
    3.9785    5.8851    8.7092 C   0  0  2  0  0  0  0  0  0  0  0  0
    5.0956    6.7052    9.2167 O   0  0  0  0  0  0  0  0  0  0  0  0
    8.7780    6.6795    7.1406 C   0  0  2  0  0  0  0  0  0  0  0  0
    9.0776    7.0209    8.4901 O   0  0  0  0  0  0  0  0  0  0  0  0
   11.9495    8.9092    8.7832 C   0  0  0  0  0  0  0  0  0  0  0  0
   11.4644    9.6743    7.6094 O   0  0  0  0  0  0  0  0  0  0  0  0
    2.6848    6.7397    8.7533 C   0  0  2  0  0  0  0  0  0  0  0  0
    2.2525    6.8763   10.1045 O   0  0  0  0  0  0  0  0  0  0  0  0
    9.4215    7.7352    6.2116 C   0  0  1  0  0  0  0  0  0  0  0  0
   10.8502    7.6800    6.4349 O   0  0  0  0  0  0  0  0  0  0  0  0
    1.5597    6.0923    7.9630 C   0  0  0  0  0  0  0  0  0  0  0  0
   13.9096    7.7116    9.8169 C   0  0  0  0  0  0  0  0  0  0  0  0
   15.0230    6.0130    6.3089 C   0  0  0  0  0  0  0  0  0  0  0  0
  1  2  1  6  0  0  0
  1  6  1  0  0  0  0
  1 23  1  0  0  0  0
  3  4  1  6  0  0  0
  3  8  1  0  0  0  0
  3 30  1  0  0  0  0
  5  9  1  0  0  0  0
  5 27  1  0  0  0  0
  5 31  1  1  0  0  0
  6  7  1  6  0  0  0
  6 11  1  0  0  0  0
  8 13  1  0  0  0  0
  9 10  1  6  0  0  0
  9 15  1  0  0  0  0
 11 12  1  1  0  0  0
 11 17  1  0  0  0  0
 13 14  1  1  0  0  0
 13 19  1  0  0  0  0
 15 16  1  6  0  0  0
 15 20  1  0  0  0  0
 16 34  1  0  0  0  0
 17 18  1  6  0  0  0
 17 22  1  0  0  0  0
 19  2  1  1  0  0  0
 19 24  1  0  0  0  0
 20 21  1  6  0  0  0
 20 26  1  0  0  0  0
 20 33  1  0  0  0  0
 22 23  1  1  0  0  0
 22 28  1  0  0  0  0
 24 25  1  1  0  0  0
 24 30  1  0  0  0  0
 26 27  1  0  0  0  0
 28 29  1  1  0  0  0
 28 32  1  0  0  0  0
 30 31  1  6  0  0  0
M  END
>  <CHROM.1>
-157.23554229,-156.27796595,-88.92570690,47.89883478,98.45742240,-159.03204097
8.51556854,6.74114646,7.68852050,-2.84173467,-0.20060198,-1.15815472

>  <Name>
ligand

>  <RI>
0

>  <Rbt.Current_Directory>
/home/itssahil/PROJECTS/Mol_Feturizer/New_Systems/rnas/3TD1

>  <Rbt.Executable>
rbdock ($Id: //depot/dev/client3/rdock/2013.1/src/exe/rbdock.cxx#4 $)

>  <Rbt.Library>
libRbt.so (2013.1, Build901 2013/11/27)

>  <Rbt.Parameter_File>
/export/apps/rDock/src/rDock_2013.1_src/data/scripts/dock_solv.prm

>  <Rbt.Receptor>
prm/pocket_docking_6.prm

>  <SCORE>
-19.218

>  <SCORE.INTER>
-15.9982

>  <SCORE.INTER.CONST>
1

>  <SCORE.INTER.POLAR>
0

>  <SCORE.INTER.ROT>
6

>  <SCORE.INTER.SOLV>
20.8644

>  <SCORE.INTER.VDW>
-25.2203

>  <SCORE.INTER.norm>
-0.470534

>  <SCORE.INTRA>
-3.21986

>  <SCORE.INTRA.DIHEDRAL>
-6.71101

>  <SCORE.INTRA.DIHEDRAL.0>
19.5869

>  <SCORE.INTRA.POLAR>
0

>  <SCORE.INTRA.POLAR.0>
0

>  <SCORE.INTRA.REPUL>
0

>  <SCORE.INTRA.REPUL.0>
0

>  <SCORE.INTRA.SOLV>
-0.669344

>  <SCORE.INTRA.SOLV.lig_0>
-70.101

>  <SCORE.INTRA.VDW>
0.470318

>  <SCORE.INTRA.VDW.0>
-3.39718

>  <SCORE.INTRA.norm>
-0.0947018

>  <SCORE.RESTR>
0

>  <SCORE.RESTR.CAVITY>
0

>  <SCORE.RESTR.norm>
0

>  <SCORE.SYSTEM>
0

>  <SCORE.SYSTEM.CONST>
0

>  <SCORE.SYSTEM.DIHEDRAL>
0

>  <SCORE.SYSTEM.SOLV>
0

>  <SCORE.SYSTEM.norm>
0

>  <SCORE.heavy>
34

>  <SCORE.norm>
-0.565236

>  <RMSD>
0.794

$$$$
ligand
 OpenBabel11021811483D
libRbt.so/2013.1/901 2013/11/27
 34 36  0  0  0  0  0  0  0  0999 V2000
    6.3587    5.8434    9.2781 C   0  0  2  0  0  0  0  0  0  0  0  0
    6.6442    5.4995    7.9132 O   0  0  0  0  0  0  0  0  0  0  0  0
    8.9351    7.3059    4.7906 C   0  0  2  0  0  0  0  0  0  0  0  0
    9.4833    8.2922    3.8661 N   0  0  0  0  0  0  0  0  0  0  0  0
   11.5233    8.8535    6.3160 C   0  0  2  0  0  0  0  0  0  0  0  0
    6.2265    4.5096   10.0966 C   0  0  2  0  0  0  0  0  0  0  0  0
    7.4758    3.7339   10.0532 N   0  0  0  0  0  0  0  0  0  0  0  0
    7.3768    7.3492    4.6509 C   0  0  0  0  0  0  0  0  0  0  0  0
   13.0189    8.4618    6.0387 C   0  0  2  0  0  0  0  0  0  0  0  0
   13.1115    7.7497    4.8159 O   0  0  0  0  0  0  0  0  0  0  0  0
    5.0660    3.6695    9.5206 C   0  0  1  0  0  0  0  0  0  0  0  0
    4.9341    2.4507   10.2701 O   0  0  0  0  0  0  0  0  0  0  0  0
    6.7883    6.2743    5.6262 C   0  0  2  0  0  0  0  0  0  0  0  0
    5.3136    6.2711    5.5442 N   0  0  0  0  0  0  0  0  0  0  0  0
   13.5444    7.5895    7.2438 C   0  0  1  0  0  0  0  0  0  0  0  0
   14.9624    7.1767    7.0202 N   0  0  0  0  0  0  0  0  0  0  0  0
    3.7686    4.5110    9.5698 C   0  0  2  0  0  0  0  0  0  0  0  0
    2.6798    3.7447    9.0260 O   0  0  0  0  0  0  0  0  0  0  0  0
    7.2092    6.5635    7.0898 C   0  0  2  0  0  0  0  0  0  0  0  0
   13.4207    8.4211    8.5662 C   0  0  1  0  0  0  0  0  0  0  0  0
   14.2287    9.5913    8.4724 O   0  0  0  0  0  0  0  0  0  0  0  0
    3.9703    5.8418    8.7494 C   0  0  2  0  0  0  0  0  0  0  0  0
    5.1025    6.6081    9.3054 O   0  0  0  0  0  0  0  0  0  0  0  0
    8.7553    6.5783    7.1863 C   0  0  2  0  0  0  0  0  0  0  0  0
    9.1178    6.8635    8.5334 O   0  0  0  0  0  0  0  0  0  0  0  0
   11.9277    8.8356    8.7573 C   0  0  0  0  0  0  0  0  0  0  0  0
   11.4375    9.5948    7.5818 O   0  0  0  0  0  0  0  0  0  0  0  0
    2.7069    6.7410    8.7843 C   0  0  2  0  0  0  0  0  0  0  0  0
    2.2270    6.8329   10.1231 O   0  0  0  0  0  0  0  0  0  0  0  0
    9.3636    7.6671    6.2721 C   0  0  1  0  0  0  0  0  0  0  0  0
   10.8006    7.5956    6.4280 O   0  0  0  0  0  0  0  0  0  0  0  0
    1.5915    6.1718    7.9231 C   0  0  0  0  0  0  0  0  0  0  0  0
   13.8888    7.6332    9.7835 C   0  0  0  0  0  0  0  0  0  0  0  0
   14.9635    5.9535    6.1950 C   0  0  0  0  0  0  0  0  0  0  0  0
  1  2  1  6  0  0  0
  1  6  1  0  0  0  0
  1 23  1  0  0  0  0
  3  4  1  6  0  0  0
  3  8  1  0  0  0  0
  3 30  1  0  0  0  0
  5  9  1  0  0  0  0
  5 27  1  0  0  0  0
  5 31  1  1  0  0  0
  6  7  1  6  0  0  0
  6 11  1  0  0  0  0
  8 13  1  0  0  0  0
  9 10  1  6  0  0  0
  9 15  1  0  0  0  0
 11 12  1  1  0  0  0
 11 17  1  0  0  0  0
 13 14  1  1  0  0  0
 13 19  1  0  0  0  0
 15 16  1  6  0  0  0
 15 20  1  0  0  0  0
 16 34  1  0  0  0  0
 17 18  1  6  0  0  0
 17 22  1  0  0  0  0
 19  2  1  1  0  0  0
 19 24  1  0  0  0  0
 20 21  1  6  0  0  0
 20 26  1  0  0  0  0
 20 33  1  0  0  0  0
 22 23  1  1  0  0  0
 22 28  1  0  0  0  0
 24 25  1  1  0  0  0
 24 30  1  0  0  0  0
 26 27  1  0  0  0  0
 28 29  1  1  0  0  0
 28 32  1  0  0  0  0
 30 31  1  6  0  0  0
M  END
>  <CHROM.1>
-161.49069265,-152.15861335,-84.84538219,46.52423579,96.94168622,-161.53842835
8.46368043,6.66771054,7.71128344,-2.82819431,-0.18237822,-1.11155080

>  <Name>
ligand

>  <RI>
0

>  <Rbt.Current_Directory>
/home/itssahil/PROJECTS/Mol_Feturizer/New_Systems/rnas/3TD1

>  <Rbt.Executable>
rbdock ($Id: //depot/dev/client3/rdock/2013.1/src/exe/rbdock.cxx#4 $)

>  <Rbt.Library>
libRbt.so (2013.1, Build901 2013/11/27)

>  <Rbt.Parameter_File>
/export/apps/rDock/src/rDock_2013.1_src/data/scripts/dock_solv.prm

>  <Rbt.Receptor>
prm/pocket_docking_4.prm

>  <SCORE>
-19.3952

>  <SCORE.INTER>
-16.0112

>  <SCORE.INTER.CONST>
1

>  <SCORE.INTER.POLAR>
0

>  <SCORE.INTER.ROT>
6

>  <SCORE.INTER.SOLV>
20.7851

>  <SCORE.INTER.VDW>
-25.2025

>  <SCORE.INTER.norm>
-0.470919

>  <SCORE.INTRA>
-3.38654

>  <SCORE.INTRA.DIHEDRAL>
-7.33094

>  <SCORE.INTRA.DIHEDRAL.0>
19.5869

>  <SCORE.INTRA.POLAR>
0

>  <SCORE.INTRA.POLAR.0>
0

>  <SCORE.INTRA.REPUL>
0

>  <SCORE.INTRA.REPUL.0>
0

>  <SCORE.INTRA.SOLV>
-0.450519

>  <SCORE.INTRA.SOLV.lig_0>
-70.101

>  <SCORE.INTRA.VDW>
0.504187

>  <SCORE.INTRA.VDW.0>
-3.39718

>  <SCORE.INTRA.norm>
-0.0996042

>  <SCORE.RESTR>
0.00255823

>  <SCORE.RESTR.CAVITY>
0.00255823

>  <SCORE.RESTR.norm>
7.52421e-05

>  <SCORE.SYSTEM>
0

>  <SCORE.SYSTEM.CONST>
0

>  <SCORE.SYSTEM.DIHEDRAL>
0

>  <SCORE.SYSTEM.SOLV>
0

>  <SCORE.SYSTEM.norm>
0

>  <SCORE.heavy>
34

>  <SCORE.norm>
-0.570448

>  <RMSD>
0.801

$$$$
ligand
 OpenBabel11021811483D
libRbt.so/2013.1/901 2013/11/27
 34 36  0  0  0  0  0  0  0  0999 V2000
    6.3560    5.8662    9.2879 C   0  0  2  0  0  0  0  0  0  0  0  0
    6.6503    5.5063    7.9290 O   0  0  0  0  0  0  0  0  0  0  0  0
    8.9254    7.2909    4.7825 C   0  0  2  0  0  0  0  0  0  0  0  0
    9.4668    8.2701    3.8464 N   0  0  0  0  0  0  0  0  0  0  0  0
   11.5076    8.8698    6.3016 C   0  0  2  0  0  0  0  0  0  0  0  0
    6.2307    4.5424   10.1236 C   0  0  2  0  0  0  0  0  0  0  0  0
    7.4863    3.7762   10.0961 N   0  0  0  0  0  0  0  0  0  0  0  0
    7.3666    7.3251    4.6458 C   0  0  0  0  0  0  0  0  0  0  0  0
   13.0067    8.4878    6.0295 C   0  0  2  0  0  0  0  0  0  0  0  0
   13.1081    7.7750    4.8079 O   0  0  0  0  0  0  0  0  0  0  0  0
    5.0794    3.6855    9.5539 C   0  0  1  0  0  0  0  0  0  0  0  0
    4.9539    2.4759   10.3192 O   0  0  0  0  0  0  0  0  0  0  0  0
    6.7856    6.2576    5.6336 C   0  0  2  0  0  0  0  0  0  0  0  0
    5.3108    6.2463    5.5549 N   0  0  0  0  0  0  0  0  0  0  0  0
   13.5341    7.6203    7.2374 C   0  0  1  0  0  0  0  0  0  0  0  0
   14.9556    7.2168    7.0189 N   0  0  0  0  0  0  0  0  0  0  0  0
    3.7753    4.5172    9.5862 C   0  0  2  0  0  0  0  0  0  0  0  0
    2.6949    3.7351    9.0480 O   0  0  0  0  0  0  0  0  0  0  0  0
    7.2082    6.5644    7.0932 C   0  0  2  0  0  0  0  0  0  0  0  0
   13.4004    8.4525    8.5585 C   0  0  1  0  0  0  0  0  0  0  0  0
   14.2008    9.6280    8.4660 O   0  0  0  0  0  0  0  0  0  0  0  0
    3.9701    5.8384    8.7489 C   0  0  2  0  0  0  0  0  0  0  0  0
    5.0937    6.6211    9.2994 O   0  0  0  0  0  0  0  0  0  0  0  0
    8.7544    6.5878    7.1861 C   0  0  2  0  0  0  0  0  0  0  0  0
    9.1184    6.8890    8.5293 O   0  0  0  0  0  0  0  0  0  0  0  0
   11.9041    8.8572    8.7442 C   0  0  0  0  0  0  0  0  0  0  0  0
   11.4127    9.6118    7.5662 O   0  0  0  0  0  0  0  0  0  0  0  0
    2.6995    6.7279    8.7662 C   0  0  2  0  0  0  0  0  0  0  0  0
    2.1949    6.8084   10.0967 O   0  0  0  0  0  0  0  0  0  0  0  0
    9.3554    7.6699    6.2591 C   0  0  1  0  0  0  0  0  0  0  0  0
   10.7930    7.6071    6.4126 O   0  0  0  0  0  0  0  0  0  0  0  0
    1.6040    6.1555    7.8819 C   0  0  0  0  0  0  0  0  0  0  0  0
   13.8698    7.6691    9.7782 C   0  0  0  0  0  0  0  0  0  0  0  0
   14.9654    5.9361    6.2862 C   0  0  0  0  0  0  0  0  0  0  0  0
  1  2  1  6  0  0  0
  1  6  1  0  0  0  0
  1 23  1  0  0  0  0
  3  4  1  6  0  0  0
  3  8  1  0  0  0  0
  3 30  1  0  0  0  0
  5  9  1  0  0  0  0
  5 27  1  0  0  0  0
  5 31  1  1  0  0  0
  6  7  1  6  0  0  0
  6 11  1  0  0  0  0
  8 13  1  0  0  0  0
  9 10  1  6  0  0  0
  9 15  1  0  0  0  0
 11 12  1  1  0  0  0
 11 17  1  0  0  0  0
 13 14  1  1  0  0  0
 13 19  1  0  0  0  0
 15 16  1  6  0  0  0
 15 20  1  0  0  0  0
 16 34  1  0  0  0  0
 17 18  1  6  0  0  0
 17 22  1  0  0  0  0
 19  2  1  1  0  0  0
 19 24  1  0  0  0  0
 20 21  1  6  0  0  0
 20 26  1  0  0  0  0
 20 33  1  0  0  0  0
 22 23  1  1  0  0  0
 22 28  1  0  0  0  0
 24 25  1  1  0  0  0
 24 30  1  0  0  0  0
 26 27  1  0  0  0  0
 28 29  1  1  0  0  0
 28 32  1  0  0  0  0
 30 31  1  6  0  0  0
M  END
>  <CHROM.1>
-161.59902531,-151.67807574,-89.23718232,45.17659136,97.64805210,-161.86170438
8.45826068,6.67684122,7.71379607,-2.82752872,-0.18574522,-1.11606338

>  <Name>
ligand

>  <RI>
0

>  <Rbt.Current_Directory>
/home/itssahil/PROJECTS/Mol_Feturizer/New_Systems/rnas/3TD1

>  <Rbt.Executable>
rbdock ($Id: //depot/dev/client3/rdock/2013.1/src/exe/rbdock.cxx#4 $)

>  <Rbt.Library>
libRbt.so (2013.1, Build901 2013/11/27)

>  <Rbt.Parameter_File>
/export/apps/rDock/src/rDock_2013.1_src/data/scripts/dock_solv.prm

>  <Rbt.Receptor>
prm/pocket_docking_5.prm

>  <SCORE>
-19.4991

>  <SCORE.INTER>
-15.9533

>  <SCORE.INTER.CONST>
1

>  <SCORE.INTER.POLAR>
0

>  <SCORE.INTER.ROT>
6

>  <SCORE.INTER.SOLV>
20.8719

>  <SCORE.INTER.VDW>
-25.1928

>  <SCORE.INTER.norm>
-0.469214

>  <SCORE.INTRA>
-3.54585

>  <SCORE.INTRA.DIHEDRAL>
-6.92238

>  <SCORE.INTRA.DIHEDRAL.0>
19.5869

>  <SCORE.INTRA.POLAR>
0

>  <SCORE.INTRA.POLAR.0>
0

>  <SCORE.INTRA.REPUL>
0

>  <SCORE.INTRA.REPUL.0>
0

>  <SCORE.INTRA.SOLV>
-0.429189

>  <SCORE.INTRA.SOLV.lig_0>
-70.101

>  <SCORE.INTRA.VDW>
0.129933

>  <SCORE.INTRA.VDW.0>
-3.39718

>  <SCORE.INTRA.norm>
-0.10429

>  <SCORE.RESTR>
0

>  <SCORE.RESTR.CAVITY>
0

>  <SCORE.RESTR.norm>
0

>  <SCORE.SYSTEM>
0

>  <SCORE.SYSTEM.CONST>
0

>  <SCORE.SYSTEM.DIHEDRAL>
0

>  <SCORE.SYSTEM.SOLV>
0

>  <SCORE.SYSTEM.norm>
0

>  <SCORE.heavy>
34

>  <SCORE.norm>
-0.573503

>  <RMSD>
0.807

$$$$
ligand
 OpenBabel11021811483D
libRbt.so/2013.1/901 2013/11/27
 34 36  0  0  0  0  0  0  0  0999 V2000
    6.4211    5.9631    9.2904 C   0  0  2  0  0  0  0  0  0  0  0  0
    6.7200    5.5812    7.9386 O   0  0  0  0  0  0  0  0  0  0  0  0
    9.0793    7.3015    4.8184 C   0  0  2  0  0  0  0  0  0  0  0  0
    9.6414    8.2600    3.8731 N   0  0  0  0  0  0  0  0  0  0  0  0
   11.5916    8.9534    6.4018 C   0  0  2  0  0  0  0  0  0  0  0  0
    6.3403    4.6558   10.1569 C   0  0  2  0  0  0  0  0  0  0  0  0
    7.6186    3.9278   10.1402 N   0  0  0  0  0  0  0  0  0  0  0  0
    7.5255    7.3154    4.6304 C   0  0  0  0  0  0  0  0  0  0  0  0
   13.0863    8.5907    6.0835 C   0  0  2  0  0  0  0  0  0  0  0  0
   13.1629    7.9094    4.8422 O   0  0  0  0  0  0  0  0  0  0  0  0
    5.2132    3.7512    9.6130 C   0  0  1  0  0  0  0  0  0  0  0  0
    5.1283    2.5562   10.4064 O   0  0  0  0  0  0  0  0  0  0  0  0
    6.9229    6.2698    5.6286 C   0  0  2  0  0  0  0  0  0  0  0  0
    5.4516    6.2407    5.5026 N   0  0  0  0  0  0  0  0  0  0  0  0
   13.6500    7.6977    7.2559 C   0  0  1  0  0  0  0  0  0  0  0  0
   15.0687    7.3114    6.9925 N   0  0  0  0  0  0  0  0  0  0  0  0
    3.8843    4.5432    9.6332 C   0  0  2  0  0  0  0  0  0  0  0  0
    2.8260    3.7163    9.1188 O   0  0  0  0  0  0  0  0  0  0  0  0
    7.2946    6.6214    7.0918 C   0  0  2  0  0  0  0  0  0  0  0  0
   13.5428    8.4955    8.6003 C   0  0  1  0  0  0  0  0  0  0  0  0
   14.3317    9.6795    8.5179 O   0  0  0  0  0  0  0  0  0  0  0  0
    4.0347    5.8501    8.7649 C   0  0  2  0  0  0  0  0  0  0  0  0
    5.1363    6.6792    9.2914 O   0  0  0  0  0  0  0  0  0  0  0  0
    8.8367    6.6637    7.2340 C   0  0  2  0  0  0  0  0  0  0  0  0
    9.1537    7.0060    8.5793 O   0  0  0  0  0  0  0  0  0  0  0  0
   12.0484    8.8831    8.8328 C   0  0  0  0  0  0  0  0  0  0  0  0
   11.5224    9.6629    7.6867 O   0  0  0  0  0  0  0  0  0  0  0  0
    2.7375    6.7006    8.7686 C   0  0  2  0  0  0  0  0  0  0  0  0
    2.2828    6.8662   10.1092 O   0  0  0  0  0  0  0  0  0  0  0  0
    9.4572    7.7259    6.2968 C   0  0  1  0  0  0  0  0  0  0  0  0
   10.8895    7.6826    6.4985 O   0  0  0  0  0  0  0  0  0  0  0  0
    1.6276    6.0311    7.9751 C   0  0  0  0  0  0  0  0  0  0  0  0
   14.0481    7.6857    9.7881 C   0  0  0  0  0  0  0  0  0  0  0  0
   15.0697    6.0686    6.1972 C   0  0  0  0  0  0  0  0  0  0  0  0
  1  2  1  6  0  0  0
  1  6  1  0  0  0  0
  1 23  1  0  0  0  0
  3  4  1  6  0  0  0
  3  8  1  0  0  0  0
  3 30  1  0  0  0  0
  5  9  1  0  0  0  0
  5 27  1  0  0  0  0
  5 31  1  1  0  0  0
  6  7  1  6  0  0  0
  6 11  1  0  0  0  0
  8 13  1  0  0  0  0
  9 10  1  6  0  0  0
  9 15  1  0  0  0  0
 11 12  1  1  0  0  0
 11 17  1  0  0  0  0
 13 14  1  1  0  0  0
 13 19  1  0  0  0  0
 15 16  1  6  0  0  0
 15 20  1  0  0  0  0
 16 34  1  0  0  0  0
 17 18  1  6  0  0  0
 17 22  1  0  0  0  0
 19  2  1  1  0  0  0
 19 24  1  0  0  0  0
 20 21  1  6  0  0  0
 20 26  1  0  0  0  0
 20 33  1  0  0  0  0
 22 23  1  1  0  0  0
 22 28  1  0  0  0  0
 24 25  1  1  0  0  0
 24 30  1  0  0  0  0
 26 27  1  0  0  0  0
 28 29  1  1  0  0  0
 28 32  1  0  0  0  0
 30 31  1  6  0  0  0
M  END
>  <CHROM.1>
-159.08235779,-153.75936127,-87.76254145,48.77015074,98.84236729,-158.05148291
8.56389342,6.72891220,7.74627707,-2.83322931,-0.19959090,-1.15012841

>  <Name>
ligand

>  <RI>
0

>  <Rbt.Current_Directory>
/home/itssahil/PROJECTS/Mol_Feturizer/New_Systems/rnas/3TD1

>  <Rbt.Executable>
rbdock ($Id: //depot/dev/client3/rdock/2013.1/src/exe/rbdock.cxx#4 $)

>  <Rbt.Library>
libRbt.so (2013.1, Build901 2013/11/27)

>  <Rbt.Parameter_File>
/export/apps/rDock/src/rDock_2013.1_src/data/scripts/dock_solv.prm

>  <Rbt.Receptor>
prm/pocket_docking_3.prm

>  <SCORE>
-19.2241

>  <SCORE.INTER>
-16.2952

>  <SCORE.INTER.CONST>
1

>  <SCORE.INTER.POLAR>
0

>  <SCORE.INTER.ROT>
6

>  <SCORE.INTER.SOLV>
21.1994

>  <SCORE.INTER.VDW>
-25.5299

>  <SCORE.INTER.norm>
-0.47927

>  <SCORE.INTRA>
-2.92888

>  <SCORE.INTRA.DIHEDRAL>
-6.44568

>  <SCORE.INTRA.DIHEDRAL.0>
19.5869

>  <SCORE.INTRA.POLAR>
0

>  <SCORE.INTRA.POLAR.0>
0

>  <SCORE.INTRA.REPUL>
0

>  <SCORE.INTRA.REPUL.0>
0

>  <SCORE.INTRA.SOLV>
-0.478959

>  <SCORE.INTRA.SOLV.lig_0>
-70.101

>  <SCORE.INTRA.VDW>
0.533445

>  <SCORE.INTRA.VDW.0>
-3.39718

>  <SCORE.INTRA.norm>
-0.0861434

>  <SCORE.RESTR>
0

>  <SCORE.RESTR.CAVITY>
0

>  <SCORE.RESTR.norm>
0

>  <SCORE.SYSTEM>
0

>  <SCORE.SYSTEM.CONST>
0

>  <SCORE.SYSTEM.DIHEDRAL>
0

>  <SCORE.SYSTEM.SOLV>
0

>  <SCORE.SYSTEM.norm>
0

>  <SCORE.heavy>
34

>  <SCORE.norm>
-0.565414

>  <RMSD>
0.808

$$$$
ligand
 OpenBabel11021811483D
libRbt.so/2013.1/901 2013/11/27
 34 36  0  0  0  0  0  0  0  0999 V2000
    6.3885    5.8521    9.2954 C   0  0  2  0  0  0  0  0  0  0  0  0
    6.6875    5.4961    7.9366 O   0  0  0  0  0  0  0  0  0  0  0  0
    8.9273    7.3065    4.7794 C   0  0  2  0  0  0  0  0  0  0  0  0
    9.4562    8.2928    3.8437 N   0  0  0  0  0  0  0  0  0  0  0  0
   11.5137    8.8919    6.3073 C   0  0  2  0  0  0  0  0  0  0  0  0
    6.2639    4.5261   10.1278 C   0  0  2  0  0  0  0  0  0  0  0  0
    7.5214    3.7630   10.1021 N   0  0  0  0  0  0  0  0  0  0  0  0
    7.3672    7.3346    4.6566 C   0  0  0  0  0  0  0  0  0  0  0  0
   13.0171    8.5249    6.0386 C   0  0  2  0  0  0  0  0  0  0  0  0
   13.1310    7.8315    4.8069 O   0  0  0  0  0  0  0  0  0  0  0  0
    5.1163    3.6678    9.5527 C   0  0  1  0  0  0  0  0  0  0  0  0
    4.9915    2.4560   10.3148 O   0  0  0  0  0  0  0  0  0  0  0  0
    6.7995    6.2596    5.6440 C   0  0  2  0  0  0  0  0  0  0  0  0
    5.3241    6.2423    5.5781 N   0  0  0  0  0  0  0  0  0  0  0  0
   13.5436    7.6429    7.2362 C   0  0  1  0  0  0  0  0  0  0  0  0
   14.9694    7.2531    7.0202 N   0  0  0  0  0  0  0  0  0  0  0  0
    3.8101    4.4963    9.5832 C   0  0  2  0  0  0  0  0  0  0  0  0
    2.7332    3.7128    9.0400 O   0  0  0  0  0  0  0  0  0  0  0  0
    7.2335    6.5608    7.1013 C   0  0  2  0  0  0  0  0  0  0  0  0
   13.3961    8.4539    8.5690 C   0  0  1  0  0  0  0  0  0  0  0  0
   14.1884    9.6364    8.4992 O   0  0  0  0  0  0  0  0  0  0  0  0
    4.0042    5.8199    8.7494 C   0  0  2  0  0  0  0  0  0  0  0  0
    5.1243    6.6040    9.3051 O   0  0  0  0  0  0  0  0  0  0  0  0
    8.7804    6.5904    7.1808 C   0  0  2  0  0  0  0  0  0  0  0  0
    9.1548    6.8864    8.5223 O   0  0  0  0  0  0  0  0  0  0  0  0
   11.8957    8.8449    8.7518 C   0  0  0  0  0  0  0  0  0  0  0  0
   11.4059    9.6139    7.5825 O   0  0  0  0  0  0  0  0  0  0  0  0
    2.7314    6.7063    8.7651 C   0  0  2  0  0  0  0  0  0  0  0  0
    2.2253    6.7861   10.0951 O   0  0  0  0  0  0  0  0  0  0  0  0
    9.3685    7.6798    6.2541 C   0  0  1  0  0  0  0  0  0  0  0  0
   10.8077    7.6226    6.3947 O   0  0  0  0  0  0  0  0  0  0  0  0
    1.6382    6.1309    7.8799 C   0  0  0  0  0  0  0  0  0  0  0  0
   13.8639    7.6554    9.7795 C   0  0  0  0  0  0  0  0  0  0  0  0
   14.9935    6.0061    6.2319 C   0  0  0  0  0  0  0  0  0  0  0  0
  1  2  1  6  0  0  0
  1  6  1  0  0  0  0
  1 23  1  0  0  0  0
  3  4  1  6  0  0  0
  3  8  1  0  0  0  0
  3 30  1  0  0  0  0
  5  9  1  0  0  0  0
  5 27  1  0  0  0  0
  5 31  1  1  0  0  0
  6  7  1  6  0  0  0
  6 11  1  0  0  0  0
  8 13  1  0  0  0  0
  9 10  1  6  0  0  0
  9 15  1  0  0  0  0
 11 12  1  1  0  0  0
 11 17  1  0  0  0  0
 13 14  1  1  0  0  0
 13 19  1  0  0  0  0
 15 16  1  6  0  0  0
 15 20  1  0  0  0  0
 16 34  1  0  0  0  0
 17 18  1  6  0  0  0
 17 22  1  0  0  0  0
 19  2  1  1  0  0  0
 19 24  1  0  0  0  0
 20 21  1  6  0  0  0
 20 26  1  0  0  0  0
 20 33  1  0  0  0  0
 22 23  1  1  0  0  0
 22 28  1  0  0  0  0
 24 25  1  1  0  0  0
 24 30  1  0  0  0  0
 26 27  1  0  0  0  0
 28 29  1  1  0  0  0
 28 32  1  0  0  0  0
 30 31  1  6  0  0  0
M  END
>  <CHROM.1>
-162.15653420,-150.95035629,-87.49187446,45.36451276,98.68477731,-162.78468016
8.47710310,6.67856027,7.71513594,-2.82414564,-0.18878319,-1.11243306

>  <Name>
ligand

>  <RI>
0

>  <Rbt.Current_Directory>
/home/itssahil/PROJECTS/Mol_Feturizer/New_Systems/rnas/3TD1

>  <Rbt.Executable>
rbdock ($Id: //depot/dev/client3/rdock/2013.1/src/exe/rbdock.cxx#4 $)

>  <Rbt.Library>
libRbt.so (2013.1, Build901 2013/11/27)

>  <Rbt.Parameter_File>
/export/apps/rDock/src/rDock_2013.1_src/data/scripts/dock_solv.prm

>  <Rbt.Receptor>
prm/pocket_docking_3.prm

>  <SCORE>
-19.5128

>  <SCORE.INTER>
-16.0674

>  <SCORE.INTER.CONST>
1

>  <SCORE.INTER.POLAR>
0

>  <SCORE.INTER.ROT>
6

>  <SCORE.INTER.SOLV>
20.8441

>  <SCORE.INTER.VDW>
-25.2597

>  <SCORE.INTER.norm>
-0.472572

>  <SCORE.INTRA>
-3.44532

>  <SCORE.INTRA.DIHEDRAL>
-6.90733

>  <SCORE.INTRA.DIHEDRAL.0>
19.5869

>  <SCORE.INTRA.POLAR>
0

>  <SCORE.INTRA.POLAR.0>
0

>  <SCORE.INTRA.REPUL>
0

>  <SCORE.INTRA.REPUL.0>
0

>  <SCORE.INTRA.SOLV>
-0.414556

>  <SCORE.INTRA.SOLV.lig_0>
-70.101

>  <SCORE.INTRA.VDW>
0.215621

>  <SCORE.INTRA.VDW.0>
-3.39718

>  <SCORE.INTRA.norm>
-0.101333

>  <SCORE.RESTR>
0

>  <SCORE.RESTR.CAVITY>
0

>  <SCORE.RESTR.norm>
0

>  <SCORE.SYSTEM>
0

>  <SCORE.SYSTEM.CONST>
0

>  <SCORE.SYSTEM.DIHEDRAL>
0

>  <SCORE.SYSTEM.SOLV>
0

>  <SCORE.SYSTEM.norm>
0

>  <SCORE.heavy>
34

>  <SCORE.norm>
-0.573905

>  <RMSD>
0.808

$$$$
ligand
 OpenBabel11021811483D
libRbt.so/2013.1/901 2013/11/27
 34 36  0  0  0  0  0  0  0  0999 V2000
    6.3638    5.8536    9.2725 C   0  0  2  0  0  0  0  0  0  0  0  0
    6.6513    5.4977    7.9112 O   0  0  0  0  0  0  0  0  0  0  0  0
    8.9412    7.2811    4.7747 C   0  0  2  0  0  0  0  0  0  0  0  0
    9.4877    8.2601    3.8414 N   0  0  0  0  0  0  0  0  0  0  0  0
   11.5204    8.8543    6.3018 C   0  0  2  0  0  0  0  0  0  0  0  0
    6.2482    4.5277   10.1062 C   0  0  2  0  0  0  0  0  0  0  0  0
    7.5063    3.7661   10.0696 N   0  0  0  0  0  0  0  0  0  0  0  0
    7.3830    7.3178    4.6321 C   0  0  0  0  0  0  0  0  0  0  0  0
   13.0201    8.4692    6.0380 C   0  0  2  0  0  0  0  0  0  0  0  0
   13.1263    7.7534    4.8185 O   0  0  0  0  0  0  0  0  0  0  0  0
    5.0966    3.6678    9.5414 C   0  0  1  0  0  0  0  0  0  0  0  0
    4.9800    2.4561   10.3048 O   0  0  0  0  0  0  0  0  0  0  0  0
    6.7966    6.2505    5.6169 C   0  0  2  0  0  0  0  0  0  0  0  0
    5.3220    6.2415    5.5326 N   0  0  0  0  0  0  0  0  0  0  0  0
   13.5401    7.6036    7.2503 C   0  0  1  0  0  0  0  0  0  0  0  0
   14.9620    7.1971    7.0397 N   0  0  0  0  0  0  0  0  0  0  0  0
    3.7897    4.4948    9.5832 C   0  0  2  0  0  0  0  0  0  0  0  0
    2.7090    3.7099    9.0497 O   0  0  0  0  0  0  0  0  0  0  0  0
    7.2140    6.5555    7.0783 C   0  0  2  0  0  0  0  0  0  0  0  0
   13.4014    8.4390    8.5688 C   0  0  1  0  0  0  0  0  0  0  0  0
   14.2043    9.6129    8.4776 O   0  0  0  0  0  0  0  0  0  0  0  0
    3.9748    5.8184    8.7476 C   0  0  2  0  0  0  0  0  0  0  0  0
    5.0988    6.6040    9.2932 O   0  0  0  0  0  0  0  0  0  0  0  0
    8.7599    6.5765    7.1771 C   0  0  2  0  0  0  0  0  0  0  0  0
    9.1192    6.8761    8.5219 O   0  0  0  0  0  0  0  0  0  0  0  0
   11.9049    8.8466    8.7463 C   0  0  0  0  0  0  0  0  0  0  0  0
   11.4206    9.5994    7.5643 O   0  0  0  0  0  0  0  0  0  0  0  0
    2.7012    6.7033    8.7743 C   0  0  2  0  0  0  0  0  0  0  0  0
    2.2391    6.8292   10.1167 O   0  0  0  0  0  0  0  0  0  0  0  0
    9.3661    7.6583    6.2532 C   0  0  1  0  0  0  0  0  0  0  0  0
   10.8031    7.5932    6.4121 O   0  0  0  0  0  0  0  0  0  0  0  0
    1.5807    6.0958    7.9466 C   0  0  0  0  0  0  0  0  0  0  0  0
   13.8635    7.6575    9.7926 C   0  0  0  0  0  0  0  0  0  0  0  0
   14.9728    5.8843    6.3663 C   0  0  0  0  0  0  0  0  0  0  0  0
  1  2  1  6  0  0  0
  1  6  1  0  0  0  0
  1 23  1  0  0  0  0
  3  4  1  6  0  0  0
  3  8  1  0  0  0  0
  3 30  1  0  0  0  0
  5  9  1  0  0  0  0
  5 27  1  0  0  0  0
  5 31  1  1  0  0  0
  6  7  1  6  0  0  0
  6 11  1  0  0  0  0
  8 13  1  0  0  0  0
  9 10  1  6  0  0  0
  9 15  1  0  0  0  0
 11 12  1  1  0  0  0
 11 17  1  0  0  0  0
 13 14  1  1  0  0  0
 13 19  1  0  0  0  0
 15 16  1  6  0  0  0
 15 20  1  0  0  0  0
 16 34  1  0  0  0  0
 17 18  1  6  0  0  0
 17 22  1  0  0  0  0
 19  2  1  1  0  0  0
 19 24  1  0  0  0  0
 20 21  1  6  0  0  0
 20 26  1  0  0  0  0
 20 33  1  0  0  0  0
 22 23  1  1  0  0  0
 22 28  1  0  0  0  0
 24 25  1  1  0  0  0
 24 30  1  0  0  0  0
 26 27  1  0  0  0  0
 28 29  1  1  0  0  0
 28 32  1  0  0  0  0
 30 31  1  6  0  0  0
M  END
>  <CHROM.1>
-160.95648678,-152.22512972,-91.85433592,47.80651090,97.51299671,-161.93976571
8.46801400,6.66099958,7.71557322,-2.82846543,-0.18597124,-1.11502026

>  <Name>
ligand

>  <RI>
0

>  <Rbt.Current_Directory>
/home/itssahil/PROJECTS/Mol_Feturizer/New_Systems/rnas/3TD1

>  <Rbt.Executable>
rbdock ($Id: //depot/dev/client3/rdock/2013.1/src/exe/rbdock.cxx#4 $)

>  <Rbt.Library>
libRbt.so (2013.1, Build901 2013/11/27)

>  <Rbt.Parameter_File>
/export/apps/rDock/src/rDock_2013.1_src/data/scripts/dock_solv.prm

>  <Rbt.Receptor>
prm/pocket_docking_3.prm

>  <SCORE>
-19.4219

>  <SCORE.INTER>
-15.8352

>  <SCORE.INTER.CONST>
1

>  <SCORE.INTER.POLAR>
0

>  <SCORE.INTER.ROT>
6

>  <SCORE.INTER.SOLV>
20.7332

>  <SCORE.INTER.VDW>
-25.0679

>  <SCORE.INTER.norm>
-0.465742

>  <SCORE.INTRA>
-3.58671

>  <SCORE.INTRA.DIHEDRAL>
-7.11623

>  <SCORE.INTRA.DIHEDRAL.0>
19.5869

>  <SCORE.INTRA.POLAR>
0

>  <SCORE.INTRA.POLAR.0>
0

>  <SCORE.INTRA.REPUL>
0

>  <SCORE.INTRA.REPUL.0>
0

>  <SCORE.INTRA.SOLV>
-0.503846

>  <SCORE.INTRA.SOLV.lig_0>
-70.101

>  <SCORE.INTRA.VDW>
0.223328

>  <SCORE.INTRA.VDW.0>
-3.39718

>  <SCORE.INTRA.norm>
-0.105491

>  <SCORE.RESTR>
0

>  <SCORE.RESTR.CAVITY>
0

>  <SCORE.RESTR.norm>
0

>  <SCORE.SYSTEM>
0

>  <SCORE.SYSTEM.CONST>
0

>  <SCORE.SYSTEM.DIHEDRAL>
0

>  <SCORE.SYSTEM.SOLV>
0

>  <SCORE.SYSTEM.norm>
0

>  <SCORE.heavy>
34

>  <SCORE.norm>
-0.571234

>  <RMSD>
0.809

$$$$
ligand
 OpenBabel11021811483D
libRbt.so/2013.1/901 2013/11/27
 34 36  0  0  0  0  0  0  0  0999 V2000
    6.3780    5.8730    9.3085 C   0  0  2  0  0  0  0  0  0  0  0  0
    6.6800    5.5104    7.9521 O   0  0  0  0  0  0  0  0  0  0  0  0
    8.9286    7.2958    4.7870 C   0  0  2  0  0  0  0  0  0  0  0  0
    9.4654    8.2762    3.8495 N   0  0  0  0  0  0  0  0  0  0  0  0
   11.5407    8.8482    6.2901 C   0  0  2  0  0  0  0  0  0  0  0  0
    6.2574    4.5513   10.1482 C   0  0  2  0  0  0  0  0  0  0  0  0
    7.5177    3.7928   10.1283 N   0  0  0  0  0  0  0  0  0  0  0  0
    7.3685    7.3421    4.6701 C   0  0  0  0  0  0  0  0  0  0  0  0
   13.0403    8.4587    6.0325 C   0  0  2  0  0  0  0  0  0  0  0  0
   13.1498    7.7445    4.8123 O   0  0  0  0  0  0  0  0  0  0  0  0
    5.1137    3.6854    9.5766 C   0  0  1  0  0  0  0  0  0  0  0  0
    4.9925    2.4775   10.3455 O   0  0  0  0  0  0  0  0  0  0  0  0
    6.7921    6.2735    5.6594 C   0  0  2  0  0  0  0  0  0  0  0  0
    5.3163    6.2735    5.5992 N   0  0  0  0  0  0  0  0  0  0  0  0
   13.5520    7.5894    7.2458 C   0  0  1  0  0  0  0  0  0  0  0  0
   14.9735    7.1788    7.0410 N   0  0  0  0  0  0  0  0  0  0  0  0
    3.8044    4.5092    9.6009 C   0  0  2  0  0  0  0  0  0  0  0  0
    2.7311    3.7186    9.0609 O   0  0  0  0  0  0  0  0  0  0  0  0
    7.2352    6.5690    7.1151 C   0  0  2  0  0  0  0  0  0  0  0  0
   13.4099    8.4231    8.5650 C   0  0  1  0  0  0  0  0  0  0  0  0
   14.2170    9.5946    8.4794 O   0  0  0  0  0  0  0  0  0  0  0  0
    3.9945    5.8287    8.7599 C   0  0  2  0  0  0  0  0  0  0  0  0
    5.1110    6.6202    9.3124 O   0  0  0  0  0  0  0  0  0  0  0  0
    8.7826    6.5805    7.1886 C   0  0  2  0  0  0  0  0  0  0  0  0
    9.1656    6.8715    8.5288 O   0  0  0  0  0  0  0  0  0  0  0  0
   11.9139    8.8353    8.7363 C   0  0  0  0  0  0  0  0  0  0  0  0
   11.4374    9.5915    7.5533 O   0  0  0  0  0  0  0  0  0  0  0  0
    2.7184    6.7105    8.7691 C   0  0  2  0  0  0  0  0  0  0  0  0
    2.2134    6.8002   10.0988 O   0  0  0  0  0  0  0  0  0  0  0  0
    9.3799    7.6633    6.2601 C   0  0  1  0  0  0  0  0  0  0  0  0
   10.8188    7.5891    6.3951 O   0  0  0  0  0  0  0  0  0  0  0  0
    1.6264    6.1230    7.8903 C   0  0  0  0  0  0  0  0  0  0  0  0
   13.8639    7.6383    9.7897 C   0  0  0  0  0  0  0  0  0  0  0  0
   14.9837    5.8865    6.3291 C   0  0  0  0  0  0  0  0  0  0  0  0
  1  2  1  6  0  0  0
  1  6  1  0  0  0  0
  1 23  1  0  0  0  0
  3  4  1  6  0  0  0
  3  8  1  0  0  0  0
  3 30  1  0  0  0  0
  5  9  1  0  0  0  0
  5 27  1  0  0  0  0
  5 31  1  1  0  0  0
  6  7  1  6  0  0  0
  6 11  1  0  0  0  0
  8 13  1  0  0  0  0
  9 10  1  6  0  0  0
  9 15  1  0  0  0  0
 11 12  1  1  0  0  0
 11 17  1  0  0  0  0
 13 14  1  1  0  0  0
 13 19  1  0  0  0  0
 15 16  1  6  0  0  0
 15 20  1  0  0  0  0
 16 34  1  0  0  0  0
 17 18  1  6  0  0  0
 17 22  1  0  0  0  0
 19  2  1  1  0  0  0
 19 24  1  0  0  0  0
 20 21  1  6  0  0  0
 20 26  1  0  0  0  0
 20 33  1  0  0  0  0
 22 23  1  1  0  0  0
 22 28  1  0  0  0  0
 24 25  1  1  0  0  0
 24 30  1  0  0  0  0
 26 27  1  0  0  0  0
 28 29  1  1  0  0  0
 28 32  1  0  0  0  0
 30 31  1  6  0  0  0
M  END
>  <CHROM.1>
-161.58022883,-150.35492382,-90.16357880,45.59581157,98.00623883,-163.30069179
8.48013796,6.66576384,7.72556344,-2.82618544,-0.18043103,-1.10806238

>  <Name>
ligand

>  <RI>
0

>  <Rbt.Current_Directory>
/home/itssahil/PROJECTS/Mol_Feturizer/New_Systems/rnas/3TD1

>  <Rbt.Executable>
rbdock ($Id: //depot/dev/client3/rdock/2013.1/src/exe/rbdock.cxx#4 $)

>  <Rbt.Library>
libRbt.so (2013.1, Build901 2013/11/27)

>  <Rbt.Parameter_File>
/export/apps/rDock/src/rDock_2013.1_src/data/scripts/dock_solv.prm

>  <Rbt.Receptor>
prm/pocket_docking_4.prm

>  <SCORE>
-19.4753

>  <SCORE.INTER>
-15.9434

>  <SCORE.INTER.CONST>
1

>  <SCORE.INTER.POLAR>
0

>  <SCORE.INTER.ROT>
6

>  <SCORE.INTER.SOLV>
20.803

>  <SCORE.INTER.VDW>
-25.1633

>  <SCORE.INTER.norm>
-0.468923

>  <SCORE.INTRA>
-3.53447

>  <SCORE.INTRA.DIHEDRAL>
-6.83491

>  <SCORE.INTRA.DIHEDRAL.0>
19.5869

>  <SCORE.INTRA.POLAR>
0

>  <SCORE.INTRA.POLAR.0>
0

>  <SCORE.INTRA.REPUL>
0

>  <SCORE.INTRA.REPUL.0>
0

>  <SCORE.INTRA.SOLV>
-0.389834

>  <SCORE.INTRA.SOLV.lig_0>
-70.101

>  <SCORE.INTRA.VDW>
0.0778977

>  <SCORE.INTRA.VDW.0>
-3.39718

>  <SCORE.INTRA.norm>
-0.103955

>  <SCORE.RESTR>
0.00259559

>  <SCORE.RESTR.CAVITY>
0.00259559

>  <SCORE.RESTR.norm>
7.63408e-05

>  <SCORE.SYSTEM>
0

>  <SCORE.SYSTEM.CONST>
0

>  <SCORE.SYSTEM.DIHEDRAL>
0

>  <SCORE.SYSTEM.SOLV>
0

>  <SCORE.SYSTEM.norm>
0

>  <SCORE.heavy>
34

>  <SCORE.norm>
-0.572802

>  <RMSD>
0.816

$$$$
ligand
 OpenBabel11021811483D
libRbt.so/2013.1/901 2013/11/27
 34 36  0  0  0  0  0  0  0  0999 V2000
    6.3830    5.8545    9.2826 C   0  0  2  0  0  0  0  0  0  0  0  0
    6.6573    5.5051    7.9168 O   0  0  0  0  0  0  0  0  0  0  0  0
    8.9528    7.2956    4.7885 C   0  0  2  0  0  0  0  0  0  0  0  0
    9.4993    8.2762    3.8569 N   0  0  0  0  0  0  0  0  0  0  0  0
   11.5222    8.8761    6.3082 C   0  0  2  0  0  0  0  0  0  0  0  0
    6.2586    4.5240   10.1077 C   0  0  2  0  0  0  0  0  0  0  0  0
    7.5082    3.7492   10.0572 N   0  0  0  0  0  0  0  0  0  0  0  0
    7.3950    7.3266    4.6398 C   0  0  0  0  0  0  0  0  0  0  0  0
   13.0200    8.4907    6.0337 C   0  0  2  0  0  0  0  0  0  0  0  0
   13.1162    7.7673    4.8179 O   0  0  0  0  0  0  0  0  0  0  0  0
    5.0940    3.6806    9.5449 C   0  0  1  0  0  0  0  0  0  0  0  0
    4.9695    2.4649   10.3006 O   0  0  0  0  0  0  0  0  0  0  0  0
    6.8087    6.2576    5.6229 C   0  0  2  0  0  0  0  0  0  0  0  0
    5.3345    6.2433    5.5329 N   0  0  0  0  0  0  0  0  0  0  0  0
   13.5515    7.6334    7.2469 C   0  0  1  0  0  0  0  0  0  0  0  0
   14.9719    7.2270    7.0264 N   0  0  0  0  0  0  0  0  0  0  0  0
    3.7965    4.5213    9.6015 C   0  0  2  0  0  0  0  0  0  0  0  0
    2.7037    3.7519    9.0699 O   0  0  0  0  0  0  0  0  0  0  0  0
    7.2194    6.5646    7.0857 C   0  0  2  0  0  0  0  0  0  0  0  0
   13.4235    8.4771    8.5613 C   0  0  1  0  0  0  0  0  0  0  0  0
   14.2243    9.6512    8.4555 O   0  0  0  0  0  0  0  0  0  0  0  0
    3.9902    5.8487    8.7738 C   0  0  2  0  0  0  0  0  0  0  0  0
    5.1263    6.6183    9.3171 O   0  0  0  0  0  0  0  0  0  0  0  0
    8.7648    6.5912    7.1904 C   0  0  2  0  0  0  0  0  0  0  0  0
    9.1179    6.8926    8.5365 O   0  0  0  0  0  0  0  0  0  0  0  0
   11.9281    8.8844    8.7492 C   0  0  0  0  0  0  0  0  0  0  0  0
   11.4327    9.6292    7.5667 O   0  0  0  0  0  0  0  0  0  0  0  0
    2.7264    6.7471    8.8155 C   0  0  2  0  0  0  0  0  0  0  0  0
    2.2443    6.8258   10.1544 O   0  0  0  0  0  0  0  0  0  0  0  0
    9.3707    7.6748    6.2684 C   0  0  1  0  0  0  0  0  0  0  0  0
   10.8072    7.6149    6.4329 O   0  0  0  0  0  0  0  0  0  0  0  0
    1.6126    6.1860    7.9470 C   0  0  0  0  0  0  0  0  0  0  0  0
   13.8971    7.7040    9.7859 C   0  0  0  0  0  0  0  0  0  0  0  0
   14.9782    5.9507    6.2863 C   0  0  0  0  0  0  0  0  0  0  0  0
  1  2  1  6  0  0  0
  1  6  1  0  0  0  0
  1 23  1  0  0  0  0
  3  4  1  6  0  0  0
  3  8  1  0  0  0  0
  3 30  1  0  0  0  0
  5  9  1  0  0  0  0
  5 27  1  0  0  0  0
  5 31  1  1  0  0  0
  6  7  1  6  0  0  0
  6 11  1  0  0  0  0
  8 13  1  0  0  0  0
  9 10  1  6  0  0  0
  9 15  1  0  0  0  0
 11 12  1  1  0  0  0
 11 17  1  0  0  0  0
 13 14  1  1  0  0  0
 13 19  1  0  0  0  0
 15 16  1  6  0  0  0
 15 20  1  0  0  0  0
 16 34  1  0  0  0  0
 17 18  1  6  0  0  0
 17 22  1  0  0  0  0
 19  2  1  1  0  0  0
 19 24  1  0  0  0  0
 20 21  1  6  0  0  0
 20 26  1  0  0  0  0
 20 33  1  0  0  0  0
 22 23  1  1  0  0  0
 22 28  1  0  0  0  0
 24 25  1  1  0  0  0
 24 30  1  0  0  0  0
 26 27  1  0  0  0  0
 28 29  1  1  0  0  0
 28 32  1  0  0  0  0
 30 31  1  6  0  0  0
M  END
>  <CHROM.1>
-161.25784829,-153.17001796,-88.36140932,45.54270567,96.77001574,-161.14380799
8.47780257,6.68338857,7.72015751,-2.82621269,-0.18717134,-1.11890411

>  <Name>
ligand

>  <RI>
0

>  <Rbt.Current_Directory>
/home/itssahil/PROJECTS/Mol_Feturizer/New_Systems/rnas/3TD1

>  <Rbt.Executable>
rbdock ($Id: //depot/dev/client3/rdock/2013.1/src/exe/rbdock.cxx#4 $)

>  <Rbt.Library>
libRbt.so (2013.1, Build901 2013/11/27)

>  <Rbt.Parameter_File>
/export/apps/rDock/src/rDock_2013.1_src/data/scripts/dock_solv.prm

>  <Rbt.Receptor>
prm/pocket_docking_3.prm

>  <SCORE>
-19.4816

>  <SCORE.INTER>
-15.8599

>  <SCORE.INTER.CONST>
1

>  <SCORE.INTER.POLAR>
0

>  <SCORE.INTER.ROT>
6

>  <SCORE.INTER.SOLV>
21.005

>  <SCORE.INTER.VDW>
-25.1749

>  <SCORE.INTER.norm>
-0.466467

>  <SCORE.INTRA>
-3.62174

>  <SCORE.INTRA.DIHEDRAL>
-7.25141

>  <SCORE.INTRA.DIHEDRAL.0>
19.5869

>  <SCORE.INTRA.POLAR>
0

>  <SCORE.INTRA.POLAR.0>
0

>  <SCORE.INTRA.REPUL>
0

>  <SCORE.INTRA.REPUL.0>
0

>  <SCORE.INTRA.SOLV>
-0.508226

>  <SCORE.INTRA.SOLV.lig_0>
-70.101

>  <SCORE.INTRA.VDW>
0.258076

>  <SCORE.INTRA.VDW.0>
-3.39718

>  <SCORE.INTRA.norm>
-0.106522

>  <SCORE.RESTR>
0

>  <SCORE.RESTR.CAVITY>
0

>  <SCORE.RESTR.norm>
0

>  <SCORE.SYSTEM>
0

>  <SCORE.SYSTEM.CONST>
0

>  <SCORE.SYSTEM.DIHEDRAL>
0

>  <SCORE.SYSTEM.SOLV>
0

>  <SCORE.SYSTEM.norm>
0

>  <SCORE.heavy>
34

>  <SCORE.norm>
-0.572989

>  <RMSD>
0.818

$$$$
ligand
 OpenBabel11021811483D
libRbt.so/2013.1/901 2013/11/27
 34 36  0  0  0  0  0  0  0  0999 V2000
    6.3538    5.8215    9.3095 C   0  0  2  0  0  0  0  0  0  0  0  0
    6.6521    5.4806    7.9466 O   0  0  0  0  0  0  0  0  0  0  0  0
    8.8897    7.3177    4.8034 C   0  0  2  0  0  0  0  0  0  0  0  0
    9.4227    8.3132    3.8799 N   0  0  0  0  0  0  0  0  0  0  0  0
   11.5099    8.8395    6.2535 C   0  0  2  0  0  0  0  0  0  0  0  0
    6.2014    4.4857   10.1212 C   0  0  2  0  0  0  0  0  0  0  0  0
    7.4448    3.7001   10.0890 N   0  0  0  0  0  0  0  0  0  0  0  0
    7.3292    7.3640    4.6917 C   0  0  0  0  0  0  0  0  0  0  0  0
   13.0048    8.4343    5.9920 C   0  0  2  0  0  0  0  0  0  0  0  0
   13.0968    7.6778    4.7962 O   0  0  0  0  0  0  0  0  0  0  0  0
    5.0408    3.6573    9.5286 C   0  0  1  0  0  0  0  0  0  0  0  0
    4.8905    2.4367   10.2718 O   0  0  0  0  0  0  0  0  0  0  0  0
    6.7568    6.2794    5.6658 C   0  0  2  0  0  0  0  0  0  0  0  0
    5.2808    6.2786    5.6098 N   0  0  0  0  0  0  0  0  0  0  0  0
   13.5271    7.6053    7.2287 C   0  0  1  0  0  0  0  0  0  0  0  0
   14.9444    7.1812    7.0217 N   0  0  0  0  0  0  0  0  0  0  0  0
    3.7498    4.5091    9.5663 C   0  0  2  0  0  0  0  0  0  0  0  0
    2.6611    3.7538    9.0071 O   0  0  0  0  0  0  0  0  0  0  0  0
    7.2037    6.5527    7.1247 C   0  0  2  0  0  0  0  0  0  0  0  0
   13.4042    8.4849    8.5198 C   0  0  1  0  0  0  0  0  0  0  0  0
   14.2151    9.6490    8.3841 O   0  0  0  0  0  0  0  0  0  0  0  0
    3.9716    5.8413    8.7535 C   0  0  2  0  0  0  0  0  0  0  0  0
    5.1035    6.5962    9.3254 O   0  0  0  0  0  0  0  0  0  0  0  0
    8.7512    6.5649    7.1940 C   0  0  2  0  0  0  0  0  0  0  0  0
    9.1378    6.8355    8.5375 O   0  0  0  0  0  0  0  0  0  0  0  0
   11.9121    8.9097    8.6941 C   0  0  0  0  0  0  0  0  0  0  0  0
   11.4248    9.6267    7.4912 O   0  0  0  0  0  0  0  0  0  0  0  0
    2.7152    6.7506    8.7775 C   0  0  2  0  0  0  0  0  0  0  0  0
    2.1905    6.7997   10.1017 O   0  0  0  0  0  0  0  0  0  0  0  0
    9.3447    7.6628    6.2808 C   0  0  1  0  0  0  0  0  0  0  0  0
   10.7841    7.5882    6.4106 O   0  0  0  0  0  0  0  0  0  0  0  0
    1.6253    6.2228    7.8592 C   0  0  0  0  0  0  0  0  0  0  0  0
   13.8693    7.7409    9.7655 C   0  0  0  0  0  0  0  0  0  0  0  0
   14.9406    5.8537    6.3778 C   0  0  0  0  0  0  0  0  0  0  0  0
  1  2  1  6  0  0  0
  1  6  1  0  0  0  0
  1 23  1  0  0  0  0
  3  4  1  6  0  0  0
  3  8  1  0  0  0  0
  3 30  1  0  0  0  0
  5  9  1  0  0  0  0
  5 27  1  0  0  0  0
  5 31  1  1  0  0  0
  6  7  1  6  0  0  0
  6 11  1  0  0  0  0
  8 13  1  0  0  0  0
  9 10  1  6  0  0  0
  9 15  1  0  0  0  0
 11 12  1  1  0  0  0
 11 17  1  0  0  0  0
 13 14  1  1  0  0  0
 13 19  1  0  0  0  0
 15 16  1  6  0  0  0
 15 20  1  0  0  0  0
 16 34  1  0  0  0  0
 17 18  1  6  0  0  0
 17 22  1  0  0  0  0
 19  2  1  1  0  0  0
 19 24  1  0  0  0  0
 20 21  1  6  0  0  0
 20 26  1  0  0  0  0
 20 33  1  0  0  0  0
 22 23  1  1  0  0  0
 22 28  1  0  0  0  0
 24 25  1  1  0  0  0
 24 30  1  0  0  0  0
 26 27  1  0  0  0  0
 28 29  1  1  0  0  0
 28 32  1  0  0  0  0
 30 31  1  6  0  0  0
M  END
>  <CHROM.1>
-162.97793129,-150.36686646,-91.20180537,44.29564958,94.90316643,-162.89192558
8.44705167,6.66844431,7.71046789,-2.82189480,-0.17602866,-1.08590618

>  <Name>
ligand

>  <RI>
0

>  <Rbt.Current_Directory>
/home/itssahil/PROJECTS/Mol_Feturizer/New_Systems/rnas/3TD1

>  <Rbt.Executable>
rbdock ($Id: //depot/dev/client3/rdock/2013.1/src/exe/rbdock.cxx#4 $)

>  <Rbt.Library>
libRbt.so (2013.1, Build901 2013/11/27)

>  <Rbt.Parameter_File>
/export/apps/rDock/src/rDock_2013.1_src/data/scripts/dock_solv.prm

>  <Rbt.Receptor>
prm/pocket_docking_3.prm

>  <SCORE>
-19.5629

>  <SCORE.INTER>
-15.6855

>  <SCORE.INTER.CONST>
1

>  <SCORE.INTER.POLAR>
0

>  <SCORE.INTER.ROT>
6

>  <SCORE.INTER.SOLV>
20.94

>  <SCORE.INTER.VDW>
-25.037

>  <SCORE.INTER.norm>
-0.461337

>  <SCORE.INTRA>
-3.87742

>  <SCORE.INTRA.DIHEDRAL>
-7.36972

>  <SCORE.INTRA.DIHEDRAL.0>
19.5869

>  <SCORE.INTRA.POLAR>
0

>  <SCORE.INTRA.POLAR.0>
0

>  <SCORE.INTRA.REPUL>
0

>  <SCORE.INTRA.REPUL.0>
0

>  <SCORE.INTRA.SOLV>
-0.356941

>  <SCORE.INTRA.SOLV.lig_0>
-70.101

>  <SCORE.INTRA.VDW>
-0.014092

>  <SCORE.INTRA.VDW.0>
-3.39718

>  <SCORE.INTRA.norm>
-0.114042

>  <SCORE.RESTR>
0

>  <SCORE.RESTR.CAVITY>
0

>  <SCORE.RESTR.norm>
0

>  <SCORE.SYSTEM>
0

>  <SCORE.SYSTEM.CONST>
0

>  <SCORE.SYSTEM.DIHEDRAL>
0

>  <SCORE.SYSTEM.SOLV>
0

>  <SCORE.SYSTEM.norm>
0

>  <SCORE.heavy>
34

>  <SCORE.norm>
-0.575379

>  <RMSD>
0.828

$$$$
ligand
 OpenBabel11021811483D
libRbt.so/2013.1/901 2013/11/27
 34 36  0  0  0  0  0  0  0  0999 V2000
    6.4122    5.8445    9.3148 C   0  0  2  0  0  0  0  0  0  0  0  0
    6.7021    5.4964    7.9520 O   0  0  0  0  0  0  0  0  0  0  0  0
    8.8990    7.3251    4.7753 C   0  0  2  0  0  0  0  0  0  0  0  0
    9.4188    8.3178    3.8413 N   0  0  0  0  0  0  0  0  0  0  0  0
   11.5250    8.8730    6.2766 C   0  0  2  0  0  0  0  0  0  0  0  0
    6.2813    4.5133   10.1379 C   0  0  2  0  0  0  0  0  0  0  0  0
    7.5327    3.7407   10.1005 N   0  0  0  0  0  0  0  0  0  0  0  0
    7.3372    7.3668    4.6811 C   0  0  0  0  0  0  0  0  0  0  0  0
   13.0242    8.4975    5.9964 C   0  0  2  0  0  0  0  0  0  0  0  0
   13.1259    7.8118    4.7593 O   0  0  0  0  0  0  0  0  0  0  0  0
    5.1244    3.6681    9.5618 C   0  0  1  0  0  0  0  0  0  0  0  0
    4.9938    2.4517   10.3155 O   0  0  0  0  0  0  0  0  0  0  0  0
    6.7788    6.2851    5.6665 C   0  0  2  0  0  0  0  0  0  0  0  0
    5.3023    6.2800    5.6272 N   0  0  0  0  0  0  0  0  0  0  0  0
   13.5517    7.6038    7.1848 C   0  0  1  0  0  0  0  0  0  0  0  0
   14.9734    7.2056    6.9576 N   0  0  0  0  0  0  0  0  0  0  0  0
    3.8248    4.5064    9.6047 C   0  0  2  0  0  0  0  0  0  0  0  0
    2.7394    3.7353    9.0608 O   0  0  0  0  0  0  0  0  0  0  0  0
    7.2414    6.5662    7.1190 C   0  0  2  0  0  0  0  0  0  0  0  0
   13.4177    8.4066    8.5239 C   0  0  1  0  0  0  0  0  0  0  0  0
   14.2178    9.5841    8.4574 O   0  0  0  0  0  0  0  0  0  0  0  0
    4.0252    5.8347    8.7800 C   0  0  2  0  0  0  0  0  0  0  0  0
    5.1539    6.6059    9.3361 O   0  0  0  0  0  0  0  0  0  0  0  0
    8.7897    6.5829    7.1708 C   0  0  2  0  0  0  0  0  0  0  0  0
    9.1906    6.8606    8.5085 O   0  0  0  0  0  0  0  0  0  0  0  0
   11.9212    8.8067    8.7184 C   0  0  0  0  0  0  0  0  0  0  0  0
   11.4298    9.5870    7.5573 O   0  0  0  0  0  0  0  0  0  0  0  0
    2.7594    6.7307    8.8083 C   0  0  2  0  0  0  0  0  0  0  0  0
    2.2763    6.8270   10.1457 O   0  0  0  0  0  0  0  0  0  0  0  0
    9.3697    7.6782    6.2459 C   0  0  1  0  0  0  0  0  0  0  0  0
   10.8107    7.6080    6.3597 O   0  0  0  0  0  0  0  0  0  0  0  0
    1.6473    6.1551    7.9472 C   0  0  0  0  0  0  0  0  0  0  0  0
   13.8872    7.5966    9.7261 C   0  0  0  0  0  0  0  0  0  0  0  0
   14.9835    5.9288    6.2181 C   0  0  0  0  0  0  0  0  0  0  0  0
  1  2  1  6  0  0  0
  1  6  1  0  0  0  0
  1 23  1  0  0  0  0
  3  4  1  6  0  0  0
  3  8  1  0  0  0  0
  3 30  1  0  0  0  0
  5  9  1  0  0  0  0
  5 27  1  0  0  0  0
  5 31  1  1  0  0  0
  6  7  1  6  0  0  0
  6 11  1  0  0  0  0
  8 13  1  0  0  0  0
  9 10  1  6  0  0  0
  9 15  1  0  0  0  0
 11 12  1  1  0  0  0
 11 17  1  0  0  0  0
 13 14  1  1  0  0  0
 13 19  1  0  0  0  0
 15 16  1  6  0  0  0
 15 20  1  0  0  0  0
 16 34  1  0  0  0  0
 17 18  1  6  0  0  0
 17 22  1  0  0  0  0
 19  2  1  1  0  0  0
 19 24  1  0  0  0  0
 20 21  1  6  0  0  0
 20 26  1  0  0  0  0
 20 33  1  0  0  0  0
 22 23  1  1  0  0  0
 22 28  1  0  0  0  0
 24 25  1  1  0  0  0
 24 30  1  0  0  0  0
 26 27  1  0  0  0  0
 28 29  1  1  0  0  0
 28 32  1  0  0  0  0
 30 31  1  6  0  0  0
M  END
>  <CHROM.1>
-162.67140767,-150.07525391,-90.24546161,46.56474567,98.81262293,-163.57365642
8.48616098,6.67052850,7.71251793,-2.81686801,-0.17555197,-1.09602715

>  <Name>
ligand

>  <RI>
0

>  <Rbt.Current_Directory>
/home/itssahil/PROJECTS/Mol_Feturizer/New_Systems/rnas/3TD1

>  <Rbt.Executable>
rbdock ($Id: //depot/dev/client3/rdock/2013.1/src/exe/rbdock.cxx#4 $)

>  <Rbt.Library>
libRbt.so (2013.1, Build901 2013/11/27)

>  <Rbt.Parameter_File>
/export/apps/rDock/src/rDock_2013.1_src/data/scripts/dock_solv.prm

>  <Rbt.Receptor>
prm/pocket_docking_4.prm

>  <SCORE>
-19.3823

>  <SCORE.INTER>
-15.8329

>  <SCORE.INTER.CONST>
1

>  <SCORE.INTER.POLAR>
0

>  <SCORE.INTER.ROT>
6

>  <SCORE.INTER.SOLV>
20.9138

>  <SCORE.INTER.VDW>
-25.1265

>  <SCORE.INTER.norm>
-0.465672

>  <SCORE.INTRA>
-3.55025

>  <SCORE.INTRA.DIHEDRAL>
-6.93922

>  <SCORE.INTRA.DIHEDRAL.0>
19.5869

>  <SCORE.INTRA.POLAR>
0

>  <SCORE.INTRA.POLAR.0>
0

>  <SCORE.INTRA.REPUL>
0

>  <SCORE.INTRA.REPUL.0>
0

>  <SCORE.INTRA.SOLV>
-0.403396

>  <SCORE.INTRA.SOLV.lig_0>
-70.101

>  <SCORE.INTRA.VDW>
0.121058

>  <SCORE.INTRA.VDW.0>
-3.39718

>  <SCORE.INTRA.norm>
-0.104419

>  <SCORE.RESTR>
0.000803697

>  <SCORE.RESTR.CAVITY>
0.000803697

>  <SCORE.RESTR.norm>
2.36382e-05

>  <SCORE.SYSTEM>
0

>  <SCORE.SYSTEM.CONST>
0

>  <SCORE.SYSTEM.DIHEDRAL>
0

>  <SCORE.SYSTEM.SOLV>
0

>  <SCORE.SYSTEM.norm>
0

>  <SCORE.heavy>
34

>  <SCORE.norm>
-0.570068

>  <RMSD>
0.833

$$$$
ligand
 OpenBabel11021811483D
libRbt.so/2013.1/901 2013/11/27
 34 36  0  0  0  0  0  0  0  0999 V2000
    6.3845    5.8251    9.3221 C   0  0  2  0  0  0  0  0  0  0  0  0
    6.6789    5.4787    7.9598 O   0  0  0  0  0  0  0  0  0  0  0  0
    8.8915    7.3096    4.7953 C   0  0  2  0  0  0  0  0  0  0  0  0
    9.4160    8.3030    3.8646 N   0  0  0  0  0  0  0  0  0  0  0  0
   11.5151    8.8480    6.2500 C   0  0  2  0  0  0  0  0  0  0  0  0
    6.2534    4.4931   10.1436 C   0  0  2  0  0  0  0  0  0  0  0  0
    7.5063    3.7227   10.1093 N   0  0  0  0  0  0  0  0  0  0  0  0
    7.3302    7.3516    4.6935 C   0  0  0  0  0  0  0  0  0  0  0  0
   13.0148    8.4543    5.9991 C   0  0  2  0  0  0  0  0  0  0  0  0
   13.1227    7.7090    4.7976 O   0  0  0  0  0  0  0  0  0  0  0  0
    5.0997    3.6464    9.5636 C   0  0  1  0  0  0  0  0  0  0  0  0
    4.9690    2.4292   10.3159 O   0  0  0  0  0  0  0  0  0  0  0  0
    6.7669    6.2692    5.6753 C   0  0  2  0  0  0  0  0  0  0  0  0
    5.2906    6.2644    5.6289 N   0  0  0  0  0  0  0  0  0  0  0  0
   13.5306    7.6175    7.2333 C   0  0  1  0  0  0  0  0  0  0  0  0
   14.9524    7.2039    7.0359 N   0  0  0  0  0  0  0  0  0  0  0  0
    3.7985    4.4825    9.6034 C   0  0  2  0  0  0  0  0  0  0  0  0
    2.7160    3.7100    9.0557 O   0  0  0  0  0  0  0  0  0  0  0  0
    7.2225    6.5491    7.1303 C   0  0  2  0  0  0  0  0  0  0  0  0
   13.3902    8.4848    8.5309 C   0  0  1  0  0  0  0  0  0  0  0  0
   14.1952    9.6549    8.4131 O   0  0  0  0  0  0  0  0  0  0  0  0
    3.9990    5.8118    8.7803 C   0  0  2  0  0  0  0  0  0  0  0  0
    5.1248    6.5845    9.3403 O   0  0  0  0  0  0  0  0  0  0  0  0
    8.7704    6.5655    7.1896 C   0  0  2  0  0  0  0  0  0  0  0  0
    9.1649    6.8421    8.5295 O   0  0  0  0  0  0  0  0  0  0  0  0
   11.8939    8.8989    8.6949 C   0  0  0  0  0  0  0  0  0  0  0  0
   11.4136    9.6236    7.4938 O   0  0  0  0  0  0  0  0  0  0  0  0
    2.7316    6.7056    8.8057 C   0  0  2  0  0  0  0  0  0  0  0  0
    2.2216    6.7678   10.1351 O   0  0  0  0  0  0  0  0  0  0  0  0
    9.3552    7.6614    6.2684 C   0  0  1  0  0  0  0  0  0  0  0  0
   10.7956    7.5909    6.3892 O   0  0  0  0  0  0  0  0  0  0  0  0
    1.6379    6.1508    7.9082 C   0  0  0  0  0  0  0  0  0  0  0  0
   13.8482    7.7325    9.7743 C   0  0  0  0  0  0  0  0  0  0  0  0
   14.9632    5.9012    6.3432 C   0  0  0  0  0  0  0  0  0  0  0  0
  1  2  1  6  0  0  0
  1  6  1  0  0  0  0
  1 23  1  0  0  0  0
  3  4  1  6  0  0  0
  3  8  1  0  0  0  0
  3 30  1  0  0  0  0
  5  9  1  0  0  0  0
  5 27  1  0  0  0  0
  5 31  1  1  0  0  0
  6  7  1  6  0  0  0
  6 11  1  0  0  0  0
  8 13  1  0  0  0  0
  9 10  1  6  0  0  0
  9 15  1  0  0  0  0
 11 12  1  1  0  0  0
 11 17  1  0  0  0  0
 13 14  1  1  0  0  0
 13 19  1  0  0  0  0
 15 16  1  6  0  0  0
 15 20  1  0  0  0  0
 16 34  1  0  0  0  0
 17 18  1  6  0  0  0
 17 22  1  0  0  0  0
 19  2  1  1  0  0  0
 19 24  1  0  0  0  0
 20 21  1  6  0  0  0
 20 26  1  0  0  0  0
 20 33  1  0  0  0  0
 22 23  1  1  0  0  0
 22 28  1  0  0  0  0
 24 25  1  1  0  0  0
 24 30  1  0  0  0  0
 26 27  1  0  0  0  0
 28 29  1  1  0  0  0
 28 32  1  0  0  0  0
 30 31  1  6  0  0  0
M  END
>  <CHROM.1>
-162.50124492,-150.17243891,-89.49730191,44.85790077,96.12148156,-163.87460687
8.46532957,6.66333064,7.72220290,-2.81765169,-0.18032147,-1.09333025

>  <Name>
ligand

>  <RI>
0

>  <Rbt.Current_Directory>
/home/itssahil/PROJECTS/Mol_Feturizer/New_Systems/rnas/3TD1

>  <Rbt.Executable>
rbdock ($Id: //depot/dev/client3/rdock/2013.1/src/exe/rbdock.cxx#4 $)

>  <Rbt.Library>
libRbt.so (2013.1, Build901 2013/11/27)

>  <Rbt.Parameter_File>
/export/apps/rDock/src/rDock_2013.1_src/data/scripts/dock_solv.prm

>  <Rbt.Receptor>
prm/pocket_docking_3.prm

>  <SCORE>
-19.4994

>  <SCORE.INTER>
-15.725

>  <SCORE.INTER.CONST>
1

>  <SCORE.INTER.POLAR>
0

>  <SCORE.INTER.ROT>
6

>  <SCORE.INTER.SOLV>
20.9029

>  <SCORE.INTER.VDW>
-25.051

>  <SCORE.INTER.norm>
-0.462501

>  <SCORE.INTRA>
-3.77442

>  <SCORE.INTRA.DIHEDRAL>
-7.29723

>  <SCORE.INTRA.DIHEDRAL.0>
19.5869

>  <SCORE.INTRA.POLAR>
0

>  <SCORE.INTRA.POLAR.0>
0

>  <SCORE.INTRA.REPUL>
0

>  <SCORE.INTRA.REPUL.0>
0

>  <SCORE.INTRA.SOLV>
-0.380541

>  <SCORE.INTRA.SOLV.lig_0>
-70.101

>  <SCORE.INTRA.VDW>
0.0644707

>  <SCORE.INTRA.VDW.0>
-3.39718

>  <SCORE.INTRA.norm>
-0.111012

>  <SCORE.RESTR>
0

>  <SCORE.RESTR.CAVITY>
0

>  <SCORE.RESTR.norm>
0

>  <SCORE.SYSTEM>
0

>  <SCORE.SYSTEM.CONST>
0

>  <SCORE.SYSTEM.DIHEDRAL>
0

>  <SCORE.SYSTEM.SOLV>
0

>  <SCORE.SYSTEM.norm>
0

>  <SCORE.heavy>
34

>  <SCORE.norm>
-0.573513

>  <RMSD>
0.840

$$$$
ligand
 OpenBabel11021811483D
libRbt.so/2013.1/901 2013/11/27
 34 36  0  0  0  0  0  0  0  0999 V2000
    6.3702    5.8684    9.3143 C   0  0  2  0  0  0  0  0  0  0  0  0
    6.6597    5.5112    7.9538 O   0  0  0  0  0  0  0  0  0  0  0  0
    8.8989    7.3049    4.7867 C   0  0  2  0  0  0  0  0  0  0  0  0
    9.4320    8.2875    3.8495 N   0  0  0  0  0  0  0  0  0  0  0  0
   11.5126    8.8574    6.2626 C   0  0  2  0  0  0  0  0  0  0  0  0
    6.2450    4.5429   10.1474 C   0  0  2  0  0  0  0  0  0  0  0  0
    7.4991    3.7746   10.1144 N   0  0  0  0  0  0  0  0  0  0  0  0
    7.3385    7.3482    4.6728 C   0  0  0  0  0  0  0  0  0  0  0  0
   13.0123    8.4638    6.0116 C   0  0  2  0  0  0  0  0  0  0  0  0
   13.1215    7.7268    4.8051 O   0  0  0  0  0  0  0  0  0  0  0  0
    5.0905    3.6893    9.5791 C   0  0  1  0  0  0  0  0  0  0  0  0
    4.9652    2.4781   10.3420 O   0  0  0  0  0  0  0  0  0  0  0  0
    6.7661    6.2772    5.6618 C   0  0  2  0  0  0  0  0  0  0  0  0
    5.2902    6.2742    5.6043 N   0  0  0  0  0  0  0  0  0  0  0  0
   13.5251    7.6179    7.2408 C   0  0  1  0  0  0  0  0  0  0  0  0
   14.9467    7.2042    7.0431 N   0  0  0  0  0  0  0  0  0  0  0  0
    3.7879    4.5232    9.6173 C   0  0  2  0  0  0  0  0  0  0  0  0
    2.7046    3.7442    9.0805 O   0  0  0  0  0  0  0  0  0  0  0  0
    7.2112    6.5718    7.1171 C   0  0  2  0  0  0  0  0  0  0  0  0
   13.3833    8.4763    8.5442 C   0  0  1  0  0  0  0  0  0  0  0  0
   14.1897    9.6464    8.4360 O   0  0  0  0  0  0  0  0  0  0  0  0
    3.9825    5.8460    8.7824 C   0  0  2  0  0  0  0  0  0  0  0  0
    5.1091    6.6255    9.3314 O   0  0  0  0  0  0  0  0  0  0  0  0
    8.7587    6.5865    7.1878 C   0  0  2  0  0  0  0  0  0  0  0  0
    9.1436    6.8767    8.5276 O   0  0  0  0  0  0  0  0  0  0  0  0
   11.8871    8.8909    8.7085 C   0  0  0  0  0  0  0  0  0  0  0  0
   11.4097    9.6244    7.5117 O   0  0  0  0  0  0  0  0  0  0  0  0
    2.7136    6.7377    8.8056 C   0  0  2  0  0  0  0  0  0  0  0  0
    2.2287    6.8381   10.1420 O   0  0  0  0  0  0  0  0  0  0  0  0
    9.3521    7.6716    6.2595 C   0  0  1  0  0  0  0  0  0  0  0  0
   10.7914    7.6002    6.3918 O   0  0  0  0  0  0  0  0  0  0  0  0
    1.6044    6.1544    7.9457 C   0  0  0  0  0  0  0  0  0  0  0  0
   13.8383    7.7149    9.7832 C   0  0  0  0  0  0  0  0  0  0  0  0
   14.9568    5.8820    6.3884 C   0  0  0  0  0  0  0  0  0  0  0  0
  1  2  1  6  0  0  0
  1  6  1  0  0  0  0
  1 23  1  0  0  0  0
  3  4  1  6  0  0  0
  3  8  1  0  0  0  0
  3 30  1  0  0  0  0
  5  9  1  0  0  0  0
  5 27  1  0  0  0  0
  5 31  1  1  0  0  0
  6  7  1  6  0  0  0
  6 11  1  0  0  0  0
  8 13  1  0  0  0  0
  9 10  1  6  0  0  0
  9 15  1  0  0  0  0
 11 12  1  1  0  0  0
 11 17  1  0  0  0  0
 13 14  1  1  0  0  0
 13 19  1  0  0  0  0
 15 16  1  6  0  0  0
 15 20  1  0  0  0  0
 16 34  1  0  0  0  0
 17 18  1  6  0  0  0
 17 22  1  0  0  0  0
 19  2  1  1  0  0  0
 19 24  1  0  0  0  0
 20 21  1  6  0  0  0
 20 26  1  0  0  0  0
 20 33  1  0  0  0  0
 22 23  1  1  0  0  0
 22 28  1  0  0  0  0
 24 25  1  1  0  0  0
 24 30  1  0  0  0  0
 26 27  1  0  0  0  0
 28 29  1  1  0  0  0
 28 32  1  0  0  0  0
 30 31  1  6  0  0  0
M  END
>  <CHROM.1>
-161.87086355,-150.86860103,-91.66833618,46.34469486,96.92221861,-163.44831894
8.45823795,6.68101655,7.72779208,-2.82199280,-0.18003934,-1.10514877

>  <Name>
ligand

>  <RI>
0

>  <Rbt.Current_Directory>
/home/itssahil/PROJECTS/Mol_Feturizer/New_Systems/rnas/3TD1

>  <Rbt.Executable>
rbdock ($Id: //depot/dev/client3/rdock/2013.1/src/exe/rbdock.cxx#4 $)

>  <Rbt.Library>
libRbt.so (2013.1, Build901 2013/11/27)

>  <Rbt.Parameter_File>
/export/apps/rDock/src/rDock_2013.1_src/data/scripts/dock_solv.prm

>  <Rbt.Receptor>
prm/pocket_docking_3.prm

>  <SCORE>
-19.5374

>  <SCORE.INTER>
-15.789

>  <SCORE.INTER.CONST>
1

>  <SCORE.INTER.POLAR>
0

>  <SCORE.INTER.ROT>
6

>  <SCORE.INTER.SOLV>
21.0714

>  <SCORE.INTER.VDW>
-25.1498

>  <SCORE.INTER.norm>
-0.464381

>  <SCORE.INTRA>
-3.74842

>  <SCORE.INTRA.DIHEDRAL>
-7.20677

>  <SCORE.INTRA.DIHEDRAL.0>
19.5869

>  <SCORE.INTRA.POLAR>
0

>  <SCORE.INTRA.POLAR.0>
0

>  <SCORE.INTRA.REPUL>
0

>  <SCORE.INTRA.REPUL.0>
0

>  <SCORE.INTRA.SOLV>
-0.440653

>  <SCORE.INTRA.SOLV.lig_0>
-70.101

>  <SCORE.INTRA.VDW>
0.0752894

>  <SCORE.INTRA.VDW.0>
-3.39718

>  <SCORE.INTRA.norm>
-0.110248

>  <SCORE.RESTR>
0

>  <SCORE.RESTR.CAVITY>
0

>  <SCORE.RESTR.norm>
0

>  <SCORE.SYSTEM>
0

>  <SCORE.SYSTEM.CONST>
0

>  <SCORE.SYSTEM.DIHEDRAL>
0

>  <SCORE.SYSTEM.SOLV>
0

>  <SCORE.SYSTEM.norm>
0

>  <SCORE.heavy>
34

>  <SCORE.norm>
-0.574629

>  <RMSD>
0.840

$$$$
ligand
 OpenBabel11021811483D
libRbt.so/2013.1/901 2013/11/27
 34 36  0  0  0  0  0  0  0  0999 V2000
    5.4195    6.2603    8.9845 C   0  0  2  0  0  0  0  0  0  0  0  0
    5.8178    5.9096    7.6499 O   0  0  0  0  0  0  0  0  0  0  0  0
    9.1131    7.3303    5.3295 C   0  0  2  0  0  0  0  0  0  0  0  0
    9.9888    8.2013    4.5533 N   0  0  0  0  0  0  0  0  0  0  0  0
   11.3481    8.6861    6.9649 C   0  0  2  0  0  0  0  0  0  0  0  0
    5.8203    5.0773    9.9366 C   0  0  2  0  0  0  0  0  0  0  0  0
    7.2737    4.8502    9.9185 N   0  0  0  0  0  0  0  0  0  0  0  0
    7.6971    7.3777    4.6644 C   0  0  0  0  0  0  0  0  0  0  0  0
   12.5458    7.7770    6.5110 C   0  0  2  0  0  0  0  0  0  0  0  0
   12.1261    6.9123    5.4685 O   0  0  0  0  0  0  0  0  0  0  0  0
    5.0823    3.7944    9.4961 C   0  0  1  0  0  0  0  0  0  0  0  0
    5.4384    2.7094   10.3682 O   0  0  0  0  0  0  0  0  0  0  0  0
    6.7620    6.4248    5.4833 C   0  0  2  0  0  0  0  0  0  0  0  0
    5.4029    6.4314    4.9052 N   0  0  0  0  0  0  0  0  0  0  0  0
   13.0570    6.9555    7.7574 C   0  0  1  0  0  0  0  0  0  0  0  0
   14.1896    6.0605    7.3736 N   0  0  0  0  0  0  0  0  0  0  0  0
    3.5589    4.0636    9.5155 C   0  0  2  0  0  0  0  0  0  0  0  0
    2.8580    2.8796    9.0966 O   0  0  0  0  0  0  0  0  0  0  0  0
    6.6790    6.8688    6.9662 C   0  0  2  0  0  0  0  0  0  0  0  0
   13.5076    7.9558    8.8763 C   0  0  1  0  0  0  0  0  0  0  0  0
   14.5826    8.7585    8.3954 O   0  0  0  0  0  0  0  0  0  0  0  0
    3.2233    5.2706    8.5589 C   0  0  2  0  0  0  0  0  0  0  0  0
    3.9640    6.4728    8.9879 O   0  0  0  0  0  0  0  0  0  0  0  0
    8.1010    6.8744    7.5809 C   0  0  2  0  0  0  0  0  0  0  0  0
    8.0022    7.3022    8.9354 O   0  0  0  0  0  0  0  0  0  0  0  0
   12.2985    8.8733    9.2420 C   0  0  0  0  0  0  0  0  0  0  0  0
   11.7932    9.5816    8.0415 O   0  0  0  0  0  0  0  0  0  0  0  0
    1.7085    5.6043    8.5568 C   0  0  2  0  0  0  0  0  0  0  0  0
    0.9776    4.4880    8.0559 O   0  0  0  0  0  0  0  0  0  0  0  0
    9.0349    7.8476    6.8245 C   0  0  1  0  0  0  0  0  0  0  0  0
   10.3300    7.7755    7.4663 O   0  0  0  0  0  0  0  0  0  0  0  0
    1.4009    6.8022    7.6735 C   0  0  0  0  0  0  0  0  0  0  0  0
   13.9940    7.2341   10.1271 C   0  0  0  0  0  0  0  0  0  0  0  0
   15.0919    6.8130    6.4811 C   0  0  0  0  0  0  0  0  0  0  0  0
  1  2  1  6  0  0  0
  1  6  1  0  0  0  0
  1 23  1  0  0  0  0
  3  4  1  6  0  0  0
  3  8  1  0  0  0  0
  3 30  1  0  0  0  0
  5  9  1  0  0  0  0
  5 27  1  0  0  0  0
  5 31  1  1  0  0  0
  6  7  1  6  0  0  0
  6 11  1  0  0  0  0
  8 13  1  0  0  0  0
  9 10  1  6  0  0  0
  9 15  1  0  0  0  0
 11 12  1  1  0  0  0
 11 17  1  0  0  0  0
 13 14  1  6  0  0  0
 13 19  1  0  0  0  0
 15 16  1  6  0  0  0
 15 20  1  0  0  0  0
 16 34  1  0  0  0  0
 17 18  1  6  0  0  0
 17 22  1  0  0  0  0
 19  2  1  1  0  0  0
 19 24  1  0  0  0  0
 20 21  1  6  0  0  0
 20 26  1  0  0  0  0
 20 33  1  0  0  0  0
 22 23  1  1  0  0  0
 22 28  1  0  0  0  0
 24 25  1  1  0  0  0
 24 30  1  0  0  0  0
 26 27  1  0  0  0  0
 28 29  1  6  0  0  0
 28 32  1  0  0  0  0
 30 31  1  1  0  0  0
M  END
>  <CHROM.1>
-125.23798592,-169.71167451,42.32672082,-62.67340990,67.99668133,-122.44999737
8.17513010,6.52776990,7.80413472,-2.91628211,-0.20382401,-1.07629754

>  <Name>
ligand

>  <RI>
0

>  <Rbt.Current_Directory>
/home/itssahil/PROJECTS/Mol_Feturizer/New_Systems/rnas/3TD1

>  <Rbt.Executable>
rbdock ($Id: //depot/dev/client3/rdock/2013.1/src/exe/rbdock.cxx#4 $)

>  <Rbt.Library>
libRbt.so (2013.1, Build901 2013/11/27)

>  <Rbt.Parameter_File>
/export/apps/rDock/src/rDock_2013.1_src/data/scripts/dock_solv.prm

>  <Rbt.Receptor>
prm/pocket_docking_2.prm

>  <SCORE>
-9.22843

>  <SCORE.INTER>
-14.2818

>  <SCORE.INTER.CONST>
1

>  <SCORE.INTER.POLAR>
0

>  <SCORE.INTER.ROT>
6

>  <SCORE.INTER.SOLV>
17.0108

>  <SCORE.INTER.VDW>
-22.7915

>  <SCORE.INTER.norm>
-0.420054

>  <SCORE.INTRA>
5.0534

>  <SCORE.INTRA.DIHEDRAL>
-4.22328

>  <SCORE.INTRA.DIHEDRAL.0>
19.5869

>  <SCORE.INTRA.POLAR>
0

>  <SCORE.INTRA.POLAR.0>
0

>  <SCORE.INTRA.REPUL>
0

>  <SCORE.INTRA.REPUL.0>
0

>  <SCORE.INTRA.SOLV>
1.27055

>  <SCORE.INTRA.SOLV.lig_0>
-70.101

>  <SCORE.INTRA.VDW>
6.52977

>  <SCORE.INTRA.VDW.0>
-3.39718

>  <SCORE.INTRA.norm>
0.148629

>  <SCORE.RESTR>
0

>  <SCORE.RESTR.CAVITY>
0

>  <SCORE.RESTR.norm>
0

>  <SCORE.SYSTEM>
0

>  <SCORE.SYSTEM.CONST>
0

>  <SCORE.SYSTEM.DIHEDRAL>
0

>  <SCORE.SYSTEM.SOLV>
0

>  <SCORE.SYSTEM.norm>
0

>  <SCORE.heavy>
34

>  <SCORE.norm>
-0.271424

>  <RMSD>
0.843

$$$$
ligand
 OpenBabel11021811483D
libRbt.so/2013.1/901 2013/11/27
 34 36  0  0  0  0  0  0  0  0999 V2000
    6.3966    5.8501    9.3027 C   0  0  2  0  0  0  0  0  0  0  0  0
    6.6854    5.4994    7.9403 O   0  0  0  0  0  0  0  0  0  0  0  0
    8.9221    7.3105    4.7813 C   0  0  2  0  0  0  0  0  0  0  0  0
    9.4532    8.2978    3.8481 N   0  0  0  0  0  0  0  0  0  0  0  0
   11.5332    8.8597    6.2367 C   0  0  2  0  0  0  0  0  0  0  0  0
    6.2713    4.5207   10.1295 C   0  0  2  0  0  0  0  0  0  0  0  0
    7.5252    3.7521   10.0921 N   0  0  0  0  0  0  0  0  0  0  0  0
    7.3616    7.3502    4.6665 C   0  0  0  0  0  0  0  0  0  0  0  0
   13.0331    8.4625    5.9926 C   0  0  2  0  0  0  0  0  0  0  0  0
   13.1426    7.7039    4.7996 O   0  0  0  0  0  0  0  0  0  0  0  0
    5.1163    3.6703    9.5575 C   0  0  1  0  0  0  0  0  0  0  0  0
    4.9908    2.4555   10.3146 O   0  0  0  0  0  0  0  0  0  0  0  0
    6.7913    6.2742    5.6512 C   0  0  2  0  0  0  0  0  0  0  0  0
    5.3154    6.2677    5.5928 N   0  0  0  0  0  0  0  0  0  0  0  0
   13.5465    7.6392    7.2369 C   0  0  1  0  0  0  0  0  0  0  0  0
   14.9684    7.2228    7.0464 N   0  0  0  0  0  0  0  0  0  0  0  0
    3.8140    4.5045    9.6003 C   0  0  2  0  0  0  0  0  0  0  0  0
    2.7302    3.7285    9.0602 O   0  0  0  0  0  0  0  0  0  0  0  0
    7.2348    6.5645    7.1079 C   0  0  2  0  0  0  0  0  0  0  0  0
   13.4044    8.5210    8.5245 C   0  0  1  0  0  0  0  0  0  0  0  0
   14.2101    9.6894    8.3951 O   0  0  0  0  0  0  0  0  0  0  0  0
    4.0087    5.8312    8.7718 C   0  0  2  0  0  0  0  0  0  0  0  0
    5.1359    6.6076    9.3240 O   0  0  0  0  0  0  0  0  0  0  0  0
    8.7822    6.5828    7.1796 C   0  0  2  0  0  0  0  0  0  0  0  0
    9.1655    6.8690    8.5207 O   0  0  0  0  0  0  0  0  0  0  0  0
   11.9081    8.9376    8.6815 C   0  0  0  0  0  0  0  0  0  0  0  0
   11.4300    9.6491    7.4716 O   0  0  0  0  0  0  0  0  0  0  0  0
    2.7401    6.7233    8.7998 C   0  0  2  0  0  0  0  0  0  0  0  0
    2.2330    6.7851   10.1304 O   0  0  0  0  0  0  0  0  0  0  0  0
    9.3734    7.6729    6.2557 C   0  0  1  0  0  0  0  0  0  0  0  0
   10.8128    7.6046    6.3886 O   0  0  0  0  0  0  0  0  0  0  0  0
    1.6452    6.1666    7.9049 C   0  0  0  0  0  0  0  0  0  0  0  0
   13.8600    7.7824    9.7770 C   0  0  0  0  0  0  0  0  0  0  0  0
   14.9808    5.9362    6.3243 C   0  0  0  0  0  0  0  0  0  0  0  0
  1  2  1  6  0  0  0
  1  6  1  0  0  0  0
  1 23  1  0  0  0  0
  3  4  1  6  0  0  0
  3  8  1  0  0  0  0
  3 30  1  0  0  0  0
  5  9  1  0  0  0  0
  5 27  1  0  0  0  0
  5 31  1  1  0  0  0
  6  7  1  6  0  0  0
  6 11  1  0  0  0  0
  8 13  1  0  0  0  0
  9 10  1  6  0  0  0
  9 15  1  0  0  0  0
 11 12  1  1  0  0  0
 11 17  1  0  0  0  0
 13 14  1  1  0  0  0
 13 19  1  0  0  0  0
 15 16  1  6  0  0  0
 15 20  1  0  0  0  0
 16 34  1  0  0  0  0
 17 18  1  6  0  0  0
 17 22  1  0  0  0  0
 19  2  1  1  0  0  0
 19 24  1  0  0  0  0
 20 21  1  6  0  0  0
 20 26  1  0  0  0  0
 20 33  1  0  0  0  0
 22 23  1  1  0  0  0
 22 28  1  0  0  0  0
 24 25  1  1  0  0  0
 24 30  1  0  0  0  0
 26 27  1  0  0  0  0
 28 29  1  1  0  0  0
 28 32  1  0  0  0  0
 30 31  1  6  0  0  0
M  END
>  <CHROM.1>
-161.97421196,-150.98835987,-87.45480932,44.63389693,95.67848261,-163.46800666
8.48157791,6.68258147,7.71152091,-2.81955322,-0.18394344,-1.10381994

>  <Name>
ligand

>  <RI>
0

>  <Rbt.Current_Directory>
/home/itssahil/PROJECTS/Mol_Feturizer/New_Systems/rnas/3TD1

>  <Rbt.Executable>
rbdock ($Id: //depot/dev/client3/rdock/2013.1/src/exe/rbdock.cxx#4 $)

>  <Rbt.Library>
libRbt.so (2013.1, Build901 2013/11/27)

>  <Rbt.Parameter_File>
/export/apps/rDock/src/rDock_2013.1_src/data/scripts/dock_solv.prm

>  <Rbt.Receptor>
prm/pocket_docking_5.prm

>  <SCORE>
-19.4746

>  <SCORE.INTER>
-15.7585

>  <SCORE.INTER.CONST>
1

>  <SCORE.INTER.POLAR>
0

>  <SCORE.INTER.ROT>
6

>  <SCORE.INTER.SOLV>
20.9572

>  <SCORE.INTER.VDW>
-25.0914

>  <SCORE.INTER.norm>
-0.463485

>  <SCORE.INTRA>
-3.7161

>  <SCORE.INTRA.DIHEDRAL>
-7.43336

>  <SCORE.INTRA.DIHEDRAL.0>
19.5869

>  <SCORE.INTRA.POLAR>
0

>  <SCORE.INTRA.POLAR.0>
0

>  <SCORE.INTRA.REPUL>
0

>  <SCORE.INTRA.REPUL.0>
0

>  <SCORE.INTRA.SOLV>
-0.410678

>  <SCORE.INTRA.SOLV.lig_0>
-70.101

>  <SCORE.INTRA.VDW>
0.205921

>  <SCORE.INTRA.VDW.0>
-3.39718

>  <SCORE.INTRA.norm>
-0.109297

>  <SCORE.RESTR>
0

>  <SCORE.RESTR.CAVITY>
0

>  <SCORE.RESTR.norm>
0

>  <SCORE.SYSTEM>
0

>  <SCORE.SYSTEM.CONST>
0

>  <SCORE.SYSTEM.DIHEDRAL>
0

>  <SCORE.SYSTEM.SOLV>
0

>  <SCORE.SYSTEM.norm>
0

>  <SCORE.heavy>
34

>  <SCORE.norm>
-0.572782

>  <RMSD>
0.844

$$$$
ligand
 OpenBabel11021811483D
libRbt.so/2013.1/901 2013/11/27
 34 36  0  0  0  0  0  0  0  0999 V2000
    6.5011    5.7417    9.4048 C   0  0  2  0  0  0  0  0  0  0  0  0
    6.8097    5.3927    8.0463 O   0  0  0  0  0  0  0  0  0  0  0  0
    8.9602    7.2478    4.8532 C   0  0  2  0  0  0  0  0  0  0  0  0
    9.4640    8.2476    3.9180 N   0  0  0  0  0  0  0  0  0  0  0  0
   11.5968    8.7996    6.3053 C   0  0  2  0  0  0  0  0  0  0  0  0
    6.3280    4.4105   10.2200 C   0  0  2  0  0  0  0  0  0  0  0  0
    7.5642    3.6131   10.2032 N   0  0  0  0  0  0  0  0  0  0  0  0
    7.3972    7.2816    4.7772 C   0  0  0  0  0  0  0  0  0  0  0  0
   13.0995    8.4250    6.0434 C   0  0  2  0  0  0  0  0  0  0  0  0
   13.2120    7.7083    4.8250 O   0  0  0  0  0  0  0  0  0  0  0  0
    5.1656    3.5908    9.6189 C   0  0  1  0  0  0  0  0  0  0  0  0
    4.9964    2.3745   10.3652 O   0  0  0  0  0  0  0  0  0  0  0  0
    6.8559    6.1924    5.7638 C   0  0  2  0  0  0  0  0  0  0  0  0
    5.3791    6.1797    5.7415 N   0  0  0  0  0  0  0  0  0  0  0  0
   13.6246    7.5649    7.2574 C   0  0  1  0  0  0  0  0  0  0  0  0
   15.0496    7.1684    7.0486 N   0  0  0  0  0  0  0  0  0  0  0  0
    3.8824    4.4548    9.6406 C   0  0  2  0  0  0  0  0  0  0  0  0
    2.7922    3.7076    9.0733 O   0  0  0  0  0  0  0  0  0  0  0  0
    7.3338    6.4692    7.2122 C   0  0  2  0  0  0  0  0  0  0  0  0
   13.4787    8.4011    8.5746 C   0  0  1  0  0  0  0  0  0  0  0  0
   14.2731    9.5807    8.4825 O   0  0  0  0  0  0  0  0  0  0  0  0
    4.1249    5.7817    8.8250 C   0  0  2  0  0  0  0  0  0  0  0  0
    5.2581    6.5282    9.4054 O   0  0  0  0  0  0  0  0  0  0  0  0
    8.8824    6.4939    7.2463 C   0  0  2  0  0  0  0  0  0  0  0  0
    9.2973    6.7675    8.5806 O   0  0  0  0  0  0  0  0  0  0  0  0
   11.9791    8.7981    8.7502 C   0  0  0  0  0  0  0  0  0  0  0  0
   11.4904    9.5457    7.5667 O   0  0  0  0  0  0  0  0  0  0  0  0
    2.8769    6.7029    8.8330 C   0  0  2  0  0  0  0  0  0  0  0  0
    2.3849    6.8234   10.1652 O   0  0  0  0  0  0  0  0  0  0  0  0
    9.4460    7.5965    6.3199 C   0  0  1  0  0  0  0  0  0  0  0  0
   10.8885    7.5334    6.4168 O   0  0  0  0  0  0  0  0  0  0  0  0
    1.7608    6.1400    7.9688 C   0  0  0  0  0  0  0  0  0  0  0  0
   13.9453    7.6247    9.8000 C   0  0  0  0  0  0  0  0  0  0  0  0
   15.0712    5.8987    6.2975 C   0  0  0  0  0  0  0  0  0  0  0  0
  1  2  1  6  0  0  0
  1  6  1  0  0  0  0
  1 23  1  0  0  0  0
  3  4  1  6  0  0  0
  3  8  1  0  0  0  0
  3 30  1  0  0  0  0
  5  9  1  0  0  0  0
  5 27  1  0  0  0  0
  5 31  1  1  0  0  0
  6  7  1  6  0  0  0
  6 11  1  0  0  0  0
  8 13  1  0  0  0  0
  9 10  1  6  0  0  0
  9 15  1  0  0  0  0
 11 12  1  1  0  0  0
 11 17  1  0  0  0  0
 13 14  1  1  0  0  0
 13 19  1  0  0  0  0
 15 16  1  6  0  0  0
 15 20  1  0  0  0  0
 16 34  1  0  0  0  0
 17 18  1  6  0  0  0
 17 22  1  0  0  0  0
 19  2  1  1  0  0  0
 19 24  1  0  0  0  0
 20 21  1  6  0  0  0
 20 26  1  0  0  0  0
 20 33  1  0  0  0  0
 22 23  1  1  0  0  0
 22 28  1  0  0  0  0
 24 25  1  1  0  0  0
 24 30  1  0  0  0  0
 26 27  1  0  0  0  0
 28 29  1  1  0  0  0
 28 32  1  0  0  0  0
 30 31  1  6  0  0  0
M  END
>  <CHROM.1>
-165.14013576,-148.51933909,-88.13595451,47.59968436,97.65539795,-164.77566729
8.55988655,6.60942041,7.77402925,-2.81529011,-0.17711699,-1.09016346

>  <Name>
ligand

>  <RI>
0

>  <Rbt.Current_Directory>
/home/itssahil/PROJECTS/Mol_Feturizer/New_Systems/rnas/3TD1

>  <Rbt.Executable>
rbdock ($Id: //depot/dev/client3/rdock/2013.1/src/exe/rbdock.cxx#4 $)

>  <Rbt.Library>
libRbt.so (2013.1, Build901 2013/11/27)

>  <Rbt.Parameter_File>
/export/apps/rDock/src/rDock_2013.1_src/data/scripts/dock_solv.prm

>  <Rbt.Receptor>
prm/pocket_docking_4.prm

>  <SCORE>
-19.2957

>  <SCORE.INTER>
-15.6511

>  <SCORE.INTER.CONST>
1

>  <SCORE.INTER.POLAR>
0

>  <SCORE.INTER.ROT>
6

>  <SCORE.INTER.SOLV>
20.7545

>  <SCORE.INTER.VDW>
-24.9522

>  <SCORE.INTER.norm>
-0.460326

>  <SCORE.INTRA>
-3.64458

>  <SCORE.INTRA.DIHEDRAL>
-7.51177

>  <SCORE.INTRA.DIHEDRAL.0>
19.5869

>  <SCORE.INTRA.POLAR>
0

>  <SCORE.INTRA.POLAR.0>
0

>  <SCORE.INTRA.REPUL>
0

>  <SCORE.INTRA.REPUL.0>
0

>  <SCORE.INTRA.SOLV>
-0.301608

>  <SCORE.INTRA.SOLV.lig_0>
-70.101

>  <SCORE.INTRA.VDW>
0.262102

>  <SCORE.INTRA.VDW.0>
-3.39718

>  <SCORE.INTRA.norm>
-0.107194

>  <SCORE.RESTR>
0

>  <SCORE.RESTR.CAVITY>
0

>  <SCORE.RESTR.norm>
0

>  <SCORE.SYSTEM>
0

>  <SCORE.SYSTEM.CONST>
0

>  <SCORE.SYSTEM.DIHEDRAL>
0

>  <SCORE.SYSTEM.SOLV>
0

>  <SCORE.SYSTEM.norm>
0

>  <SCORE.heavy>
34

>  <SCORE.norm>
-0.56752

>  <RMSD>
0.860

$$$$
ligand
 OpenBabel11021811483D
libRbt.so/2013.1/901 2013/11/27
 34 36  0  0  0  0  0  0  0  0999 V2000
    6.3776    5.8014    9.4032 C   0  0  2  0  0  0  0  0  0  0  0  0
    6.7107    5.4623    8.0480 O   0  0  0  0  0  0  0  0  0  0  0  0
    9.0846    7.3075    5.0113 C   0  0  2  0  0  0  0  0  0  0  0  0
    9.6466    8.3020    4.1040 N   0  0  0  0  0  0  0  0  0  0  0  0
   11.5749    8.9196    6.5937 C   0  0  2  0  0  0  0  0  0  0  0  0
    6.6516    4.5413   10.2997 C   0  0  2  0  0  0  0  0  0  0  0  0
    8.0678    4.1470   10.2428 N   0  0  0  0  0  0  0  0  0  0  0  0
    7.5328    7.3120    4.8071 C   0  0  0  0  0  0  0  0  0  0  0  0
   13.0534    8.5510    6.2126 C   0  0  2  0  0  0  0  0  0  0  0  0
   13.0746    7.8674    4.9704 O   0  0  0  0  0  0  0  0  0  0  0  0
    5.7612    3.3727    9.8244 C   0  0  1  0  0  0  0  0  0  0  0  0
    6.0011    2.2183   10.6457 O   0  0  0  0  0  0  0  0  0  0  0  0
    6.9306    6.2282    5.7641 C   0  0  2  0  0  0  0  0  0  0  0  0
    5.4611    6.1886    5.6213 N   0  0  0  0  0  0  0  0  0  0  0  0
   13.6634    7.6578    7.3614 C   0  0  1  0  0  0  0  0  0  0  0  0
   15.0682    7.2660    7.0385 N   0  0  0  0  0  0  0  0  0  0  0  0
    4.2805    3.8169    9.8857 C   0  0  2  0  0  0  0  0  0  0  0  0
    3.4387    2.7413    9.4352 O   0  0  0  0  0  0  0  0  0  0  0  0
    7.2834    6.5354    7.2419 C   0  0  2  0  0  0  0  0  0  0  0  0
   13.6163    8.4581    8.7079 C   0  0  1  0  0  0  0  0  0  0  0  0
   14.4052    9.6392    8.5898 O   0  0  0  0  0  0  0  0  0  0  0  0
    4.0738    5.0935    8.9844 C   0  0  2  0  0  0  0  0  0  0  0  0
    4.9574    6.1821    9.4450 O   0  0  0  0  0  0  0  0  0  0  0  0
    8.8234    6.5884    7.4021 C   0  0  2  0  0  0  0  0  0  0  0  0
    9.1228    6.8895    8.7611 O   0  0  0  0  0  0  0  0  0  0  0  0
   12.1346    8.8515    9.0031 C   0  0  0  0  0  0  0  0  0  0  0  0
   11.5630    9.6313    7.8791 O   0  0  0  0  0  0  0  0  0  0  0  0
    2.6089    5.6015    9.0266 C   0  0  2  0  0  0  0  0  0  0  0  0
    1.7271    4.5355    8.6840 O   0  0  0  0  0  0  0  0  0  0  0  0
    9.4425    7.6869    6.5068 C   0  0  1  0  0  0  0  0  0  0  0  0
   10.8731    7.6514    6.7224 O   0  0  0  0  0  0  0  0  0  0  0  0
    2.3815    6.7351    8.0402 C   0  0  0  0  0  0  0  0  0  0  0  0
   14.1690    7.6485    9.8744 C   0  0  0  0  0  0  0  0  0  0  0  0
   15.0315    6.0151    6.2570 C   0  0  0  0  0  0  0  0  0  0  0  0
  1  2  1  6  0  0  0
  1  6  1  0  0  0  0
  1 23  1  0  0  0  0
  3  4  1  6  0  0  0
  3  8  1  0  0  0  0
  3 30  1  0  0  0  0
  5  9  1  0  0  0  0
  5 27  1  0  0  0  0
  5 31  1  1  0  0  0
  6  7  1  6  0  0  0
  6 11  1  0  0  0  0
  8 13  1  0  0  0  0
  9 10  1  6  0  0  0
  9 15  1  0  0  0  0
 11 12  1  1  0  0  0
 11 17  1  0  0  0  0
 13 14  1  1  0  0  0
 13 19  1  0  0  0  0
 15 16  1  6  0  0  0
 15 20  1  0  0  0  0
 16 34  1  0  0  0  0
 17 18  1  6  0  0  0
 17 22  1  0  0  0  0
 19  2  1  1  0  0  0
 19 24  1  0  0  0  0
 20 21  1  6  0  0  0
 20 26  1  0  0  0  0
 20 33  1  0  0  0  0
 22 23  1  1  0  0  0
 22 28  1  0  0  0  0
 24 25  1  1  0  0  0
 24 30  1  0  0  0  0
 26 27  1  0  0  0  0
 28 29  1  6  0  0  0
 28 32  1  0  0  0  0
 30 31  1  6  0  0  0
M  END
>  <CHROM.1>
-145.15207448,-152.97566376,-88.29039342,-54.21637210,95.19849795,-154.66976874
8.66026261,6.50458244,7.85314540,-2.79509771,-0.22361334,-1.02942355

>  <Name>
ligand

>  <RI>
0

>  <Rbt.Current_Directory>
/home/itssahil/PROJECTS/Mol_Feturizer/New_Systems/rnas/3TD1

>  <Rbt.Executable>
rbdock ($Id: //depot/dev/client3/rdock/2013.1/src/exe/rbdock.cxx#4 $)

>  <Rbt.Library>
libRbt.so (2013.1, Build901 2013/11/27)

>  <Rbt.Parameter_File>
/export/apps/rDock/src/rDock_2013.1_src/data/scripts/dock_solv.prm

>  <Rbt.Receptor>
prm/pocket_docking_2.prm

>  <SCORE>
-17.9554

>  <SCORE.INTER>
-15.9761

>  <SCORE.INTER.CONST>
1

>  <SCORE.INTER.POLAR>
0

>  <SCORE.INTER.ROT>
6

>  <SCORE.INTER.SOLV>
19.0619

>  <SCORE.INTER.VDW>
-24.6047

>  <SCORE.INTER.norm>
-0.469884

>  <SCORE.INTRA>
-1.98102

>  <SCORE.INTRA.DIHEDRAL>
-4.07665

>  <SCORE.INTRA.DIHEDRAL.0>
19.5869

>  <SCORE.INTRA.POLAR>
0

>  <SCORE.INTRA.POLAR.0>
0

>  <SCORE.INTRA.REPUL>
0

>  <SCORE.INTRA.REPUL.0>
0

>  <SCORE.INTRA.SOLV>
0.23041

>  <SCORE.INTRA.SOLV.lig_0>
-70.101

>  <SCORE.INTRA.VDW>
-0.0579056

>  <SCORE.INTRA.VDW.0>
-3.39718

>  <SCORE.INTRA.norm>
-0.0582654

>  <SCORE.RESTR>
0.0016606

>  <SCORE.RESTR.CAVITY>
0.0016606

>  <SCORE.RESTR.norm>
4.88411e-05

>  <SCORE.SYSTEM>
0

>  <SCORE.SYSTEM.CONST>
0

>  <SCORE.SYSTEM.DIHEDRAL>
0

>  <SCORE.SYSTEM.SOLV>
0

>  <SCORE.SYSTEM.norm>
0

>  <SCORE.heavy>
34

>  <SCORE.norm>
-0.5281

>  <RMSD>
0.876

$$$$
ligand
 OpenBabel11021811483D
libRbt.so/2013.1/901 2013/11/27
 34 36  0  0  0  0  0  0  0  0999 V2000
    6.4128    5.7050    9.4860 C   0  0  2  0  0  0  0  0  0  0  0  0
    6.7929    5.3720    8.1417 O   0  0  0  0  0  0  0  0  0  0  0  0
    9.0711    7.2920    5.0782 C   0  0  2  0  0  0  0  0  0  0  0  0
    9.6011    8.3075    4.1749 N   0  0  0  0  0  0  0  0  0  0  0  0
   11.5888    8.8968    6.6262 C   0  0  2  0  0  0  0  0  0  0  0  0
    6.6276    4.4319   10.3801 C   0  0  2  0  0  0  0  0  0  0  0  0
    8.0373    4.0113   10.3752 N   0  0  0  0  0  0  0  0  0  0  0  0
    7.5145    7.2869    4.9148 C   0  0  0  0  0  0  0  0  0  0  0  0
   13.0699    8.5469    6.2375 C   0  0  2  0  0  0  0  0  0  0  0  0
   13.0943    7.8727    4.9903 O   0  0  0  0  0  0  0  0  0  0  0  0
    5.7350    3.2848    9.8586 C   0  0  1  0  0  0  0  0  0  0  0  0
    5.9207    2.1186   10.6773 O   0  0  0  0  0  0  0  0  0  0  0  0
    6.9465    6.1809    5.8672 C   0  0  2  0  0  0  0  0  0  0  0  0
    5.4741    6.1312    5.7621 N   0  0  0  0  0  0  0  0  0  0  0  0
   13.6934    7.6521    7.3777 C   0  0  1  0  0  0  0  0  0  0  0  0
   15.1012    7.2779    7.0473 N   0  0  0  0  0  0  0  0  0  0  0  0
    4.2616    3.7564    9.8659 C   0  0  2  0  0  0  0  0  0  0  0  0
    3.4184    2.7011    9.3720 O   0  0  0  0  0  0  0  0  0  0  0  0
    7.3355    6.4643    7.3407 C   0  0  2  0  0  0  0  0  0  0  0  0
   13.6423    8.4421    8.7301 C   0  0  1  0  0  0  0  0  0  0  0  0
   14.4180    9.6324    8.6180 O   0  0  0  0  0  0  0  0  0  0  0  0
    4.1146    5.0448    8.9697 C   0  0  2  0  0  0  0  0  0  0  0  0
    4.9994    6.1123    9.4755 O   0  0  0  0  0  0  0  0  0  0  0  0
    8.8787    6.5277    7.4615 C   0  0  2  0  0  0  0  0  0  0  0  0
    9.2112    6.8067    8.8175 O   0  0  0  0  0  0  0  0  0  0  0  0
   12.1575    8.8174    9.0332 C   0  0  0  0  0  0  0  0  0  0  0  0
   11.5736    9.5991    7.9168 O   0  0  0  0  0  0  0  0  0  0  0  0
    2.6589    5.5802    8.9592 C   0  0  2  0  0  0  0  0  0  0  0  0
    1.7782    4.5511    8.5159 O   0  0  0  0  0  0  0  0  0  0  0  0
    9.4652    7.6474    6.5706 C   0  0  1  0  0  0  0  0  0  0  0  0
   10.9012    7.6202    6.7480 O   0  0  0  0  0  0  0  0  0  0  0  0
    2.5059    6.7661    8.0211 C   0  0  0  0  0  0  0  0  0  0  0  0
   14.2076    7.6301    9.8889 C   0  0  0  0  0  0  0  0  0  0  0  0
   15.0752    6.0334    6.2552 C   0  0  0  0  0  0  0  0  0  0  0  0
  1  2  1  6  0  0  0
  1  6  1  0  0  0  0
  1 23  1  0  0  0  0
  3  4  1  6  0  0  0
  3  8  1  0  0  0  0
  3 30  1  0  0  0  0
  5  9  1  0  0  0  0
  5 27  1  0  0  0  0
  5 31  1  1  0  0  0
  6  7  1  6  0  0  0
  6 11  1  0  0  0  0
  8 13  1  0  0  0  0
  9 10  1  6  0  0  0
  9 15  1  0  0  0  0
 11 12  1  1  0  0  0
 11 17  1  0  0  0  0
 13 14  1  1  0  0  0
 13 19  1  0  0  0  0
 15 16  1  6  0  0  0
 15 20  1  0  0  0  0
 16 34  1  0  0  0  0
 17 18  1  6  0  0  0
 17 22  1  0  0  0  0
 19  2  1  1  0  0  0
 19 24  1  0  0  0  0
 20 21  1  6  0  0  0
 20 26  1  0  0  0  0
 20 33  1  0  0  0  0
 22 23  1  1  0  0  0
 22 28  1  0  0  0  0
 24 25  1  1  0  0  0
 24 30  1  0  0  0  0
 26 27  1  0  0  0  0
 28 29  1  6  0  0  0
 28 32  1  0  0  0  0
 30 31  1  6  0  0  0
M  END
>  <CHROM.1>
-149.05771051,-149.13407395,-88.20977615,-56.71484116,95.28670725,-156.16239284
8.68107983,6.46542796,7.88588124,-2.79102540,-0.22390956,-1.01094430

>  <Name>
ligand

>  <RI>
0

>  <Rbt.Current_Directory>
/home/itssahil/PROJECTS/Mol_Feturizer/New_Systems/rnas/3TD1

>  <Rbt.Executable>
rbdock ($Id: //depot/dev/client3/rdock/2013.1/src/exe/rbdock.cxx#4 $)

>  <Rbt.Library>
libRbt.so (2013.1, Build901 2013/11/27)

>  <Rbt.Parameter_File>
/export/apps/rDock/src/rDock_2013.1_src/data/scripts/dock_solv.prm

>  <Rbt.Receptor>
prm/pocket_docking_2.prm

>  <SCORE>
-17.9975

>  <SCORE.INTER>
-15.7947

>  <SCORE.INTER.CONST>
1

>  <SCORE.INTER.POLAR>
0

>  <SCORE.INTER.ROT>
6

>  <SCORE.INTER.SOLV>
18.9345

>  <SCORE.INTER.VDW>
-24.4413

>  <SCORE.INTER.norm>
-0.46455

>  <SCORE.INTRA>
-2.20688

>  <SCORE.INTRA.DIHEDRAL>
-4.42279

>  <SCORE.INTRA.DIHEDRAL.0>
19.5869

>  <SCORE.INTRA.POLAR>
0

>  <SCORE.INTRA.POLAR.0>
0

>  <SCORE.INTRA.REPUL>
0

>  <SCORE.INTRA.REPUL.0>
0

>  <SCORE.INTRA.SOLV>
0.380154

>  <SCORE.INTRA.SOLV.lig_0>
-70.101

>  <SCORE.INTRA.VDW>
-0.185565

>  <SCORE.INTRA.VDW.0>
-3.39718

>  <SCORE.INTRA.norm>
-0.0649083

>  <SCORE.RESTR>
0.00411906

>  <SCORE.RESTR.CAVITY>
0.00411906

>  <SCORE.RESTR.norm>
0.000121149

>  <SCORE.SYSTEM>
0

>  <SCORE.SYSTEM.CONST>
0

>  <SCORE.SYSTEM.DIHEDRAL>
0

>  <SCORE.SYSTEM.SOLV>
0

>  <SCORE.SYSTEM.norm>
0

>  <SCORE.heavy>
34

>  <SCORE.norm>
-0.529337

>  <RMSD>
0.891

$$$$
ligand
 OpenBabel11021811483D
libRbt.so/2013.1/901 2013/11/27
 34 36  0  0  0  0  0  0  0  0999 V2000
    6.3006    5.7525    9.4323 C   0  0  2  0  0  0  0  0  0  0  0  0
    6.6293    5.4163    8.0753 O   0  0  0  0  0  0  0  0  0  0  0  0
    8.8769    7.2953    4.9642 C   0  0  2  0  0  0  0  0  0  0  0  0
    9.4046    8.3008    4.0484 N   0  0  0  0  0  0  0  0  0  0  0  0
   11.4481    8.8644    6.4539 C   0  0  2  0  0  0  0  0  0  0  0  0
    6.5678    4.4873   10.3236 C   0  0  2  0  0  0  0  0  0  0  0  0
    7.9813    4.0841   10.2630 N   0  0  0  0  0  0  0  0  0  0  0  0
    7.3176    7.3133    4.8306 C   0  0  0  0  0  0  0  0  0  0  0  0
   12.9366    8.4870    6.1237 C   0  0  2  0  0  0  0  0  0  0  0  0
   12.9921    7.7699    4.9017 O   0  0  0  0  0  0  0  0  0  0  0  0
    5.6690    3.3263    9.8454 C   0  0  1  0  0  0  0  0  0  0  0  0
    5.9027    2.1673   10.6620 O   0  0  0  0  0  0  0  0  0  0  0  0
    6.7515    6.2179    5.7963 C   0  0  2  0  0  0  0  0  0  0  0  0
    5.2767    6.1902    5.7196 N   0  0  0  0  0  0  0  0  0  0  0  0
   13.5150    7.6261    7.3128 C   0  0  1  0  0  0  0  0  0  0  0  0
   14.9283    7.2270    7.0393 N   0  0  0  0  0  0  0  0  0  0  0  0
    4.1913    3.7799    9.9107 C   0  0  2  0  0  0  0  0  0  0  0  0
    3.3419    2.7114    9.4575 O   0  0  0  0  0  0  0  0  0  0  0  0
    7.1728    6.4987    7.2614 C   0  0  2  0  0  0  0  0  0  0  0  0
   13.4309    8.4628    8.6351 C   0  0  1  0  0  0  0  0  0  0  0  0
   14.2225    9.6409    8.5065 O   0  0  0  0  0  0  0  0  0  0  0  0
    3.9916    5.0611    9.0145 C   0  0  2  0  0  0  0  0  0  0  0  0
    4.8829    6.1423    9.4778 O   0  0  0  0  0  0  0  0  0  0  0  0
    8.7187    6.5391    7.3525 C   0  0  2  0  0  0  0  0  0  0  0  0
    9.0814    6.8160    8.7013 O   0  0  0  0  0  0  0  0  0  0  0  0
   11.9416    8.8626    8.8788 C   0  0  0  0  0  0  0  0  0  0  0  0
   11.4008    9.6110    7.7186 O   0  0  0  0  0  0  0  0  0  0  0  0
    2.5300    5.5785    9.0609 C   0  0  2  0  0  0  0  0  0  0  0  0
    1.6421    4.5251    8.6957 O   0  0  0  0  0  0  0  0  0  0  0  0
    9.3048    7.6480    6.4479 C   0  0  1  0  0  0  0  0  0  0  0  0
   10.7434    7.5996    6.5979 O   0  0  0  0  0  0  0  0  0  0  0  0
    2.3140    6.7316    8.0948 C   0  0  0  0  0  0  0  0  0  0  0  0
   13.9515    7.6857    9.8380 C   0  0  0  0  0  0  0  0  0  0  0  0
   14.9132    5.9570    6.2883 C   0  0  0  0  0  0  0  0  0  0  0  0
  1  2  1  6  0  0  0
  1  6  1  0  0  0  0
  1 23  1  0  0  0  0
  3  4  1  6  0  0  0
  3  8  1  0  0  0  0
  3 30  1  0  0  0  0
  5  9  1  0  0  0  0
  5 27  1  0  0  0  0
  5 31  1  1  0  0  0
  6  7  1  6  0  0  0
  6 11  1  0  0  0  0
  8 13  1  0  0  0  0
  9 10  1  6  0  0  0
  9 15  1  0  0  0  0
 11 12  1  1  0  0  0
 11 17  1  0  0  0  0
 13 14  1  1  0  0  0
 13 19  1  0  0  0  0
 15 16  1  6  0  0  0
 15 20  1  0  0  0  0
 16 34  1  0  0  0  0
 17 18  1  6  0  0  0
 17 22  1  0  0  0  0
 19  2  1  1  0  0  0
 19 24  1  0  0  0  0
 20 21  1  6  0  0  0
 20 26  1  0  0  0  0
 20 33  1  0  0  0  0
 22 23  1  1  0  0  0
 22 28  1  0  0  0  0
 24 25  1  1  0  0  0
 24 30  1  0  0  0  0
 26 27  1  0  0  0  0
 28 29  1  6  0  0  0
 28 32  1  0  0  0  0
 30 31  1  6  0  0  0
M  END
>  <CHROM.1>
-146.80912503,-150.11741569,-88.13785299,-55.10890820,95.02268485,-159.45759619
8.53408547,6.47295849,7.83313434,-2.78018232,-0.21393821,-1.01279088

>  <Name>
ligand

>  <RI>
0

>  <Rbt.Current_Directory>
/home/itssahil/PROJECTS/Mol_Feturizer/New_Systems/rnas/3TD1

>  <Rbt.Executable>
rbdock ($Id: //depot/dev/client3/rdock/2013.1/src/exe/rbdock.cxx#4 $)

>  <Rbt.Library>
libRbt.so (2013.1, Build901 2013/11/27)

>  <Rbt.Parameter_File>
/export/apps/rDock/src/rDock_2013.1_src/data/scripts/dock_solv.prm

>  <Rbt.Receptor>
prm/pocket_docking_2.prm

>  <SCORE>
-17.9078

>  <SCORE.INTER>
-15.5297

>  <SCORE.INTER.CONST>
1

>  <SCORE.INTER.POLAR>
0

>  <SCORE.INTER.ROT>
6

>  <SCORE.INTER.SOLV>
19.0878

>  <SCORE.INTER.VDW>
-24.3157

>  <SCORE.INTER.norm>
-0.456756

>  <SCORE.INTRA>
-2.37814

>  <SCORE.INTRA.DIHEDRAL>
-4.75401

>  <SCORE.INTRA.DIHEDRAL.0>
19.5869

>  <SCORE.INTRA.POLAR>
0

>  <SCORE.INTRA.POLAR.0>
0

>  <SCORE.INTRA.REPUL>
0

>  <SCORE.INTRA.REPUL.0>
0

>  <SCORE.INTRA.SOLV>
0.244773

>  <SCORE.INTRA.SOLV.lig_0>
-70.101

>  <SCORE.INTRA.VDW>
-0.123516

>  <SCORE.INTRA.VDW.0>
-3.39718

>  <SCORE.INTRA.norm>
-0.0699452

>  <SCORE.RESTR>
0

>  <SCORE.RESTR.CAVITY>
0

>  <SCORE.RESTR.norm>
0

>  <SCORE.SYSTEM>
0

>  <SCORE.SYSTEM.CONST>
0

>  <SCORE.SYSTEM.DIHEDRAL>
0

>  <SCORE.SYSTEM.SOLV>
0

>  <SCORE.SYSTEM.norm>
0

>  <SCORE.heavy>
34

>  <SCORE.norm>
-0.526701

>  <RMSD>
0.908

$$$$
ligand
 OpenBabel11021811483D
libRbt.so/2013.1/901 2013/11/27
 34 36  0  0  0  0  0  0  0  0999 V2000
    6.2255    6.0035    9.2881 C   0  0  2  0  0  0  0  0  0  0  0  0
    6.4434    5.6718    7.9079 O   0  0  0  0  0  0  0  0  0  0  0  0
    9.0419    7.3476    4.9581 C   0  0  2  0  0  0  0  0  0  0  0  0
    9.6791    8.2932    4.0482 N   0  0  0  0  0  0  0  0  0  0  0  0
   11.4595    8.9814    6.5936 C   0  0  2  0  0  0  0  0  0  0  0  0
    6.6647    4.7718   10.1579 C   0  0  2  0  0  0  0  0  0  0  0  0
    8.0901    4.4648    9.9621 N   0  0  0  0  0  0  0  0  0  0  0  0
    7.5071    7.3659    4.6522 C   0  0  0  0  0  0  0  0  0  0  0  0
   12.9196    8.5566    6.2004 C   0  0  2  0  0  0  0  0  0  0  0  0
   12.8999    7.8401    4.9769 O   0  0  0  0  0  0  0  0  0  0  0  0
    5.8060    3.5459    9.7780 C   0  0  1  0  0  0  0  0  0  0  0  0
    6.1973    2.4168   10.5759 O   0  0  0  0  0  0  0  0  0  0  0  0
    6.8250    6.3339    5.6128 C   0  0  2  0  0  0  0  0  0  0  0  0
    5.3674    6.3095    5.3754 N   0  0  0  0  0  0  0  0  0  0  0  0
   13.5198    7.6756    7.3636 C   0  0  1  0  0  0  0  0  0  0  0  0
   14.9065    7.2315    7.0303 N   0  0  0  0  0  0  0  0  0  0  0  0
    4.3139    3.8988    9.9844 C   0  0  2  0  0  0  0  0  0  0  0  0
    3.5002    2.7689    9.6240 O   0  0  0  0  0  0  0  0  0  0  0  0
    7.0860    6.7002    7.0962 C   0  0  2  0  0  0  0  0  0  0  0  0
   13.5190    8.5124    8.6885 C   0  0  1  0  0  0  0  0  0  0  0  0
   14.3421    9.6645    8.5267 O   0  0  0  0  0  0  0  0  0  0  0  0
    3.9401    5.1510    9.1030 C   0  0  2  0  0  0  0  0  0  0  0  0
    4.7955    6.2966    9.4693 O   0  0  0  0  0  0  0  0  0  0  0  0
    8.6130    6.7376    7.3550 C   0  0  2  0  0  0  0  0  0  0  0  0
    8.8284    7.0935    8.7167 O   0  0  0  0  0  0  0  0  0  0  0  0
   12.0550    8.9598    8.9953 C   0  0  0  0  0  0  0  0  0  0  0  0
   11.4900    9.7271    7.8593 O   0  0  0  0  0  0  0  0  0  0  0  0
    2.4578    5.5684    9.2885 C   0  0  2  0  0  0  0  0  0  0  0  0
    1.6126    4.4573    9.0014 O   0  0  0  0  0  0  0  0  0  0  0  0
    9.3083    7.7868    6.4564 C   0  0  1  0  0  0  0  0  0  0  0  0
   10.7209    7.7398    6.7670 O   0  0  0  0  0  0  0  0  0  0  0  0
    2.0753    6.7039    8.3536 C   0  0  0  0  0  0  0  0  0  0  0  0
   14.0647    7.7170    9.8680 C   0  0  0  0  0  0  0  0  0  0  0  0
   14.8202    5.9459    6.3113 C   0  0  0  0  0  0  0  0  0  0  0  0
  1  2  1  6  0  0  0
  1  6  1  0  0  0  0
  1 23  1  0  0  0  0
  3  4  1  6  0  0  0
  3  8  1  0  0  0  0
  3 30  1  0  0  0  0
  5  9  1  0  0  0  0
  5 27  1  0  0  0  0
  5 31  1  1  0  0  0
  6  7  1  6  0  0  0
  6 11  1  0  0  0  0
  8 13  1  0  0  0  0
  9 10  1  6  0  0  0
  9 15  1  0  0  0  0
 11 12  1  1  0  0  0
 11 17  1  0  0  0  0
 13 14  1  1  0  0  0
 13 19  1  0  0  0  0
 15 16  1  6  0  0  0
 15 20  1  0  0  0  0
 16 34  1  0  0  0  0
 17 18  1  6  0  0  0
 17 22  1  0  0  0  0
 19  2  1  1  0  0  0
 19 24  1  0  0  0  0
 20 21  1  6  0  0  0
 20 26  1  0  0  0  0
 20 33  1  0  0  0  0
 22 23  1  1  0  0  0
 22 28  1  0  0  0  0
 24 25  1  1  0  0  0
 24 30  1  0  0  0  0
 26 27  1  0  0  0  0
 28 29  1  6  0  0  0
 28 32  1  0  0  0  0
 30 31  1  1  0  0  0
M  END
>  <CHROM.1>
-134.79142380,-162.72691957,-89.60653517,-55.90265958,93.47768911,-149.34489192
8.55664391,6.58602454,7.84256246,-2.79698390,-0.22263830,-1.05944212

>  <Name>
ligand

>  <RI>
0

>  <Rbt.Current_Directory>
/home/itssahil/PROJECTS/Mol_Feturizer/New_Systems/rnas/3TD1

>  <Rbt.Executable>
rbdock ($Id: //depot/dev/client3/rdock/2013.1/src/exe/rbdock.cxx#4 $)

>  <Rbt.Library>
libRbt.so (2013.1, Build901 2013/11/27)

>  <Rbt.Parameter_File>
/export/apps/rDock/src/rDock_2013.1_src/data/scripts/dock_solv.prm

>  <Rbt.Receptor>
prm/pocket_docking_2.prm

>  <SCORE>
-17.7732

>  <SCORE.INTER>
-16.2417

>  <SCORE.INTER.CONST>
1

>  <SCORE.INTER.POLAR>
0

>  <SCORE.INTER.ROT>
6

>  <SCORE.INTER.SOLV>
19.8421

>  <SCORE.INTER.VDW>
-25.0418

>  <SCORE.INTER.norm>
-0.477696

>  <SCORE.INTRA>
-1.53154

>  <SCORE.INTRA.DIHEDRAL>
-3.41416

>  <SCORE.INTRA.DIHEDRAL.0>
19.5869

>  <SCORE.INTRA.POLAR>
0

>  <SCORE.INTRA.POLAR.0>
0

>  <SCORE.INTRA.REPUL>
0

>  <SCORE.INTRA.REPUL.0>
0

>  <SCORE.INTRA.SOLV>
0.0605845

>  <SCORE.INTRA.SOLV.lig_0>
-70.101

>  <SCORE.INTRA.VDW>
0.145252

>  <SCORE.INTRA.VDW.0>
-3.39718

>  <SCORE.INTRA.norm>
-0.0450452

>  <SCORE.RESTR>
0

>  <SCORE.RESTR.CAVITY>
0

>  <SCORE.RESTR.norm>
0

>  <SCORE.SYSTEM>
0

>  <SCORE.SYSTEM.CONST>
0

>  <SCORE.SYSTEM.DIHEDRAL>
0

>  <SCORE.SYSTEM.SOLV>
0

>  <SCORE.SYSTEM.norm>
0

>  <SCORE.heavy>
34

>  <SCORE.norm>
-0.522741

>  <RMSD>
0.910

$$$$
ligand
 OpenBabel11021811483D
libRbt.so/2013.1/901 2013/11/27
 34 36  0  0  0  0  0  0  0  0999 V2000
    6.2726    5.8211    9.3047 C   0  0  2  0  0  0  0  0  0  0  0  0
    6.5280    5.5071    7.9268 O   0  0  0  0  0  0  0  0  0  0  0  0
    8.9166    7.3324    4.8897 C   0  0  2  0  0  0  0  0  0  0  0  0
    9.4906    8.3234    3.9860 N   0  0  0  0  0  0  0  0  0  0  0  0
   11.4490    8.8815    6.4206 C   0  0  2  0  0  0  0  0  0  0  0  0
    6.6268    4.5552   10.1641 C   0  0  2  0  0  0  0  0  0  0  0  0
    8.0443    4.1914   10.0144 N   0  0  0  0  0  0  0  0  0  0  0  0
    7.3641    7.3646    4.6940 C   0  0  0  0  0  0  0  0  0  0  0  0
   12.9332    8.4680    6.1149 C   0  0  2  0  0  0  0  0  0  0  0  0
   12.9861    7.7159    4.9139 O   0  0  0  0  0  0  0  0  0  0  0  0
    5.7322    3.3747    9.7276 C   0  0  1  0  0  0  0  0  0  0  0  0
    6.0456    2.2147   10.5156 O   0  0  0  0  0  0  0  0  0  0  0  0
    6.7487    6.2847    5.6469 C   0  0  2  0  0  0  0  0  0  0  0  0
    5.2780    6.2710    5.5118 N   0  0  0  0  0  0  0  0  0  0  0  0
   13.4852    7.6305    7.3329 C   0  0  1  0  0  0  0  0  0  0  0  0
   14.8932    7.1983    7.0838 N   0  0  0  0  0  0  0  0  0  0  0  0
    4.2495    3.7869    9.8864 C   0  0  2  0  0  0  0  0  0  0  0  0
    3.4033    2.7000    9.4730 O   0  0  0  0  0  0  0  0  0  0  0  0
    7.1145    6.5758    7.1248 C   0  0  2  0  0  0  0  0  0  0  0  0
   13.4048    8.5054    8.6304 C   0  0  1  0  0  0  0  0  0  0  0  0
   14.2191    9.6649    8.4763 O   0  0  0  0  0  0  0  0  0  0  0  0
    3.9620    5.0708    9.0182 C   0  0  2  0  0  0  0  0  0  0  0  0
    4.8504    6.1714    9.4394 O   0  0  0  0  0  0  0  0  0  0  0  0
    8.6560    6.6016    7.2769 C   0  0  2  0  0  0  0  0  0  0  0  0
    8.9677    6.8883    8.6363 O   0  0  0  0  0  0  0  0  0  0  0  0
   11.9210    8.9389    8.8490 C   0  0  0  0  0  0  0  0  0  0  0  0
   11.4044    9.6640    7.6634 O   0  0  0  0  0  0  0  0  0  0  0  0
    2.4926    5.5474    9.1580 C   0  0  2  0  0  0  0  0  0  0  0  0
    1.6134    4.4923    8.7772 O   0  0  0  0  0  0  0  0  0  0  0  0
    9.2890    7.6955    6.3857 C   0  0  1  0  0  0  0  0  0  0  0  0
   10.7199    7.6342    6.5932 O   0  0  0  0  0  0  0  0  0  0  0  0
    2.2055    6.7437    8.2656 C   0  0  0  0  0  0  0  0  0  0  0  0
   13.9005    7.7532    9.8594 C   0  0  0  0  0  0  0  0  0  0  0  0
   14.8612    5.9144    6.3575 C   0  0  0  0  0  0  0  0  0  0  0  0
  1  2  1  6  0  0  0
  1  6  1  0  0  0  0
  1 23  1  0  0  0  0
  3  4  1  6  0  0  0
  3  8  1  0  0  0  0
  3 30  1  0  0  0  0
  5  9  1  0  0  0  0
  5 27  1  0  0  0  0
  5 31  1  1  0  0  0
  6  7  1  6  0  0  0
  6 11  1  0  0  0  0
  8 13  1  0  0  0  0
  9 10  1  6  0  0  0
  9 15  1  0  0  0  0
 11 12  1  1  0  0  0
 11 17  1  0  0  0  0
 13 14  1  1  0  0  0
 13 19  1  0  0  0  0
 15 16  1  6  0  0  0
 15 20  1  0  0  0  0
 16 34  1  0  0  0  0
 17 18  1  6  0  0  0
 17 22  1  0  0  0  0
 19  2  1  1  0  0  0
 19 24  1  0  0  0  0
 20 21  1  6  0  0  0
 20 26  1  0  0  0  0
 20 33  1  0  0  0  0
 22 23  1  1  0  0  0
 22 28  1  0  0  0  0
 24 25  1  1  0  0  0
 24 30  1  0  0  0  0
 26 27  1  0  0  0  0
 28 29  1  6  0  0  0
 28 32  1  0  0  0  0
 30 31  1  6  0  0  0
M  END
>  <CHROM.1>
-141.08022318,-156.11421927,-87.62466489,-57.68898591,93.00003750,-157.51041847
8.52632879,6.50502084,7.78718202,-2.78394169,-0.21474070,-1.01616335

>  <Name>
ligand

>  <RI>
0

>  <Rbt.Current_Directory>
/home/itssahil/PROJECTS/Mol_Feturizer/New_Systems/rnas/3TD1

>  <Rbt.Executable>
rbdock ($Id: //depot/dev/client3/rdock/2013.1/src/exe/rbdock.cxx#4 $)

>  <Rbt.Library>
libRbt.so (2013.1, Build901 2013/11/27)

>  <Rbt.Parameter_File>
/export/apps/rDock/src/rDock_2013.1_src/data/scripts/dock_solv.prm

>  <Rbt.Receptor>
prm/pocket_docking_2.prm

>  <SCORE>
-18.0227

>  <SCORE.INTER>
-15.5732

>  <SCORE.INTER.CONST>
1

>  <SCORE.INTER.POLAR>
0

>  <SCORE.INTER.ROT>
6

>  <SCORE.INTER.SOLV>
19.1529

>  <SCORE.INTER.VDW>
-24.3665

>  <SCORE.INTER.norm>
-0.458036

>  <SCORE.INTRA>
-2.44946

>  <SCORE.INTRA.DIHEDRAL>
-4.96572

>  <SCORE.INTRA.DIHEDRAL.0>
19.5869

>  <SCORE.INTRA.POLAR>
0

>  <SCORE.INTRA.POLAR.0>
0

>  <SCORE.INTRA.REPUL>
0

>  <SCORE.INTRA.REPUL.0>
0

>  <SCORE.INTRA.SOLV>
-0.0350907

>  <SCORE.INTRA.SOLV.lig_0>
-70.101

>  <SCORE.INTRA.VDW>
0.0509475

>  <SCORE.INTRA.VDW.0>
-3.39718

>  <SCORE.INTRA.norm>
-0.0720429

>  <SCORE.RESTR>
0

>  <SCORE.RESTR.CAVITY>
0

>  <SCORE.RESTR.norm>
0

>  <SCORE.SYSTEM>
0

>  <SCORE.SYSTEM.CONST>
0

>  <SCORE.SYSTEM.DIHEDRAL>
0

>  <SCORE.SYSTEM.SOLV>
0

>  <SCORE.SYSTEM.norm>
0

>  <SCORE.heavy>
34

>  <SCORE.norm>
-0.530078

>  <RMSD>
0.910

$$$$
ligand
 OpenBabel11021811483D
libRbt.so/2013.1/901 2013/11/27
 34 36  0  0  0  0  0  0  0  0999 V2000
    6.3272    5.8766    9.2934 C   0  0  2  0  0  0  0  0  0  0  0  0
    6.4989    5.5736    7.9001 O   0  0  0  0  0  0  0  0  0  0  0  0
    8.9281    7.3347    4.8572 C   0  0  2  0  0  0  0  0  0  0  0  0
    9.5160    8.3070    3.9422 N   0  0  0  0  0  0  0  0  0  0  0  0
   11.4446    8.9093    6.4233 C   0  0  2  0  0  0  0  0  0  0  0  0
    6.6887    4.5895   10.1176 C   0  0  2  0  0  0  0  0  0  0  0  0
    8.0847    4.1863    9.8874 N   0  0  0  0  0  0  0  0  0  0  0  0
    7.3779    7.3694    4.6438 C   0  0  0  0  0  0  0  0  0  0  0  0
   12.9306    8.4990    6.1224 C   0  0  2  0  0  0  0  0  0  0  0  0
   12.9914    7.7626    4.9120 O   0  0  0  0  0  0  0  0  0  0  0  0
    5.7371    3.4416    9.7160 C   0  0  1  0  0  0  0  0  0  0  0  0
    6.0572    2.2626   10.4723 O   0  0  0  0  0  0  0  0  0  0  0  0
    6.7478    6.3092    5.6092 C   0  0  2  0  0  0  0  0  0  0  0  0
    5.2785    6.2987    5.4582 N   0  0  0  0  0  0  0  0  0  0  0  0
   13.4740    7.6454    7.3330 C   0  0  1  0  0  0  0  0  0  0  0  0
   14.8835    7.2158    7.0878 N   0  0  0  0  0  0  0  0  0  0  0  0
    4.2780    3.8950    9.9593 C   0  0  2  0  0  0  0  0  0  0  0  0
    3.3786    2.8390    9.5793 O   0  0  0  0  0  0  0  0  0  0  0  0
    7.0985    6.6254    7.0856 C   0  0  2  0  0  0  0  0  0  0  0  0
   13.3853    8.5034    8.6413 C   0  0  1  0  0  0  0  0  0  0  0  0
   14.2010    9.6643    8.5078 O   0  0  0  0  0  0  0  0  0  0  0  0
    3.9831    5.1982    9.1230 C   0  0  2  0  0  0  0  0  0  0  0  0
    4.9254    6.2667    9.5086 O   0  0  0  0  0  0  0  0  0  0  0  0
    8.6384    6.6480    7.2541 C   0  0  2  0  0  0  0  0  0  0  0  0
    8.9364    6.9580    8.6115 O   0  0  0  0  0  0  0  0  0  0  0  0
   11.9002    8.9348    8.8554 C   0  0  0  0  0  0  0  0  0  0  0  0
   11.3919    9.6755    7.6759 O   0  0  0  0  0  0  0  0  0  0  0  0
    2.5382    5.7159    9.3473 C   0  0  2  0  0  0  0  0  0  0  0  0
    1.6117    4.6659    9.0820 O   0  0  0  0  0  0  0  0  0  0  0  0
    9.2855    7.7233    6.3505 C   0  0  1  0  0  0  0  0  0  0  0  0
   10.7138    7.6602    6.5748 O   0  0  0  0  0  0  0  0  0  0  0  0
    2.2103    6.8768    8.4229 C   0  0  0  0  0  0  0  0  0  0  0  0
   13.8723    7.7349    9.8636 C   0  0  0  0  0  0  0  0  0  0  0  0
   14.8559    5.9301    6.3644 C   0  0  0  0  0  0  0  0  0  0  0  0
  1  2  1  6  0  0  0
  1  6  1  0  0  0  0
  1 23  1  0  0  0  0
  3  4  1  6  0  0  0
  3  8  1  0  0  0  0
  3 30  1  0  0  0  0
  5  9  1  0  0  0  0
  5 27  1  0  0  0  0
  5 31  1  1  0  0  0
  6  7  1  6  0  0  0
  6 11  1  0  0  0  0
  8 13  1  0  0  0  0
  9 10  1  6  0  0  0
  9 15  1  0  0  0  0
 11 12  1  1  0  0  0
 11 17  1  0  0  0  0
 13 14  1  1  0  0  0
 13 19  1  0  0  0  0
 15 16  1  6  0  0  0
 15 20  1  0  0  0  0
 16 34  1  0  0  0  0
 17 18  1  6  0  0  0
 17 22  1  0  0  0  0
 19  2  1  1  0  0  0
 19 24  1  0  0  0  0
 20 21  1  6  0  0  0
 20 26  1  0  0  0  0
 20 33  1  0  0  0  0
 22 23  1  1  0  0  0
 22 28  1  0  0  0  0
 24 25  1  1  0  0  0
 24 30  1  0  0  0  0
 26 27  1  0  0  0  0
 28 29  1  6  0  0  0
 28 32  1  0  0  0  0
 30 31  1  6  0  0  0
M  END
>  <CHROM.1>
-139.88312388,-160.86017789,-88.55342454,-54.09667389,94.61644160,-157.14845622
8.52998198,6.55322917,7.80236290,-2.78234140,-0.20663375,-1.03226100

>  <Name>
ligand

>  <RI>
0

>  <Rbt.Current_Directory>
/home/itssahil/PROJECTS/Mol_Feturizer/New_Systems/rnas/3TD1

>  <Rbt.Executable>
rbdock ($Id: //depot/dev/client3/rdock/2013.1/src/exe/rbdock.cxx#4 $)

>  <Rbt.Library>
libRbt.so (2013.1, Build901 2013/11/27)

>  <Rbt.Parameter_File>
/export/apps/rDock/src/rDock_2013.1_src/data/scripts/dock_solv.prm

>  <Rbt.Receptor>
prm/pocket_docking_2.prm

>  <SCORE>
-18.0655

>  <SCORE.INTER>
-15.5556

>  <SCORE.INTER.CONST>
1

>  <SCORE.INTER.POLAR>
0

>  <SCORE.INTER.ROT>
6

>  <SCORE.INTER.SOLV>
19.8247

>  <SCORE.INTER.VDW>
-24.5786

>  <SCORE.INTER.norm>
-0.457517

>  <SCORE.INTRA>
-2.50988

>  <SCORE.INTRA.DIHEDRAL>
-5.07517

>  <SCORE.INTRA.DIHEDRAL.0>
19.5869

>  <SCORE.INTRA.POLAR>
0

>  <SCORE.INTRA.POLAR.0>
0

>  <SCORE.INTRA.REPUL>
0

>  <SCORE.INTRA.REPUL.0>
0

>  <SCORE.INTRA.SOLV>
-0.221741

>  <SCORE.INTRA.SOLV.lig_0>
-70.101

>  <SCORE.INTRA.VDW>
0.138574

>  <SCORE.INTRA.VDW.0>
-3.39718

>  <SCORE.INTRA.norm>
-0.07382

>  <SCORE.RESTR>
0

>  <SCORE.RESTR.CAVITY>
0

>  <SCORE.RESTR.norm>
0

>  <SCORE.SYSTEM>
0

>  <SCORE.SYSTEM.CONST>
0

>  <SCORE.SYSTEM.DIHEDRAL>
0

>  <SCORE.SYSTEM.SOLV>
0

>  <SCORE.SYSTEM.norm>
0

>  <SCORE.heavy>
34

>  <SCORE.norm>
-0.531337

>  <RMSD>
0.919

$$$$
ligand
 OpenBabel11021811483D
libRbt.so/2013.1/901 2013/11/27
 34 36  0  0  0  0  0  0  0  0999 V2000
    6.2646    5.9304    9.3114 C   0  0  2  0  0  0  0  0  0  0  0  0
    6.4653    5.6011    7.9280 O   0  0  0  0  0  0  0  0  0  0  0  0
    8.9125    7.3250    4.8783 C   0  0  2  0  0  0  0  0  0  0  0  0
    9.5048    8.2857    3.9540 N   0  0  0  0  0  0  0  0  0  0  0  0
   11.4092    8.9338    6.4690 C   0  0  2  0  0  0  0  0  0  0  0  0
    6.6561    4.6752   10.1703 C   0  0  2  0  0  0  0  0  0  0  0  0
    8.0675    4.3127    9.9680 N   0  0  0  0  0  0  0  0  0  0  0  0
    7.3639    7.3528    4.6532 C   0  0  0  0  0  0  0  0  0  0  0  0
   12.8888    8.5357    6.1234 C   0  0  2  0  0  0  0  0  0  0  0  0
   12.9234    7.8315    4.8930 O   0  0  0  0  0  0  0  0  0  0  0  0
    5.7478    3.4879    9.7835 C   0  0  1  0  0  0  0  0  0  0  0  0
    6.0955    2.3377   10.5715 O   0  0  0  0  0  0  0  0  0  0  0  0
    6.7292    6.3048    5.6288 C   0  0  2  0  0  0  0  0  0  0  0  0
    5.2611    6.2885    5.4672 N   0  0  0  0  0  0  0  0  0  0  0  0
   13.4617    7.6521    7.2984 C   0  0  1  0  0  0  0  0  0  0  0  0
   14.8661    7.2329    7.0098 N   0  0  0  0  0  0  0  0  0  0  0  0
    4.2716    3.8988    9.9970 C   0  0  2  0  0  0  0  0  0  0  0  0
    3.4122    2.8054    9.6302 O   0  0  0  0  0  0  0  0  0  0  0  0
    7.0683    6.6427    7.1031 C   0  0  2  0  0  0  0  0  0  0  0  0
   13.4011    8.4751    8.6305 C   0  0  1  0  0  0  0  0  0  0  0  0
   14.2111    9.6414    8.5090 O   0  0  0  0  0  0  0  0  0  0  0  0
    3.9462    5.1720    9.1264 C   0  0  2  0  0  0  0  0  0  0  0  0
    4.8480    6.2793    9.4991 O   0  0  0  0  0  0  0  0  0  0  0  0
    8.6068    6.6716    7.2826 C   0  0  2  0  0  0  0  0  0  0  0  0
    8.8941    7.0014    8.6376 O   0  0  0  0  0  0  0  0  0  0  0  0
   11.9204    8.8966    8.8899 C   0  0  0  0  0  0  0  0  0  0  0  0
   11.3836    9.6667    7.7422 O   0  0  0  0  0  0  0  0  0  0  0  0
    2.4824    5.6472    9.3196 C   0  0  2  0  0  0  0  0  0  0  0  0
    1.5948    4.5575    9.0826 O   0  0  0  0  0  0  0  0  0  0  0  0
    9.2580    7.7355    6.3685 C   0  0  1  0  0  0  0  0  0  0  0  0
   10.6848    7.6792    6.6042 O   0  0  0  0  0  0  0  0  0  0  0  0
    2.1247    6.7637    8.3526 C   0  0  0  0  0  0  0  0  0  0  0  0
   13.9177    7.6762    9.8208 C   0  0  0  0  0  0  0  0  0  0  0  0
   14.8242    5.9815    6.2293 C   0  0  0  0  0  0  0  0  0  0  0  0
  1  2  1  6  0  0  0
  1  6  1  0  0  0  0
  1 23  1  0  0  0  0
  3  4  1  6  0  0  0
  3  8  1  0  0  0  0
  3 30  1  0  0  0  0
  5  9  1  0  0  0  0
  5 27  1  0  0  0  0
  5 31  1  1  0  0  0
  6  7  1  6  0  0  0
  6 11  1  0  0  0  0
  8 13  1  0  0  0  0
  9 10  1  6  0  0  0
  9 15  1  0  0  0  0
 11 12  1  1  0  0  0
 11 17  1  0  0  0  0
 13 14  1  1  0  0  0
 13 19  1  0  0  0  0
 15 16  1  6  0  0  0
 15 20  1  0  0  0  0
 16 34  1  0  0  0  0
 17 18  1  6  0  0  0
 17 22  1  0  0  0  0
 19  2  1  1  0  0  0
 19 24  1  0  0  0  0
 20 21  1  6  0  0  0
 20 26  1  0  0  0  0
 20 33  1  0  0  0  0
 22 23  1  1  0  0  0
 22 28  1  0  0  0  0
 24 25  1  1  0  0  0
 24 30  1  0  0  0  0
 26 27  1  0  0  0  0
 28 29  1  6  0  0  0
 28 32  1  0  0  0  0
 30 31  1  6  0  0  0
M  END
>  <CHROM.1>
-138.60898291,-159.98168942,-87.39129150,-53.41137421,95.91368294,-155.07184385
8.50940024,6.55827292,7.81258421,-2.78347103,-0.21218613,-1.04990393

>  <Name>
ligand

>  <RI>
0

>  <Rbt.Current_Directory>
/home/itssahil/PROJECTS/Mol_Feturizer/New_Systems/rnas/3TD1

>  <Rbt.Executable>
rbdock ($Id: //depot/dev/client3/rdock/2013.1/src/exe/rbdock.cxx#4 $)

>  <Rbt.Library>
libRbt.so (2013.1, Build901 2013/11/27)

>  <Rbt.Parameter_File>
/export/apps/rDock/src/rDock_2013.1_src/data/scripts/dock_solv.prm

>  <Rbt.Receptor>
prm/pocket_docking_2.prm

>  <SCORE>
-17.9465

>  <SCORE.INTER>
-16.0182

>  <SCORE.INTER.CONST>
1

>  <SCORE.INTER.POLAR>
0

>  <SCORE.INTER.ROT>
6

>  <SCORE.INTER.SOLV>
19.8437

>  <SCORE.INTER.VDW>
-24.8934

>  <SCORE.INTER.norm>
-0.471123

>  <SCORE.INTRA>
-1.93531

>  <SCORE.INTRA.DIHEDRAL>
-4.13342

>  <SCORE.INTRA.DIHEDRAL.0>
19.5869

>  <SCORE.INTRA.POLAR>
0

>  <SCORE.INTRA.POLAR.0>
0

>  <SCORE.INTRA.REPUL>
0

>  <SCORE.INTRA.REPUL.0>
0

>  <SCORE.INTRA.SOLV>
-0.0703544

>  <SCORE.INTRA.SOLV.lig_0>
-70.101

>  <SCORE.INTRA.VDW>
0.166579

>  <SCORE.INTRA.VDW.0>
-3.39718

>  <SCORE.INTRA.norm>
-0.0569208

>  <SCORE.RESTR>
0.00696249

>  <SCORE.RESTR.CAVITY>
0.00696249

>  <SCORE.RESTR.norm>
0.000204779

>  <SCORE.SYSTEM>
0

>  <SCORE.SYSTEM.CONST>
0

>  <SCORE.SYSTEM.DIHEDRAL>
0

>  <SCORE.SYSTEM.SOLV>
0

>  <SCORE.SYSTEM.norm>
0

>  <SCORE.heavy>
34

>  <SCORE.norm>
-0.527839

>  <RMSD>
0.921

$$$$
ligand
 OpenBabel11021811483D
libRbt.so/2013.1/901 2013/11/27
 34 36  0  0  0  0  0  0  0  0999 V2000
    6.3319    5.7186    9.4430 C   0  0  2  0  0  0  0  0  0  0  0  0
    6.6643    5.3870    8.0857 O   0  0  0  0  0  0  0  0  0  0  0  0
    8.9213    7.2805    4.9902 C   0  0  2  0  0  0  0  0  0  0  0  0
    9.4494    8.2896    4.0786 N   0  0  0  0  0  0  0  0  0  0  0  0
   11.4794    8.8540    6.4564 C   0  0  2  0  0  0  0  0  0  0  0  0
    6.5927    4.4490   10.3300 C   0  0  2  0  0  0  0  0  0  0  0  0
    8.0053    4.0422   10.2724 N   0  0  0  0  0  0  0  0  0  0  0  0
    7.3628    7.2905    4.8470 C   0  0  0  0  0  0  0  0  0  0  0  0
   12.9652    8.4688    6.1227 C   0  0  2  0  0  0  0  0  0  0  0  0
   13.0105    7.7234    4.9172 O   0  0  0  0  0  0  0  0  0  0  0  0
    5.6924    3.2924    9.8439 C   0  0  1  0  0  0  0  0  0  0  0  0
    5.9203    2.1294   10.6565 O   0  0  0  0  0  0  0  0  0  0  0  0
    6.7963    6.1914    5.8083 C   0  0  2  0  0  0  0  0  0  0  0  0
    5.3222    6.1561    5.7224 N   0  0  0  0  0  0  0  0  0  0  0  0
   13.5535    7.6358    7.3266 C   0  0  1  0  0  0  0  0  0  0  0  0
   14.9645    7.2303    7.0507 N   0  0  0  0  0  0  0  0  0  0  0  0
    4.2157    3.7497    9.9062 C   0  0  2  0  0  0  0  0  0  0  0  0
    3.3650    2.6853    9.4458 O   0  0  0  0  0  0  0  0  0  0  0  0
    7.2071    6.4729    7.2762 C   0  0  2  0  0  0  0  0  0  0  0  0
   13.4804    8.5031    8.6297 C   0  0  1  0  0  0  0  0  0  0  0  0
   14.2707    9.6778    8.4670 O   0  0  0  0  0  0  0  0  0  0  0  0
    4.0224    5.0351    9.0146 C   0  0  2  0  0  0  0  0  0  0  0  0
    4.9152    6.1120    9.4853 O   0  0  0  0  0  0  0  0  0  0  0  0
    8.7523    6.5212    7.3768 C   0  0  2  0  0  0  0  0  0  0  0  0
    9.1052    6.7988    8.7281 O   0  0  0  0  0  0  0  0  0  0  0  0
   11.9931    8.9087    8.8764 C   0  0  0  0  0  0  0  0  0  0  0  0
   11.4426    9.6298    7.7037 O   0  0  0  0  0  0  0  0  0  0  0  0
    2.5621    5.5562    9.0583 C   0  0  2  0  0  0  0  0  0  0  0  0
    1.6746    4.5143    8.6608 O   0  0  0  0  0  0  0  0  0  0  0  0
    9.3382    7.6340    6.4768 C   0  0  1  0  0  0  0  0  0  0  0  0
   10.7760    7.5929    6.6356 O   0  0  0  0  0  0  0  0  0  0  0  0
    2.3593    6.7314    8.1162 C   0  0  0  0  0  0  0  0  0  0  0  0
   14.0111    7.7543    9.8460 C   0  0  0  0  0  0  0  0  0  0  0  0
   14.9446    5.9251    6.3629 C   0  0  0  0  0  0  0  0  0  0  0  0
  1  2  1  6  0  0  0
  1  6  1  0  0  0  0
  1 23  1  0  0  0  0
  3  4  1  6  0  0  0
  3  8  1  0  0  0  0
  3 30  1  0  0  0  0
  5  9  1  0  0  0  0
  5 27  1  0  0  0  0
  5 31  1  1  0  0  0
  6  7  1  6  0  0  0
  6 11  1  0  0  0  0
  8 13  1  0  0  0  0
  9 10  1  6  0  0  0
  9 15  1  0  0  0  0
 11 12  1  1  0  0  0
 11 17  1  0  0  0  0
 13 14  1  1  0  0  0
 13 19  1  0  0  0  0
 15 16  1  6  0  0  0
 15 20  1  0  0  0  0
 16 34  1  0  0  0  0
 17 18  1  6  0  0  0
 17 22  1  0  0  0  0
 19  2  1  1  0  0  0
 19 24  1  0  0  0  0
 20 21  1  6  0  0  0
 20 26  1  0  0  0  0
 20 33  1  0  0  0  0
 22 23  1  1  0  0  0
 22 28  1  0  0  0  0
 24 25  1  1  0  0  0
 24 30  1  0  0  0  0
 26 27  1  0  0  0  0
 28 29  1  6  0  0  0
 28 32  1  0  0  0  0
 30 31  1  6  0  0  0
M  END
>  <CHROM.1>
-147.10271460,-150.42757193,-89.68563849,-56.22388793,93.19070852,-158.56423698
8.56909863,6.46026824,7.84142044,-2.77862044,-0.21593311,-1.00601939

>  <Name>
ligand

>  <RI>
0

>  <Rbt.Current_Directory>
/home/itssahil/PROJECTS/Mol_Feturizer/New_Systems/rnas/3TD1

>  <Rbt.Executable>
rbdock ($Id: //depot/dev/client3/rdock/2013.1/src/exe/rbdock.cxx#4 $)

>  <Rbt.Library>
libRbt.so (2013.1, Build901 2013/11/27)

>  <Rbt.Parameter_File>
/export/apps/rDock/src/rDock_2013.1_src/data/scripts/dock_solv.prm

>  <Rbt.Receptor>
prm/pocket_docking_2.prm

>  <SCORE>
-17.9014

>  <SCORE.INTER>
-15.3306

>  <SCORE.INTER.CONST>
1

>  <SCORE.INTER.POLAR>
0

>  <SCORE.INTER.ROT>
6

>  <SCORE.INTER.SOLV>
19.075

>  <SCORE.INTER.VDW>
-24.1787

>  <SCORE.INTER.norm>
-0.4509

>  <SCORE.INTRA>
-2.57082

>  <SCORE.INTRA.DIHEDRAL>
-5.03771

>  <SCORE.INTRA.DIHEDRAL.0>
19.5869

>  <SCORE.INTRA.POLAR>
0

>  <SCORE.INTRA.POLAR.0>
0

>  <SCORE.INTRA.REPUL>
0

>  <SCORE.INTRA.REPUL.0>
0

>  <SCORE.INTRA.SOLV>
0.242554

>  <SCORE.INTRA.SOLV.lig_0>
-70.101

>  <SCORE.INTRA.VDW>
-0.173245

>  <SCORE.INTRA.VDW.0>
-3.39718

>  <SCORE.INTRA.norm>
-0.0756125

>  <SCORE.RESTR>
0

>  <SCORE.RESTR.CAVITY>
0

>  <SCORE.RESTR.norm>
0

>  <SCORE.SYSTEM>
0

>  <SCORE.SYSTEM.CONST>
0

>  <SCORE.SYSTEM.DIHEDRAL>
0

>  <SCORE.SYSTEM.SOLV>
0

>  <SCORE.SYSTEM.norm>
0

>  <SCORE.heavy>
34

>  <SCORE.norm>
-0.526513

>  <RMSD>
0.922

$$$$
ligand
 OpenBabel11021811483D
libRbt.so/2013.1/901 2013/11/27
 34 36  0  0  0  0  0  0  0  0999 V2000
    6.4221    5.6841    9.4603 C   0  0  2  0  0  0  0  0  0  0  0  0
    6.7938    5.3419    8.1160 O   0  0  0  0  0  0  0  0  0  0  0  0
    8.8447    7.2806    4.9071 C   0  0  2  0  0  0  0  0  0  0  0  0
    9.3120    8.3027    3.9771 N   0  0  0  0  0  0  0  0  0  0  0  0
   11.4867    8.8536    6.3354 C   0  0  2  0  0  0  0  0  0  0  0  0
    6.6360    4.4151   10.3605 C   0  0  2  0  0  0  0  0  0  0  0  0
    8.0438    3.9883   10.3506 N   0  0  0  0  0  0  0  0  0  0  0  0
    7.2801    7.2901    4.8651 C   0  0  0  0  0  0  0  0  0  0  0  0
   12.9884    8.5102    6.0289 C   0  0  2  0  0  0  0  0  0  0  0  0
   13.0829    7.8244    4.7913 O   0  0  0  0  0  0  0  0  0  0  0  0
    5.7358    3.2690    9.8500 C   0  0  1  0  0  0  0  0  0  0  0  0
    5.9206    2.1066   10.6743 O   0  0  0  0  0  0  0  0  0  0  0  0
    6.7778    6.1772    5.8459 C   0  0  2  0  0  0  0  0  0  0  0  0
    5.3012    6.1408    5.8550 N   0  0  0  0  0  0  0  0  0  0  0  0
   13.5565    7.6304    7.2091 C   0  0  1  0  0  0  0  0  0  0  0  0
   14.9821    7.2627    6.9570 N   0  0  0  0  0  0  0  0  0  0  0  0
    4.2644    3.7472    9.8622 C   0  0  2  0  0  0  0  0  0  0  0  0
    3.4142    2.6928    9.3787 O   0  0  0  0  0  0  0  0  0  0  0  0
    7.2824    6.4395    7.2879 C   0  0  2  0  0  0  0  0  0  0  0  0
   13.4291    8.4328    8.5491 C   0  0  1  0  0  0  0  0  0  0  0  0
   14.2021    9.6272    8.4664 O   0  0  0  0  0  0  0  0  0  0  0  0
    4.1184    5.0311    8.9596 C   0  0  2  0  0  0  0  0  0  0  0  0
    5.0105    6.0975    9.4548 O   0  0  0  0  0  0  0  0  0  0  0  0
    8.8308    6.4888    7.2891 C   0  0  2  0  0  0  0  0  0  0  0  0
    9.2702    6.7486    8.6183 O   0  0  0  0  0  0  0  0  0  0  0  0
   11.9280    8.8007    8.7697 C   0  0  0  0  0  0  0  0  0  0  0  0
   11.3989    9.5678    7.6165 O   0  0  0  0  0  0  0  0  0  0  0  0
    2.6650    5.5728    8.9535 C   0  0  2  0  0  0  0  0  0  0  0  0
    1.7635    4.5088    8.6596 O   0  0  0  0  0  0  0  0  0  0  0  0
    9.3566    7.6146    6.3683 C   0  0  1  0  0  0  0  0  0  0  0  0
   10.8017    7.5736    6.4332 O   0  0  0  0  0  0  0  0  0  0  0  0
    2.4754    6.6536    7.9020 C   0  0  0  0  0  0  0  0  0  0  0  0
   13.9375    7.6355    9.7439 C   0  0  0  0  0  0  0  0  0  0  0  0
   15.0073    5.9751    6.2371 C   0  0  0  0  0  0  0  0  0  0  0  0
  1  2  1  6  0  0  0
  1  6  1  0  0  0  0
  1 23  1  0  0  0  0
  3  4  1  6  0  0  0
  3  8  1  0  0  0  0
  3 30  1  0  0  0  0
  5  9  1  0  0  0  0
  5 27  1  0  0  0  0
  5 31  1  1  0  0  0
  6  7  1  6  0  0  0
  6 11  1  0  0  0  0
  8 13  1  0  0  0  0
  9 10  1  6  0  0  0
  9 15  1  0  0  0  0
 11 12  1  1  0  0  0
 11 17  1  0  0  0  0
 13 14  1  1  0  0  0
 13 19  1  0  0  0  0
 15 16  1  6  0  0  0
 15 20  1  0  0  0  0
 16 34  1  0  0  0  0
 17 18  1  6  0  0  0
 17 22  1  0  0  0  0
 19  2  1  1  0  0  0
 19 24  1  0  0  0  0
 20 21  1  6  0  0  0
 20 26  1  0  0  0  0
 20 33  1  0  0  0  0
 22 23  1  1  0  0  0
 22 28  1  0  0  0  0
 24 25  1  1  0  0  0
 24 30  1  0  0  0  0
 26 27  1  0  0  0  0
 28 29  1  6  0  0  0
 28 32  1  0  0  0  0
 30 31  1  6  0  0  0
M  END
>  <CHROM.1>
-151.62543979,-144.39699245,-91.07365017,-50.55836909,98.04689658,-164.60083075
8.59526245,6.44087015,7.78528912,-2.76712716,-0.21158152,-1.00062817

>  <Name>
ligand

>  <RI>
0

>  <Rbt.Current_Directory>
/home/itssahil/PROJECTS/Mol_Feturizer/New_Systems/rnas/3TD1

>  <Rbt.Executable>
rbdock ($Id: //depot/dev/client3/rdock/2013.1/src/exe/rbdock.cxx#4 $)

>  <Rbt.Library>
libRbt.so (2013.1, Build901 2013/11/27)

>  <Rbt.Parameter_File>
/export/apps/rDock/src/rDock_2013.1_src/data/scripts/dock_solv.prm

>  <Rbt.Receptor>
prm/pocket_docking_6.prm

>  <SCORE>
-18.1344

>  <SCORE.INTER>
-15.6642

>  <SCORE.INTER.CONST>
1

>  <SCORE.INTER.POLAR>
0

>  <SCORE.INTER.ROT>
6

>  <SCORE.INTER.SOLV>
18.6695

>  <SCORE.INTER.VDW>
-24.2659

>  <SCORE.INTER.norm>
-0.460711

>  <SCORE.INTRA>
-2.47025

>  <SCORE.INTRA.DIHEDRAL>
-4.51509

>  <SCORE.INTRA.DIHEDRAL.0>
19.5869

>  <SCORE.INTRA.POLAR>
0

>  <SCORE.INTRA.POLAR.0>
0

>  <SCORE.INTRA.REPUL>
0

>  <SCORE.INTRA.REPUL.0>
0

>  <SCORE.INTRA.SOLV>
0.444627

>  <SCORE.INTRA.SOLV.lig_0>
-70.101

>  <SCORE.INTRA.VDW>
-0.435015

>  <SCORE.INTRA.VDW.0>
-3.39718

>  <SCORE.INTRA.norm>
-0.0726543

>  <SCORE.RESTR>
0

>  <SCORE.RESTR.CAVITY>
0

>  <SCORE.RESTR.norm>
0

>  <SCORE.SYSTEM>
0

>  <SCORE.SYSTEM.CONST>
0

>  <SCORE.SYSTEM.DIHEDRAL>
0

>  <SCORE.SYSTEM.SOLV>
0

>  <SCORE.SYSTEM.norm>
0

>  <SCORE.heavy>
34

>  <SCORE.norm>
-0.533365

>  <RMSD>
0.949

$$$$
ligand
 OpenBabel11021811483D
libRbt.so/2013.1/901 2013/11/27
 34 36  0  0  0  0  0  0  0  0999 V2000
    6.3081    5.8632    9.3278 C   0  0  2  0  0  0  0  0  0  0  0  0
    6.4919    5.5604    7.9360 O   0  0  0  0  0  0  0  0  0  0  0  0
    8.8779    7.3463    4.8734 C   0  0  2  0  0  0  0  0  0  0  0  0
    9.4543    8.3265    3.9596 N   0  0  0  0  0  0  0  0  0  0  0  0
   11.4265    8.8927    6.3993 C   0  0  2  0  0  0  0  0  0  0  0  0
    6.7032    4.5895   10.1573 C   0  0  2  0  0  0  0  0  0  0  0  0
    8.1105    4.2247    9.9321 N   0  0  0  0  0  0  0  0  0  0  0  0
    7.3246    7.3882    4.6854 C   0  0  0  0  0  0  0  0  0  0  0  0
   12.9104    8.4744    6.0990 C   0  0  2  0  0  0  0  0  0  0  0  0
   12.9657    7.7252    4.8963 O   0  0  0  0  0  0  0  0  0  0  0  0
    5.7851    3.4141    9.7573 C   0  0  1  0  0  0  0  0  0  0  0  0
    6.1360    2.2470   10.5185 O   0  0  0  0  0  0  0  0  0  0  0  0
    6.7065    6.3197    5.6494 C   0  0  2  0  0  0  0  0  0  0  0  0
    5.2350    6.3155    5.5219 N   0  0  0  0  0  0  0  0  0  0  0  0
   13.4539    7.6317    7.3171 C   0  0  1  0  0  0  0  0  0  0  0  0
   14.8614    7.1948    7.0730 N   0  0  0  0  0  0  0  0  0  0  0  0
    4.3133    3.8274    9.9953 C   0  0  2  0  0  0  0  0  0  0  0  0
    3.4448    2.7454    9.6166 O   0  0  0  0  0  0  0  0  0  0  0  0
    7.0819    6.6190    7.1232 C   0  0  2  0  0  0  0  0  0  0  0  0
   13.3713    8.5035    8.6166 C   0  0  1  0  0  0  0  0  0  0  0  0
   14.1905    9.6603    8.4690 O   0  0  0  0  0  0  0  0  0  0  0  0
    3.9843    5.1190    9.1538 C   0  0  2  0  0  0  0  0  0  0  0  0
    4.8953    6.2146    9.5381 O   0  0  0  0  0  0  0  0  0  0  0  0
    8.6243    6.6349    7.2673 C   0  0  2  0  0  0  0  0  0  0  0  0
    8.9450    6.9294    8.6230 O   0  0  0  0  0  0  0  0  0  0  0  0
   11.8882    8.9421    8.8299 C   0  0  0  0  0  0  0  0  0  0  0  0
   11.3794    9.6722    7.6439 O   0  0  0  0  0  0  0  0  0  0  0  0
    2.5250    5.5969    9.3726 C   0  0  2  0  0  0  0  0  0  0  0  0
    1.6264    4.5355    9.0602 O   0  0  0  0  0  0  0  0  0  0  0  0
    9.2605    7.7177    6.3649 C   0  0  1  0  0  0  0  0  0  0  0  0
   10.6919    7.6478    6.5656 O   0  0  0  0  0  0  0  0  0  0  0  0
    2.1840    6.7792    8.4807 C   0  0  0  0  0  0  0  0  0  0  0  0
   13.8587    7.7463    9.8457 C   0  0  0  0  0  0  0  0  0  0  0  0
   14.8281    5.9332    6.3086 C   0  0  0  0  0  0  0  0  0  0  0  0
  1  2  1  6  0  0  0
  1  6  1  0  0  0  0
  1 23  1  0  0  0  0
  3  4  1  6  0  0  0
  3  8  1  0  0  0  0
  3 30  1  0  0  0  0
  5  9  1  0  0  0  0
  5 27  1  0  0  0  0
  5 31  1  1  0  0  0
  6  7  1  6  0  0  0
  6 11  1  0  0  0  0
  8 13  1  0  0  0  0
  9 10  1  6  0  0  0
  9 15  1  0  0  0  0
 11 12  1  1  0  0  0
 11 17  1  0  0  0  0
 13 14  1  1  0  0  0
 13 19  1  0  0  0  0
 15 16  1  6  0  0  0
 15 20  1  0  0  0  0
 16 34  1  0  0  0  0
 17 18  1  6  0  0  0
 17 22  1  0  0  0  0
 19  2  1  1  0  0  0
 19 24  1  0  0  0  0
 20 21  1  6  0  0  0
 20 26  1  0  0  0  0
 20 33  1  0  0  0  0
 22 23  1  1  0  0  0
 22 28  1  0  0  0  0
 24 25  1  1  0  0  0
 24 30  1  0  0  0  0
 26 27  1  0  0  0  0
 28 29  1  6  0  0  0
 28 32  1  0  0  0  0
 30 31  1  6  0  0  0
M  END
>  <CHROM.1>
-139.03294911,-159.13610714,-85.98141507,-56.25654146,93.87380296,-158.09592775
8.52096353,6.53021111,7.81351408,-2.77263503,-0.20559209,-1.02237131

>  <Name>
ligand

>  <RI>
0

>  <Rbt.Current_Directory>
/home/itssahil/PROJECTS/Mol_Feturizer/New_Systems/rnas/3TD1

>  <Rbt.Executable>
rbdock ($Id: //depot/dev/client3/rdock/2013.1/src/exe/rbdock.cxx#4 $)

>  <Rbt.Library>
libRbt.so (2013.1, Build901 2013/11/27)

>  <Rbt.Parameter_File>
/export/apps/rDock/src/rDock_2013.1_src/data/scripts/dock_solv.prm

>  <Rbt.Receptor>
prm/pocket_docking_2.prm

>  <SCORE>
-18.0543

>  <SCORE.INTER>
-15.6594

>  <SCORE.INTER.CONST>
1

>  <SCORE.INTER.POLAR>
0

>  <SCORE.INTER.ROT>
6

>  <SCORE.INTER.SOLV>
19.7943

>  <SCORE.INTER.VDW>
-24.6377

>  <SCORE.INTER.norm>
-0.46057

>  <SCORE.INTRA>
-2.40093

>  <SCORE.INTRA.DIHEDRAL>
-5.11403

>  <SCORE.INTRA.DIHEDRAL.0>
19.5869

>  <SCORE.INTRA.POLAR>
0

>  <SCORE.INTRA.POLAR.0>
0

>  <SCORE.INTRA.REPUL>
0

>  <SCORE.INTRA.REPUL.0>
0

>  <SCORE.INTRA.SOLV>
-0.150975

>  <SCORE.INTRA.SOLV.lig_0>
-70.101

>  <SCORE.INTRA.VDW>
0.23157

>  <SCORE.INTRA.VDW.0>
-3.39718

>  <SCORE.INTRA.norm>
-0.0706157

>  <SCORE.RESTR>
0.00596945

>  <SCORE.RESTR.CAVITY>
0.00596945

>  <SCORE.RESTR.norm>
0.000175572

>  <SCORE.SYSTEM>
0

>  <SCORE.SYSTEM.CONST>
0

>  <SCORE.SYSTEM.DIHEDRAL>
0

>  <SCORE.SYSTEM.SOLV>
0

>  <SCORE.SYSTEM.norm>
0

>  <SCORE.heavy>
34

>  <SCORE.norm>
-0.53101

>  <RMSD>
0.961

$$$$
ligand
 OpenBabel11021811483D
libRbt.so/2013.1/901 2013/11/27
 34 36  0  0  0  0  0  0  0  0999 V2000
    6.3732    5.9070    9.3007 C   0  0  2  0  0  0  0  0  0  0  0  0
    6.5206    5.6017    7.9051 O   0  0  0  0  0  0  0  0  0  0  0  0
    8.9700    7.3263    4.8575 C   0  0  2  0  0  0  0  0  0  0  0  0
    9.5645    8.2877    3.9353 N   0  0  0  0  0  0  0  0  0  0  0  0
   11.4719    8.9246    6.4631 C   0  0  2  0  0  0  0  0  0  0  0  0
    6.8039    4.6397   10.1222 C   0  0  2  0  0  0  0  0  0  0  0  0
    8.2078    4.2878    9.8584 N   0  0  0  0  0  0  0  0  0  0  0  0
    7.4213    7.3600    4.6343 C   0  0  0  0  0  0  0  0  0  0  0  0
   12.9587    8.5275    6.1487 C   0  0  2  0  0  0  0  0  0  0  0  0
   13.0197    7.8241    4.9190 O   0  0  0  0  0  0  0  0  0  0  0  0
    5.8864    3.4543    9.7516 C   0  0  1  0  0  0  0  0  0  0  0  0
    6.2700    2.2930   10.5058 O   0  0  0  0  0  0  0  0  0  0  0  0
    6.7842    6.3113    5.6076 C   0  0  2  0  0  0  0  0  0  0  0  0
    5.3159    6.3004    5.4477 N   0  0  0  0  0  0  0  0  0  0  0  0
   13.5071    7.6436    7.3350 C   0  0  1  0  0  0  0  0  0  0  0  0
   14.9175    7.2253    7.0760 N   0  0  0  0  0  0  0  0  0  0  0  0
    4.4179    3.8541   10.0299 C   0  0  2  0  0  0  0  0  0  0  0  0
    3.5496    2.7626    9.6790 O   0  0  0  0  0  0  0  0  0  0  0  0
    7.1262    6.6438    7.0825 C   0  0  2  0  0  0  0  0  0  0  0  0
   13.4180    8.4658    8.6660 C   0  0  1  0  0  0  0  0  0  0  0  0
   14.2296    9.6326    8.5624 O   0  0  0  0  0  0  0  0  0  0  0  0
    4.0528    5.1399    9.1944 C   0  0  2  0  0  0  0  0  0  0  0  0
    4.9636    6.2455    9.5498 O   0  0  0  0  0  0  0  0  0  0  0  0
    8.6650    6.6669    7.2602 C   0  0  2  0  0  0  0  0  0  0  0  0
    8.9549    6.9919    8.6158 O   0  0  0  0  0  0  0  0  0  0  0  0
   11.9319    8.8863    8.8943 C   0  0  0  0  0  0  0  0  0  0  0  0
   11.4190    9.6568    7.7360 O   0  0  0  0  0  0  0  0  0  0  0  0
    2.5956    5.6043    9.4530 C   0  0  2  0  0  0  0  0  0  0  0  0
    1.6977    4.5396    9.1508 O   0  0  0  0  0  0  0  0  0  0  0  0
    9.3187    7.7313    6.3485 C   0  0  1  0  0  0  0  0  0  0  0  0
   10.7455    7.6695    6.5823 O   0  0  0  0  0  0  0  0  0  0  0  0
    2.2248    6.7934    8.5823 C   0  0  0  0  0  0  0  0  0  0  0  0
   13.9097    7.6665    9.8665 C   0  0  0  0  0  0  0  0  0  0  0  0
   14.8937    5.9285    6.3728 C   0  0  0  0  0  0  0  0  0  0  0  0
  1  2  1  6  0  0  0
  1  6  1  0  0  0  0
  1 23  1  0  0  0  0
  3  4  1  6  0  0  0
  3  8  1  0  0  0  0
  3 30  1  0  0  0  0
  5  9  1  0  0  0  0
  5 27  1  0  0  0  0
  5 31  1  1  0  0  0
  6  7  1  6  0  0  0
  6 11  1  0  0  0  0
  8 13  1  0  0  0  0
  9 10  1  6  0  0  0
  9 15  1  0  0  0  0
 11 12  1  1  0  0  0
 11 17  1  0  0  0  0
 13 14  1  1  0  0  0
 13 19  1  0  0  0  0
 15 16  1  6  0  0  0
 15 20  1  0  0  0  0
 16 34  1  0  0  0  0
 17 18  1  6  0  0  0
 17 22  1  0  0  0  0
 19  2  1  1  0  0  0
 19 24  1  0  0  0  0
 20 21  1  6  0  0  0
 20 26  1  0  0  0  0
 20 33  1  0  0  0  0
 22 23  1  1  0  0  0
 22 28  1  0  0  0  0
 24 25  1  1  0  0  0
 24 30  1  0  0  0  0
 26 27  1  0  0  0  0
 28 29  1  6  0  0  0
 28 32  1  0  0  0  0
 30 31  1  6  0  0  0
M  END
>  <CHROM.1>
-136.68343045,-162.45642874,-91.11646439,-57.08659411,96.51300447,-156.52702127
8.58717158,6.54389027,7.82985511,-2.77771127,-0.21013917,-1.04098848

>  <Name>
ligand

>  <RI>
0

>  <Rbt.Current_Directory>
/home/itssahil/PROJECTS/Mol_Feturizer/New_Systems/rnas/3TD1

>  <Rbt.Executable>
rbdock ($Id: //depot/dev/client3/rdock/2013.1/src/exe/rbdock.cxx#4 $)

>  <Rbt.Library>
libRbt.so (2013.1, Build901 2013/11/27)

>  <Rbt.Parameter_File>
/export/apps/rDock/src/rDock_2013.1_src/data/scripts/dock_solv.prm

>  <Rbt.Receptor>
prm/pocket_docking_3.prm

>  <SCORE>
-18.0909

>  <SCORE.INTER>
-15.7732

>  <SCORE.INTER.CONST>
1

>  <SCORE.INTER.POLAR>
0

>  <SCORE.INTER.ROT>
6

>  <SCORE.INTER.SOLV>
19.9646

>  <SCORE.INTER.VDW>
-24.7703

>  <SCORE.INTER.norm>
-0.463917

>  <SCORE.INTRA>
-2.31775

>  <SCORE.INTRA.DIHEDRAL>
-4.40136

>  <SCORE.INTRA.DIHEDRAL.0>
19.5869

>  <SCORE.INTRA.POLAR>
0

>  <SCORE.INTRA.POLAR.0>
0

>  <SCORE.INTRA.REPUL>
0

>  <SCORE.INTRA.REPUL.0>
0

>  <SCORE.INTRA.SOLV>
-0.256723

>  <SCORE.INTRA.SOLV.lig_0>
-70.101

>  <SCORE.INTRA.VDW>
0.0112935

>  <SCORE.INTRA.VDW.0>
-3.39718

>  <SCORE.INTRA.norm>
-0.068169

>  <SCORE.RESTR>
0

>  <SCORE.RESTR.CAVITY>
0

>  <SCORE.RESTR.norm>
0

>  <SCORE.SYSTEM>
0

>  <SCORE.SYSTEM.CONST>
0

>  <SCORE.SYSTEM.DIHEDRAL>
0

>  <SCORE.SYSTEM.SOLV>
0

>  <SCORE.SYSTEM.norm>
0

>  <SCORE.heavy>
34

>  <SCORE.norm>
-0.532086

>  <RMSD>
0.969

$$$$
ligand
 OpenBabel11021811483D
libRbt.so/2013.1/901 2013/11/27
 34 36  0  0  0  0  0  0  0  0999 V2000
    6.3435    5.9049    9.3389 C   0  0  2  0  0  0  0  0  0  0  0  0
    6.5296    5.5796    7.9525 O   0  0  0  0  0  0  0  0  0  0  0  0
    8.9089    7.3237    4.8608 C   0  0  2  0  0  0  0  0  0  0  0  0
    9.4818    8.2909    3.9310 N   0  0  0  0  0  0  0  0  0  0  0  0
   11.4483    8.9102    6.3903 C   0  0  2  0  0  0  0  0  0  0  0  0
    6.7372    4.6449   10.1897 C   0  0  2  0  0  0  0  0  0  0  0  0
    8.1449    4.2765    9.9727 N   0  0  0  0  0  0  0  0  0  0  0  0
    7.3555    7.3570    4.6724 C   0  0  0  0  0  0  0  0  0  0  0  0
   12.9339    8.5039    6.0820 C   0  0  2  0  0  0  0  0  0  0  0  0
   12.9904    7.7659    4.8725 O   0  0  0  0  0  0  0  0  0  0  0  0
    5.8198    3.4632    9.8072 C   0  0  1  0  0  0  0  0  0  0  0  0
    6.1695    2.3086   10.5879 O   0  0  0  0  0  0  0  0  0  0  0  0
    6.7413    6.3022    5.6537 C   0  0  2  0  0  0  0  0  0  0  0  0
    5.2698    6.2906    5.5265 N   0  0  0  0  0  0  0  0  0  0  0  0
   13.4863    7.6538    7.2910 C   0  0  1  0  0  0  0  0  0  0  0  0
   14.8957    7.2280    7.0389 N   0  0  0  0  0  0  0  0  0  0  0  0
    4.3476    3.8802   10.0361 C   0  0  2  0  0  0  0  0  0  0  0  0
    3.4797    2.7921    9.6736 O   0  0  0  0  0  0  0  0  0  0  0  0
    7.1157    6.6269    7.1225 C   0  0  2  0  0  0  0  0  0  0  0  0
   13.4020    8.5134    8.5984 C   0  0  1  0  0  0  0  0  0  0  0  0
   14.2136    9.6766    8.4589 O   0  0  0  0  0  0  0  0  0  0  0  0
    4.0200    5.1579    9.1731 C   0  0  2  0  0  0  0  0  0  0  0  0
    4.9304    6.2597    9.5411 O   0  0  0  0  0  0  0  0  0  0  0  0
    8.6581    6.6506    7.2660 C   0  0  2  0  0  0  0  0  0  0  0  0
    8.9778    6.9684    8.6167 O   0  0  0  0  0  0  0  0  0  0  0  0
   11.9169    8.9407    8.8199 C   0  0  0  0  0  0  0  0  0  0  0  0
   11.4000    9.6782    7.6421 O   0  0  0  0  0  0  0  0  0  0  0  0
    2.5603    5.6392    9.3817 C   0  0  2  0  0  0  0  0  0  0  0  0
    1.6657    4.5533    9.1543 O   0  0  0  0  0  0  0  0  0  0  0  0
    9.2903    7.7208    6.3460 C   0  0  1  0  0  0  0  0  0  0  0  0
   10.7220    7.6592    6.5476 O   0  0  0  0  0  0  0  0  0  0  0  0
    2.1970    6.7572    8.4185 C   0  0  0  0  0  0  0  0  0  0  0  0
   13.8979    7.7483    9.8193 C   0  0  0  0  0  0  0  0  0  0  0  0
   14.8691    5.9121    6.3720 C   0  0  0  0  0  0  0  0  0  0  0  0
  1  2  1  6  0  0  0
  1  6  1  0  0  0  0
  1 23  1  0  0  0  0
  3  4  1  6  0  0  0
  3  8  1  0  0  0  0
  3 30  1  0  0  0  0
  5  9  1  0  0  0  0
  5 27  1  0  0  0  0
  5 31  1  1  0  0  0
  6  7  1  6  0  0  0
  6 11  1  0  0  0  0
  8 13  1  0  0  0  0
  9 10  1  6  0  0  0
  9 15  1  0  0  0  0
 11 12  1  1  0  0  0
 11 17  1  0  0  0  0
 13 14  1  1  0  0  0
 13 19  1  0  0  0  0
 15 16  1  6  0  0  0
 15 20  1  0  0  0  0
 16 34  1  0  0  0  0
 17 18  1  6  0  0  0
 17 22  1  0  0  0  0
 19  2  1  1  0  0  0
 19 24  1  0  0  0  0
 20 21  1  6  0  0  0
 20 26  1  0  0  0  0
 20 33  1  0  0  0  0
 22 23  1  1  0  0  0
 22 28  1  0  0  0  0
 24 25  1  1  0  0  0
 24 30  1  0  0  0  0
 26 27  1  0  0  0  0
 28 29  1  6  0  0  0
 28 32  1  0  0  0  0
 30 31  1  6  0  0  0
M  END
>  <CHROM.1>
-139.27946250,-159.07164700,-91.07850040,-53.19140618,95.20745921,-157.83650392
8.55258388,6.54804432,7.81924300,-2.77284064,-0.20679924,-1.03703188

>  <Name>
ligand

>  <RI>
0

>  <Rbt.Current_Directory>
/home/itssahil/PROJECTS/Mol_Feturizer/New_Systems/rnas/3TD1

>  <Rbt.Executable>
rbdock ($Id: //depot/dev/client3/rdock/2013.1/src/exe/rbdock.cxx#4 $)

>  <Rbt.Library>
libRbt.so (2013.1, Build901 2013/11/27)

>  <Rbt.Parameter_File>
/export/apps/rDock/src/rDock_2013.1_src/data/scripts/dock_solv.prm

>  <Rbt.Receptor>
prm/pocket_docking_3.prm

>  <SCORE>
-18.1868

>  <SCORE.INTER>
-15.7929

>  <SCORE.INTER.CONST>
1

>  <SCORE.INTER.POLAR>
0

>  <SCORE.INTER.ROT>
6

>  <SCORE.INTER.SOLV>
19.9689

>  <SCORE.INTER.VDW>
-24.7849

>  <SCORE.INTER.norm>
-0.464498

>  <SCORE.INTRA>
-2.39381

>  <SCORE.INTRA.DIHEDRAL>
-4.57743

>  <SCORE.INTRA.DIHEDRAL.0>
19.5869

>  <SCORE.INTRA.POLAR>
0

>  <SCORE.INTRA.POLAR.0>
0

>  <SCORE.INTRA.REPUL>
0

>  <SCORE.INTRA.REPUL.0>
0

>  <SCORE.INTRA.SOLV>
-0.136593

>  <SCORE.INTRA.SOLV.lig_0>
-70.101

>  <SCORE.INTRA.VDW>
-0.0367972

>  <SCORE.INTRA.VDW.0>
-3.39718

>  <SCORE.INTRA.norm>
-0.0704062

>  <SCORE.RESTR>
0

>  <SCORE.RESTR.CAVITY>
0

>  <SCORE.RESTR.norm>
0

>  <SCORE.SYSTEM>
0

>  <SCORE.SYSTEM.CONST>
0

>  <SCORE.SYSTEM.DIHEDRAL>
0

>  <SCORE.SYSTEM.SOLV>
0

>  <SCORE.SYSTEM.norm>
0

>  <SCORE.heavy>
34

>  <SCORE.norm>
-0.534905

>  <RMSD>
0.972

$$$$
ligand
 OpenBabel11021811483D
libRbt.so/2013.1/901 2013/11/27
 34 36  0  0  0  0  0  0  0  0999 V2000
    6.3297    5.9134    9.2834 C   0  0  2  0  0  0  0  0  0  0  0  0
    6.4756    5.6030    7.8888 O   0  0  0  0  0  0  0  0  0  0  0  0
    8.9403    7.3045    4.8405 C   0  0  2  0  0  0  0  0  0  0  0  0
    9.5410    8.2594    3.9157 N   0  0  0  0  0  0  0  0  0  0  0  0
   11.4510    8.8908    6.3984 C   0  0  2  0  0  0  0  0  0  0  0  0
    6.7664    4.6509   10.1093 C   0  0  2  0  0  0  0  0  0  0  0  0
    8.1710    4.3029    9.8442 N   0  0  0  0  0  0  0  0  0  0  0  0
    7.3923    7.3429    4.6126 C   0  0  0  0  0  0  0  0  0  0  0  0
   12.9322    8.4661    6.0936 C   0  0  2  0  0  0  0  0  0  0  0  0
   12.9804    7.7150    4.8918 O   0  0  0  0  0  0  0  0  0  0  0  0
    5.8524    3.4608    9.7451 C   0  0  1  0  0  0  0  0  0  0  0  0
    6.2415    2.3039   10.5032 O   0  0  0  0  0  0  0  0  0  0  0  0
    6.7485    6.3010    5.5889 C   0  0  2  0  0  0  0  0  0  0  0  0
    5.2807    6.2949    5.4248 N   0  0  0  0  0  0  0  0  0  0  0  0
   13.4765    7.6229    7.3111 C   0  0  1  0  0  0  0  0  0  0  0  0
   14.8813    7.1801    7.0628 N   0  0  0  0  0  0  0  0  0  0  0  0
    4.3830    3.8565   10.0245 C   0  0  2  0  0  0  0  0  0  0  0  0
    3.5179    2.7606    9.6795 O   0  0  0  0  0  0  0  0  0  0  0  0
    7.0875    6.6390    7.0632 C   0  0  2  0  0  0  0  0  0  0  0  0
   13.4018    8.4969    8.6096 C   0  0  1  0  0  0  0  0  0  0  0  0
   14.2251    9.6502    8.4576 O   0  0  0  0  0  0  0  0  0  0  0  0
    4.0118    5.1377    9.1845 C   0  0  2  0  0  0  0  0  0  0  0  0
    4.9193    6.2479    9.5338 O   0  0  0  0  0  0  0  0  0  0  0  0
    8.6258    6.6573    7.2454 C   0  0  2  0  0  0  0  0  0  0  0  0
    8.9130    6.9874    8.6003 O   0  0  0  0  0  0  0  0  0  0  0  0
   11.9212    8.9417    8.8273 C   0  0  0  0  0  0  0  0  0  0  0  0
   11.4113    9.6722    7.6421 O   0  0  0  0  0  0  0  0  0  0  0  0
    2.5534    5.5980    9.4440 C   0  0  2  0  0  0  0  0  0  0  0  0
    1.6602    4.5227    9.1665 O   0  0  0  0  0  0  0  0  0  0  0  0
    9.2861    7.7150    6.3307 C   0  0  1  0  0  0  0  0  0  0  0  0
   10.7120    7.6490    6.5689 O   0  0  0  0  0  0  0  0  0  0  0  0
    2.1700    6.7691    8.5545 C   0  0  0  0  0  0  0  0  0  0  0  0
   13.8904    7.7394    9.8381 C   0  0  0  0  0  0  0  0  0  0  0  0
   14.8403    5.8762    6.3735 C   0  0  0  0  0  0  0  0  0  0  0  0
  1  2  1  6  0  0  0
  1  6  1  0  0  0  0
  1 23  1  0  0  0  0
  3  4  1  6  0  0  0
  3  8  1  0  0  0  0
  3 30  1  0  0  0  0
  5  9  1  0  0  0  0
  5 27  1  0  0  0  0
  5 31  1  1  0  0  0
  6  7  1  6  0  0  0
  6 11  1  0  0  0  0
  8 13  1  0  0  0  0
  9 10  1  6  0  0  0
  9 15  1  0  0  0  0
 11 12  1  1  0  0  0
 11 17  1  0  0  0  0
 13 14  1  1  0  0  0
 13 19  1  0  0  0  0
 15 16  1  6  0  0  0
 15 20  1  0  0  0  0
 16 34  1  0  0  0  0
 17 18  1  6  0  0  0
 17 22  1  0  0  0  0
 19  2  1  1  0  0  0
 19 24  1  0  0  0  0
 20 21  1  6  0  0  0
 20 26  1  0  0  0  0
 20 33  1  0  0  0  0
 22 23  1  1  0  0  0
 22 28  1  0  0  0  0
 24 25  1  1  0  0  0
 24 30  1  0  0  0  0
 26 27  1  0  0  0  0
 28 29  1  6  0  0  0
 28 32  1  0  0  0  0
 30 31  1  6  0  0  0
M  END
>  <CHROM.1>
-136.12992122,-162.67250122,-89.41837307,-56.23965046,94.34429761,-156.16343754
8.55433720,6.53598640,7.80520875,-2.77644831,-0.20822047,-1.04330314

>  <Name>
ligand

>  <RI>
0

>  <Rbt.Current_Directory>
/home/itssahil/PROJECTS/Mol_Feturizer/New_Systems/rnas/3TD1

>  <Rbt.Executable>
rbdock ($Id: //depot/dev/client3/rdock/2013.1/src/exe/rbdock.cxx#4 $)

>  <Rbt.Library>
libRbt.so (2013.1, Build901 2013/11/27)

>  <Rbt.Parameter_File>
/export/apps/rDock/src/rDock_2013.1_src/data/scripts/dock_solv.prm

>  <Rbt.Receptor>
prm/pocket_docking_3.prm

>  <SCORE>
-18.1641

>  <SCORE.INTER>
-15.8112

>  <SCORE.INTER.CONST>
1

>  <SCORE.INTER.POLAR>
0

>  <SCORE.INTER.ROT>
6

>  <SCORE.INTER.SOLV>
19.8467

>  <SCORE.INTER.VDW>
-24.7564

>  <SCORE.INTER.norm>
-0.465036

>  <SCORE.INTRA>
-2.35287

>  <SCORE.INTRA.DIHEDRAL>
-4.70801

>  <SCORE.INTRA.DIHEDRAL.0>
19.5869

>  <SCORE.INTRA.POLAR>
0

>  <SCORE.INTRA.POLAR.0>
0

>  <SCORE.INTRA.REPUL>
0

>  <SCORE.INTRA.REPUL.0>
0

>  <SCORE.INTRA.SOLV>
-0.21425

>  <SCORE.INTRA.SOLV.lig_0>
-70.101

>  <SCORE.INTRA.VDW>
0.108263

>  <SCORE.INTRA.VDW.0>
-3.39718

>  <SCORE.INTRA.norm>
-0.0692019

>  <SCORE.RESTR>
0

>  <SCORE.RESTR.CAVITY>
0

>  <SCORE.RESTR.norm>
0

>  <SCORE.SYSTEM>
0

>  <SCORE.SYSTEM.CONST>
0

>  <SCORE.SYSTEM.DIHEDRAL>
0

>  <SCORE.SYSTEM.SOLV>
0

>  <SCORE.SYSTEM.norm>
0

>  <SCORE.heavy>
34

>  <SCORE.norm>
-0.534238

>  <RMSD>
0.978

$$$$
ligand
 OpenBabel11021811483D
libRbt.so/2013.1/901 2013/11/27
 34 36  0  0  0  0  0  0  0  0999 V2000
    6.3681    5.8916    9.3192 C   0  0  2  0  0  0  0  0  0  0  0  0
    6.5327    5.5732    7.9285 O   0  0  0  0  0  0  0  0  0  0  0  0
    8.8840    7.3151    4.8143 C   0  0  2  0  0  0  0  0  0  0  0  0
    9.4527    8.2830    3.8826 N   0  0  0  0  0  0  0  0  0  0  0  0
   11.4569    8.8724    6.3447 C   0  0  2  0  0  0  0  0  0  0  0  0
    6.7673    4.6246   10.1572 C   0  0  2  0  0  0  0  0  0  0  0  0
    8.1697    4.2501    9.9180 N   0  0  0  0  0  0  0  0  0  0  0  0
    7.3284    7.3643    4.6484 C   0  0  0  0  0  0  0  0  0  0  0  0
   12.9493    8.4644    6.0740 C   0  0  2  0  0  0  0  0  0  0  0  0
   13.0364    7.7319    4.8630 O   0  0  0  0  0  0  0  0  0  0  0  0
    5.8381    3.4500    9.7813 C   0  0  1  0  0  0  0  0  0  0  0  0
    6.1927    2.2892   10.5504 O   0  0  0  0  0  0  0  0  0  0  0  0
    6.7183    6.3089    5.6317 C   0  0  2  0  0  0  0  0  0  0  0  0
    5.2451    6.3122    5.5256 N   0  0  0  0  0  0  0  0  0  0  0  0
   13.4678    7.6075    7.2932 C   0  0  1  0  0  0  0  0  0  0  0  0
   14.8825    7.1799    7.0765 N   0  0  0  0  0  0  0  0  0  0  0  0
    4.3716    3.8735   10.0336 C   0  0  2  0  0  0  0  0  0  0  0  0
    3.4928    2.7921    9.6775 O   0  0  0  0  0  0  0  0  0  0  0  0
    7.1168    6.6203    7.0969 C   0  0  2  0  0  0  0  0  0  0  0  0
   13.3506    8.4613    8.6020 C   0  0  1  0  0  0  0  0  0  0  0  0
   14.1679    9.6234    8.4894 O   0  0  0  0  0  0  0  0  0  0  0  0
    4.0385    5.1578    9.1826 C   0  0  2  0  0  0  0  0  0  0  0  0
    4.9600    6.2527    9.5437 O   0  0  0  0  0  0  0  0  0  0  0  0
    8.6612    6.6285    7.2184 C   0  0  2  0  0  0  0  0  0  0  0  0
    9.0034    6.9342    8.5663 O   0  0  0  0  0  0  0  0  0  0  0  0
   11.8610    8.8907    8.7860 C   0  0  0  0  0  0  0  0  0  0  0  0
   11.3770    9.6347    7.5983 O   0  0  0  0  0  0  0  0  0  0  0  0
    2.5846    5.6457    9.4148 C   0  0  2  0  0  0  0  0  0  0  0  0
    1.6780    4.5786    9.1486 O   0  0  0  0  0  0  0  0  0  0  0  0
    9.2904    7.6987    6.2963 C   0  0  1  0  0  0  0  0  0  0  0  0
   10.7242    7.6222    6.4769 O   0  0  0  0  0  0  0  0  0  0  0  0
    2.2299    6.8038    8.4969 C   0  0  0  0  0  0  0  0  0  0  0  0
   13.8124    7.6895    9.8320 C   0  0  0  0  0  0  0  0  0  0  0  0
   14.8710    5.8519    6.4336 C   0  0  0  0  0  0  0  0  0  0  0  0
  1  2  1  6  0  0  0
  1  6  1  0  0  0  0
  1 23  1  0  0  0  0
  3  4  1  6  0  0  0
  3  8  1  0  0  0  0
  3 30  1  0  0  0  0
  5  9  1  0  0  0  0
  5 27  1  0  0  0  0
  5 31  1  1  0  0  0
  6  7  1  6  0  0  0
  6 11  1  0  0  0  0
  8 13  1  0  0  0  0
  9 10  1  6  0  0  0
  9 15  1  0  0  0  0
 11 12  1  1  0  0  0
 11 17  1  0  0  0  0
 13 14  1  1  0  0  0
 13 19  1  0  0  0  0
 15 16  1  6  0  0  0
 15 20  1  0  0  0  0
 16 34  1  0  0  0  0
 17 18  1  6  0  0  0
 17 22  1  0  0  0  0
 19  2  1  1  0  0  0
 19 24  1  0  0  0  0
 20 21  1  6  0  0  0
 20 26  1  0  0  0  0
 20 33  1  0  0  0  0
 22 23  1  1  0  0  0
 22 28  1  0  0  0  0
 24 25  1  1  0  0  0
 24 30  1  0  0  0  0
 26 27  1  0  0  0  0
 28 29  1  6  0  0  0
 28 32  1  0  0  0  0
 30 31  1  6  0  0  0
M  END
>  <CHROM.1>
-139.07153042,-159.00338965,-92.47556807,-55.21210491,96.44187881,-160.49294612
8.55169662,6.52855185,7.80615235,-2.77181826,-0.19994020,-1.03159421

>  <Name>
ligand

>  <RI>
0

>  <Rbt.Current_Directory>
/home/itssahil/PROJECTS/Mol_Feturizer/New_Systems/rnas/3TD1

>  <Rbt.Executable>
rbdock ($Id: //depot/dev/client3/rdock/2013.1/src/exe/rbdock.cxx#4 $)

>  <Rbt.Library>
libRbt.so (2013.1, Build901 2013/11/27)

>  <Rbt.Parameter_File>
/export/apps/rDock/src/rDock_2013.1_src/data/scripts/dock_solv.prm

>  <Rbt.Receptor>
prm/pocket_docking_3.prm

>  <SCORE>
-18.2819

>  <SCORE.INTER>
-15.5921

>  <SCORE.INTER.CONST>
1

>  <SCORE.INTER.POLAR>
0

>  <SCORE.INTER.ROT>
6

>  <SCORE.INTER.SOLV>
19.7944

>  <SCORE.INTER.VDW>
-24.5929

>  <SCORE.INTER.norm>
-0.458591

>  <SCORE.INTRA>
-2.6898

>  <SCORE.INTRA.DIHEDRAL>
-4.80008

>  <SCORE.INTRA.DIHEDRAL.0>
19.5869

>  <SCORE.INTRA.POLAR>
0

>  <SCORE.INTRA.POLAR.0>
0

>  <SCORE.INTRA.REPUL>
0

>  <SCORE.INTRA.REPUL.0>
0

>  <SCORE.INTRA.SOLV>
-0.248699

>  <SCORE.INTRA.SOLV.lig_0>
-70.101

>  <SCORE.INTRA.VDW>
-0.165408

>  <SCORE.INTRA.VDW.0>
-3.39718

>  <SCORE.INTRA.norm>
-0.0791117

>  <SCORE.RESTR>
0

>  <SCORE.RESTR.CAVITY>
0

>  <SCORE.RESTR.norm>
0

>  <SCORE.SYSTEM>
0

>  <SCORE.SYSTEM.CONST>
0

>  <SCORE.SYSTEM.DIHEDRAL>
0

>  <SCORE.SYSTEM.SOLV>
0

>  <SCORE.SYSTEM.norm>
0

>  <SCORE.heavy>
34

>  <SCORE.norm>
-0.537702

>  <RMSD>
0.984

$$$$
ligand
 OpenBabel11021811483D
libRbt.so/2013.1/901 2013/11/27
 34 36  0  0  0  0  0  0  0  0999 V2000
    6.4132    5.8738    9.2842 C   0  0  2  0  0  0  0  0  0  0  0  0
    6.5526    5.5669    7.8881 O   0  0  0  0  0  0  0  0  0  0  0  0
    8.9029    7.3172    4.7778 C   0  0  2  0  0  0  0  0  0  0  0  0
    9.4694    8.2869    3.8467 N   0  0  0  0  0  0  0  0  0  0  0  0
   11.4661    8.8861    6.3094 C   0  0  2  0  0  0  0  0  0  0  0  0
    6.8245    4.5990   10.1041 C   0  0  2  0  0  0  0  0  0  0  0  0
    8.2217    4.2239    9.8371 N   0  0  0  0  0  0  0  0  0  0  0  0
    7.3476    7.3595    4.6086 C   0  0  0  0  0  0  0  0  0  0  0  0
   12.9581    8.4833    6.0284 C   0  0  2  0  0  0  0  0  0  0  0  0
   13.0396    7.7531    4.8155 O   0  0  0  0  0  0  0  0  0  0  0  0
    5.8865    3.4294    9.7348 C   0  0  1  0  0  0  0  0  0  0  0  0
    6.2523    2.2614   10.4876 O   0  0  0  0  0  0  0  0  0  0  0  0
    6.7399    6.3021    5.5912 C   0  0  2  0  0  0  0  0  0  0  0  0
    5.2669    6.2988    5.4820 N   0  0  0  0  0  0  0  0  0  0  0  0
   13.4871    7.6259    7.2427 C   0  0  1  0  0  0  0  0  0  0  0  0
   14.9017    7.2031    7.0162 N   0  0  0  0  0  0  0  0  0  0  0  0
    4.4255    3.8535   10.0165 C   0  0  2  0  0  0  0  0  0  0  0  0
    3.5384    2.7768    9.6668 O   0  0  0  0  0  0  0  0  0  0  0  0
    7.1339    6.6161    7.0571 C   0  0  2  0  0  0  0  0  0  0  0  0
   13.3757    8.4771    8.5537 C   0  0  1  0  0  0  0  0  0  0  0  0
   14.1886    9.6419    8.4378 O   0  0  0  0  0  0  0  0  0  0  0  0
    4.0801    5.1456    9.1824 C   0  0  2  0  0  0  0  0  0  0  0  0
    5.0100    6.2356    9.5365 O   0  0  0  0  0  0  0  0  0  0  0  0
    8.6780    6.6312    7.1819 C   0  0  2  0  0  0  0  0  0  0  0  0
    9.0159    6.9392    8.5303 O   0  0  0  0  0  0  0  0  0  0  0  0
   11.8859    8.9015    8.7481 C   0  0  0  0  0  0  0  0  0  0  0  0
   11.3919    9.6460    7.5649 O   0  0  0  0  0  0  0  0  0  0  0  0
    2.6314    5.6341    9.4444 C   0  0  2  0  0  0  0  0  0  0  0  0
    1.7181    4.5714    9.1841 O   0  0  0  0  0  0  0  0  0  0  0  0
    9.3045    7.7035    6.2604 C   0  0  1  0  0  0  0  0  0  0  0  0
   10.7382    7.6334    6.4441 O   0  0  0  0  0  0  0  0  0  0  0  0
    2.2634    6.8015    8.5435 C   0  0  0  0  0  0  0  0  0  0  0  0
   13.8478    7.7046    9.7793 C   0  0  0  0  0  0  0  0  0  0  0  0
   14.8899    5.9038    6.3171 C   0  0  0  0  0  0  0  0  0  0  0  0
  1  2  1  6  0  0  0
  1  6  1  0  0  0  0
  1 23  1  0  0  0  0
  3  4  1  6  0  0  0
  3  8  1  0  0  0  0
  3 30  1  0  0  0  0
  5  9  1  0  0  0  0
  5 27  1  0  0  0  0
  5 31  1  1  0  0  0
  6  7  1  6  0  0  0
  6 11  1  0  0  0  0
  8 13  1  0  0  0  0
  9 10  1  6  0  0  0
  9 15  1  0  0  0  0
 11 12  1  1  0  0  0
 11 17  1  0  0  0  0
 13 14  1  1  0  0  0
 13 19  1  0  0  0  0
 15 16  1  6  0  0  0
 15 20  1  0  0  0  0
 16 34  1  0  0  0  0
 17 18  1  6  0  0  0
 17 22  1  0  0  0  0
 19  2  1  1  0  0  0
 19 24  1  0  0  0  0
 20 21  1  6  0  0  0
 20 26  1  0  0  0  0
 20 33  1  0  0  0  0
 22 23  1  1  0  0  0
 22 28  1  0  0  0  0
 24 25  1  1  0  0  0
 24 30  1  0  0  0  0
 26 27  1  0  0  0  0
 28 29  1  6  0  0  0
 28 32  1  0  0  0  0
 30 31  1  6  0  0  0
M  END
>  <CHROM.1>
-138.60216683,-160.43809210,-90.00088343,-55.25931384,96.29248966,-159.92838137
8.58007638,6.52899013,7.77106457,-2.76531753,-0.20101338,-1.03150528

>  <Name>
ligand

>  <RI>
0

>  <Rbt.Current_Directory>
/home/itssahil/PROJECTS/Mol_Feturizer/New_Systems/rnas/3TD1

>  <Rbt.Executable>
rbdock ($Id: //depot/dev/client3/rdock/2013.1/src/exe/rbdock.cxx#4 $)

>  <Rbt.Library>
libRbt.so (2013.1, Build901 2013/11/27)

>  <Rbt.Parameter_File>
/export/apps/rDock/src/rDock_2013.1_src/data/scripts/dock_solv.prm

>  <Rbt.Receptor>
prm/pocket_docking_3.prm

>  <SCORE>
-18.236

>  <SCORE.INTER>
-15.5907

>  <SCORE.INTER.CONST>
1

>  <SCORE.INTER.POLAR>
0

>  <SCORE.INTER.ROT>
6

>  <SCORE.INTER.SOLV>
19.8145

>  <SCORE.INTER.VDW>
-24.5986

>  <SCORE.INTER.norm>
-0.45855

>  <SCORE.INTRA>
-2.64528

>  <SCORE.INTRA.DIHEDRAL>
-4.97641

>  <SCORE.INTRA.DIHEDRAL.0>
19.5869

>  <SCORE.INTRA.POLAR>
0

>  <SCORE.INTRA.POLAR.0>
0

>  <SCORE.INTRA.REPUL>
0

>  <SCORE.INTRA.REPUL.0>
0

>  <SCORE.INTRA.SOLV>
-0.286665

>  <SCORE.INTRA.SOLV.lig_0>
-70.101

>  <SCORE.INTRA.VDW>
-0.0137454

>  <SCORE.INTRA.VDW.0>
-3.39718

>  <SCORE.INTRA.norm>
-0.0778024

>  <SCORE.RESTR>
0

>  <SCORE.RESTR.CAVITY>
0

>  <SCORE.RESTR.norm>
0

>  <SCORE.SYSTEM>
0

>  <SCORE.SYSTEM.CONST>
0

>  <SCORE.SYSTEM.DIHEDRAL>
0

>  <SCORE.SYSTEM.SOLV>
0

>  <SCORE.SYSTEM.norm>
0

>  <SCORE.heavy>
34

>  <SCORE.norm>
-0.536352

>  <RMSD>
1.001

$$$$
ligand
 OpenBabel11021811483D
libRbt.so/2013.1/901 2013/11/27
 34 36  0  0  0  0  0  0  0  0999 V2000
    6.4081    5.9153    9.2526 C   0  0  2  0  0  0  0  0  0  0  0  0
    6.5574    5.6058    7.8582 O   0  0  0  0  0  0  0  0  0  0  0  0
    8.9390    7.3428    4.7642 C   0  0  2  0  0  0  0  0  0  0  0  0
    9.5163    8.3090    3.8362 N   0  0  0  0  0  0  0  0  0  0  0  0
   11.4951    8.9054    6.3141 C   0  0  2  0  0  0  0  0  0  0  0  0
    6.8615    4.6593   10.0793 C   0  0  2  0  0  0  0  0  0  0  0  0
    8.2704    4.3293    9.8139 N   0  0  0  0  0  0  0  0  0  0  0  0
    7.3852    7.3902    4.5823 C   0  0  0  0  0  0  0  0  0  0  0  0
   12.9863    8.4970    6.0376 C   0  0  2  0  0  0  0  0  0  0  0  0
   13.0690    7.7678    4.8242 O   0  0  0  0  0  0  0  0  0  0  0  0
    5.9628    3.4572    9.7164 C   0  0  1  0  0  0  0  0  0  0  0  0
    6.3672    2.3060   10.4754 O   0  0  0  0  0  0  0  0  0  0  0  0
    6.7659    6.3365    5.5617 C   0  0  2  0  0  0  0  0  0  0  0  0
    5.2939    6.3381    5.4405 N   0  0  0  0  0  0  0  0  0  0  0  0
   13.5078    7.6362    7.2527 C   0  0  1  0  0  0  0  0  0  0  0  0
   14.9216    7.2080    7.0305 N   0  0  0  0  0  0  0  0  0  0  0  0
    4.4886    3.8340    9.9963 C   0  0  2  0  0  0  0  0  0  0  0  0
    3.6376    2.7267    9.6526 O   0  0  0  0  0  0  0  0  0  0  0  0
    7.1491    6.6516    7.0302 C   0  0  2  0  0  0  0  0  0  0  0  0
   13.3954    8.4863    8.5643 C   0  0  1  0  0  0  0  0  0  0  0  0
   14.2133    9.6481    8.4525 O   0  0  0  0  0  0  0  0  0  0  0  0
    4.1004    5.1096    9.1555 C   0  0  2  0  0  0  0  0  0  0  0  0
    4.9937    6.2317    9.5034 O   0  0  0  0  0  0  0  0  0  0  0  0
    8.6922    6.6615    7.1675 C   0  0  2  0  0  0  0  0  0  0  0  0
    9.0202    6.9706    8.5182 O   0  0  0  0  0  0  0  0  0  0  0  0
   11.9067    8.9164    8.7542 C   0  0  0  0  0  0  0  0  0  0  0  0
   11.4196    9.6642    7.5701 O   0  0  0  0  0  0  0  0  0  0  0  0
    2.6364    5.5512    9.4152 C   0  0  2  0  0  0  0  0  0  0  0  0
    1.7569    4.4645    9.1379 O   0  0  0  0  0  0  0  0  0  0  0  0
    9.3298    7.7302    6.2495 C   0  0  1  0  0  0  0  0  0  0  0  0
   10.7618    7.6555    6.4449 O   0  0  0  0  0  0  0  0  0  0  0  0
    2.2378    6.7172    8.5258 C   0  0  0  0  0  0  0  0  0  0  0  0
   13.8603    7.7106    9.7906 C   0  0  0  0  0  0  0  0  0  0  0  0
   14.9069    5.8888    6.3699 C   0  0  0  0  0  0  0  0  0  0  0  0
  1  2  1  6  0  0  0
  1  6  1  0  0  0  0
  1 23  1  0  0  0  0
  3  4  1  6  0  0  0
  3  8  1  0  0  0  0
  3 30  1  0  0  0  0
  5  9  1  0  0  0  0
  5 27  1  0  0  0  0
  5 31  1  1  0  0  0
  6  7  1  6  0  0  0
  6 11  1  0  0  0  0
  8 13  1  0  0  0  0
  9 10  1  6  0  0  0
  9 15  1  0  0  0  0
 11 12  1  1  0  0  0
 11 17  1  0  0  0  0
 13 14  1  1  0  0  0
 13 19  1  0  0  0  0
 15 16  1  6  0  0  0
 15 20  1  0  0  0  0
 16 34  1  0  0  0  0
 17 18  1  6  0  0  0
 17 22  1  0  0  0  0
 19  2  1  1  0  0  0
 19 24  1  0  0  0  0
 20 21  1  6  0  0  0
 20 26  1  0  0  0  0
 20 33  1  0  0  0  0
 22 23  1  1  0  0  0
 22 28  1  0  0  0  0
 24 25  1  1  0  0  0
 24 30  1  0  0  0  0
 26 27  1  0  0  0  0
 28 29  1  6  0  0  0
 28 32  1  0  0  0  0
 30 31  1  6  0  0  0
M  END
>  <CHROM.1>
-136.43240008,-160.45406181,-91.84068562,-56.28857019,96.29124744,-159.61156241
8.60866119,6.53814881,7.76051538,-2.76795701,-0.20595023,-1.03169621

>  <Name>
ligand

>  <RI>
0

>  <Rbt.Current_Directory>
/home/itssahil/PROJECTS/Mol_Feturizer/New_Systems/rnas/3TD1

>  <Rbt.Executable>
rbdock ($Id: //depot/dev/client3/rdock/2013.1/src/exe/rbdock.cxx#4 $)

>  <Rbt.Library>
libRbt.so (2013.1, Build901 2013/11/27)

>  <Rbt.Parameter_File>
/export/apps/rDock/src/rDock_2013.1_src/data/scripts/dock_solv.prm

>  <Rbt.Receptor>
prm/pocket_docking_3.prm

>  <SCORE>
-18.2091

>  <SCORE.INTER>
-15.6918

>  <SCORE.INTER.CONST>
1

>  <SCORE.INTER.POLAR>
0

>  <SCORE.INTER.ROT>
6

>  <SCORE.INTER.SOLV>
19.706

>  <SCORE.INTER.VDW>
-24.6299

>  <SCORE.INTER.norm>
-0.461525

>  <SCORE.INTRA>
-2.51729

>  <SCORE.INTRA.DIHEDRAL>
-4.57798

>  <SCORE.INTRA.DIHEDRAL.0>
19.5869

>  <SCORE.INTRA.POLAR>
0

>  <SCORE.INTRA.POLAR.0>
0

>  <SCORE.INTRA.REPUL>
0

>  <SCORE.INTRA.REPUL.0>
0

>  <SCORE.INTRA.SOLV>
-0.240401

>  <SCORE.INTRA.SOLV.lig_0>
-70.101

>  <SCORE.INTRA.VDW>
-0.108098

>  <SCORE.INTRA.VDW.0>
-3.39718

>  <SCORE.INTRA.norm>
-0.0740379

>  <SCORE.RESTR>
0

>  <SCORE.RESTR.CAVITY>
0

>  <SCORE.RESTR.norm>
0

>  <SCORE.SYSTEM>
0

>  <SCORE.SYSTEM.CONST>
0

>  <SCORE.SYSTEM.DIHEDRAL>
0

>  <SCORE.SYSTEM.SOLV>
0

>  <SCORE.SYSTEM.norm>
0

>  <SCORE.heavy>
34

>  <SCORE.norm>
-0.535563

>  <RMSD>
1.012

$$$$
ligand
 OpenBabel11021811483D
libRbt.so/2013.1/901 2013/11/27
 34 36  0  0  0  0  0  0  0  0999 V2000
    6.4708    5.7843    9.3495 C   0  0  2  0  0  0  0  0  0  0  0  0
    6.6541    5.4828    7.9574 O   0  0  0  0  0  0  0  0  0  0  0  0
    8.8860    7.3340    4.8184 C   0  0  2  0  0  0  0  0  0  0  0  0
    9.4140    8.3327    3.8955 N   0  0  0  0  0  0  0  0  0  0  0  0
   11.4878    8.8825    6.3139 C   0  0  2  0  0  0  0  0  0  0  0  0
    6.8461    4.5031   10.1766 C   0  0  2  0  0  0  0  0  0  0  0  0
    8.2489    4.1195    9.9541 N   0  0  0  0  0  0  0  0  0  0  0  0
    7.3256    7.3687    4.7027 C   0  0  0  0  0  0  0  0  0  0  0  0
   12.9855    8.5008    6.0341 C   0  0  2  0  0  0  0  0  0  0  0  0
   13.0806    7.7866    4.8128 O   0  0  0  0  0  0  0  0  0  0  0  0
    5.9130    3.3416    9.7710 C   0  0  1  0  0  0  0  0  0  0  0  0
    6.2458    2.1677   10.5300 O   0  0  0  0  0  0  0  0  0  0  0  0
    6.7587    6.2806    5.6762 C   0  0  2  0  0  0  0  0  0  0  0  0
    5.2830    6.2687    5.6164 N   0  0  0  0  0  0  0  0  0  0  0  0
   13.5198    7.6349    7.2401 C   0  0  1  0  0  0  0  0  0  0  0  0
   14.9403    7.2317    7.0143 N   0  0  0  0  0  0  0  0  0  0  0  0
    4.4464    3.7744   10.0063 C   0  0  2  0  0  0  0  0  0  0  0  0
    3.5640    2.7055    9.6224 O   0  0  0  0  0  0  0  0  0  0  0  0
    7.1999    6.5583    7.1360 C   0  0  2  0  0  0  0  0  0  0  0  0
   13.3930    8.4686    8.5609 C   0  0  1  0  0  0  0  0  0  0  0  0
   14.1925    9.6443    8.4627 O   0  0  0  0  0  0  0  0  0  0  0  0
    4.1374    5.0727    9.1674 C   0  0  2  0  0  0  0  0  0  0  0  0
    5.0625    6.1546    9.5571 O   0  0  0  0  0  0  0  0  0  0  0  0
    8.7471    6.5820    7.2093 C   0  0  2  0  0  0  0  0  0  0  0  0
    9.1282    6.8565    8.5535 O   0  0  0  0  0  0  0  0  0  0  0  0
   11.8975    8.8729    8.7543 C   0  0  0  0  0  0  0  0  0  0  0  0
   11.3995    9.6260    7.5782 O   0  0  0  0  0  0  0  0  0  0  0  0
    2.6842    5.5700    9.3837 C   0  0  2  0  0  0  0  0  0  0  0  0
    1.7745    4.5042    9.1236 O   0  0  0  0  0  0  0  0  0  0  0  0
    9.3347    7.6836    6.2967 C   0  0  1  0  0  0  0  0  0  0  0  0
   10.7743    7.6198    6.4302 O   0  0  0  0  0  0  0  0  0  0  0  0
    2.3415    6.7190    8.4498 C   0  0  0  0  0  0  0  0  0  0  0  0
   13.8693    7.6868    9.7790 C   0  0  0  0  0  0  0  0  0  0  0  0
   14.9469    5.9704    6.2488 C   0  0  0  0  0  0  0  0  0  0  0  0
  1  2  1  6  0  0  0
  1  6  1  0  0  0  0
  1 23  1  0  0  0  0
  3  4  1  6  0  0  0
  3  8  1  0  0  0  0
  3 30  1  0  0  0  0
  5  9  1  0  0  0  0
  5 27  1  0  0  0  0
  5 31  1  1  0  0  0
  6  7  1  6  0  0  0
  6 11  1  0  0  0  0
  8 13  1  0  0  0  0
  9 10  1  6  0  0  0
  9 15  1  0  0  0  0
 11 12  1  1  0  0  0
 11 17  1  0  0  0  0
 13 14  1  1  0  0  0
 13 19  1  0  0  0  0
 15 16  1  6  0  0  0
 15 20  1  0  0  0  0
 16 34  1  0  0  0  0
 17 18  1  6  0  0  0
 17 22  1  0  0  0  0
 19  2  1  1  0  0  0
 19 24  1  0  0  0  0
 20 21  1  6  0  0  0
 20 26  1  0  0  0  0
 20 33  1  0  0  0  0
 22 23  1  1  0  0  0
 22 28  1  0  0  0  0
 24 25  1  1  0  0  0
 24 30  1  0  0  0  0
 26 27  1  0  0  0  0
 28 29  1  6  0  0  0
 28 32  1  0  0  0  0
 30 31  1  6  0  0  0
M  END
>  <CHROM.1>
-141.93397256,-156.15919323,-87.60572762,-53.69044088,96.68391123,-162.41095127
8.61317278,6.49350126,7.78994532,-2.75591730,-0.20199485,-1.00973722

>  <Name>
ligand

>  <RI>
0

>  <Rbt.Current_Directory>
/home/itssahil/PROJECTS/Mol_Feturizer/New_Systems/rnas/3TD1

>  <Rbt.Executable>
rbdock ($Id: //depot/dev/client3/rdock/2013.1/src/exe/rbdock.cxx#4 $)

>  <Rbt.Library>
libRbt.so (2013.1, Build901 2013/11/27)

>  <Rbt.Parameter_File>
/export/apps/rDock/src/rDock_2013.1_src/data/scripts/dock_solv.prm

>  <Rbt.Receptor>
prm/pocket_docking_5.prm

>  <SCORE>
-18.2165

>  <SCORE.INTER>
-15.5757

>  <SCORE.INTER.CONST>
1

>  <SCORE.INTER.POLAR>
0

>  <SCORE.INTER.ROT>
6

>  <SCORE.INTER.SOLV>
19.5872

>  <SCORE.INTER.VDW>
-24.5128

>  <SCORE.INTER.norm>
-0.458107

>  <SCORE.INTRA>
-2.64082

>  <SCORE.INTRA.DIHEDRAL>
-5.1247

>  <SCORE.INTRA.DIHEDRAL.0>
19.5869

>  <SCORE.INTRA.POLAR>
0

>  <SCORE.INTRA.POLAR.0>
0

>  <SCORE.INTRA.REPUL>
0

>  <SCORE.INTRA.REPUL.0>
0

>  <SCORE.INTRA.SOLV>
-0.19945

>  <SCORE.INTRA.SOLV.lig_0>
-70.101

>  <SCORE.INTRA.VDW>
0.0212572

>  <SCORE.INTRA.VDW.0>
-3.39718

>  <SCORE.INTRA.norm>
-0.0776711

>  <SCORE.RESTR>
0

>  <SCORE.RESTR.CAVITY>
0

>  <SCORE.RESTR.norm>
0

>  <SCORE.SYSTEM>
0

>  <SCORE.SYSTEM.CONST>
0

>  <SCORE.SYSTEM.DIHEDRAL>
0

>  <SCORE.SYSTEM.SOLV>
0

>  <SCORE.SYSTEM.norm>
0

>  <SCORE.heavy>
34

>  <SCORE.norm>
-0.535779

>  <RMSD>
1.014

$$$$
ligand
 OpenBabel11021811483D
libRbt.so/2013.1/901 2013/11/27
 34 36  0  0  0  0  0  0  0  0999 V2000
    6.4220    5.9028    9.2802 C   0  0  2  0  0  0  0  0  0  0  0  0
    6.5529    5.5956    7.8834 O   0  0  0  0  0  0  0  0  0  0  0  0
    8.9418    7.3154    4.7854 C   0  0  2  0  0  0  0  0  0  0  0  0
    9.5223    8.2768    3.8544 N   0  0  0  0  0  0  0  0  0  0  0  0
   11.5056    8.8688    6.2878 C   0  0  2  0  0  0  0  0  0  0  0  0
    6.8461    4.6309   10.0981 C   0  0  2  0  0  0  0  0  0  0  0  0
    8.2434    4.2632    9.8213 N   0  0  0  0  0  0  0  0  0  0  0  0
    7.3883    7.3658    4.6017 C   0  0  0  0  0  0  0  0  0  0  0  0
   12.9932    8.4393    6.0237 C   0  0  2  0  0  0  0  0  0  0  0  0
   13.0679    7.6647    4.8383 O   0  0  0  0  0  0  0  0  0  0  0  0
    5.9118    3.4558    9.7364 C   0  0  1  0  0  0  0  0  0  0  0  0
    6.2893    2.2904   10.4874 O   0  0  0  0  0  0  0  0  0  0  0  0
    6.7655    6.3172    5.5844 C   0  0  2  0  0  0  0  0  0  0  0  0
    5.2936    6.3219    5.4617 N   0  0  0  0  0  0  0  0  0  0  0  0
   13.5113    7.6208    7.2692 C   0  0  1  0  0  0  0  0  0  0  0  0
   14.9214    7.1743    7.0603 N   0  0  0  0  0  0  0  0  0  0  0  0
    4.4506    3.8722   10.0283 C   0  0  2  0  0  0  0  0  0  0  0  0
    3.5668    2.7904    9.6858 O   0  0  0  0  0  0  0  0  0  0  0  0
    7.1480    6.6369    7.0522 C   0  0  2  0  0  0  0  0  0  0  0  0
   13.4080    8.5203    8.5482 C   0  0  1  0  0  0  0  0  0  0  0  0
   14.2340    9.6710    8.3913 O   0  0  0  0  0  0  0  0  0  0  0  0
    4.0922    5.1618    9.1958 C   0  0  2  0  0  0  0  0  0  0  0  0
    5.0186    6.2571    9.5424 O   0  0  0  0  0  0  0  0  0  0  0  0
    8.6909    6.6437    7.1910 C   0  0  2  0  0  0  0  0  0  0  0  0
    9.0183    6.9570    8.5408 O   0  0  0  0  0  0  0  0  0  0  0  0
   11.9229    8.9681    8.7249 C   0  0  0  0  0  0  0  0  0  0  0  0
   11.4385    9.6746    7.5146 O   0  0  0  0  0  0  0  0  0  0  0  0
    2.6428    5.6427    9.4679 C   0  0  2  0  0  0  0  0  0  0  0  0
    1.7410    4.5527    9.2944 O   0  0  0  0  0  0  0  0  0  0  0  0
    9.3320    7.7074    6.2696 C   0  0  1  0  0  0  0  0  0  0  0  0
   10.7636    7.6300    6.4668 O   0  0  0  0  0  0  0  0  0  0  0  0
    2.2319    6.7496    8.5110 C   0  0  0  0  0  0  0  0  0  0  0  0
   13.8701    7.7877    9.8018 C   0  0  0  0  0  0  0  0  0  0  0  0
   14.8958    5.8548    6.4006 C   0  0  0  0  0  0  0  0  0  0  0  0
  1  2  1  6  0  0  0
  1  6  1  0  0  0  0
  1 23  1  0  0  0  0
  3  4  1  6  0  0  0
  3  8  1  0  0  0  0
  3 30  1  0  0  0  0
  5  9  1  0  0  0  0
  5 27  1  0  0  0  0
  5 31  1  1  0  0  0
  6  7  1  6  0  0  0
  6 11  1  0  0  0  0
  8 13  1  0  0  0  0
  9 10  1  6  0  0  0
  9 15  1  0  0  0  0
 11 12  1  1  0  0  0
 11 17  1  0  0  0  0
 13 14  1  1  0  0  0
 13 19  1  0  0  0  0
 15 16  1  6  0  0  0
 15 20  1  0  0  0  0
 16 34  1  0  0  0  0
 17 18  1  6  0  0  0
 17 22  1  0  0  0  0
 19  2  1  1  0  0  0
 19 24  1  0  0  0  0
 20 21  1  6  0  0  0
 20 26  1  0  0  0  0
 20 33  1  0  0  0  0
 22 23  1  1  0  0  0
 22 28  1  0  0  0  0
 24 25  1  1  0  0  0
 24 30  1  0  0  0  0
 26 27  1  0  0  0  0
 28 29  1  6  0  0  0
 28 32  1  0  0  0  0
 30 31  1  6  0  0  0
M  END
>  <CHROM.1>
-137.38507120,-161.38310619,-89.62242388,-51.72785005,94.29200434,-159.52160888
8.60333187,6.53730587,7.77723682,-2.76684593,-0.20090241,-1.03508488

>  <Name>
ligand

>  <RI>
0

>  <Rbt.Current_Directory>
/home/itssahil/PROJECTS/Mol_Feturizer/New_Systems/rnas/3TD1

>  <Rbt.Executable>
rbdock ($Id: //depot/dev/client3/rdock/2013.1/src/exe/rbdock.cxx#4 $)

>  <Rbt.Library>
libRbt.so (2013.1, Build901 2013/11/27)

>  <Rbt.Parameter_File>
/export/apps/rDock/src/rDock_2013.1_src/data/scripts/dock_solv.prm

>  <Rbt.Receptor>
prm/pocket_docking_3.prm

>  <SCORE>
-18.1364

>  <SCORE.INTER>
-15.6132

>  <SCORE.INTER.CONST>
1

>  <SCORE.INTER.POLAR>
0

>  <SCORE.INTER.ROT>
6

>  <SCORE.INTER.SOLV>
19.9113

>  <SCORE.INTER.VDW>
-24.6459

>  <SCORE.INTER.norm>
-0.459212

>  <SCORE.INTRA>
-2.52316

>  <SCORE.INTRA.DIHEDRAL>
-5.07339

>  <SCORE.INTRA.DIHEDRAL.0>
19.5869

>  <SCORE.INTRA.POLAR>
0

>  <SCORE.INTRA.POLAR.0>
0

>  <SCORE.INTRA.REPUL>
0

>  <SCORE.INTRA.REPUL.0>
0

>  <SCORE.INTRA.SOLV>
-0.245318

>  <SCORE.INTRA.SOLV.lig_0>
-70.101

>  <SCORE.INTRA.VDW>
0.136189

>  <SCORE.INTRA.VDW.0>
-3.39718

>  <SCORE.INTRA.norm>
-0.0742107

>  <SCORE.RESTR>
0

>  <SCORE.RESTR.CAVITY>
0

>  <SCORE.RESTR.norm>
0

>  <SCORE.SYSTEM>
0

>  <SCORE.SYSTEM.CONST>
0

>  <SCORE.SYSTEM.DIHEDRAL>
0

>  <SCORE.SYSTEM.SOLV>
0

>  <SCORE.SYSTEM.norm>
0

>  <SCORE.heavy>
34

>  <SCORE.norm>
-0.533423

>  <RMSD>
1.016

$$$$
ligand
 OpenBabel11021811483D
libRbt.so/2013.1/901 2013/11/27
 34 36  0  0  0  0  0  0  0  0999 V2000
    6.3861    5.8945    9.2436 C   0  0  2  0  0  0  0  0  0  0  0  0
    6.5253    5.5929    7.8464 O   0  0  0  0  0  0  0  0  0  0  0  0
    8.9451    7.3199    4.7766 C   0  0  2  0  0  0  0  0  0  0  0  0
    9.5348    8.2834    3.8536 N   0  0  0  0  0  0  0  0  0  0  0  0
   11.4909    8.8740    6.3230 C   0  0  2  0  0  0  0  0  0  0  0  0
    6.8579    4.6385   10.0600 C   0  0  2  0  0  0  0  0  0  0  0  0
    8.2670    4.3220    9.7802 N   0  0  0  0  0  0  0  0  0  0  0  0
    7.3935    7.3702    4.5771 C   0  0  0  0  0  0  0  0  0  0  0  0
   12.9765    8.4506    6.0385 C   0  0  2  0  0  0  0  0  0  0  0  0
   13.0427    7.7048    4.8343 O   0  0  0  0  0  0  0  0  0  0  0  0
    5.9662    3.4305    9.6996 C   0  0  1  0  0  0  0  0  0  0  0  0
    6.3874    2.2792   10.4492 O   0  0  0  0  0  0  0  0  0  0  0  0
    6.7611    6.3194    5.5512 C   0  0  2  0  0  0  0  0  0  0  0  0
    5.2905    6.3239    5.4135 N   0  0  0  0  0  0  0  0  0  0  0  0
   13.5027    7.6021    7.2603 C   0  0  1  0  0  0  0  0  0  0  0  0
   14.9111    7.1603    7.0310 N   0  0  0  0  0  0  0  0  0  0  0  0
    4.4915    3.7933    9.9947 C   0  0  2  0  0  0  0  0  0  0  0  0
    3.6469    2.6802    9.6534 O   0  0  0  0  0  0  0  0  0  0  0  0
    7.1284    6.6361    7.0234 C   0  0  2  0  0  0  0  0  0  0  0  0
   13.4086    8.4704    8.5613 C   0  0  1  0  0  0  0  0  0  0  0  0
   14.2340    9.6244    8.4267 O   0  0  0  0  0  0  0  0  0  0  0  0
    4.0846    5.0694    9.1636 C   0  0  2  0  0  0  0  0  0  0  0  0
    4.9714    6.1975    9.5088 O   0  0  0  0  0  0  0  0  0  0  0  0
    8.6699    6.6431    7.1781 C   0  0  2  0  0  0  0  0  0  0  0  0
    8.9833    6.9537    8.5318 O   0  0  0  0  0  0  0  0  0  0  0  0
   11.9249    8.9143    8.7589 C   0  0  0  0  0  0  0  0  0  0  0  0
   11.4326    9.6500    7.5694 O   0  0  0  0  0  0  0  0  0  0  0  0
    2.6193    5.4971    9.4388 C   0  0  2  0  0  0  0  0  0  0  0  0
    1.7415    4.4252    9.1044 O   0  0  0  0  0  0  0  0  0  0  0  0
    9.3200    7.7089    6.2655 C   0  0  1  0  0  0  0  0  0  0  0  0
   10.7495    7.6315    6.4771 O   0  0  0  0  0  0  0  0  0  0  0  0
    2.2237    6.7056    8.6066 C   0  0  0  0  0  0  0  0  0  0  0  0
   13.8789    7.7076    9.7937 C   0  0  0  0  0  0  0  0  0  0  0  0
   14.8803    5.8495    6.3544 C   0  0  0  0  0  0  0  0  0  0  0  0
  1  2  1  6  0  0  0
  1  6  1  0  0  0  0
  1 23  1  0  0  0  0
  3  4  1  6  0  0  0
  3  8  1  0  0  0  0
  3 30  1  0  0  0  0
  5  9  1  0  0  0  0
  5 27  1  0  0  0  0
  5 31  1  1  0  0  0
  6  7  1  6  0  0  0
  6 11  1  0  0  0  0
  8 13  1  0  0  0  0
  9 10  1  6  0  0  0
  9 15  1  0  0  0  0
 11 12  1  1  0  0  0
 11 17  1  0  0  0  0
 13 14  1  1  0  0  0
 13 19  1  0  0  0  0
 15 16  1  6  0  0  0
 15 20  1  0  0  0  0
 16 34  1  0  0  0  0
 17 18  1  6  0  0  0
 17 22  1  0  0  0  0
 19  2  1  1  0  0  0
 19 24  1  0  0  0  0
 20 21  1  6  0  0  0
 20 26  1  0  0  0  0
 20 33  1  0  0  0  0
 22 23  1  1  0  0  0
 22 28  1  0  0  0  0
 24 25  1  1  0  0  0
 24 30  1  0  0  0  0
 26 27  1  0  0  0  0
 28 29  1  6  0  0  0
 28 32  1  0  0  0  0
 30 31  1  6  0  0  0
M  END
>  <CHROM.1>
-135.08583676,-161.68411492,-90.29296996,-59.00183737,94.95919701,-158.33454656
8.60308812,6.51166971,7.76077429,-2.76849655,-0.20567561,-1.03040444

>  <Name>
ligand

>  <RI>
0

>  <Rbt.Current_Directory>
/home/itssahil/PROJECTS/Mol_Feturizer/New_Systems/rnas/3TD1

>  <Rbt.Executable>
rbdock ($Id: //depot/dev/client3/rdock/2013.1/src/exe/rbdock.cxx#4 $)

>  <Rbt.Library>
libRbt.so (2013.1, Build901 2013/11/27)

>  <Rbt.Parameter_File>
/export/apps/rDock/src/rDock_2013.1_src/data/scripts/dock_solv.prm

>  <Rbt.Receptor>
prm/pocket_docking_3.prm

>  <SCORE>
-18.1627

>  <SCORE.INTER>
-15.7079

>  <SCORE.INTER.CONST>
1

>  <SCORE.INTER.POLAR>
0

>  <SCORE.INTER.ROT>
6

>  <SCORE.INTER.SOLV>
19.5458

>  <SCORE.INTER.VDW>
-24.5872

>  <SCORE.INTER.norm>
-0.461996

>  <SCORE.INTRA>
-2.45481

>  <SCORE.INTRA.DIHEDRAL>
-4.70637

>  <SCORE.INTRA.DIHEDRAL.0>
19.5869

>  <SCORE.INTRA.POLAR>
0

>  <SCORE.INTRA.POLAR.0>
0

>  <SCORE.INTRA.REPUL>
0

>  <SCORE.INTRA.REPUL.0>
0

>  <SCORE.INTRA.SOLV>
-0.245405

>  <SCORE.INTRA.SOLV.lig_0>
-70.101

>  <SCORE.INTRA.VDW>
0.0210797

>  <SCORE.INTRA.VDW.0>
-3.39718

>  <SCORE.INTRA.norm>
-0.0722002

>  <SCORE.RESTR>
0

>  <SCORE.RESTR.CAVITY>
0

>  <SCORE.RESTR.norm>
0

>  <SCORE.SYSTEM>
0

>  <SCORE.SYSTEM.CONST>
0

>  <SCORE.SYSTEM.DIHEDRAL>
0

>  <SCORE.SYSTEM.SOLV>
0

>  <SCORE.SYSTEM.norm>
0

>  <SCORE.heavy>
34

>  <SCORE.norm>
-0.534196

>  <RMSD>
1.018

$$$$
ligand
 OpenBabel11021811483D
libRbt.so/2013.1/901 2013/11/27
 34 36  0  0  0  0  0  0  0  0999 V2000
    6.4777    5.8569    9.3259 C   0  0  2  0  0  0  0  0  0  0  0  0
    6.6279    5.5434    7.9325 O   0  0  0  0  0  0  0  0  0  0  0  0
    8.9288    7.3125    4.7960 C   0  0  2  0  0  0  0  0  0  0  0  0
    9.4785    8.2873    3.8602 N   0  0  0  0  0  0  0  0  0  0  0  0
   11.5027    8.8925    6.3206 C   0  0  2  0  0  0  0  0  0  0  0  0
    6.8803    4.5853   10.1551 C   0  0  2  0  0  0  0  0  0  0  0  0
    8.2791    4.2069    9.9011 N   0  0  0  0  0  0  0  0  0  0  0  0
    7.3712    7.3483    4.6476 C   0  0  0  0  0  0  0  0  0  0  0  0
   13.0002    8.5051    6.0473 C   0  0  2  0  0  0  0  0  0  0  0  0
   13.0971    7.7865    4.8286 O   0  0  0  0  0  0  0  0  0  0  0  0
    5.9436    3.4153    9.7834 C   0  0  1  0  0  0  0  0  0  0  0  0
    6.3014    2.2502   10.5445 O   0  0  0  0  0  0  0  0  0  0  0  0
    6.7813    6.2855    5.6353 C   0  0  2  0  0  0  0  0  0  0  0  0
    5.3071    6.2760    5.5457 N   0  0  0  0  0  0  0  0  0  0  0  0
   13.5275    7.6414    7.2579 C   0  0  1  0  0  0  0  0  0  0  0  0
   14.9474    7.2328    7.0383 N   0  0  0  0  0  0  0  0  0  0  0  0
    4.4810    3.8428   10.0513 C   0  0  2  0  0  0  0  0  0  0  0  0
    3.5951    2.7659    9.6993 O   0  0  0  0  0  0  0  0  0  0  0  0
    7.1935    6.5974    7.0967 C   0  0  2  0  0  0  0  0  0  0  0  0
   13.3989    8.4798    8.5755 C   0  0  1  0  0  0  0  0  0  0  0  0
   14.2025    9.6526    8.4763 O   0  0  0  0  0  0  0  0  0  0  0  0
    4.1443    5.1317    9.2085 C   0  0  2  0  0  0  0  0  0  0  0  0
    5.0730    6.2219    9.5651 O   0  0  0  0  0  0  0  0  0  0  0  0
    8.7390    6.6190    7.2010 C   0  0  2  0  0  0  0  0  0  0  0  0
    9.0934    6.9250    8.5457 O   0  0  0  0  0  0  0  0  0  0  0  0
   11.9041    8.8896    8.7625 C   0  0  0  0  0  0  0  0  0  0  0  0
   11.4125    9.6405    7.5822 O   0  0  0  0  0  0  0  0  0  0  0  0
    2.6943    5.6236    9.4564 C   0  0  2  0  0  0  0  0  0  0  0  0
    1.7840    4.5510    9.2279 O   0  0  0  0  0  0  0  0  0  0  0  0
    9.3484    7.6966    6.2742 C   0  0  1  0  0  0  0  0  0  0  0  0
   10.7847    7.6325    6.4386 O   0  0  0  0  0  0  0  0  0  0  0  0
    2.3227    6.7627    8.5216 C   0  0  0  0  0  0  0  0  0  0  0  0
   13.8685    7.7004    9.7978 C   0  0  0  0  0  0  0  0  0  0  0  0
   14.9535    5.9933    6.2380 C   0  0  0  0  0  0  0  0  0  0  0  0
  1  2  1  6  0  0  0
  1  6  1  0  0  0  0
  1 23  1  0  0  0  0
  3  4  1  6  0  0  0
  3  8  1  0  0  0  0
  3 30  1  0  0  0  0
  5  9  1  0  0  0  0
  5 27  1  0  0  0  0
  5 31  1  1  0  0  0
  6  7  1  6  0  0  0
  6 11  1  0  0  0  0
  8 13  1  0  0  0  0
  9 10  1  6  0  0  0
  9 15  1  0  0  0  0
 11 12  1  1  0  0  0
 11 17  1  0  0  0  0
 13 14  1  1  0  0  0
 13 19  1  0  0  0  0
 15 16  1  6  0  0  0
 15 20  1  0  0  0  0
 16 34  1  0  0  0  0
 17 18  1  6  0  0  0
 17 22  1  0  0  0  0
 19  2  1  1  0  0  0
 19 24  1  0  0  0  0
 20 21  1  6  0  0  0
 20 26  1  0  0  0  0
 20 33  1  0  0  0  0
 22 23  1  1  0  0  0
 22 28  1  0  0  0  0
 24 25  1  1  0  0  0
 24 30  1  0  0  0  0
 26 27  1  0  0  0  0
 28 29  1  6  0  0  0
 28 32  1  0  0  0  0
 30 31  1  6  0  0  0
M  END
>  <CHROM.1>
-139.75350022,-159.07819565,-85.72756835,-53.73245441,97.31757026,-161.25631426
8.62729309,6.52512532,7.79537133,-2.76093009,-0.20451369,-1.03509500

>  <Name>
ligand

>  <RI>
0

>  <Rbt.Current_Directory>
/home/itssahil/PROJECTS/Mol_Feturizer/New_Systems/rnas/3TD1

>  <Rbt.Executable>
rbdock ($Id: //depot/dev/client3/rdock/2013.1/src/exe/rbdock.cxx#4 $)

>  <Rbt.Library>
libRbt.so (2013.1, Build901 2013/11/27)

>  <Rbt.Parameter_File>
/export/apps/rDock/src/rDock_2013.1_src/data/scripts/dock_solv.prm

>  <Rbt.Receptor>
prm/pocket_docking_3.prm

>  <SCORE>
-18.1762

>  <SCORE.INTER>
-15.7331

>  <SCORE.INTER.CONST>
1

>  <SCORE.INTER.POLAR>
0

>  <SCORE.INTER.ROT>
6

>  <SCORE.INTER.SOLV>
19.8705

>  <SCORE.INTER.VDW>
-24.7122

>  <SCORE.INTER.norm>
-0.462738

>  <SCORE.INTRA>
-2.44314

>  <SCORE.INTRA.DIHEDRAL>
-5.04013

>  <SCORE.INTRA.DIHEDRAL.0>
19.5869

>  <SCORE.INTRA.POLAR>
0

>  <SCORE.INTRA.POLAR.0>
0

>  <SCORE.INTRA.REPUL>
0

>  <SCORE.INTRA.REPUL.0>
0

>  <SCORE.INTRA.SOLV>
-0.26401

>  <SCORE.INTRA.SOLV.lig_0>
-70.101

>  <SCORE.INTRA.VDW>
0.208932

>  <SCORE.INTRA.VDW.0>
-3.39718

>  <SCORE.INTRA.norm>
-0.071857

>  <SCORE.RESTR>
0

>  <SCORE.RESTR.CAVITY>
0

>  <SCORE.RESTR.norm>
0

>  <SCORE.SYSTEM>
0

>  <SCORE.SYSTEM.CONST>
0

>  <SCORE.SYSTEM.DIHEDRAL>
0

>  <SCORE.SYSTEM.SOLV>
0

>  <SCORE.SYSTEM.norm>
0

>  <SCORE.heavy>
34

>  <SCORE.norm>
-0.534595

>  <RMSD>
1.022

$$$$
ligand
 OpenBabel11021811483D
libRbt.so/2013.1/901 2013/11/27
 34 36  0  0  0  0  0  0  0  0999 V2000
    6.4751    5.7826    9.3514 C   0  0  2  0  0  0  0  0  0  0  0  0
    6.6488    5.4840    7.9574 O   0  0  0  0  0  0  0  0  0  0  0  0
    8.8821    7.3314    4.8171 C   0  0  2  0  0  0  0  0  0  0  0  0
    9.4116    8.3293    3.8941 N   0  0  0  0  0  0  0  0  0  0  0  0
   11.4873    8.8757    6.3356 C   0  0  2  0  0  0  0  0  0  0  0  0
    6.8700    4.5042   10.1739 C   0  0  2  0  0  0  0  0  0  0  0  0
    8.2743    4.1342    9.9385 N   0  0  0  0  0  0  0  0  0  0  0  0
    7.3216    7.3701    4.7030 C   0  0  0  0  0  0  0  0  0  0  0  0
   12.9862    8.4981    6.0568 C   0  0  2  0  0  0  0  0  0  0  0  0
   13.0871    7.8047    4.8240 O   0  0  0  0  0  0  0  0  0  0  0  0
    5.9443    3.3343    9.7755 C   0  0  1  0  0  0  0  0  0  0  0  0
    6.2951    2.1630   10.5304 O   0  0  0  0  0  0  0  0  0  0  0  0
    6.7530    6.2829    5.6765 C   0  0  2  0  0  0  0  0  0  0  0  0
    5.2772    6.2748    5.6184 N   0  0  0  0  0  0  0  0  0  0  0  0
   13.5143    7.6117    7.2505 C   0  0  1  0  0  0  0  0  0  0  0  0
   14.9357    7.2118    7.0250 N   0  0  0  0  0  0  0  0  0  0  0  0
    4.4759    3.7530   10.0243 C   0  0  2  0  0  0  0  0  0  0  0  0
    3.6003    2.6760    9.6474 O   0  0  0  0  0  0  0  0  0  0  0  0
    7.1964    6.5586    7.1360 C   0  0  2  0  0  0  0  0  0  0  0  0
   13.3812    8.4229    8.5847 C   0  0  1  0  0  0  0  0  0  0  0  0
   14.1815    9.5998    8.5104 O   0  0  0  0  0  0  0  0  0  0  0  0
    4.1471    5.0489    9.1895 C   0  0  2  0  0  0  0  0  0  0  0  0
    5.0653    6.1393    9.5719 O   0  0  0  0  0  0  0  0  0  0  0  0
    8.7438    6.5784    7.2077 C   0  0  2  0  0  0  0  0  0  0  0  0
    9.1271    6.8511    8.5516 O   0  0  0  0  0  0  0  0  0  0  0  0
   11.8849    8.8245    8.7775 C   0  0  0  0  0  0  0  0  0  0  0  0
   11.3929    9.5976    7.6119 O   0  0  0  0  0  0  0  0  0  0  0  0
    2.6912    5.5322    9.4192 C   0  0  2  0  0  0  0  0  0  0  0  0
    1.7857    4.4797    9.0975 O   0  0  0  0  0  0  0  0  0  0  0  0
    9.3332    7.6789    6.2950 C   0  0  1  0  0  0  0  0  0  0  0  0
   10.7728    7.6114    6.4269 O   0  0  0  0  0  0  0  0  0  0  0  0
    2.3537    6.7270    8.5427 C   0  0  0  0  0  0  0  0  0  0  0  0
   13.8512    7.6203    9.7917 C   0  0  0  0  0  0  0  0  0  0  0  0
   14.9452    5.9342    6.2871 C   0  0  0  0  0  0  0  0  0  0  0  0
  1  2  1  6  0  0  0
  1  6  1  0  0  0  0
  1 23  1  0  0  0  0
  3  4  1  6  0  0  0
  3  8  1  0  0  0  0
  3 30  1  0  0  0  0
  5  9  1  0  0  0  0
  5 27  1  0  0  0  0
  5 31  1  1  0  0  0
  6  7  1  6  0  0  0
  6 11  1  0  0  0  0
  8 13  1  0  0  0  0
  9 10  1  6  0  0  0
  9 15  1  0  0  0  0
 11 12  1  1  0  0  0
 11 17  1  0  0  0  0
 13 14  1  1  0  0  0
 13 19  1  0  0  0  0
 15 16  1  6  0  0  0
 15 20  1  0  0  0  0
 16 34  1  0  0  0  0
 17 18  1  6  0  0  0
 17 22  1  0  0  0  0
 19  2  1  1  0  0  0
 19 24  1  0  0  0  0
 20 21  1  6  0  0  0
 20 26  1  0  0  0  0
 20 33  1  0  0  0  0
 22 23  1  1  0  0  0
 22 28  1  0  0  0  0
 24 25  1  1  0  0  0
 24 30  1  0  0  0  0
 26 27  1  0  0  0  0
 28 29  1  6  0  0  0
 28 32  1  0  0  0  0
 30 31  1  6  0  0  0
M  END
>  <CHROM.1>
-141.01792287,-156.51134656,-89.94030341,-56.76713401,97.79529511,-162.75099350
8.61740736,6.47975984,7.80241409,-2.75581234,-0.20010000,-1.00745357

>  <Name>
ligand

>  <RI>
0

>  <Rbt.Current_Directory>
/home/itssahil/PROJECTS/Mol_Feturizer/New_Systems/rnas/3TD1

>  <Rbt.Executable>
rbdock ($Id: //depot/dev/client3/rdock/2013.1/src/exe/rbdock.cxx#4 $)

>  <Rbt.Library>
libRbt.so (2013.1, Build901 2013/11/27)

>  <Rbt.Parameter_File>
/export/apps/rDock/src/rDock_2013.1_src/data/scripts/dock_solv.prm

>  <Rbt.Receptor>
prm/pocket_docking_4.prm

>  <SCORE>
-18.1968

>  <SCORE.INTER>
-15.4695

>  <SCORE.INTER.CONST>
1

>  <SCORE.INTER.POLAR>
0

>  <SCORE.INTER.ROT>
6

>  <SCORE.INTER.SOLV>
19.5641

>  <SCORE.INTER.VDW>
-24.4343

>  <SCORE.INTER.norm>
-0.454984

>  <SCORE.INTRA>
-2.72739

>  <SCORE.INTRA.DIHEDRAL>
-4.92757

>  <SCORE.INTRA.DIHEDRAL.0>
19.5869

>  <SCORE.INTRA.POLAR>
0

>  <SCORE.INTRA.POLAR.0>
0

>  <SCORE.INTRA.REPUL>
0

>  <SCORE.INTRA.REPUL.0>
0

>  <SCORE.INTRA.SOLV>
-0.254091

>  <SCORE.INTRA.SOLV.lig_0>
-70.101

>  <SCORE.INTRA.VDW>
-0.136558

>  <SCORE.INTRA.VDW.0>
-3.39718

>  <SCORE.INTRA.norm>
-0.0802172

>  <SCORE.RESTR>
0

>  <SCORE.RESTR.CAVITY>
0

>  <SCORE.RESTR.norm>
0

>  <SCORE.SYSTEM>
0

>  <SCORE.SYSTEM.CONST>
0

>  <SCORE.SYSTEM.DIHEDRAL>
0

>  <SCORE.SYSTEM.SOLV>
0

>  <SCORE.SYSTEM.norm>
0

>  <SCORE.heavy>
34

>  <SCORE.norm>
-0.535201

>  <RMSD>
1.024

$$$$
ligand
 OpenBabel11021811483D
libRbt.so/2013.1/901 2013/11/27
 34 36  0  0  0  0  0  0  0  0999 V2000
    6.6103    5.7601    9.4106 C   0  0  2  0  0  0  0  0  0  0  0  0
    6.7856    5.4677    8.0155 O   0  0  0  0  0  0  0  0  0  0  0  0
    9.1038    7.3154    4.9376 C   0  0  2  0  0  0  0  0  0  0  0  0
    9.6510    8.3112    4.0227 N   0  0  0  0  0  0  0  0  0  0  0  0
   11.6301    8.9149    6.4958 C   0  0  2  0  0  0  0  0  0  0  0  0
    6.9716    4.4674   10.2261 C   0  0  2  0  0  0  0  0  0  0  0  0
    8.3686    4.0677    9.9961 N   0  0  0  0  0  0  0  0  0  0  0  0
    7.5482    7.3268    4.7655 C   0  0  0  0  0  0  0  0  0  0  0  0
   13.1221    8.5482    6.1695 C   0  0  2  0  0  0  0  0  0  0  0  0
   13.1885    7.8529    4.9355 O   0  0  0  0  0  0  0  0  0  0  0  0
    6.0223    3.3214    9.8138 C   0  0  1  0  0  0  0  0  0  0  0  0
    6.3422    2.1371   10.5621 O   0  0  0  0  0  0  0  0  0  0  0  0
    6.9615    6.2417    5.7305 C   0  0  2  0  0  0  0  0  0  0  0  0
    5.4892    6.2084    5.6179 N   0  0  0  0  0  0  0  0  0  0  0  0
   13.6952    7.6685    7.3473 C   0  0  1  0  0  0  0  0  0  0  0  0
   15.1116    7.2790    7.0768 N   0  0  0  0  0  0  0  0  0  0  0  0
    4.5622    3.7711   10.0571 C   0  0  2  0  0  0  0  0  0  0  0  0
    3.6650    2.7168    9.6673 O   0  0  0  0  0  0  0  0  0  0  0  0
    7.3459    6.5417    7.2019 C   0  0  2  0  0  0  0  0  0  0  0  0
   13.5990    8.4816    8.6835 C   0  0  1  0  0  0  0  0  0  0  0  0
   14.3874    9.6644    8.5811 O   0  0  0  0  0  0  0  0  0  0  0  0
    4.2675    5.0801    9.2298 C   0  0  2  0  0  0  0  0  0  0  0  0
    5.2075    6.1468    9.6255 O   0  0  0  0  0  0  0  0  0  0  0  0
    8.8890    6.5880    7.3304 C   0  0  2  0  0  0  0  0  0  0  0  0
    9.2176    6.8826    8.6842 O   0  0  0  0  0  0  0  0  0  0  0  0
   12.1067    8.8722    8.9237 C   0  0  0  0  0  0  0  0  0  0  0  0
   11.5714    9.6390    7.7730 O   0  0  0  0  0  0  0  0  0  0  0  0
    2.8214    5.5943    9.4546 C   0  0  2  0  0  0  0  0  0  0  0  0
    1.8949    4.5608    9.1313 O   0  0  0  0  0  0  0  0  0  0  0  0
    9.4941    7.6875    6.4268 C   0  0  1  0  0  0  0  0  0  0  0  0
   10.9286    7.6454    6.6127 O   0  0  0  0  0  0  0  0  0  0  0  0
    2.5119    6.7950    8.5758 C   0  0  0  0  0  0  0  0  0  0  0  0
   14.1139    7.6853    9.8762 C   0  0  0  0  0  0  0  0  0  0  0  0
   15.1058    6.0326    6.2871 C   0  0  0  0  0  0  0  0  0  0  0  0
  1  2  1  6  0  0  0
  1  6  1  0  0  0  0
  1 23  1  0  0  0  0
  3  4  1  6  0  0  0
  3  8  1  0  0  0  0
  3 30  1  0  0  0  0
  5  9  1  0  0  0  0
  5 27  1  0  0  0  0
  5 31  1  1  0  0  0
  6  7  1  6  0  0  0
  6 11  1  0  0  0  0
  8 13  1  0  0  0  0
  9 10  1  6  0  0  0
  9 15  1  0  0  0  0
 11 12  1  1  0  0  0
 11 17  1  0  0  0  0
 13 14  1  1  0  0  0
 13 19  1  0  0  0  0
 15 16  1  6  0  0  0
 15 20  1  0  0  0  0
 16 34  1  0  0  0  0
 17 18  1  6  0  0  0
 17 22  1  0  0  0  0
 19  2  1  1  0  0  0
 19 24  1  0  0  0  0
 20 21  1  6  0  0  0
 20 26  1  0  0  0  0
 20 33  1  0  0  0  0
 22 23  1  1  0  0  0
 22 28  1  0  0  0  0
 24 25  1  1  0  0  0
 24 30  1  0  0  0  0
 26 27  1  0  0  0  0
 28 29  1  6  0  0  0
 28 32  1  0  0  0  0
 30 31  1  6  0  0  0
M  END
>  <CHROM.1>
-141.78540148,-159.15194089,-87.34331285,-56.25976215,96.16074003,-158.25876767
8.76937407,6.49975497,7.88012688,-2.76394892,-0.21074068,-1.01723503

>  <Name>
ligand

>  <RI>
0

>  <Rbt.Current_Directory>
/home/itssahil/PROJECTS/Mol_Feturizer/New_Systems/rnas/3TD1

>  <Rbt.Executable>
rbdock ($Id: //depot/dev/client3/rdock/2013.1/src/exe/rbdock.cxx#4 $)

>  <Rbt.Library>
libRbt.so (2013.1, Build901 2013/11/27)

>  <Rbt.Parameter_File>
/export/apps/rDock/src/rDock_2013.1_src/data/scripts/dock_solv.prm

>  <Rbt.Receptor>
prm/pocket_docking_5.prm

>  <SCORE>
-18.2113

>  <SCORE.INTER>
-15.6451

>  <SCORE.INTER.CONST>
1

>  <SCORE.INTER.POLAR>
0

>  <SCORE.INTER.ROT>
6

>  <SCORE.INTER.SOLV>
19.8628

>  <SCORE.INTER.VDW>
-24.651

>  <SCORE.INTER.norm>
-0.460151

>  <SCORE.INTRA>
-2.56613

>  <SCORE.INTRA.DIHEDRAL>
-5.14704

>  <SCORE.INTRA.DIHEDRAL.0>
19.5869

>  <SCORE.INTRA.POLAR>
0

>  <SCORE.INTRA.POLAR.0>
0

>  <SCORE.INTRA.REPUL>
0

>  <SCORE.INTRA.REPUL.0>
0

>  <SCORE.INTRA.SOLV>
-0.242438

>  <SCORE.INTRA.SOLV.lig_0>
-70.101

>  <SCORE.INTRA.VDW>
0.128607

>  <SCORE.INTRA.VDW.0>
-3.39718

>  <SCORE.INTRA.norm>
-0.0754745

>  <SCORE.RESTR>
0

>  <SCORE.RESTR.CAVITY>
0

>  <SCORE.RESTR.norm>
0

>  <SCORE.SYSTEM>
0

>  <SCORE.SYSTEM.CONST>
0

>  <SCORE.SYSTEM.DIHEDRAL>
0

>  <SCORE.SYSTEM.SOLV>
0

>  <SCORE.SYSTEM.norm>
0

>  <SCORE.heavy>
34

>  <SCORE.norm>
-0.535626

>  <RMSD>
1.029

$$$$
ligand
 OpenBabel11021811483D
libRbt.so/2013.1/901 2013/11/27
 34 36  0  0  0  0  0  0  0  0999 V2000
    6.5611    5.7421    9.3902 C   0  0  2  0  0  0  0  0  0  0  0  0
    6.7544    5.4367    8.0002 O   0  0  0  0  0  0  0  0  0  0  0  0
    8.9550    7.2994    4.8460 C   0  0  2  0  0  0  0  0  0  0  0  0
    9.4729    8.3013    3.9207 N   0  0  0  0  0  0  0  0  0  0  0  0
   11.5655    8.8519    6.3387 C   0  0  2  0  0  0  0  0  0  0  0  0
    6.9397    4.4663   10.2241 C   0  0  2  0  0  0  0  0  0  0  0  0
    8.3461    4.0908   10.0112 N   0  0  0  0  0  0  0  0  0  0  0  0
    7.3935    7.3313    4.7441 C   0  0  0  0  0  0  0  0  0  0  0  0
   13.0639    8.4789    6.0509 C   0  0  2  0  0  0  0  0  0  0  0  0
   13.1586    7.7796    4.8209 O   0  0  0  0  0  0  0  0  0  0  0  0
    6.0163    3.2974    9.8173 C   0  0  1  0  0  0  0  0  0  0  0  0
    6.3520    2.1284   10.5825 O   0  0  0  0  0  0  0  0  0  0  0  0
    6.8374    6.2399    5.7200 C   0  0  2  0  0  0  0  0  0  0  0  0
    5.3612    6.2253    5.6732 N   0  0  0  0  0  0  0  0  0  0  0  0
   13.6042    7.6008    7.2451 C   0  0  1  0  0  0  0  0  0  0  0  0
   15.0256    7.2053    7.0112 N   0  0  0  0  0  0  0  0  0  0  0  0
    4.5456    3.7218   10.0425 C   0  0  2  0  0  0  0  0  0  0  0  0
    3.6723    2.6459    9.6574 O   0  0  0  0  0  0  0  0  0  0  0  0
    7.2908    6.5152    7.1766 C   0  0  2  0  0  0  0  0  0  0  0  0
   13.4777    8.4182    8.5761 C   0  0  1  0  0  0  0  0  0  0  0  0
   14.2727    9.5979    8.4900 O   0  0  0  0  0  0  0  0  0  0  0  0
    4.2334    5.0151    9.1971 C   0  0  2  0  0  0  0  0  0  0  0  0
    5.1492    6.1043    9.5882 O   0  0  0  0  0  0  0  0  0  0  0  0
    8.8386    6.5418    7.2363 C   0  0  2  0  0  0  0  0  0  0  0  0
    9.2310    6.8139    8.5777 O   0  0  0  0  0  0  0  0  0  0  0  0
   11.9812    8.8148    8.7778 C   0  0  0  0  0  0  0  0  0  0  0  0
   11.4776    9.5800    7.6119 O   0  0  0  0  0  0  0  0  0  0  0  0
    2.7758    5.5039    9.4031 C   0  0  2  0  0  0  0  0  0  0  0  0
    1.8710    4.4641    9.0406 O   0  0  0  0  0  0  0  0  0  0  0  0
    9.4160    7.6465    6.3210 C   0  0  1  0  0  0  0  0  0  0  0  0
   10.8568    7.5853    6.4417 O   0  0  0  0  0  0  0  0  0  0  0  0
    2.4661    6.7176    8.5424 C   0  0  0  0  0  0  0  0  0  0  0  0
   13.9597    7.6237    9.7836 C   0  0  0  0  0  0  0  0  0  0  0  0
   15.0348    5.9290    6.2710 C   0  0  0  0  0  0  0  0  0  0  0  0
  1  2  1  6  0  0  0
  1  6  1  0  0  0  0
  1 23  1  0  0  0  0
  3  4  1  6  0  0  0
  3  8  1  0  0  0  0
  3 30  1  0  0  0  0
  5  9  1  0  0  0  0
  5 27  1  0  0  0  0
  5 31  1  1  0  0  0
  6  7  1  6  0  0  0
  6 11  1  0  0  0  0
  8 13  1  0  0  0  0
  9 10  1  6  0  0  0
  9 15  1  0  0  0  0
 11 12  1  1  0  0  0
 11 17  1  0  0  0  0
 13 14  1  1  0  0  0
 13 19  1  0  0  0  0
 15 16  1  6  0  0  0
 15 20  1  0  0  0  0
 16 34  1  0  0  0  0
 17 18  1  6  0  0  0
 17 22  1  0  0  0  0
 19  2  1  1  0  0  0
 19 24  1  0  0  0  0
 20 21  1  6  0  0  0
 20 26  1  0  0  0  0
 20 33  1  0  0  0  0
 22 23  1  1  0  0  0
 22 28  1  0  0  0  0
 24 25  1  1  0  0  0
 24 30  1  0  0  0  0
 26 27  1  0  0  0  0
 28 29  1  6  0  0  0
 28 32  1  0  0  0  0
 30 31  1  6  0  0  0
M  END
>  <CHROM.1>
-142.27927413,-155.12191451,-89.52744729,-58.21875279,97.42535396,-162.79552848
8.70179312,6.45314238,7.81748355,-2.75314663,-0.20059034,-1.00546343

>  <Name>
ligand

>  <RI>
0

>  <Rbt.Current_Directory>
/home/itssahil/PROJECTS/Mol_Feturizer/New_Systems/rnas/3TD1

>  <Rbt.Executable>
rbdock ($Id: //depot/dev/client3/rdock/2013.1/src/exe/rbdock.cxx#4 $)

>  <Rbt.Library>
libRbt.so (2013.1, Build901 2013/11/27)

>  <Rbt.Parameter_File>
/export/apps/rDock/src/rDock_2013.1_src/data/scripts/dock_solv.prm

>  <Rbt.Receptor>
prm/pocket_docking_4.prm

>  <SCORE>
-18.0445

>  <SCORE.INTER>
-15.3033

>  <SCORE.INTER.CONST>
1

>  <SCORE.INTER.POLAR>
0

>  <SCORE.INTER.ROT>
6

>  <SCORE.INTER.SOLV>
19.3813

>  <SCORE.INTER.VDW>
-24.2626

>  <SCORE.INTER.norm>
-0.450097

>  <SCORE.INTRA>
-2.74395

>  <SCORE.INTRA.DIHEDRAL>
-5.00428

>  <SCORE.INTRA.DIHEDRAL.0>
19.5869

>  <SCORE.INTRA.POLAR>
0

>  <SCORE.INTRA.POLAR.0>
0

>  <SCORE.INTRA.REPUL>
0

>  <SCORE.INTRA.REPUL.0>
0

>  <SCORE.INTRA.SOLV>
-0.219052

>  <SCORE.INTRA.SOLV.lig_0>
-70.101

>  <SCORE.INTRA.VDW>
-0.132283

>  <SCORE.INTRA.VDW.0>
-3.39718

>  <SCORE.INTRA.norm>
-0.0807044

>  <SCORE.RESTR>
0.0027124

>  <SCORE.RESTR.CAVITY>
0.0027124

>  <SCORE.RESTR.norm>
7.97766e-05

>  <SCORE.SYSTEM>
0

>  <SCORE.SYSTEM.CONST>
0

>  <SCORE.SYSTEM.DIHEDRAL>
0

>  <SCORE.SYSTEM.SOLV>
0

>  <SCORE.SYSTEM.norm>
0

>  <SCORE.heavy>
34

>  <SCORE.norm>
-0.530722

>  <RMSD>
1.052

$$$$
ligand
 OpenBabel11021811483D
libRbt.so/2013.1/901 2013/11/27
 34 36  0  0  0  0  0  0  0  0999 V2000
    6.1417    5.5782    8.5003 C   0  0  2  0  0  0  0  0  0  0  0  0
    6.2542    5.4294    7.0763 O   0  0  0  0  0  0  0  0  0  0  0  0
    8.7049    7.4271    4.2014 C   0  0  2  0  0  0  0  0  0  0  0  0
    9.3086    8.4712    3.3809 N   0  0  0  0  0  0  0  0  0  0  0  0
   11.2811    8.7653    5.7462 C   0  0  2  0  0  0  0  0  0  0  0  0
    5.9195    4.1526    9.1207 C   0  0  2  0  0  0  0  0  0  0  0  0
    7.0522    3.2619    8.8239 N   0  0  0  0  0  0  0  0  0  0  0  0
    7.1548    7.5139    4.0032 C   0  0  0  0  0  0  0  0  0  0  0  0
   12.7795    8.3043    5.6485 C   0  0  2  0  0  0  0  0  0  0  0  0
   12.9505    7.4570    4.5244 O   0  0  0  0  0  0  0  0  0  0  0  0
    4.6145    3.5484    8.5583 C   0  0  1  0  0  0  0  0  0  0  0  0
    4.4008    2.2466    9.1280 O   0  0  0  0  0  0  0  0  0  0  0  0
    6.5073    6.3782    4.8657 C   0  0  2  0  0  0  0  0  0  0  0  0
    5.0374    6.4124    4.7245 N   0  0  0  0  0  0  0  0  0  0  0  0
   13.1668    7.5590    6.9841 C   0  0  1  0  0  0  0  0  0  0  0  0
   14.5826    7.0852    6.9350 N   0  0  0  0  0  0  0  0  0  0  0  0
    3.4431    4.5079    8.8760 C   0  0  2  0  0  0  0  0  0  0  0  0
    2.2211    3.9630    8.3484 O   0  0  0  0  0  0  0  0  0  0  0  0
    6.8718    6.5427    6.3633 C   0  0  2  0  0  0  0  0  0  0  0  0
   12.9607    8.5370    8.1911 C   0  0  1  0  0  0  0  0  0  0  0  0
   13.8166    9.6669    8.0423 O   0  0  0  0  0  0  0  0  0  0  0  0
    3.7334    5.9232    8.2457 C   0  0  2  0  0  0  0  0  0  0  0  0
    4.9993    6.4613    8.7805 O   0  0  0  0  0  0  0  0  0  0  0  0
    8.4125    6.5175    6.5227 C   0  0  2  0  0  0  0  0  0  0  0  0
    8.7236    6.6883    7.9016 O   0  0  0  0  0  0  0  0  0  0  0  0
   11.4732    9.0109    8.2011 C   0  0  0  0  0  0  0  0  0  0  0  0
   11.1144    9.6463    6.9104 O   0  0  0  0  0  0  0  0  0  0  0  0
    2.6015    6.9378    8.5541 C   0  0  2  0  0  0  0  0  0  0  0  0
    2.2228    6.8243    9.9234 O   0  0  0  0  0  0  0  0  0  0  0  0
    9.0777    7.6617    5.7229 C   0  0  1  0  0  0  0  0  0  0  0  0
   10.5054    7.5481    5.9302 O   0  0  0  0  0  0  0  0  0  0  0  0
    1.3698    6.6775    7.7026 C   0  0  0  0  0  0  0  0  0  0  0  0
   13.2930    7.8785    9.5244 C   0  0  0  0  0  0  0  0  0  0  0  0
   14.5787    5.6519    6.5850 C   0  0  0  0  0  0  0  0  0  0  0  0
  1  2  1  6  0  0  0
  1  6  1  0  0  0  0
  1 23  1  0  0  0  0
  3  4  1  6  0  0  0
  3  8  1  0  0  0  0
  3 30  1  0  0  0  0
  5  9  1  0  0  0  0
  5 27  1  0  0  0  0
  5 31  1  1  0  0  0
  6  7  1  6  0  0  0
  6 11  1  0  0  0  0
  8 13  1  0  0  0  0
  9 10  1  6  0  0  0
  9 15  1  0  0  0  0
 11 12  1  1  0  0  0
 11 17  1  0  0  0  0
 13 14  1  1  0  0  0
 13 19  1  0  0  0  0
 15 16  1  6  0  0  0
 15 20  1  0  0  0  0
 16 34  1  0  0  0  0
 17 18  1  6  0  0  0
 17 22  1  0  0  0  0
 19  2  1  1  0  0  0
 19 24  1  0  0  0  0
 20 21  1  6  0  0  0
 20 26  1  0  0  0  0
 20 33  1  0  0  0  0
 22 23  1  1  0  0  0
 22 28  1  0  0  0  0
 24 25  1  1  0  0  0
 24 30  1  0  0  0  0
 26 27  1  0  0  0  0
 28 29  1  1  0  0  0
 28 32  1  0  0  0  0
 30 31  1  6  0  0  0
M  END
>  <CHROM.1>
-161.38251242,-163.13156516,-99.48253556,44.02778511,87.91996532,-165.38488400
8.14996975,6.65121091,7.15997391,-2.84297672,-0.18213280,-1.05647321

>  <Name>
ligand

>  <RI>
0

>  <Rbt.Current_Directory>
/home/itssahil/PROJECTS/Mol_Feturizer/New_Systems/rnas/3TD1

>  <Rbt.Executable>
rbdock ($Id: //depot/dev/client3/rdock/2013.1/src/exe/rbdock.cxx#4 $)

>  <Rbt.Library>
libRbt.so (2013.1, Build901 2013/11/27)

>  <Rbt.Parameter_File>
/export/apps/rDock/src/rDock_2013.1_src/data/scripts/dock_solv.prm

>  <Rbt.Receptor>
prm/pocket_docking_3.prm

>  <SCORE>
-18.0726

>  <SCORE.INTER>
-12.3147

>  <SCORE.INTER.CONST>
1

>  <SCORE.INTER.POLAR>
0

>  <SCORE.INTER.ROT>
6

>  <SCORE.INTER.SOLV>
19.9355

>  <SCORE.INTER.VDW>
-22.4549

>  <SCORE.INTER.norm>
-0.362196

>  <SCORE.INTRA>
-5.75791

>  <SCORE.INTRA.DIHEDRAL>
-10.6983

>  <SCORE.INTRA.DIHEDRAL.0>
19.5869

>  <SCORE.INTRA.POLAR>
0

>  <SCORE.INTRA.POLAR.0>
0

>  <SCORE.INTRA.REPUL>
0

>  <SCORE.INTRA.REPUL.0>
0

>  <SCORE.INTRA.SOLV>
-1.28114

>  <SCORE.INTRA.SOLV.lig_0>
-70.101

>  <SCORE.INTRA.VDW>
0.231787

>  <SCORE.INTRA.VDW.0>
-3.39718

>  <SCORE.INTRA.norm>
-0.16935

>  <SCORE.RESTR>
0

>  <SCORE.RESTR.CAVITY>
0

>  <SCORE.RESTR.norm>
0

>  <SCORE.SYSTEM>
0

>  <SCORE.SYSTEM.CONST>
0

>  <SCORE.SYSTEM.DIHEDRAL>
0

>  <SCORE.SYSTEM.SOLV>
0

>  <SCORE.SYSTEM.norm>
0

>  <SCORE.heavy>
34

>  <SCORE.norm>
-0.531546

>  <RMSD>
1.059

$$$$
ligand
 OpenBabel11021811483D
libRbt.so/2013.1/901 2013/11/27
 34 36  0  0  0  0  0  0  0  0999 V2000
    5.7712    5.9863    9.1885 C   0  0  2  0  0  0  0  0  0  0  0  0
    5.9298    5.7038    7.7893 O   0  0  0  0  0  0  0  0  0  0  0  0
    8.8250    7.1979    5.0239 C   0  0  2  0  0  0  0  0  0  0  0  0
    9.5796    8.0961    4.1568 N   0  0  0  0  0  0  0  0  0  0  0  0
   10.8472    8.4428    7.9648 C   0  0  2  0  0  0  0  0  0  0  0  0
    6.2057    4.7094    9.9931 C   0  0  2  0  0  0  0  0  0  0  0  0
    7.6138    4.3717    9.7331 N   0  0  0  0  0  0  0  0  0  0  0  0
    7.3195    7.3022    4.6090 C   0  0  0  0  0  0  0  0  0  0  0  0
   12.3727    8.6784    7.6740 C   0  0  2  0  0  0  0  0  0  0  0  0
   12.5343    9.2589    6.3903 O   0  0  0  0  0  0  0  0  0  0  0  0
    5.2992    3.5235    9.5981 C   0  0  1  0  0  0  0  0  0  0  0  0
    5.6863    2.3533   10.3367 O   0  0  0  0  0  0  0  0  0  0  0  0
    6.5117    6.3208    5.5239 C   0  0  2  0  0  0  0  0  0  0  0  0
    5.0757    6.3788    5.1830 N   0  0  0  0  0  0  0  0  0  0  0  0
   13.1246    7.2946    7.7690 C   0  0  1  0  0  0  0  0  0  0  0  0
   14.5813    7.4625    7.4840 N   0  0  0  0  0  0  0  0  0  0  0  0
    3.8261    3.9084    9.8729 C   0  0  2  0  0  0  0  0  0  0  0  0
    2.9680    2.8163    9.4993 O   0  0  0  0  0  0  0  0  0  0  0  0
    6.6876    6.6854    7.0202 C   0  0  2  0  0  0  0  0  0  0  0  0
   12.9148    6.6985    9.2030 C   0  0  1  0  0  0  0  0  0  0  0  0
   13.4723    7.5806   10.1736 O   0  0  0  0  0  0  0  0  0  0  0  0
    3.4571    5.2044    9.0550 C   0  0  2  0  0  0  0  0  0  0  0  0
    4.3576    6.3108    9.4335 O   0  0  0  0  0  0  0  0  0  0  0  0
    8.1919    6.6367    7.3872 C   0  0  2  0  0  0  0  0  0  0  0  0
    8.3305    6.9924    8.7590 O   0  0  0  0  0  0  0  0  0  0  0  0
   11.3826    6.5455    9.4606 C   0  0  0  0  0  0  0  0  0  0  0  0
   10.6890    7.8459    9.2981 O   0  0  0  0  0  0  0  0  0  0  0  0
    1.9949    5.6543    9.3112 C   0  0  2  0  0  0  0  0  0  0  0  0
    1.1072    4.5856    8.9934 O   0  0  0  0  0  0  0  0  0  0  0  0
    9.0095    7.6351    6.5351 C   0  0  1  0  0  0  0  0  0  0  0  0
   10.3913    7.5091    6.9461 O   0  0  0  0  0  0  0  0  0  0  0  0
    1.6188    6.8494    8.4510 C   0  0  0  0  0  0  0  0  0  0  0  0
   13.5947    5.3445    9.3650 C   0  0  0  0  0  0  0  0  0  0  0  0
   14.8810    6.7993    6.2005 C   0  0  0  0  0  0  0  0  0  0  0  0
  1  2  1  6  0  0  0
  1  6  1  0  0  0  0
  1 23  1  0  0  0  0
  3  4  1  6  0  0  0
  3  8  1  0  0  0  0
  3 30  1  0  0  0  0
  5  9  1  0  0  0  0
  5 27  1  0  0  0  0
  5 31  1  6  0  0  0
  6  7  1  6  0  0  0
  6 11  1  0  0  0  0
  8 13  1  0  0  0  0
  9 10  1  6  0  0  0
  9 15  1  0  0  0  0
 11 12  1  1  0  0  0
 11 17  1  0  0  0  0
 13 14  1  6  0  0  0
 13 19  1  0  0  0  0
 15 16  1  1  0  0  0
 15 20  1  0  0  0  0
 16 34  1  0  0  0  0
 17 18  1  6  0  0  0
 17 22  1  0  0  0  0
 19  2  1  1  0  0  0
 19 24  1  0  0  0  0
 20 21  1  1  0  0  0
 20 26  1  0  0  0  0
 20 33  1  0  0  0  0
 22 23  1  1  0  0  0
 22 28  1  0  0  0  0
 24 25  1  1  0  0  0
 24 30  1  0  0  0  0
 26 27  1  0  0  0  0
 28 29  1  6  0  0  0
 28 32  1  0  0  0  0
 30 31  1  1  0  0  0
M  END
>  <CHROM.1>
-128.99200004,-169.87312231,-111.64525576,-56.77366075,149.71934524,-149.23877541
8.11457775,6.30484282,8.06661747,-2.88146569,-0.16927046,-1.00746172

>  <Name>
ligand

>  <RI>
0

>  <Rbt.Current_Directory>
/home/itssahil/PROJECTS/Mol_Feturizer/New_Systems/rnas/3TD1

>  <Rbt.Executable>
rbdock ($Id: //depot/dev/client3/rdock/2013.1/src/exe/rbdock.cxx#4 $)

>  <Rbt.Library>
libRbt.so (2013.1, Build901 2013/11/27)

>  <Rbt.Parameter_File>
/export/apps/rDock/src/rDock_2013.1_src/data/scripts/dock_solv.prm

>  <Rbt.Receptor>
prm/pocket_docking_7.prm

>  <SCORE>
-14.1422

>  <SCORE.INTER>
-12.1012

>  <SCORE.INTER.CONST>
1

>  <SCORE.INTER.POLAR>
0

>  <SCORE.INTER.ROT>
6

>  <SCORE.INTER.SOLV>
18.7531

>  <SCORE.INTER.VDW>
-21.9185

>  <SCORE.INTER.norm>
-0.355919

>  <SCORE.INTRA>
-2.04092

>  <SCORE.INTRA.DIHEDRAL>
-3.69779

>  <SCORE.INTRA.DIHEDRAL.0>
19.5869

>  <SCORE.INTRA.POLAR>
0

>  <SCORE.INTRA.POLAR.0>
0

>  <SCORE.INTRA.REPUL>
0

>  <SCORE.INTRA.REPUL.0>
0

>  <SCORE.INTRA.SOLV>
-0.997655

>  <SCORE.INTRA.SOLV.lig_0>
-70.101

>  <SCORE.INTRA.VDW>
0.3068

>  <SCORE.INTRA.VDW.0>
-3.39718

>  <SCORE.INTRA.norm>
-0.0600271

>  <SCORE.RESTR>
0

>  <SCORE.RESTR.CAVITY>
0

>  <SCORE.RESTR.norm>
0

>  <SCORE.SYSTEM>
0

>  <SCORE.SYSTEM.CONST>
0

>  <SCORE.SYSTEM.DIHEDRAL>
0

>  <SCORE.SYSTEM.SOLV>
0

>  <SCORE.SYSTEM.norm>
0

>  <SCORE.heavy>
34

>  <SCORE.norm>
-0.415946

>  <RMSD>
1.064

$$$$
ligand
 OpenBabel11021811483D
libRbt.so/2013.1/901 2013/11/27
 34 36  0  0  0  0  0  0  0  0999 V2000
    6.4908    5.8020    9.3629 C   0  0  2  0  0  0  0  0  0  0  0  0
    6.6408    5.5021    7.9665 O   0  0  0  0  0  0  0  0  0  0  0  0
    8.8818    7.3168    4.8127 C   0  0  2  0  0  0  0  0  0  0  0  0
    9.4172    8.3060    3.8837 N   0  0  0  0  0  0  0  0  0  0  0  0
   11.5078    8.8371    6.2453 C   0  0  2  0  0  0  0  0  0  0  0  0
    6.8955    4.5231   10.1797 C   0  0  2  0  0  0  0  0  0  0  0  0
    8.2946    4.1490    9.9216 N   0  0  0  0  0  0  0  0  0  0  0  0
    7.3215    7.3669    4.7015 C   0  0  0  0  0  0  0  0  0  0  0  0
   13.0012    8.4239    5.9879 C   0  0  2  0  0  0  0  0  0  0  0  0
   13.0901    7.6531    4.8010 O   0  0  0  0  0  0  0  0  0  0  0  0
    5.9601    3.3555    9.7973 C   0  0  1  0  0  0  0  0  0  0  0  0
    6.3199    2.1836   10.5471 O   0  0  0  0  0  0  0  0  0  0  0  0
    6.7465    6.2889    5.6815 C   0  0  2  0  0  0  0  0  0  0  0  0
    5.2706    6.2919    5.6263 N   0  0  0  0  0  0  0  0  0  0  0  0
   13.5214    7.6078    7.2340 C   0  0  1  0  0  0  0  0  0  0  0  0
   14.9371    7.1766    7.0314 N   0  0  0  0  0  0  0  0  0  0  0  0
    4.4971    3.7785   10.0698 C   0  0  2  0  0  0  0  0  0  0  0  0
    3.6125    2.7037    9.7079 O   0  0  0  0  0  0  0  0  0  0  0  0
    7.1950    6.5684    7.1387 C   0  0  2  0  0  0  0  0  0  0  0  0
   13.4021    8.5029    8.5147 C   0  0  1  0  0  0  0  0  0  0  0  0
   14.2168    9.6626    8.3650 O   0  0  0  0  0  0  0  0  0  0  0  0
    4.1584    5.0748    9.2395 C   0  0  2  0  0  0  0  0  0  0  0  0
    5.0857    6.1629    9.6062 O   0  0  0  0  0  0  0  0  0  0  0  0
    8.7426    6.5766    7.2072 C   0  0  2  0  0  0  0  0  0  0  0  0
    9.1307    6.8530    8.5490 O   0  0  0  0  0  0  0  0  0  0  0  0
   11.9114    8.9346    8.6848 C   0  0  0  0  0  0  0  0  0  0  0  0
   11.4260    9.6391    7.4738 O   0  0  0  0  0  0  0  0  0  0  0  0
    2.7078    5.5624    9.4927 C   0  0  2  0  0  0  0  0  0  0  0  0
    1.7923    4.5244    9.1524 O   0  0  0  0  0  0  0  0  0  0  0  0
    9.3387    7.6681    6.2880 C   0  0  1  0  0  0  0  0  0  0  0  0
   10.7779    7.5902    6.4174 O   0  0  0  0  0  0  0  0  0  0  0  0
    2.3720    6.7808    8.6487 C   0  0  0  0  0  0  0  0  0  0  0  0
   13.8654    7.7719    9.7689 C   0  0  0  0  0  0  0  0  0  0  0  0
   14.9289    5.8663    6.3529 C   0  0  0  0  0  0  0  0  0  0  0  0
  1  2  1  6  0  0  0
  1  6  1  0  0  0  0
  1 23  1  0  0  0  0
  3  4  1  6  0  0  0
  3  8  1  0  0  0  0
  3 30  1  0  0  0  0
  5  9  1  0  0  0  0
  5 27  1  0  0  0  0
  5 31  1  1  0  0  0
  6  7  1  6  0  0  0
  6 11  1  0  0  0  0
  8 13  1  0  0  0  0
  9 10  1  6  0  0  0
  9 15  1  0  0  0  0
 11 12  1  1  0  0  0
 11 17  1  0  0  0  0
 13 14  1  1  0  0  0
 13 19  1  0  0  0  0
 15 16  1  6  0  0  0
 15 20  1  0  0  0  0
 16 34  1  0  0  0  0
 17 18  1  6  0  0  0
 17 22  1  0  0  0  0
 19  2  1  1  0  0  0
 19 24  1  0  0  0  0
 20 21  1  6  0  0  0
 20 26  1  0  0  0  0
 20 33  1  0  0  0  0
 22 23  1  1  0  0  0
 22 28  1  0  0  0  0
 24 25  1  1  0  0  0
 24 30  1  0  0  0  0
 26 27  1  0  0  0  0
 28 29  1  6  0  0  0
 28 32  1  0  0  0  0
 30 31  1  6  0  0  0
M  END
>  <CHROM.1>
-140.21193453,-157.40380820,-88.91691604,-58.31597037,94.53579488,-162.91801434
8.62819551,6.49095622,7.79822348,-2.74949796,-0.19297342,-1.00703251

>  <Name>
ligand

>  <RI>
0

>  <Rbt.Current_Directory>
/home/itssahil/PROJECTS/Mol_Feturizer/New_Systems/rnas/3TD1

>  <Rbt.Executable>
rbdock ($Id: //depot/dev/client3/rdock/2013.1/src/exe/rbdock.cxx#4 $)

>  <Rbt.Library>
libRbt.so (2013.1, Build901 2013/11/27)

>  <Rbt.Parameter_File>
/export/apps/rDock/src/rDock_2013.1_src/data/scripts/dock_solv.prm

>  <Rbt.Receptor>
prm/pocket_docking_5.prm

>  <SCORE>
-18.2968

>  <SCORE.INTER>
-15.3146

>  <SCORE.INTER.CONST>
1

>  <SCORE.INTER.POLAR>
0

>  <SCORE.INTER.ROT>
6

>  <SCORE.INTER.SOLV>
19.8148

>  <SCORE.INTER.VDW>
-24.4147

>  <SCORE.INTER.norm>
-0.450429

>  <SCORE.INTRA>
-2.98217

>  <SCORE.INTRA.DIHEDRAL>
-5.61016

>  <SCORE.INTRA.DIHEDRAL.0>
19.5869

>  <SCORE.INTRA.POLAR>
0

>  <SCORE.INTRA.POLAR.0>
0

>  <SCORE.INTRA.REPUL>
0

>  <SCORE.INTRA.REPUL.0>
0

>  <SCORE.INTRA.SOLV>
-0.282429

>  <SCORE.INTRA.SOLV.lig_0>
-70.101

>  <SCORE.INTRA.VDW>
-0.0358749

>  <SCORE.INTRA.VDW.0>
-3.39718

>  <SCORE.INTRA.norm>
-0.0877109

>  <SCORE.RESTR>
0

>  <SCORE.RESTR.CAVITY>
0

>  <SCORE.RESTR.norm>
0

>  <SCORE.SYSTEM>
0

>  <SCORE.SYSTEM.CONST>
0

>  <SCORE.SYSTEM.DIHEDRAL>
0

>  <SCORE.SYSTEM.SOLV>
0

>  <SCORE.SYSTEM.norm>
0

>  <SCORE.heavy>
34

>  <SCORE.norm>
-0.53814

>  <RMSD>
1.068

$$$$
ligand
 OpenBabel11021811483D
libRbt.so/2013.1/901 2013/11/27
 34 36  0  0  0  0  0  0  0  0999 V2000
    6.6069    5.6891    9.4882 C   0  0  2  0  0  0  0  0  0  0  0  0
    6.9410    5.3445    8.1345 O   0  0  0  0  0  0  0  0  0  0  0  0
    8.9051    7.2777    4.8685 C   0  0  2  0  0  0  0  0  0  0  0  0
    9.3469    8.2980    3.9242 N   0  0  0  0  0  0  0  0  0  0  0  0
   11.5815    8.8600    6.2690 C   0  0  2  0  0  0  0  0  0  0  0  0
    6.8967    4.4381   10.3924 C   0  0  2  0  0  0  0  0  0  0  0  0
    8.3171    4.0591   10.3351 N   0  0  0  0  0  0  0  0  0  0  0  0
    7.3399    7.2857    4.8676 C   0  0  0  0  0  0  0  0  0  0  0  0
   13.0922    8.5264    5.9974 C   0  0  2  0  0  0  0  0  0  0  0  0
   13.2207    7.8490    4.7583 O   0  0  0  0  0  0  0  0  0  0  0  0
    6.0183    3.2566    9.9269 C   0  0  1  0  0  0  0  0  0  0  0  0
    6.2727    2.1104   10.7553 O   0  0  0  0  0  0  0  0  0  0  0  0
    6.8645    6.1747    5.8638 C   0  0  2  0  0  0  0  0  0  0  0  0
    5.3888    6.1370    5.9118 N   0  0  0  0  0  0  0  0  0  0  0  0
   13.6358    7.6422    7.1857 C   0  0  1  0  0  0  0  0  0  0  0  0
   15.0692    7.2836    6.9665 N   0  0  0  0  0  0  0  0  0  0  0  0
    4.5329    3.6848    9.9884 C   0  0  2  0  0  0  0  0  0  0  0  0
    3.7021    2.5969    9.5469 O   0  0  0  0  0  0  0  0  0  0  0  0
    7.4067    6.4407    7.2914 C   0  0  2  0  0  0  0  0  0  0  0  0
   13.4712    8.4354    8.5272 C   0  0  1  0  0  0  0  0  0  0  0  0
   14.2395    9.6344    8.4709 O   0  0  0  0  0  0  0  0  0  0  0  0
    4.3103    4.9529    9.0790 C   0  0  2  0  0  0  0  0  0  0  0  0
    5.1827    6.0543    9.5304 O   0  0  0  0  0  0  0  0  0  0  0  0
    8.9545    6.4913    7.2518 C   0  0  2  0  0  0  0  0  0  0  0  0
    9.4284    6.7545    8.5685 O   0  0  0  0  0  0  0  0  0  0  0  0
   11.9631    8.7940    8.7131 C   0  0  0  0  0  0  0  0  0  0  0  0
   11.4585    9.5656    7.5520 O   0  0  0  0  0  0  0  0  0  0  0  0
    2.8399    5.4450    9.1209 C   0  0  2  0  0  0  0  0  0  0  0  0
    1.9760    4.3955    8.6925 O   0  0  0  0  0  0  0  0  0  0  0  0
    9.4549    7.6154    6.3150 C   0  0  1  0  0  0  0  0  0  0  0  0
   10.9012    7.5758    6.3421 O   0  0  0  0  0  0  0  0  0  0  0  0
    2.6226    6.6368    8.2033 C   0  0  0  0  0  0  0  0  0  0  0  0
   13.9544    7.6333    9.7292 C   0  0  0  0  0  0  0  0  0  0  0  0
   15.1189    6.0038    6.2339 C   0  0  0  0  0  0  0  0  0  0  0  0
  1  2  1  6  0  0  0
  1  6  1  0  0  0  0
  1 23  1  0  0  0  0
  3  4  1  6  0  0  0
  3  8  1  0  0  0  0
  3 30  1  0  0  0  0
  5  9  1  0  0  0  0
  5 27  1  0  0  0  0
  5 31  1  1  0  0  0
  6  7  1  6  0  0  0
  6 11  1  0  0  0  0
  8 13  1  0  0  0  0
  9 10  1  6  0  0  0
  9 15  1  0  0  0  0
 11 12  1  1  0  0  0
 11 17  1  0  0  0  0
 13 14  1  1  0  0  0
 13 19  1  0  0  0  0
 15 16  1  6  0  0  0
 15 20  1  0  0  0  0
 16 34  1  0  0  0  0
 17 18  1  6  0  0  0
 17 22  1  0  0  0  0
 19  2  1  1  0  0  0
 19 24  1  0  0  0  0
 20 21  1  6  0  0  0
 20 26  1  0  0  0  0
 20 33  1  0  0  0  0
 22 23  1  1  0  0  0
 22 28  1  0  0  0  0
 24 25  1  1  0  0  0
 24 30  1  0  0  0  0
 26 27  1  0  0  0  0
 28 29  1  6  0  0  0
 28 32  1  0  0  0  0
 30 31  1  6  0  0  0
M  END
>  <CHROM.1>
-149.52951513,-144.51719445,-90.80987229,-58.45310452,100.05821661,-167.84303611
8.73418757,6.43051865,7.80527453,-2.74744717,-0.21018222,-0.99988816

>  <Name>
ligand

>  <RI>
0

>  <Rbt.Current_Directory>
/home/itssahil/PROJECTS/Mol_Feturizer/New_Systems/rnas/3TD1

>  <Rbt.Executable>
rbdock ($Id: //depot/dev/client3/rdock/2013.1/src/exe/rbdock.cxx#4 $)

>  <Rbt.Library>
libRbt.so (2013.1, Build901 2013/11/27)

>  <Rbt.Parameter_File>
/export/apps/rDock/src/rDock_2013.1_src/data/scripts/dock_solv.prm

>  <Rbt.Receptor>
prm/pocket_docking_3.prm

>  <SCORE>
-18.1676

>  <SCORE.INTER>
-15.5022

>  <SCORE.INTER.CONST>
1

>  <SCORE.INTER.POLAR>
0

>  <SCORE.INTER.ROT>
6

>  <SCORE.INTER.SOLV>
18.666

>  <SCORE.INTER.VDW>
-24.1568

>  <SCORE.INTER.norm>
-0.455947

>  <SCORE.INTRA>
-2.66542

>  <SCORE.INTRA.DIHEDRAL>
-4.54126

>  <SCORE.INTRA.DIHEDRAL.0>
19.5869

>  <SCORE.INTRA.POLAR>
0

>  <SCORE.INTRA.POLAR.0>
0

>  <SCORE.INTRA.REPUL>
0

>  <SCORE.INTRA.REPUL.0>
0

>  <SCORE.INTRA.SOLV>
0.262018

>  <SCORE.INTRA.SOLV.lig_0>
-70.101

>  <SCORE.INTRA.VDW>
-0.525798

>  <SCORE.INTRA.VDW.0>
-3.39718

>  <SCORE.INTRA.norm>
-0.0783946

>  <SCORE.RESTR>
0

>  <SCORE.RESTR.CAVITY>
0

>  <SCORE.RESTR.norm>
0

>  <SCORE.SYSTEM>
0

>  <SCORE.SYSTEM.CONST>
0

>  <SCORE.SYSTEM.DIHEDRAL>
0

>  <SCORE.SYSTEM.SOLV>
0

>  <SCORE.SYSTEM.norm>
0

>  <SCORE.heavy>
34

>  <SCORE.norm>
-0.534342

>  <RMSD>
1.077

$$$$
ligand
 OpenBabel11021811483D
libRbt.so/2013.1/901 2013/11/27
 34 36  0  0  0  0  0  0  0  0999 V2000
    6.5429    5.8499    9.2899 C   0  0  2  0  0  0  0  0  0  0  0  0
    6.6561    5.5515    7.8897 O   0  0  0  0  0  0  0  0  0  0  0  0
    8.9601    7.3081    4.7484 C   0  0  2  0  0  0  0  0  0  0  0  0
    9.5159    8.2807    3.8139 N   0  0  0  0  0  0  0  0  0  0  0  0
   11.5605    8.8513    6.2701 C   0  0  2  0  0  0  0  0  0  0  0  0
    7.0143    4.5862   10.0946 C   0  0  2  0  0  0  0  0  0  0  0  0
    8.4152    4.2555    9.7908 N   0  0  0  0  0  0  0  0  0  0  0  0
    7.4021    7.3629    4.6090 C   0  0  0  0  0  0  0  0  0  0  0  0
   13.0591    8.4486    6.0273 C   0  0  2  0  0  0  0  0  0  0  0  0
   13.1723    7.7219    4.8149 O   0  0  0  0  0  0  0  0  0  0  0  0
    6.1039    3.3890    9.7449 C   0  0  1  0  0  0  0  0  0  0  0  0
    6.5248    2.2308   10.4839 O   0  0  0  0  0  0  0  0  0  0  0  0
    6.8054    6.3025    5.5951 C   0  0  2  0  0  0  0  0  0  0  0  0
    5.3306    6.3106    5.5138 N   0  0  0  0  0  0  0  0  0  0  0  0
   13.5556    7.5875    7.2527 C   0  0  1  0  0  0  0  0  0  0  0  0
   14.9756    7.1647    7.0623 N   0  0  0  0  0  0  0  0  0  0  0  0
    4.6382    3.7666   10.0651 C   0  0  2  0  0  0  0  0  0  0  0  0
    3.7763    2.6638    9.7341 O   0  0  0  0  0  0  0  0  0  0  0  0
    7.2294    6.6027    7.0556 C   0  0  2  0  0  0  0  0  0  0  0  0
   13.4100    8.4350    8.5627 C   0  0  1  0  0  0  0  0  0  0  0  0
   14.2261    9.5998    8.4717 O   0  0  0  0  0  0  0  0  0  0  0  0
    4.2317    5.0497    9.2448 C   0  0  2  0  0  0  0  0  0  0  0  0
    5.1360    6.1671    9.5791 O   0  0  0  0  0  0  0  0  0  0  0  0
    8.7756    6.6057    7.1512 C   0  0  2  0  0  0  0  0  0  0  0  0
    9.1412    6.9011    8.4952 O   0  0  0  0  0  0  0  0  0  0  0  0
   11.9158    8.8595    8.7190 C   0  0  0  0  0  0  0  0  0  0  0  0
   11.4534    9.6076    7.5253 O   0  0  0  0  0  0  0  0  0  0  0  0
    2.7757    5.4922    9.5452 C   0  0  2  0  0  0  0  0  0  0  0  0
    1.8912    4.3977    9.3194 O   0  0  0  0  0  0  0  0  0  0  0  0
    9.3924    7.6804    6.2260 C   0  0  1  0  0  0  0  0  0  0  0  0
   10.8288    7.5986    6.3819 O   0  0  0  0  0  0  0  0  0  0  0  0
    2.3431    6.6392    8.6468 C   0  0  0  0  0  0  0  0  0  0  0  0
   13.8493    7.6588    9.7982 C   0  0  0  0  0  0  0  0  0  0  0  0
   14.9808    5.8473    6.3981 C   0  0  0  0  0  0  0  0  0  0  0  0
  1  2  1  6  0  0  0
  1  6  1  0  0  0  0
  1 23  1  0  0  0  0
  3  4  1  6  0  0  0
  3  8  1  0  0  0  0
  3 30  1  0  0  0  0
  5  9  1  0  0  0  0
  5 27  1  0  0  0  0
  5 31  1  1  0  0  0
  6  7  1  6  0  0  0
  6 11  1  0  0  0  0
  8 13  1  0  0  0  0
  9 10  1  6  0  0  0
  9 15  1  0  0  0  0
 11 12  1  1  0  0  0
 11 17  1  0  0  0  0
 13 14  1  1  0  0  0
 13 19  1  0  0  0  0
 15 16  1  6  0  0  0
 15 20  1  0  0  0  0
 16 34  1  0  0  0  0
 17 18  1  6  0  0  0
 17 22  1  0  0  0  0
 19  2  1  1  0  0  0
 19 24  1  0  0  0  0
 20 21  1  6  0  0  0
 20 26  1  0  0  0  0
 20 33  1  0  0  0  0
 22 23  1  1  0  0  0
 22 28  1  0  0  0  0
 24 25  1  1  0  0  0
 24 30  1  0  0  0  0
 26 27  1  0  0  0  0
 28 29  1  6  0  0  0
 28 32  1  0  0  0  0
 30 31  1  6  0  0  0
M  END
>  <CHROM.1>
-136.41640156,-160.31564300,-91.78067330,-54.58203484,97.51541240,-162.86859500
8.69083065,6.48354165,7.78393278,-2.75388373,-0.20028900,-1.02387530

>  <Name>
ligand

>  <RI>
0

>  <Rbt.Current_Directory>
/home/itssahil/PROJECTS/Mol_Feturizer/New_Systems/rnas/3TD1

>  <Rbt.Executable>
rbdock ($Id: //depot/dev/client3/rdock/2013.1/src/exe/rbdock.cxx#4 $)

>  <Rbt.Library>
libRbt.so (2013.1, Build901 2013/11/27)

>  <Rbt.Parameter_File>
/export/apps/rDock/src/rDock_2013.1_src/data/scripts/dock_solv.prm

>  <Rbt.Receptor>
prm/pocket_docking_4.prm

>  <SCORE>
-18.0796

>  <SCORE.INTER>
-15.4285

>  <SCORE.INTER.CONST>
1

>  <SCORE.INTER.POLAR>
0

>  <SCORE.INTER.ROT>
6

>  <SCORE.INTER.SOLV>
19.6632

>  <SCORE.INTER.VDW>
-24.4401

>  <SCORE.INTER.norm>
-0.45378

>  <SCORE.INTRA>
-2.6621

>  <SCORE.INTRA.DIHEDRAL>
-4.79238

>  <SCORE.INTRA.DIHEDRAL.0>
19.5869

>  <SCORE.INTRA.POLAR>
0

>  <SCORE.INTRA.POLAR.0>
0

>  <SCORE.INTRA.REPUL>
0

>  <SCORE.INTRA.REPUL.0>
0

>  <SCORE.INTRA.SOLV>
-0.330095

>  <SCORE.INTRA.SOLV.lig_0>
-70.101

>  <SCORE.INTRA.VDW>
-0.100869

>  <SCORE.INTRA.VDW.0>
-3.39718

>  <SCORE.INTRA.norm>
-0.0782972

>  <SCORE.RESTR>
0.011072

>  <SCORE.RESTR.CAVITY>
0.011072

>  <SCORE.RESTR.norm>
0.000325648

>  <SCORE.SYSTEM>
0

>  <SCORE.SYSTEM.CONST>
0

>  <SCORE.SYSTEM.DIHEDRAL>
0

>  <SCORE.SYSTEM.SOLV>
0

>  <SCORE.SYSTEM.norm>
0

>  <SCORE.heavy>
34

>  <SCORE.norm>
-0.531752

>  <RMSD>
1.089

$$$$
ligand
 OpenBabel11021811483D
libRbt.so/2013.1/901 2013/11/27
 34 36  0  0  0  0  0  0  0  0999 V2000
    6.7557    5.4127    9.6652 C   0  0  2  0  0  0  0  0  0  0  0  0
    7.0974    5.1037    8.3050 O   0  0  0  0  0  0  0  0  0  0  0  0
    8.8447    7.1756    5.0011 C   0  0  2  0  0  0  0  0  0  0  0  0
    9.2139    8.2327    4.0661 N   0  0  0  0  0  0  0  0  0  0  0  0
   11.5528    8.7767    6.2480 C   0  0  2  0  0  0  0  0  0  0  0  0
    6.9902    4.1223   10.5292 C   0  0  2  0  0  0  0  0  0  0  0  0
    8.3977    3.6973   10.4775 N   0  0  0  0  0  0  0  0  0  0  0  0
    7.2819    7.1465    5.0811 C   0  0  0  0  0  0  0  0  0  0  0  0
   13.0686    8.4729    5.9704 C   0  0  2  0  0  0  0  0  0  0  0  0
   13.2010    7.7525    4.7563 O   0  0  0  0  0  0  0  0  0  0  0  0
    6.0793    2.9881   10.0112 C   0  0  1  0  0  0  0  0  0  0  0  0
    6.2831    1.8062   10.8025 O   0  0  0  0  0  0  0  0  0  0  0  0
    6.8840    5.9964    6.0669 C   0  0  2  0  0  0  0  0  0  0  0  0
    5.4140    5.9223    6.1898 N   0  0  0  0  0  0  0  0  0  0  0  0
   13.6493    7.6492    7.1844 C   0  0  1  0  0  0  0  0  0  0  0  0
   15.0892    7.3204    6.9611 N   0  0  0  0  0  0  0  0  0  0  0  0
    4.6084    3.4644   10.0679 C   0  0  2  0  0  0  0  0  0  0  0  0
    3.7480    2.4212    9.5779 O   0  0  0  0  0  0  0  0  0  0  0  0
    7.4939    6.2342    7.4720 C   0  0  2  0  0  0  0  0  0  0  0  0
   13.4788    8.4883    8.4969 C   0  0  1  0  0  0  0  0  0  0  0  0
   14.2141    9.7041    8.3859 O   0  0  0  0  0  0  0  0  0  0  0  0
    4.4417    4.7698    9.2003 C   0  0  2  0  0  0  0  0  0  0  0  0
    5.3441    5.8247    9.7014 O   0  0  0  0  0  0  0  0  0  0  0  0
    9.0361    6.3228    7.3542 C   0  0  2  0  0  0  0  0  0  0  0  0
    9.5721    6.5594    8.6519 O   0  0  0  0  0  0  0  0  0  0  0  0
   11.9639    8.8139    8.6879 C   0  0  0  0  0  0  0  0  0  0  0  0
   11.4255    9.5272    7.5048 O   0  0  0  0  0  0  0  0  0  0  0  0
    2.9882    5.3100    9.2400 C   0  0  2  0  0  0  0  0  0  0  0  0
    2.1001    4.3201    8.7276 O   0  0  0  0  0  0  0  0  0  0  0  0
    9.4617    7.4848    6.4267 C   0  0  1  0  0  0  0  0  0  0  0  0
   10.9080    7.4788    6.3780 O   0  0  0  0  0  0  0  0  0  0  0  0
    2.8341    6.5630    8.3938 C   0  0  0  0  0  0  0  0  0  0  0  0
   13.9971    7.7455    9.7223 C   0  0  0  0  0  0  0  0  0  0  0  0
   15.1626    6.0656    6.1884 C   0  0  0  0  0  0  0  0  0  0  0  0
  1  2  1  6  0  0  0
  1  6  1  0  0  0  0
  1 23  1  0  0  0  0
  3  4  1  6  0  0  0
  3  8  1  0  0  0  0
  3 30  1  0  0  0  0
  5  9  1  0  0  0  0
  5 27  1  0  0  0  0
  5 31  1  1  0  0  0
  6  7  1  6  0  0  0
  6 11  1  0  0  0  0
  8 13  1  0  0  0  0
  9 10  1  6  0  0  0
  9 15  1  0  0  0  0
 11 12  1  1  0  0  0
 11 17  1  0  0  0  0
 13 14  1  1  0  0  0
 13 19  1  0  0  0  0
 15 16  1  6  0  0  0
 15 20  1  0  0  0  0
 16 34  1  0  0  0  0
 17 18  1  6  0  0  0
 17 22  1  0  0  0  0
 19  2  1  1  0  0  0
 19 24  1  0  0  0  0
 20 21  1  6  0  0  0
 20 26  1  0  0  0  0
 20 33  1  0  0  0  0
 22 23  1  1  0  0  0
 22 28  1  0  0  0  0
 24 25  1  1  0  0  0
 24 30  1  0  0  0  0
 26 27  1  0  0  0  0
 28 29  1  6  0  0  0
 28 32  1  0  0  0  0
 30 31  1  6  0  0  0
M  END
>  <CHROM.1>
-154.99063373,-141.21028615,-86.65179469,-60.12329742,97.40908069,-170.47223801
8.78097608,6.30584991,7.88264505,-2.71259902,-0.20909275,-0.96078973

>  <Name>
ligand

>  <RI>
0

>  <Rbt.Current_Directory>
/home/itssahil/PROJECTS/Mol_Feturizer/New_Systems/rnas/3TD1

>  <Rbt.Executable>
rbdock ($Id: //depot/dev/client3/rdock/2013.1/src/exe/rbdock.cxx#4 $)

>  <Rbt.Library>
libRbt.so (2013.1, Build901 2013/11/27)

>  <Rbt.Parameter_File>
/export/apps/rDock/src/rDock_2013.1_src/data/scripts/dock_solv.prm

>  <Rbt.Receptor>
prm/pocket_docking_3.prm

>  <SCORE>
-18.3808

>  <SCORE.INTER>
-15.3179

>  <SCORE.INTER.CONST>
1

>  <SCORE.INTER.POLAR>
0

>  <SCORE.INTER.ROT>
6

>  <SCORE.INTER.SOLV>
18.743

>  <SCORE.INTER.VDW>
-24.0596

>  <SCORE.INTER.norm>
-0.450527

>  <SCORE.INTRA>
-3.0629

>  <SCORE.INTRA.DIHEDRAL>
-5.82736

>  <SCORE.INTRA.DIHEDRAL.0>
19.5869

>  <SCORE.INTRA.POLAR>
0

>  <SCORE.INTRA.POLAR.0>
0

>  <SCORE.INTRA.REPUL>
0

>  <SCORE.INTRA.REPUL.0>
0

>  <SCORE.INTRA.SOLV>
0.396102

>  <SCORE.INTRA.SOLV.lig_0>
-70.101

>  <SCORE.INTRA.VDW>
-0.347273

>  <SCORE.INTRA.VDW.0>
-3.39718

>  <SCORE.INTRA.norm>
-0.0900853

>  <SCORE.RESTR>
0

>  <SCORE.RESTR.CAVITY>
0

>  <SCORE.RESTR.norm>
0

>  <SCORE.SYSTEM>
0

>  <SCORE.SYSTEM.CONST>
0

>  <SCORE.SYSTEM.DIHEDRAL>
0

>  <SCORE.SYSTEM.SOLV>
0

>  <SCORE.SYSTEM.norm>
0

>  <SCORE.heavy>
34

>  <SCORE.norm>
-0.540613

>  <RMSD>
1.219

$$$$
ligand
 OpenBabel11021811483D
libRbt.so/2013.1/901 2013/11/27
 34 36  0  0  0  0  0  0  0  0999 V2000
    6.7559    5.3965    9.7187 C   0  0  2  0  0  0  0  0  0  0  0  0
    7.1412    5.0830    8.3712 O   0  0  0  0  0  0  0  0  0  0  0  0
    8.8269    7.1648    5.0416 C   0  0  2  0  0  0  0  0  0  0  0  0
    9.1788    8.2249    4.1032 N   0  0  0  0  0  0  0  0  0  0  0  0
   11.5594    8.7618    6.2554 C   0  0  2  0  0  0  0  0  0  0  0  0
    6.9536    4.1063   10.5921 C   0  0  2  0  0  0  0  0  0  0  0  0
    8.3595    3.6730   10.5884 N   0  0  0  0  0  0  0  0  0  0  0  0
    7.2658    7.1361    5.1510 C   0  0  0  0  0  0  0  0  0  0  0  0
   13.0729    8.4606    5.9625 C   0  0  2  0  0  0  0  0  0  0  0  0
   13.1951    7.7499    4.7416 O   0  0  0  0  0  0  0  0  0  0  0  0
    6.0539    2.9765   10.0456 C   0  0  1  0  0  0  0  0  0  0  0  0
    6.2240    1.7948   10.8452 O   0  0  0  0  0  0  0  0  0  0  0  0
    6.8861    5.9830    6.1404 C   0  0  2  0  0  0  0  0  0  0  0  0
    5.4186    5.9092    6.2908 N   0  0  0  0  0  0  0  0  0  0  0  0
   13.6638    7.6273    7.1650 C   0  0  1  0  0  0  0  0  0  0  0  0
   15.1018    7.3005    6.9269 N   0  0  0  0  0  0  0  0  0  0  0  0
    4.5848    3.4615   10.0521 C   0  0  2  0  0  0  0  0  0  0  0  0
    3.7352    2.4225    9.5351 O   0  0  0  0  0  0  0  0  0  0  0  0
    7.5225    6.2161    7.5345 C   0  0  2  0  0  0  0  0  0  0  0  0
   13.5044    8.4557    8.4855 C   0  0  1  0  0  0  0  0  0  0  0  0
   14.2385    9.6725    8.3781 O   0  0  0  0  0  0  0  0  0  0  0  0
    4.4550    4.7663    9.1774 C   0  0  2  0  0  0  0  0  0  0  0  0
    5.3463    5.8168    9.7067 O   0  0  0  0  0  0  0  0  0  0  0  0
    9.0622    6.3044    7.3879 C   0  0  2  0  0  0  0  0  0  0  0  0
    9.6227    6.5366    8.6760 O   0  0  0  0  0  0  0  0  0  0  0  0
   11.9911    8.7795    8.6919 C   0  0  0  0  0  0  0  0  0  0  0  0
   11.4427    9.5022    7.5192 O   0  0  0  0  0  0  0  0  0  0  0  0
    3.0043    5.3151    9.1673 C   0  0  2  0  0  0  0  0  0  0  0  0
    2.1227    4.3160    8.6614 O   0  0  0  0  0  0  0  0  0  0  0  0
    9.4708    7.4692    6.4563 C   0  0  1  0  0  0  0  0  0  0  0  0
   10.9159    7.4628    6.3803 O   0  0  0  0  0  0  0  0  0  0  0  0
    2.8777    6.5448    8.2833 C   0  0  0  0  0  0  0  0  0  0  0  0
   14.0330    7.7032    9.7005 C   0  0  0  0  0  0  0  0  0  0  0  0
   15.1711    6.0107    6.2138 C   0  0  0  0  0  0  0  0  0  0  0  0
  1  2  1  6  0  0  0
  1  6  1  0  0  0  0
  1 23  1  0  0  0  0
  3  4  1  6  0  0  0
  3  8  1  0  0  0  0
  3 30  1  0  0  0  0
  5  9  1  0  0  0  0
  5 27  1  0  0  0  0
  5 31  1  1  0  0  0
  6  7  1  6  0  0  0
  6 11  1  0  0  0  0
  8 13  1  0  0  0  0
  9 10  1  6  0  0  0
  9 15  1  0  0  0  0
 11 12  1  1  0  0  0
 11 17  1  0  0  0  0
 13 14  1  1  0  0  0
 13 19  1  0  0  0  0
 15 16  1  6  0  0  0
 15 20  1  0  0  0  0
 16 34  1  0  0  0  0
 17 18  1  6  0  0  0
 17 22  1  0  0  0  0
 19  2  1  1  0  0  0
 19 24  1  0  0  0  0
 20 21  1  6  0  0  0
 20 26  1  0  0  0  0
 20 33  1  0  0  0  0
 22 23  1  1  0  0  0
 22 28  1  0  0  0  0
 24 25  1  1  0  0  0
 24 30  1  0  0  0  0
 26 27  1  0  0  0  0
 28 29  1  6  0  0  0
 28 32  1  0  0  0  0
 30 31  1  6  0  0  0
M  END
>  <CHROM.1>
-157.28407019,-137.97584392,-89.98796427,-58.52691805,97.98131180,-171.13932757
8.78651678,6.28901111,7.89515907,-2.71318914,-0.20619879,-0.95586818

>  <Name>
ligand

>  <RI>
0

>  <Rbt.Current_Directory>
/home/itssahil/PROJECTS/Mol_Feturizer/New_Systems/rnas/3TD1

>  <Rbt.Executable>
rbdock ($Id: //depot/dev/client3/rdock/2013.1/src/exe/rbdock.cxx#4 $)

>  <Rbt.Library>
libRbt.so (2013.1, Build901 2013/11/27)

>  <Rbt.Parameter_File>
/export/apps/rDock/src/rDock_2013.1_src/data/scripts/dock_solv.prm

>  <Rbt.Receptor>
prm/pocket_docking_5.prm

>  <SCORE>
-18.4754

>  <SCORE.INTER>
-15.42

>  <SCORE.INTER.CONST>
1

>  <SCORE.INTER.POLAR>
0

>  <SCORE.INTER.ROT>
6

>  <SCORE.INTER.SOLV>
18.5727

>  <SCORE.INTER.VDW>
-24.0709

>  <SCORE.INTER.norm>
-0.453529

>  <SCORE.INTRA>
-3.05545

>  <SCORE.INTRA.DIHEDRAL>
-5.56333

>  <SCORE.INTRA.DIHEDRAL.0>
19.5869

>  <SCORE.INTRA.POLAR>
0

>  <SCORE.INTRA.POLAR.0>
0

>  <SCORE.INTRA.REPUL>
0

>  <SCORE.INTRA.REPUL.0>
0

>  <SCORE.INTRA.SOLV>
0.602124

>  <SCORE.INTRA.SOLV.lig_0>
-70.101

>  <SCORE.INTRA.VDW>
-0.574848

>  <SCORE.INTRA.VDW.0>
-3.39718

>  <SCORE.INTRA.norm>
-0.0898662

>  <SCORE.RESTR>
0

>  <SCORE.RESTR.CAVITY>
0

>  <SCORE.RESTR.norm>
0

>  <SCORE.SYSTEM>
0

>  <SCORE.SYSTEM.CONST>
0

>  <SCORE.SYSTEM.DIHEDRAL>
0

>  <SCORE.SYSTEM.SOLV>
0

>  <SCORE.SYSTEM.norm>
0

>  <SCORE.heavy>
34

>  <SCORE.norm>
-0.543395

>  <RMSD>
1.225

$$$$
ligand
 OpenBabel11021811483D
libRbt.so/2013.1/901 2013/11/27
 34 36  0  0  0  0  0  0  0  0999 V2000
    5.6877    5.9919    8.4411 C   0  0  2  0  0  0  0  0  0  0  0  0
    6.1028    5.5826    7.1286 O   0  0  0  0  0  0  0  0  0  0  0  0
    9.2237    6.8641    4.5058 C   0  0  2  0  0  0  0  0  0  0  0  0
   10.0929    7.7088    3.6939 N   0  0  0  0  0  0  0  0  0  0  0  0
   11.7894    7.8340    5.9758 C   0  0  2  0  0  0  0  0  0  0  0  0
    5.7570    4.7382    9.3845 C   0  0  2  0  0  0  0  0  0  0  0  0
    7.1269    4.2079    9.4630 N   0  0  0  0  0  0  0  0  0  0  0  0
    7.7509    7.1333    4.0497 C   0  0  0  0  0  0  0  0  0  0  0  0
   13.1315    7.3120    6.6031 C   0  0  2  0  0  0  0  0  0  0  0  0
   13.3798    5.9838    6.1730 O   0  0  0  0  0  0  0  0  0  0  0  0
    4.8006    3.6473    8.8555 C   0  0  1  0  0  0  0  0  0  0  0  0
    4.8530    2.4998    9.7187 O   0  0  0  0  0  0  0  0  0  0  0  0
    6.8188    6.2098    4.9048 C   0  0  2  0  0  0  0  0  0  0  0  0
    5.4081    6.4235    4.5232 N   0  0  0  0  0  0  0  0  0  0  0  0
   13.0168    7.3866    8.1750 C   0  0  1  0  0  0  0  0  0  0  0  0
   14.2663    6.8846    8.8216 N   0  0  0  0  0  0  0  0  0  0  0  0
    3.3712    4.2336    8.7745 C   0  0  2  0  0  0  0  0  0  0  0  0
    2.4701    3.2312    8.2726 O   0  0  0  0  0  0  0  0  0  0  0  0
    6.9802    6.5067    6.4176 C   0  0  2  0  0  0  0  0  0  0  0  0
   12.7437    8.8712    8.5957 C   0  0  1  0  0  0  0  0  0  0  0  0
   13.8334    9.6926    8.1849 O   0  0  0  0  0  0  0  0  0  0  0  0
    3.3708    5.4971    7.8320 C   0  0  2  0  0  0  0  0  0  0  0  0
    4.3137    6.5087    8.3474 O   0  0  0  0  0  0  0  0  0  0  0  0
    8.4590    6.2944    6.8278 C   0  0  2  0  0  0  0  0  0  0  0  0
    8.5865    6.5901    8.2147 O   0  0  0  0  0  0  0  0  0  0  0  0
   11.4357    9.3560    7.8946 C   0  0  0  0  0  0  0  0  0  0  0  0
   11.5427    9.2118    6.4228 O   0  0  0  0  0  0  0  0  0  0  0  0
    1.9650    6.1448    7.7320 C   0  0  2  0  0  0  0  0  0  0  0  0
    1.9928    7.1920    6.7657 O   0  0  0  0  0  0  0  0  0  0  0  0
    9.4004    7.2318    6.0362 C   0  0  1  0  0  0  0  0  0  0  0  0
   10.7482    6.9537    6.4839 O   0  0  0  0  0  0  0  0  0  0  0  0
    1.5287    6.7419    9.0598 C   0  0  0  0  0  0  0  0  0  0  0  0
   12.5962    9.0204   10.1049 C   0  0  0  0  0  0  0  0  0  0  0  0
   13.9367    5.6610    9.5772 C   0  0  0  0  0  0  0  0  0  0  0  0
  1  2  1  6  0  0  0
  1  6  1  0  0  0  0
  1 23  1  0  0  0  0
  3  4  1  6  0  0  0
  3  8  1  0  0  0  0
  3 30  1  0  0  0  0
  5  9  1  0  0  0  0
  5 27  1  0  0  0  0
  5 31  1  1  0  0  0
  6  7  1  6  0  0  0
  6 11  1  0  0  0  0
  8 13  1  0  0  0  0
  9 10  1  1  0  0  0
  9 15  1  0  0  0  0
 11 12  1  1  0  0  0
 11 17  1  0  0  0  0
 13 14  1  6  0  0  0
 13 19  1  0  0  0  0
 15 16  1  1  0  0  0
 15 20  1  0  0  0  0
 16 34  1  0  0  0  0
 17 18  1  6  0  0  0
 17 22  1  0  0  0  0
 19  2  1  1  0  0  0
 19 24  1  0  0  0  0
 20 21  1  6  0  0  0
 20 26  1  0  0  0  0
 20 33  1  0  0  0  0
 22 23  1  1  0  0  0
 22 28  1  0  0  0  0
 24 25  1  1  0  0  0
 24 30  1  0  0  0  0
 26 27  1  0  0  0  0
 28 29  1  6  0  0  0
 28 32  1  0  0  0  0
 30 31  1  1  0  0  0
M  END
>  <CHROM.1>
-138.10523211,-156.53371394,-115.05720646,-174.06297952,70.78843986,-179.71714716
8.18480605,6.50853090,7.43279805,-2.97125451,-0.22784898,-1.11142525

>  <Name>
ligand

>  <RI>
0

>  <Rbt.Current_Directory>
/home/itssahil/PROJECTS/Mol_Feturizer/New_Systems/rnas/3TD1

>  <Rbt.Executable>
rbdock ($Id: //depot/dev/client3/rdock/2013.1/src/exe/rbdock.cxx#4 $)

>  <Rbt.Library>
libRbt.so (2013.1, Build901 2013/11/27)

>  <Rbt.Parameter_File>
/export/apps/rDock/src/rDock_2013.1_src/data/scripts/dock_solv.prm

>  <Rbt.Receptor>
prm/pocket_docking_2.prm

>  <SCORE>
-15.1496

>  <SCORE.INTER>
-10.5528

>  <SCORE.INTER.CONST>
1

>  <SCORE.INTER.POLAR>
0

>  <SCORE.INTER.ROT>
6

>  <SCORE.INTER.SOLV>
16.0674

>  <SCORE.INTER.VDW>
-19.991

>  <SCORE.INTER.norm>
-0.310377

>  <SCORE.INTRA>
-4.59674

>  <SCORE.INTRA.DIHEDRAL>
-9.5568

>  <SCORE.INTRA.DIHEDRAL.0>
19.5869

>  <SCORE.INTRA.POLAR>
0

>  <SCORE.INTRA.POLAR.0>
0

>  <SCORE.INTRA.REPUL>
0

>  <SCORE.INTRA.REPUL.0>
0

>  <SCORE.INTRA.SOLV>
-0.521388

>  <SCORE.INTRA.SOLV.lig_0>
-70.101

>  <SCORE.INTRA.VDW>
0.442358

>  <SCORE.INTRA.VDW.0>
-3.39718

>  <SCORE.INTRA.norm>
-0.135198

>  <SCORE.RESTR>
0

>  <SCORE.RESTR.CAVITY>
0

>  <SCORE.RESTR.norm>
0

>  <SCORE.SYSTEM>
0

>  <SCORE.SYSTEM.CONST>
0

>  <SCORE.SYSTEM.DIHEDRAL>
0

>  <SCORE.SYSTEM.SOLV>
0

>  <SCORE.SYSTEM.norm>
0

>  <SCORE.heavy>
34

>  <SCORE.norm>
-0.445575

>  <RMSD>
1.272

$$$$
ligand
 OpenBabel11021811483D
libRbt.so/2013.1/901 2013/11/27
 34 36  0  0  0  0  0  0  0  0999 V2000
    5.7421    6.1235    8.4851 C   0  0  2  0  0  0  0  0  0  0  0  0
    6.1535    5.6735    7.1847 O   0  0  0  0  0  0  0  0  0  0  0  0
    9.3367    6.8182    4.5735 C   0  0  2  0  0  0  0  0  0  0  0  0
   10.2313    7.6215    3.7473 N   0  0  0  0  0  0  0  0  0  0  0  0
   11.8836    7.8329    6.0840 C   0  0  2  0  0  0  0  0  0  0  0  0
    5.8674    4.9138    9.4788 C   0  0  2  0  0  0  0  0  0  0  0  0
    7.2559    4.4343    9.5591 N   0  0  0  0  0  0  0  0  0  0  0  0
    7.8758    7.0898    4.0818 C   0  0  0  0  0  0  0  0  0  0  0  0
   13.2088    7.3108    6.7460 C   0  0  2  0  0  0  0  0  0  0  0  0
   13.4622    5.9787    6.3311 O   0  0  0  0  0  0  0  0  0  0  0  0
    4.9425    3.7696    9.0101 C   0  0  1  0  0  0  0  0  0  0  0  0
    5.0463    2.6620    9.9196 O   0  0  0  0  0  0  0  0  0  0  0  0
    6.9166    6.2101    4.9529 C   0  0  2  0  0  0  0  0  0  0  0  0
    5.5157    6.4281    4.5386 N   0  0  0  0  0  0  0  0  0  0  0  0
   13.0580    7.3970    8.3142 C   0  0  1  0  0  0  0  0  0  0  0  0
   14.2903    6.8954    8.9933 N   0  0  0  0  0  0  0  0  0  0  0  0
    3.4926    4.3029    8.9259 C   0  0  2  0  0  0  0  0  0  0  0  0
    2.6202    3.2501    8.4798 O   0  0  0  0  0  0  0  0  0  0  0  0
    7.0557    6.5597    6.4566 C   0  0  2  0  0  0  0  0  0  0  0  0
   12.7805    8.8855    8.7180 C   0  0  1  0  0  0  0  0  0  0  0  0
   13.8824    9.7003    8.3268 O   0  0  0  0  0  0  0  0  0  0  0  0
    3.4358    5.5247    7.9316 C   0  0  2  0  0  0  0  0  0  0  0  0
    4.3499    6.5887    8.3903 O   0  0  0  0  0  0  0  0  0  0  0  0
    8.5240    6.3433    6.9005 C   0  0  2  0  0  0  0  0  0  0  0  0
    8.6315    6.6876    8.2779 O   0  0  0  0  0  0  0  0  0  0  0  0
   11.4909    9.3698    7.9833 C   0  0  0  0  0  0  0  0  0  0  0  0
   11.6316    9.2147    6.5154 O   0  0  0  0  0  0  0  0  0  0  0  0
    2.0071    6.1194    7.8256 C   0  0  2  0  0  0  0  0  0  0  0  0
    1.9933    7.1475    6.8387 O   0  0  0  0  0  0  0  0  0  0  0  0
    9.4917    7.2390    6.0926 C   0  0  1  0  0  0  0  0  0  0  0  0
   10.8276    6.9599    6.5740 O   0  0  0  0  0  0  0  0  0  0  0  0
    1.5550    6.7266    9.1433 C   0  0  0  0  0  0  0  0  0  0  0  0
   12.5986    9.0460   10.2223 C   0  0  0  0  0  0  0  0  0  0  0  0
   13.9487    5.6537    9.7133 C   0  0  0  0  0  0  0  0  0  0  0  0
  1  2  1  6  0  0  0
  1  6  1  0  0  0  0
  1 23  1  0  0  0  0
  3  4  1  6  0  0  0
  3  8  1  0  0  0  0
  3 30  1  0  0  0  0
  5  9  1  0  0  0  0
  5 27  1  0  0  0  0
  5 31  1  1  0  0  0
  6  7  1  6  0  0  0
  6 11  1  0  0  0  0
  8 13  1  0  0  0  0
  9 10  1  1  0  0  0
  9 15  1  0  0  0  0
 11 12  1  1  0  0  0
 11 17  1  0  0  0  0
 13 14  1  6  0  0  0
 13 19  1  0  0  0  0
 15 16  1  1  0  0  0
 15 20  1  0  0  0  0
 16 34  1  0  0  0  0
 17 18  1  6  0  0  0
 17 22  1  0  0  0  0
 19  2  1  1  0  0  0
 19 24  1  0  0  0  0
 20 21  1  6  0  0  0
 20 26  1  0  0  0  0
 20 33  1  0  0  0  0
 22 23  1  1  0  0  0
 22 28  1  0  0  0  0
 24 25  1  1  0  0  0
 24 30  1  0  0  0  0
 26 27  1  0  0  0  0
 28 29  1  6  0  0  0
 28 32  1  0  0  0  0
 30 31  1  1  0  0  0
M  END
>  <CHROM.1>
-134.46385178,-157.71158985,-113.21828039,-175.45802731,72.56319489,-179.68294028
8.26148310,6.54182211,7.53214861,-2.98644707,-0.22953345,-1.15924776

>  <Name>
ligand

>  <RI>
0

>  <Rbt.Current_Directory>
/home/itssahil/PROJECTS/Mol_Feturizer/New_Systems/rnas/3TD1

>  <Rbt.Executable>
rbdock ($Id: //depot/dev/client3/rdock/2013.1/src/exe/rbdock.cxx#4 $)

>  <Rbt.Library>
libRbt.so (2013.1, Build901 2013/11/27)

>  <Rbt.Parameter_File>
/export/apps/rDock/src/rDock_2013.1_src/data/scripts/dock_solv.prm

>  <Rbt.Receptor>
prm/pocket_docking_2.prm

>  <SCORE>
-15.1303

>  <SCORE.INTER>
-10.6941

>  <SCORE.INTER.CONST>
1

>  <SCORE.INTER.POLAR>
0

>  <SCORE.INTER.ROT>
6

>  <SCORE.INTER.SOLV>
15.538

>  <SCORE.INTER.VDW>
-19.9087

>  <SCORE.INTER.norm>
-0.314533

>  <SCORE.INTRA>
-4.43621

>  <SCORE.INTRA.DIHEDRAL>
-9.13029

>  <SCORE.INTRA.DIHEDRAL.0>
19.5869

>  <SCORE.INTRA.POLAR>
0

>  <SCORE.INTRA.POLAR.0>
0

>  <SCORE.INTRA.REPUL>
0

>  <SCORE.INTRA.REPUL.0>
0

>  <SCORE.INTRA.SOLV>
-0.548214

>  <SCORE.INTRA.SOLV.lig_0>
-70.101

>  <SCORE.INTRA.VDW>
0.403046

>  <SCORE.INTRA.VDW.0>
-3.39718

>  <SCORE.INTRA.norm>
-0.130477

>  <SCORE.RESTR>
0

>  <SCORE.RESTR.CAVITY>
0

>  <SCORE.RESTR.norm>
0

>  <SCORE.SYSTEM>
0

>  <SCORE.SYSTEM.CONST>
0

>  <SCORE.SYSTEM.DIHEDRAL>
0

>  <SCORE.SYSTEM.SOLV>
0

>  <SCORE.SYSTEM.norm>
0

>  <SCORE.heavy>
34

>  <SCORE.norm>
-0.44501

>  <RMSD>
1.275

$$$$
ligand
 OpenBabel11021811483D
libRbt.so/2013.1/901 2013/11/27
 34 36  0  0  0  0  0  0  0  0999 V2000
    5.6014    6.3129    8.2939 C   0  0  2  0  0  0  0  0  0  0  0  0
    6.0108    5.8209    7.0082 O   0  0  0  0  0  0  0  0  0  0  0  0
    9.2357    6.8450    4.3981 C   0  0  2  0  0  0  0  0  0  0  0  0
   10.1468    7.6106    3.5544 N   0  0  0  0  0  0  0  0  0  0  0  0
   11.7665    7.9137    5.9227 C   0  0  2  0  0  0  0  0  0  0  0  0
    5.8115    5.1628    9.3425 C   0  0  2  0  0  0  0  0  0  0  0  0
    7.2252    4.7622    9.4150 N   0  0  0  0  0  0  0  0  0  0  0  0
    7.7834    7.1084    3.8776 C   0  0  0  0  0  0  0  0  0  0  0  0
   13.0947    7.3379    6.5320 C   0  0  2  0  0  0  0  0  0  0  0  0
   13.3042    6.0148    6.0670 O   0  0  0  0  0  0  0  0  0  0  0  0
    4.9408    3.9491    8.9511 C   0  0  1  0  0  0  0  0  0  0  0  0
    5.1222    2.8954    9.9111 O   0  0  0  0  0  0  0  0  0  0  0  0
    6.8064    6.2686    4.7681 C   0  0  2  0  0  0  0  0  0  0  0  0
    5.4126    6.4809    4.3278 N   0  0  0  0  0  0  0  0  0  0  0  0
   12.9861    7.3750    8.1057 C   0  0  1  0  0  0  0  0  0  0  0  0
   14.2225    6.8213    8.7352 N   0  0  0  0  0  0  0  0  0  0  0  0
    3.4628    4.3999    8.8734 C   0  0  2  0  0  0  0  0  0  0  0  0
    2.6400    3.2813    8.4989 O   0  0  0  0  0  0  0  0  0  0  0  0
    6.9289    6.6729    6.2595 C   0  0  2  0  0  0  0  0  0  0  0  0
   12.7563    8.8553    8.5654 C   0  0  1  0  0  0  0  0  0  0  0  0
   13.8679    9.6560    8.1725 O   0  0  0  0  0  0  0  0  0  0  0  0
    3.3203    5.5657    7.8221 C   0  0  2  0  0  0  0  0  0  0  0  0
    4.1845    6.6983    8.2076 O   0  0  0  0  0  0  0  0  0  0  0  0
    8.3898    6.4628    6.7303 C   0  0  2  0  0  0  0  0  0  0  0  0
    8.4822    6.8573    8.0953 O   0  0  0  0  0  0  0  0  0  0  0  0
   11.4609    9.3950    7.8812 C   0  0  0  0  0  0  0  0  0  0  0  0
   11.5602    9.2859    6.4059 O   0  0  0  0  0  0  0  0  0  0  0  0
    1.8598    6.0777    7.7191 C   0  0  2  0  0  0  0  0  0  0  0  0
    1.7663    7.0369    6.6692 O   0  0  0  0  0  0  0  0  0  0  0  0
    9.3745    7.3209    5.9024 C   0  0  1  0  0  0  0  0  0  0  0  0
   10.7019    7.0505    6.4113 O   0  0  0  0  0  0  0  0  0  0  0  0
    1.4093    6.7458    9.0077 C   0  0  0  0  0  0  0  0  0  0  0  0
   12.6169    8.9696   10.0784 C   0  0  0  0  0  0  0  0  0  0  0  0
   13.8686    5.5643    9.4220 C   0  0  0  0  0  0  0  0  0  0  0  0
  1  2  1  6  0  0  0
  1  6  1  0  0  0  0
  1 23  1  0  0  0  0
  3  4  1  6  0  0  0
  3  8  1  0  0  0  0
  3 30  1  0  0  0  0
  5  9  1  0  0  0  0
  5 27  1  0  0  0  0
  5 31  1  1  0  0  0
  6  7  1  6  0  0  0
  6 11  1  0  0  0  0
  8 13  1  0  0  0  0
  9 10  1  6  0  0  0
  9 15  1  0  0  0  0
 11 12  1  1  0  0  0
 11 17  1  0  0  0  0
 13 14  1  6  0  0  0
 13 19  1  0  0  0  0
 15 16  1  1  0  0  0
 15 20  1  0  0  0  0
 16 34  1  0  0  0  0
 17 18  1  6  0  0  0
 17 22  1  0  0  0  0
 19  2  1  1  0  0  0
 19 24  1  0  0  0  0
 20 21  1  6  0  0  0
 20 26  1  0  0  0  0
 20 33  1  0  0  0  0
 22 23  1  1  0  0  0
 22 28  1  0  0  0  0
 24 25  1  1  0  0  0
 24 30  1  0  0  0  0
 26 27  1  0  0  0  0
 28 29  1  6  0  0  0
 28 32  1  0  0  0  0
 30 31  1  1  0  0  0
M  END
>  <CHROM.1>
-130.09836281,-158.57845794,-113.18906948,-174.51319595,73.70726412,-175.58760429
8.17362417,6.60294762,7.37425480,-2.99243663,-0.22035796,-1.19080114

>  <Name>
ligand

>  <RI>
0

>  <Rbt.Current_Directory>
/home/itssahil/PROJECTS/Mol_Feturizer/New_Systems/rnas/3TD1

>  <Rbt.Executable>
rbdock ($Id: //depot/dev/client3/rdock/2013.1/src/exe/rbdock.cxx#4 $)

>  <Rbt.Library>
libRbt.so (2013.1, Build901 2013/11/27)

>  <Rbt.Parameter_File>
/export/apps/rDock/src/rDock_2013.1_src/data/scripts/dock_solv.prm

>  <Rbt.Receptor>
prm/pocket_docking_2.prm

>  <SCORE>
-15.1476

>  <SCORE.INTER>
-11.0189

>  <SCORE.INTER.CONST>
1

>  <SCORE.INTER.POLAR>
0

>  <SCORE.INTER.ROT>
6

>  <SCORE.INTER.SOLV>
16.0001

>  <SCORE.INTER.VDW>
-20.2793

>  <SCORE.INTER.norm>
-0.324086

>  <SCORE.INTRA>
-4.12869

>  <SCORE.INTRA.DIHEDRAL>
-8.52183

>  <SCORE.INTRA.DIHEDRAL.0>
19.5869

>  <SCORE.INTRA.POLAR>
0

>  <SCORE.INTRA.POLAR.0>
0

>  <SCORE.INTRA.REPUL>
0

>  <SCORE.INTRA.REPUL.0>
0

>  <SCORE.INTRA.SOLV>
-0.526788

>  <SCORE.INTRA.SOLV.lig_0>
-70.101

>  <SCORE.INTRA.VDW>
0.395624

>  <SCORE.INTRA.VDW.0>
-3.39718

>  <SCORE.INTRA.norm>
-0.121432

>  <SCORE.RESTR>
0

>  <SCORE.RESTR.CAVITY>
0

>  <SCORE.RESTR.norm>
0

>  <SCORE.SYSTEM>
0

>  <SCORE.SYSTEM.CONST>
0

>  <SCORE.SYSTEM.DIHEDRAL>
0

>  <SCORE.SYSTEM.SOLV>
0

>  <SCORE.SYSTEM.norm>
0

>  <SCORE.heavy>
34

>  <SCORE.norm>
-0.445518

>  <RMSD>
1.294

$$$$
ligand
 OpenBabel11021811483D
libRbt.so/2013.1/901 2013/11/27
 34 36  0  0  0  0  0  0  0  0999 V2000
    5.7596    6.1088    8.5107 C   0  0  2  0  0  0  0  0  0  0  0  0
    6.1760    5.6571    7.2126 O   0  0  0  0  0  0  0  0  0  0  0  0
    9.3989    6.7645    4.6342 C   0  0  2  0  0  0  0  0  0  0  0  0
   10.3122    7.5576    3.8186 N   0  0  0  0  0  0  0  0  0  0  0  0
   11.9394    7.7630    6.2009 C   0  0  2  0  0  0  0  0  0  0  0  0
    5.8893    4.9027    9.5083 C   0  0  2  0  0  0  0  0  0  0  0  0
    7.2801    4.4309    9.5928 N   0  0  0  0  0  0  0  0  0  0  0  0
    7.9466    7.0576    4.1297 C   0  0  0  0  0  0  0  0  0  0  0  0
   13.2450    7.2428    6.9024 C   0  0  2  0  0  0  0  0  0  0  0  0
   13.5196    5.9155    6.4858 O   0  0  0  0  0  0  0  0  0  0  0  0
    4.9714    3.7522    9.0411 C   0  0  1  0  0  0  0  0  0  0  0  0
    5.0792    2.6479    9.9542 O   0  0  0  0  0  0  0  0  0  0  0  0
    6.9672    6.1890    4.9894 C   0  0  2  0  0  0  0  0  0  0  0  0
    5.5734    6.4274    4.5628 N   0  0  0  0  0  0  0  0  0  0  0  0
   13.0419    7.3157    8.4654 C   0  0  1  0  0  0  0  0  0  0  0  0
   14.2540    6.8154    9.1809 N   0  0  0  0  0  0  0  0  0  0  0  0
    3.5189    4.2775    8.9524 C   0  0  2  0  0  0  0  0  0  0  0  0
    2.6530    3.2187    8.5077 O   0  0  0  0  0  0  0  0  0  0  0  0
    7.0970    6.5326    6.4953 C   0  0  2  0  0  0  0  0  0  0  0  0
   12.7428    8.7994    8.8713 C   0  0  1  0  0  0  0  0  0  0  0  0
   13.8523    9.6232    8.5233 O   0  0  0  0  0  0  0  0  0  0  0  0
    3.4576    5.4960    7.9544 C   0  0  2  0  0  0  0  0  0  0  0  0
    4.3651    6.5663    8.4117 O   0  0  0  0  0  0  0  0  0  0  0  0
    8.5581    6.2947    6.9522 C   0  0  2  0  0  0  0  0  0  0  0  0
    8.6574    6.6339    8.3316 O   0  0  0  0  0  0  0  0  0  0  0  0
   11.4754    9.2825    8.0981 C   0  0  0  0  0  0  0  0  0  0  0  0
   11.6654    9.1399    6.6346 O   0  0  0  0  0  0  0  0  0  0  0  0
    2.0260    6.0827    7.8437 C   0  0  2  0  0  0  0  0  0  0  0  0
    2.0055    7.0982    6.8439 O   0  0  0  0  0  0  0  0  0  0  0  0
    9.5455    7.1791    6.1558 C   0  0  1  0  0  0  0  0  0  0  0  0
   10.8729    6.8803    6.6489 O   0  0  0  0  0  0  0  0  0  0  0  0
    1.5736    6.7046    9.1546 C   0  0  0  0  0  0  0  0  0  0  0  0
   12.5103    8.9469   10.3700 C   0  0  0  0  0  0  0  0  0  0  0  0
   13.8944    5.5691    9.8842 C   0  0  0  0  0  0  0  0  0  0  0  0
  1  2  1  6  0  0  0
  1  6  1  0  0  0  0
  1 23  1  0  0  0  0
  3  4  1  6  0  0  0
  3  8  1  0  0  0  0
  3 30  1  0  0  0  0
  5  9  1  0  0  0  0
  5 27  1  0  0  0  0
  5 31  1  1  0  0  0
  6  7  1  6  0  0  0
  6 11  1  0  0  0  0
  8 13  1  0  0  0  0
  9 10  1  6  0  0  0
  9 15  1  0  0  0  0
 11 12  1  1  0  0  0
 11 17  1  0  0  0  0
 13 14  1  6  0  0  0
 13 19  1  0  0  0  0
 15 16  1  1  0  0  0
 15 20  1  0  0  0  0
 16 34  1  0  0  0  0
 17 18  1  6  0  0  0
 17 22  1  0  0  0  0
 19  2  1  1  0  0  0
 19 24  1  0  0  0  0
 20 21  1  6  0  0  0
 20 26  1  0  0  0  0
 20 33  1  0  0  0  0
 22 23  1  1  0  0  0
 22 28  1  0  0  0  0
 24 25  1  1  0  0  0
 24 30  1  0  0  0  0
 26 27  1  0  0  0  0
 28 29  1  6  0  0  0
 28 32  1  0  0  0  0
 30 31  1  1  0  0  0
M  END
>  <CHROM.1>
-133.22440707,-157.75932637,-113.45075156,-174.85400364,74.23603951,178.61290393
8.28236830,6.49438782,7.60613395,-3.00308765,-0.23039338,-1.17174374

>  <Name>
ligand

>  <RI>
0

>  <Rbt.Current_Directory>
/home/itssahil/PROJECTS/Mol_Feturizer/New_Systems/rnas/3TD1

>  <Rbt.Executable>
rbdock ($Id: //depot/dev/client3/rdock/2013.1/src/exe/rbdock.cxx#4 $)

>  <Rbt.Library>
libRbt.so (2013.1, Build901 2013/11/27)

>  <Rbt.Parameter_File>
/export/apps/rDock/src/rDock_2013.1_src/data/scripts/dock_solv.prm

>  <Rbt.Receptor>
prm/pocket_docking_8.prm

>  <SCORE>
-15.0248

>  <SCORE.INTER>
-10.7201

>  <SCORE.INTER.CONST>
1

>  <SCORE.INTER.POLAR>
0

>  <SCORE.INTER.ROT>
6

>  <SCORE.INTER.SOLV>
14.8011

>  <SCORE.INTER.VDW>
-19.6804

>  <SCORE.INTER.norm>
-0.315296

>  <SCORE.INTRA>
-4.30469

>  <SCORE.INTRA.DIHEDRAL>
-8.74987

>  <SCORE.INTRA.DIHEDRAL.0>
19.5869

>  <SCORE.INTRA.POLAR>
0

>  <SCORE.INTRA.POLAR.0>
0

>  <SCORE.INTRA.REPUL>
0

>  <SCORE.INTRA.REPUL.0>
0

>  <SCORE.INTRA.SOLV>
-0.550942

>  <SCORE.INTRA.SOLV.lig_0>
-70.101

>  <SCORE.INTRA.VDW>
0.345714

>  <SCORE.INTRA.VDW.0>
-3.39718

>  <SCORE.INTRA.norm>
-0.126609

>  <SCORE.RESTR>
0

>  <SCORE.RESTR.CAVITY>
0

>  <SCORE.RESTR.norm>
0

>  <SCORE.SYSTEM>
0

>  <SCORE.SYSTEM.CONST>
0

>  <SCORE.SYSTEM.DIHEDRAL>
0

>  <SCORE.SYSTEM.SOLV>
0

>  <SCORE.SYSTEM.norm>
0

>  <SCORE.heavy>
34

>  <SCORE.norm>
-0.441905

>  <RMSD>
1.294

$$$$
ligand
 OpenBabel11021811483D
libRbt.so/2013.1/901 2013/11/27
 34 36  0  0  0  0  0  0  0  0999 V2000
    5.8920    6.0520    8.4673 C   0  0  2  0  0  0  0  0  0  0  0  0
    6.3112    5.6047    7.1685 O   0  0  0  0  0  0  0  0  0  0  0  0
    9.4574    6.7868    4.5293 C   0  0  2  0  0  0  0  0  0  0  0  0
   10.3397    7.6017    3.7013 N   0  0  0  0  0  0  0  0  0  0  0  0
   12.0175    7.8093    6.0490 C   0  0  2  0  0  0  0  0  0  0  0  0
    5.9858    4.8334    9.4534 C   0  0  2  0  0  0  0  0  0  0  0  0
    7.3652    4.3304    9.5464 N   0  0  0  0  0  0  0  0  0  0  0  0
    7.9897    7.0625    4.0608 C   0  0  0  0  0  0  0  0  0  0  0  0
   13.3371    7.3336    6.7557 C   0  0  2  0  0  0  0  0  0  0  0  0
   13.6461    6.0082    6.3574 O   0  0  0  0  0  0  0  0  0  0  0  0
    5.0478    3.7080    8.9656 C   0  0  1  0  0  0  0  0  0  0  0  0
    5.1226    2.5923    9.8680 O   0  0  0  0  0  0  0  0  0  0  0  0
    7.0434    6.1705    4.9335 C   0  0  2  0  0  0  0  0  0  0  0  0
    5.6368    6.3918    4.5411 N   0  0  0  0  0  0  0  0  0  0  0  0
   13.1341    7.4232    8.3178 C   0  0  1  0  0  0  0  0  0  0  0  0
   14.3597    6.9651    9.0384 N   0  0  0  0  0  0  0  0  0  0  0  0
    3.6079    4.2657    8.8684 C   0  0  2  0  0  0  0  0  0  0  0  0
    2.7237    3.2306    8.4044 O   0  0  0  0  0  0  0  0  0  0  0  0
    7.2024    6.5012    6.4396 C   0  0  2  0  0  0  0  0  0  0  0  0
   12.7965    8.9041    8.7032 C   0  0  1  0  0  0  0  0  0  0  0  0
   13.8836    9.7518    8.3419 O   0  0  0  0  0  0  0  0  0  0  0  0
    3.5828    5.4954    7.8825 C   0  0  2  0  0  0  0  0  0  0  0  0
    4.5088    6.5408    8.3597 O   0  0  0  0  0  0  0  0  0  0  0  0
    8.6769    6.2813    6.8608 C   0  0  2  0  0  0  0  0  0  0  0  0
    8.8025    6.6083    8.2409 O   0  0  0  0  0  0  0  0  0  0  0  0
   11.5159    9.3427    7.9253 C   0  0  0  0  0  0  0  0  0  0  0  0
   11.7079    9.1845    6.4636 O   0  0  0  0  0  0  0  0  0  0  0  0
    2.1655    6.1142    7.7643 C   0  0  2  0  0  0  0  0  0  0  0  0
    2.1893    7.1759    6.8137 O   0  0  0  0  0  0  0  0  0  0  0  0
    9.6324    7.1886    6.0513 C   0  0  1  0  0  0  0  0  0  0  0  0
   10.9751    6.9053    6.5111 O   0  0  0  0  0  0  0  0  0  0  0  0
    1.6908    6.6823    9.0916 C   0  0  0  0  0  0  0  0  0  0  0  0
   12.5620    9.0666   10.2001 C   0  0  0  0  0  0  0  0  0  0  0  0
   14.0111    5.7702    9.8307 C   0  0  0  0  0  0  0  0  0  0  0  0
  1  2  1  6  0  0  0
  1  6  1  0  0  0  0
  1 23  1  0  0  0  0
  3  4  1  6  0  0  0
  3  8  1  0  0  0  0
  3 30  1  0  0  0  0
  5  9  1  0  0  0  0
  5 27  1  0  0  0  0
  5 31  1  1  0  0  0
  6  7  1  6  0  0  0
  6 11  1  0  0  0  0
  8 13  1  0  0  0  0
  9 10  1  1  0  0  0
  9 15  1  0  0  0  0
 11 12  1  1  0  0  0
 11 17  1  0  0  0  0
 13 14  1  6  0  0  0
 13 19  1  0  0  0  0
 15 16  1  1  0  0  0
 15 20  1  0  0  0  0
 16 34  1  0  0  0  0
 17 18  1  6  0  0  0
 17 22  1  0  0  0  0
 19  2  1  1  0  0  0
 19 24  1  0  0  0  0
 20 21  1  6  0  0  0
 20 26  1  0  0  0  0
 20 33  1  0  0  0  0
 22 23  1  1  0  0  0
 22 28  1  0  0  0  0
 24 25  1  1  0  0  0
 24 30  1  0  0  0  0
 26 27  1  0  0  0  0
 28 29  1  6  0  0  0
 28 32  1  0  0  0  0
 30 31  1  1  0  0  0
M  END
>  <CHROM.1>
-136.36036920,-156.31476429,-117.12968944,-177.16663232,74.28719087,176.63758504
8.37388955,6.51883322,7.50848197,-2.98676429,-0.23905842,-1.16471173

>  <Name>
ligand

>  <RI>
0

>  <Rbt.Current_Directory>
/home/itssahil/PROJECTS/Mol_Feturizer/New_Systems/rnas/3TD1

>  <Rbt.Executable>
rbdock ($Id: //depot/dev/client3/rdock/2013.1/src/exe/rbdock.cxx#4 $)

>  <Rbt.Library>
libRbt.so (2013.1, Build901 2013/11/27)

>  <Rbt.Parameter_File>
/export/apps/rDock/src/rDock_2013.1_src/data/scripts/dock_solv.prm

>  <Rbt.Receptor>
prm/pocket_docking_2.prm

>  <SCORE>
-15.1357

>  <SCORE.INTER>
-10.7804

>  <SCORE.INTER.CONST>
1

>  <SCORE.INTER.POLAR>
0

>  <SCORE.INTER.ROT>
6

>  <SCORE.INTER.SOLV>
15.2952

>  <SCORE.INTER.VDW>
-19.8853

>  <SCORE.INTER.norm>
-0.31707

>  <SCORE.INTRA>
-4.3553

>  <SCORE.INTRA.DIHEDRAL>
-8.8982

>  <SCORE.INTRA.DIHEDRAL.0>
19.5869

>  <SCORE.INTRA.POLAR>
0

>  <SCORE.INTRA.POLAR.0>
0

>  <SCORE.INTRA.REPUL>
0

>  <SCORE.INTRA.REPUL.0>
0

>  <SCORE.INTRA.SOLV>
-0.530543

>  <SCORE.INTRA.SOLV.lig_0>
-70.101

>  <SCORE.INTRA.VDW>
0.359071

>  <SCORE.INTRA.VDW.0>
-3.39718

>  <SCORE.INTRA.norm>
-0.128097

>  <SCORE.RESTR>
0

>  <SCORE.RESTR.CAVITY>
0

>  <SCORE.RESTR.norm>
0

>  <SCORE.SYSTEM>
0

>  <SCORE.SYSTEM.CONST>
0

>  <SCORE.SYSTEM.DIHEDRAL>
0

>  <SCORE.SYSTEM.SOLV>
0

>  <SCORE.SYSTEM.norm>
0

>  <SCORE.heavy>
34

>  <SCORE.norm>
-0.445167

>  <RMSD>
1.299

$$$$
ligand
 OpenBabel11021811483D
libRbt.so/2013.1/901 2013/11/27
 34 36  0  0  0  0  0  0  0  0999 V2000
    5.6094    6.2842    8.5421 C   0  0  2  0  0  0  0  0  0  0  0  0
    6.0152    5.7921    7.2554 O   0  0  0  0  0  0  0  0  0  0  0  0
    9.2253    6.8210    4.6289 C   0  0  2  0  0  0  0  0  0  0  0  0
   10.1315    7.5881    3.7812 N   0  0  0  0  0  0  0  0  0  0  0  0
   11.7672    7.8757    6.1252 C   0  0  2  0  0  0  0  0  0  0  0  0
    5.8897    5.1595    9.6018 C   0  0  2  0  0  0  0  0  0  0  0  0
    7.3208    4.8219    9.6517 N   0  0  0  0  0  0  0  0  0  0  0  0
    7.7700    7.0845    4.1167 C   0  0  0  0  0  0  0  0  0  0  0  0
   13.0962    7.3098    6.7423 C   0  0  2  0  0  0  0  0  0  0  0  0
   13.3018    5.9771    6.3035 O   0  0  0  0  0  0  0  0  0  0  0  0
    5.0656    3.9036    9.2441 C   0  0  1  0  0  0  0  0  0  0  0  0
    5.3114    2.8727   10.2144 O   0  0  0  0  0  0  0  0  0  0  0  0
    6.7983    6.2431    5.0115 C   0  0  2  0  0  0  0  0  0  0  0  0
    5.4020    6.4554    4.5792 N   0  0  0  0  0  0  0  0  0  0  0  0
   12.9922    7.3789    8.3151 C   0  0  1  0  0  0  0  0  0  0  0  0
   14.2293    6.8357    8.9522 N   0  0  0  0  0  0  0  0  0  0  0  0
    3.5681    4.2885    9.1895 C   0  0  2  0  0  0  0  0  0  0  0  0
    2.7880    3.1299    8.8465 O   0  0  0  0  0  0  0  0  0  0  0  0
    6.9288    6.6455    6.5028 C   0  0  2  0  0  0  0  0  0  0  0  0
   12.7665    8.8687    8.7454 C   0  0  1  0  0  0  0  0  0  0  0  0
   13.8784    9.6591    8.3332 O   0  0  0  0  0  0  0  0  0  0  0  0
    3.3546    5.4318    8.1256 C   0  0  2  0  0  0  0  0  0  0  0  0
    4.1756    6.6063    8.4787 O   0  0  0  0  0  0  0  0  0  0  0  0
    8.3923    6.4354    6.9652 C   0  0  2  0  0  0  0  0  0  0  0  0
    8.4921    6.8282    8.3302 O   0  0  0  0  0  0  0  0  0  0  0  0
   11.4701    9.3969    8.0542 C   0  0  0  0  0  0  0  0  0  0  0  0
   11.5649    9.2578    6.5811 O   0  0  0  0  0  0  0  0  0  0  0  0
    1.8714    5.8782    8.0447 C   0  0  2  0  0  0  0  0  0  0  0  0
    1.0469    4.7423    7.7975 O   0  0  0  0  0  0  0  0  0  0  0  0
    9.3721    7.2950    6.1330 C   0  0  1  0  0  0  0  0  0  0  0  0
   10.7025    7.0245    6.6342 O   0  0  0  0  0  0  0  0  0  0  0  0
    1.6480    6.8750    6.9194 C   0  0  0  0  0  0  0  0  0  0  0  0
   12.6317    9.0139   10.2562 C   0  0  0  0  0  0  0  0  0  0  0  0
   13.9235    5.4953    9.4876 C   0  0  0  0  0  0  0  0  0  0  0  0
  1  2  1  6  0  0  0
  1  6  1  0  0  0  0
  1 23  1  0  0  0  0
  3  4  1  6  0  0  0
  3  8  1  0  0  0  0
  3 30  1  0  0  0  0
  5  9  1  0  0  0  0
  5 27  1  0  0  0  0
  5 31  1  1  0  0  0
  6  7  1  6  0  0  0
  6 11  1  0  0  0  0
  8 13  1  0  0  0  0
  9 10  1  1  0  0  0
  9 15  1  0  0  0  0
 11 12  1  1  0  0  0
 11 17  1  0  0  0  0
 13 14  1  6  0  0  0
 13 19  1  0  0  0  0
 15 16  1  1  0  0  0
 15 20  1  0  0  0  0
 16 34  1  0  0  0  0
 17 18  1  6  0  0  0
 17 22  1  0  0  0  0
 19  2  1  1  0  0  0
 19 24  1  0  0  0  0
 20 21  1  6  0  0  0
 20 26  1  0  0  0  0
 20 33  1  0  0  0  0
 22 23  1  1  0  0  0
 22 28  1  0  0  0  0
 24 25  1  1  0  0  0
 24 30  1  0  0  0  0
 26 27  1  0  0  0  0
 28 29  1  6  0  0  0
 28 32  1  0  0  0  0
 30 31  1  1  0  0  0
M  END
>  <CHROM.1>
-127.43985402,-158.39066883,-104.63804654,-54.57818863,72.79369556,-176.13123333
8.18300705,6.49781622,7.56607248,-2.98362326,-0.24852491,-1.15845494

>  <Name>
ligand

>  <RI>
0

>  <Rbt.Current_Directory>
/home/itssahil/PROJECTS/Mol_Feturizer/New_Systems/rnas/3TD1

>  <Rbt.Executable>
rbdock ($Id: //depot/dev/client3/rdock/2013.1/src/exe/rbdock.cxx#4 $)

>  <Rbt.Library>
libRbt.so (2013.1, Build901 2013/11/27)

>  <Rbt.Parameter_File>
/export/apps/rDock/src/rDock_2013.1_src/data/scripts/dock_solv.prm

>  <Rbt.Receptor>
prm/pocket_docking_2.prm

>  <SCORE>
-14.728

>  <SCORE.INTER>
-10.6618

>  <SCORE.INTER.CONST>
1

>  <SCORE.INTER.POLAR>
0

>  <SCORE.INTER.ROT>
6

>  <SCORE.INTER.SOLV>
14.5214

>  <SCORE.INTER.VDW>
-19.5484

>  <SCORE.INTER.norm>
-0.313584

>  <SCORE.INTRA>
-4.0662

>  <SCORE.INTRA.DIHEDRAL>
-8.54709

>  <SCORE.INTRA.DIHEDRAL.0>
19.5869

>  <SCORE.INTRA.POLAR>
0

>  <SCORE.INTRA.POLAR.0>
0

>  <SCORE.INTRA.REPUL>
0

>  <SCORE.INTRA.REPUL.0>
0

>  <SCORE.INTRA.SOLV>
0.136526

>  <SCORE.INTRA.SOLV.lig_0>
-70.101

>  <SCORE.INTRA.VDW>
0.139087

>  <SCORE.INTRA.VDW.0>
-3.39718

>  <SCORE.INTRA.norm>
-0.119594

>  <SCORE.RESTR>
0

>  <SCORE.RESTR.CAVITY>
0

>  <SCORE.RESTR.norm>
0

>  <SCORE.SYSTEM>
0

>  <SCORE.SYSTEM.CONST>
0

>  <SCORE.SYSTEM.DIHEDRAL>
0

>  <SCORE.SYSTEM.SOLV>
0

>  <SCORE.SYSTEM.norm>
0

>  <SCORE.heavy>
34

>  <SCORE.norm>
-0.433178

>  <RMSD>
1.317

$$$$
ligand
 OpenBabel11021811483D
libRbt.so/2013.1/901 2013/11/27
 34 36  0  0  0  0  0  0  0  0999 V2000
    5.6178    6.3520    8.5251 C   0  0  2  0  0  0  0  0  0  0  0  0
    5.9917    5.8431    7.2352 O   0  0  0  0  0  0  0  0  0  0  0  0
    9.1210    6.8453    4.5031 C   0  0  2  0  0  0  0  0  0  0  0  0
   10.0011    7.6038    3.6209 N   0  0  0  0  0  0  0  0  0  0  0  0
   11.7021    7.9364    5.9378 C   0  0  2  0  0  0  0  0  0  0  0  0
    5.9392    5.2472    9.5940 C   0  0  2  0  0  0  0  0  0  0  0  0
    7.3743    4.9239    9.6084 N   0  0  0  0  0  0  0  0  0  0  0  0
    7.6509    7.1040    4.0324 C   0  0  0  0  0  0  0  0  0  0  0  0
   13.0539    7.3541    6.4861 C   0  0  2  0  0  0  0  0  0  0  0  0
   13.2432    6.0358    5.9992 O   0  0  0  0  0  0  0  0  0  0  0  0
    5.1176    3.9780    9.2799 C   0  0  1  0  0  0  0  0  0  0  0  0
    5.4010    2.9652   10.2591 O   0  0  0  0  0  0  0  0  0  0  0  0
    6.7067    6.2716    4.9644 C   0  0  2  0  0  0  0  0  0  0  0  0
    5.2980    6.4799    4.5723 N   0  0  0  0  0  0  0  0  0  0  0  0
   13.0102    7.3749    8.0631 C   0  0  1  0  0  0  0  0  0  0  0  0
   14.2710    6.8145    8.6355 N   0  0  0  0  0  0  0  0  0  0  0  0
    3.6155    4.3479    9.2621 C   0  0  2  0  0  0  0  0  0  0  0  0
    2.8374    3.1766    8.9599 O   0  0  0  0  0  0  0  0  0  0  0  0
    6.8821    6.6888    6.4470 C   0  0  2  0  0  0  0  0  0  0  0  0
   12.8004    8.8505    8.5471 C   0  0  1  0  0  0  0  0  0  0  0  0
   13.8954    9.6549    8.1171 O   0  0  0  0  0  0  0  0  0  0  0  0
    3.3606    5.4718    8.1867 C   0  0  2  0  0  0  0  0  0  0  0  0
    4.1796    6.6596    8.4976 O   0  0  0  0  0  0  0  0  0  0  0  0
    8.3590    6.4830    6.8672 C   0  0  2  0  0  0  0  0  0  0  0  0
    8.4998    6.8893    8.2246 O   0  0  0  0  0  0  0  0  0  0  0  0
   11.4783    9.3975    7.9224 C   0  0  0  0  0  0  0  0  0  0  0  0
   11.5167    9.3036    6.4432 O   0  0  0  0  0  0  0  0  0  0  0  0
    1.8713    5.9029    8.1411 C   0  0  2  0  0  0  0  0  0  0  0  0
    1.0507    4.7541    7.9457 O   0  0  0  0  0  0  0  0  0  0  0  0
    9.3131    7.3342    5.9973 C   0  0  1  0  0  0  0  0  0  0  0  0
   10.6580    7.0684    6.4609 O   0  0  0  0  0  0  0  0  0  0  0  0
    1.6041    6.8710    7.0004 C   0  0  0  0  0  0  0  0  0  0  0  0
   12.7234    8.9492   10.0657 C   0  0  0  0  0  0  0  0  0  0  0  0
   13.9247    5.6327    9.4481 C   0  0  0  0  0  0  0  0  0  0  0  0
  1  2  1  6  0  0  0
  1  6  1  0  0  0  0
  1 23  1  0  0  0  0
  3  4  1  6  0  0  0
  3  8  1  0  0  0  0
  3 30  1  0  0  0  0
  5  9  1  0  0  0  0
  5 27  1  0  0  0  0
  5 31  1  1  0  0  0
  6  7  1  6  0  0  0
  6 11  1  0  0  0  0
  8 13  1  0  0  0  0
  9 10  1  1  0  0  0
  9 15  1  0  0  0  0
 11 12  1  1  0  0  0
 11 17  1  0  0  0  0
 13 14  1  6  0  0  0
 13 19  1  0  0  0  0
 15 16  1  1  0  0  0
 15 20  1  0  0  0  0
 16 34  1  0  0  0  0
 17 18  1  6  0  0  0
 17 22  1  0  0  0  0
 19  2  1  1  0  0  0
 19 24  1  0  0  0  0
 20 21  1  6  0  0  0
 20 26  1  0  0  0  0
 20 33  1  0  0  0  0
 22 23  1  1  0  0  0
 22 28  1  0  0  0  0
 24 25  1  1  0  0  0
 24 30  1  0  0  0  0
 26 27  1  0  0  0  0
 28 29  1  6  0  0  0
 28 32  1  0  0  0  0
 30 31  1  1  0  0  0
M  END
>  <CHROM.1>
-127.05630336,-157.99516709,-119.35375089,-54.14099935,74.31697800,-174.87079283
8.17099735,6.53600214,7.48935239,-2.96294894,-0.23805038,-1.17143874

>  <Name>
ligand

>  <RI>
0

>  <Rbt.Current_Directory>
/home/itssahil/PROJECTS/Mol_Feturizer/New_Systems/rnas/3TD1

>  <Rbt.Executable>
rbdock ($Id: //depot/dev/client3/rdock/2013.1/src/exe/rbdock.cxx#4 $)

>  <Rbt.Library>
libRbt.so (2013.1, Build901 2013/11/27)

>  <Rbt.Parameter_File>
/export/apps/rDock/src/rDock_2013.1_src/data/scripts/dock_solv.prm

>  <Rbt.Receptor>
prm/pocket_docking_2.prm

>  <SCORE>
-14.7072

>  <SCORE.INTER>
-10.8635

>  <SCORE.INTER.CONST>
1

>  <SCORE.INTER.POLAR>
0

>  <SCORE.INTER.ROT>
6

>  <SCORE.INTER.SOLV>
15.0791

>  <SCORE.INTER.VDW>
-19.8687

>  <SCORE.INTER.norm>
-0.319515

>  <SCORE.INTRA>
-3.84373

>  <SCORE.INTRA.DIHEDRAL>
-8.01127

>  <SCORE.INTRA.DIHEDRAL.0>
19.5869

>  <SCORE.INTRA.POLAR>
0

>  <SCORE.INTRA.POLAR.0>
0

>  <SCORE.INTRA.REPUL>
0

>  <SCORE.INTRA.REPUL.0>
0

>  <SCORE.INTRA.SOLV>
0.0873013

>  <SCORE.INTRA.SOLV.lig_0>
-70.101

>  <SCORE.INTRA.VDW>
0.118251

>  <SCORE.INTRA.VDW.0>
-3.39718

>  <SCORE.INTRA.norm>
-0.113051

>  <SCORE.RESTR>
0

>  <SCORE.RESTR.CAVITY>
0

>  <SCORE.RESTR.norm>
0

>  <SCORE.SYSTEM>
0

>  <SCORE.SYSTEM.CONST>
0

>  <SCORE.SYSTEM.DIHEDRAL>
0

>  <SCORE.SYSTEM.SOLV>
0

>  <SCORE.SYSTEM.norm>
0

>  <SCORE.heavy>
34

>  <SCORE.norm>
-0.432566

>  <RMSD>
1.319

$$$$
ligand
 OpenBabel11021811483D
libRbt.so/2013.1/901 2013/11/27
 34 36  0  0  0  0  0  0  0  0999 V2000
    5.6296    6.3146    8.5631 C   0  0  2  0  0  0  0  0  0  0  0  0
    5.9851    5.8220    7.2618 O   0  0  0  0  0  0  0  0  0  0  0  0
    9.1287    6.8214    4.5450 C   0  0  2  0  0  0  0  0  0  0  0  0
   10.0157    7.5797    3.6696 N   0  0  0  0  0  0  0  0  0  0  0  0
   11.7117    7.8872    5.9886 C   0  0  2  0  0  0  0  0  0  0  0  0
    5.9478    5.1890    9.6111 C   0  0  2  0  0  0  0  0  0  0  0  0
    7.3790    4.8484    9.6065 N   0  0  0  0  0  0  0  0  0  0  0  0
    7.6615    7.0904    4.0709 C   0  0  0  0  0  0  0  0  0  0  0  0
   13.0551    7.3169    6.5694 C   0  0  2  0  0  0  0  0  0  0  0  0
   13.2546    5.9908    6.1085 O   0  0  0  0  0  0  0  0  0  0  0  0
    5.1080    3.9349    9.2848 C   0  0  1  0  0  0  0  0  0  0  0  0
    5.3884    2.9032   10.2448 O   0  0  0  0  0  0  0  0  0  0  0  0
    6.7098    6.2584    4.9955 C   0  0  2  0  0  0  0  0  0  0  0  0
    5.3035    6.4762    4.5999 N   0  0  0  0  0  0  0  0  0  0  0  0
   12.9847    7.3648    8.1449 C   0  0  1  0  0  0  0  0  0  0  0  0
   14.2366    6.8167    8.7480 N   0  0  0  0  0  0  0  0  0  0  0  0
    3.6103    4.3228    9.2874 C   0  0  2  0  0  0  0  0  0  0  0  0
    2.8154    3.1659    8.9741 O   0  0  0  0  0  0  0  0  0  0  0  0
    6.8826    6.6670    6.4808 C   0  0  2  0  0  0  0  0  0  0  0  0
   12.7644    8.8480    8.5999 C   0  0  1  0  0  0  0  0  0  0  0  0
   13.8652    9.6470    8.1746 O   0  0  0  0  0  0  0  0  0  0  0  0
    3.3588    5.4669    8.2327 C   0  0  2  0  0  0  0  0  0  0  0  0
    4.1951    6.6396    8.5545 O   0  0  0  0  0  0  0  0  0  0  0  0
    8.3569    6.4511    6.9047 C   0  0  2  0  0  0  0  0  0  0  0  0
    8.4954    6.8497    8.2646 O   0  0  0  0  0  0  0  0  0  0  0  0
   11.4521    9.3816    7.9438 C   0  0  0  0  0  0  0  0  0  0  0  0
   11.5156    9.2625    6.4672 O   0  0  0  0  0  0  0  0  0  0  0  0
    1.8745    5.9164    8.2084 C   0  0  2  0  0  0  0  0  0  0  0  0
    1.0364    4.7764    8.0377 O   0  0  0  0  0  0  0  0  0  0  0  0
    9.3184    7.3016    6.0423 C   0  0  1  0  0  0  0  0  0  0  0  0
   10.6604    7.0263    6.5089 O   0  0  0  0  0  0  0  0  0  0  0  0
    1.5999    6.8773    7.0634 C   0  0  0  0  0  0  0  0  0  0  0  0
   12.6616    8.9726   10.1151 C   0  0  0  0  0  0  0  0  0  0  0  0
   13.9130    5.5323    9.3982 C   0  0  0  0  0  0  0  0  0  0  0  0
  1  2  1  6  0  0  0
  1  6  1  0  0  0  0
  1 23  1  0  0  0  0
  3  4  1  6  0  0  0
  3  8  1  0  0  0  0
  3 30  1  0  0  0  0
  5  9  1  0  0  0  0
  5 27  1  0  0  0  0
  5 31  1  1  0  0  0
  6  7  1  6  0  0  0
  6 11  1  0  0  0  0
  8 13  1  0  0  0  0
  9 10  1  1  0  0  0
  9 15  1  0  0  0  0
 11 12  1  1  0  0  0
 11 17  1  0  0  0  0
 13 14  1  6  0  0  0
 13 19  1  0  0  0  0
 15 16  1  1  0  0  0
 15 20  1  0  0  0  0
 16 34  1  0  0  0  0
 17 18  1  6  0  0  0
 17 22  1  0  0  0  0
 19  2  1  1  0  0  0
 19 24  1  0  0  0  0
 20 21  1  6  0  0  0
 20 26  1  0  0  0  0
 20 33  1  0  0  0  0
 22 23  1  1  0  0  0
 22 28  1  0  0  0  0
 24 25  1  1  0  0  0
 24 30  1  0  0  0  0
 26 27  1  0  0  0  0
 28 29  1  6  0  0  0
 28 32  1  0  0  0  0
 30 31  1  1  0  0  0
M  END
>  <CHROM.1>
-126.80821770,-159.11819085,-110.58964967,-52.63026561,74.02598315,-176.27078007
8.16508121,6.51101962,7.53105149,-2.96161658,-0.23603626,-1.16319445

>  <Name>
ligand

>  <RI>
0

>  <Rbt.Current_Directory>
/home/itssahil/PROJECTS/Mol_Feturizer/New_Systems/rnas/3TD1

>  <Rbt.Executable>
rbdock ($Id: //depot/dev/client3/rdock/2013.1/src/exe/rbdock.cxx#4 $)

>  <Rbt.Library>
libRbt.so (2013.1, Build901 2013/11/27)

>  <Rbt.Parameter_File>
/export/apps/rDock/src/rDock_2013.1_src/data/scripts/dock_solv.prm

>  <Rbt.Receptor>
prm/pocket_docking_2.prm

>  <SCORE>
-14.6352

>  <SCORE.INTER>
-10.6873

>  <SCORE.INTER.CONST>
1

>  <SCORE.INTER.POLAR>
0

>  <SCORE.INTER.ROT>
6

>  <SCORE.INTER.SOLV>
14.8486

>  <SCORE.INTER.VDW>
-19.6744

>  <SCORE.INTER.norm>
-0.314332

>  <SCORE.INTRA>
-3.9479

>  <SCORE.INTRA.DIHEDRAL>
-8.27953

>  <SCORE.INTRA.DIHEDRAL.0>
19.5869

>  <SCORE.INTRA.POLAR>
0

>  <SCORE.INTRA.POLAR.0>
0

>  <SCORE.INTRA.REPUL>
0

>  <SCORE.INTRA.REPUL.0>
0

>  <SCORE.INTRA.SOLV>
0.0851438

>  <SCORE.INTRA.SOLV.lig_0>
-70.101

>  <SCORE.INTRA.VDW>
0.14929

>  <SCORE.INTRA.VDW.0>
-3.39718

>  <SCORE.INTRA.norm>
-0.116115

>  <SCORE.RESTR>
0

>  <SCORE.RESTR.CAVITY>
0

>  <SCORE.RESTR.norm>
0

>  <SCORE.SYSTEM>
0

>  <SCORE.SYSTEM.CONST>
0

>  <SCORE.SYSTEM.DIHEDRAL>
0

>  <SCORE.SYSTEM.SOLV>
0

>  <SCORE.SYSTEM.norm>
0

>  <SCORE.heavy>
34

>  <SCORE.norm>
-0.430447

>  <RMSD>
1.319

$$$$
ligand
 OpenBabel11021811483D
libRbt.so/2013.1/901 2013/11/27
 34 36  0  0  0  0  0  0  0  0999 V2000
    5.6487    6.1577    8.7636 C   0  0  2  0  0  0  0  0  0  0  0  0
    6.0332    5.6747    7.4669 O   0  0  0  0  0  0  0  0  0  0  0  0
    9.0236    6.8317    4.6419 C   0  0  2  0  0  0  0  0  0  0  0  0
    9.8549    7.6382    3.7550 N   0  0  0  0  0  0  0  0  0  0  0  0
   11.6625    7.8604    5.9681 C   0  0  2  0  0  0  0  0  0  0  0  0
    5.9377    5.0222    9.8093 C   0  0  2  0  0  0  0  0  0  0  0  0
    7.3673    4.6760    9.8358 N   0  0  0  0  0  0  0  0  0  0  0  0
    7.5309    7.0939    4.2509 C   0  0  0  0  0  0  0  0  0  0  0  0
   13.0351    7.3318    6.5191 C   0  0  2  0  0  0  0  0  0  0  0  0
   13.2517    6.0019    6.0773 O   0  0  0  0  0  0  0  0  0  0  0  0
    5.1012    3.7742    9.4525 C   0  0  1  0  0  0  0  0  0  0  0  0
    5.3549    2.7334   10.4103 O   0  0  0  0  0  0  0  0  0  0  0  0
    6.6386    6.2107    5.1871 C   0  0  2  0  0  0  0  0  0  0  0  0
    5.2115    6.4199    4.8694 N   0  0  0  0  0  0  0  0  0  0  0  0
   13.0100    7.4085    8.0949 C   0  0  1  0  0  0  0  0  0  0  0  0
   14.2915    6.9005    8.6704 N   0  0  0  0  0  0  0  0  0  0  0  0
    3.6054    4.1680    9.4229 C   0  0  2  0  0  0  0  0  0  0  0  0
    2.8137    3.0169    9.0810 O   0  0  0  0  0  0  0  0  0  0  0  0
    6.8783    6.5643    6.6772 C   0  0  2  0  0  0  0  0  0  0  0  0
   12.7690    8.8950    8.5285 C   0  0  1  0  0  0  0  0  0  0  0  0
   13.8381    9.7102    8.0556 O   0  0  0  0  0  0  0  0  0  0  0  0
    3.3833    5.3218    8.3721 C   0  0  2  0  0  0  0  0  0  0  0  0
    4.2160    6.4885    8.7236 O   0  0  0  0  0  0  0  0  0  0  0  0
    8.3748    6.3572    7.0199 C   0  0  2  0  0  0  0  0  0  0  0  0
    8.5743    6.7051    8.3862 O   0  0  0  0  0  0  0  0  0  0  0  0
   11.4260    9.3861    7.9019 C   0  0  0  0  0  0  0  0  0  0  0  0
   11.4488    9.2399    6.4266 O   0  0  0  0  0  0  0  0  0  0  0  0
    1.9017    5.7773    8.3164 C   0  0  2  0  0  0  0  0  0  0  0  0
    1.0640    4.6428    8.1101 O   0  0  0  0  0  0  0  0  0  0  0  0
    9.2798    7.2567    6.1461 C   0  0  1  0  0  0  0  0  0  0  0  0
   10.6471    6.9862    6.5354 O   0  0  0  0  0  0  0  0  0  0  0  0
    1.6593    6.7538    7.1773 C   0  0  0  0  0  0  0  0  0  0  0  0
   12.7080    9.0464   10.0434 C   0  0  0  0  0  0  0  0  0  0  0  0
   13.9707    5.8631    9.6693 C   0  0  0  0  0  0  0  0  0  0  0  0
  1  2  1  6  0  0  0
  1  6  1  0  0  0  0
  1 23  1  0  0  0  0
  3  4  1  6  0  0  0
  3  8  1  0  0  0  0
  3 30  1  0  0  0  0
  5  9  1  0  0  0  0
  5 27  1  0  0  0  0
  5 31  1  1  0  0  0
  6  7  1  6  0  0  0
  6 11  1  0  0  0  0
  8 13  1  0  0  0  0
  9 10  1  1  0  0  0
  9 15  1  0  0  0  0
 11 12  1  1  0  0  0
 11 17  1  0  0  0  0
 13 14  1  6  0  0  0
 13 19  1  0  0  0  0
 15 16  1  1  0  0  0
 15 20  1  0  0  0  0
 16 34  1  0  0  0  0
 17 18  1  6  0  0  0
 17 22  1  0  0  0  0
 19  2  1  1  0  0  0
 19 24  1  0  0  0  0
 20 21  1  6  0  0  0
 20 26  1  0  0  0  0
 20 33  1  0  0  0  0
 22 23  1  1  0  0  0
 22 28  1  0  0  0  0
 24 25  1  1  0  0  0
 24 30  1  0  0  0  0
 26 27  1  0  0  0  0
 28 29  1  6  0  0  0
 28 32  1  0  0  0  0
 30 31  1  1  0  0  0
M  END
>  <CHROM.1>
-130.86215231,-154.41745659,-126.99279427,-52.89428387,72.29856933,-178.68405391
8.15538063,6.45788527,7.62135106,-2.93136964,-0.24530894,-1.13775543

>  <Name>
ligand

>  <RI>
0

>  <Rbt.Current_Directory>
/home/itssahil/PROJECTS/Mol_Feturizer/New_Systems/rnas/3TD1

>  <Rbt.Executable>
rbdock ($Id: //depot/dev/client3/rdock/2013.1/src/exe/rbdock.cxx#4 $)

>  <Rbt.Library>
libRbt.so (2013.1, Build901 2013/11/27)

>  <Rbt.Parameter_File>
/export/apps/rDock/src/rDock_2013.1_src/data/scripts/dock_solv.prm

>  <Rbt.Receptor>
prm/pocket_docking_2.prm

>  <SCORE>
-14.6213

>  <SCORE.INTER>
-10.8663

>  <SCORE.INTER.CONST>
1

>  <SCORE.INTER.POLAR>
0

>  <SCORE.INTER.ROT>
6

>  <SCORE.INTER.SOLV>
15.6772

>  <SCORE.INTER.VDW>
-20.0699

>  <SCORE.INTER.norm>
-0.319597

>  <SCORE.INTRA>
-3.75496

>  <SCORE.INTRA.DIHEDRAL>
-8.03741

>  <SCORE.INTRA.DIHEDRAL.0>
19.5869

>  <SCORE.INTRA.POLAR>
0

>  <SCORE.INTRA.POLAR.0>
0

>  <SCORE.INTRA.REPUL>
0

>  <SCORE.INTRA.REPUL.0>
0

>  <SCORE.INTRA.SOLV>
0.242813

>  <SCORE.INTRA.SOLV.lig_0>
-70.101

>  <SCORE.INTRA.VDW>
0.142334

>  <SCORE.INTRA.VDW.0>
-3.39718

>  <SCORE.INTRA.norm>
-0.11044

>  <SCORE.RESTR>
0

>  <SCORE.RESTR.CAVITY>
0

>  <SCORE.RESTR.norm>
0

>  <SCORE.SYSTEM>
0

>  <SCORE.SYSTEM.CONST>
0

>  <SCORE.SYSTEM.DIHEDRAL>
0

>  <SCORE.SYSTEM.SOLV>
0

>  <SCORE.SYSTEM.norm>
0

>  <SCORE.heavy>
34

>  <SCORE.norm>
-0.430037

>  <RMSD>
1.335

$$$$
ligand
 OpenBabel11021811483D
libRbt.so/2013.1/901 2013/11/27
 34 36  0  0  0  0  0  0  0  0999 V2000
    5.9979    6.1421    8.6485 C   0  0  2  0  0  0  0  0  0  0  0  0
    6.4163    5.6782    7.3553 O   0  0  0  0  0  0  0  0  0  0  0  0
    9.6315    6.7529    4.7536 C   0  0  2  0  0  0  0  0  0  0  0  0
   10.5483    7.5369    3.9333 N   0  0  0  0  0  0  0  0  0  0  0  0
   12.1900    7.7432    6.3477 C   0  0  2  0  0  0  0  0  0  0  0  0
    6.1262    4.9455    9.6577 C   0  0  2  0  0  0  0  0  0  0  0  0
    7.5170    4.4746    9.7488 N   0  0  0  0  0  0  0  0  0  0  0  0
    8.1790    7.0674    4.2629 C   0  0  0  0  0  0  0  0  0  0  0  0
   13.4671    7.2770    7.1344 C   0  0  2  0  0  0  0  0  0  0  0  0
   13.8015    5.9490    6.7664 O   0  0  0  0  0  0  0  0  0  0  0  0
    5.2091    3.7906    9.2000 C   0  0  1  0  0  0  0  0  0  0  0  0
    5.3156    2.6950   10.1237 O   0  0  0  0  0  0  0  0  0  0  0  0
    7.1954    6.2085    5.1275 C   0  0  2  0  0  0  0  0  0  0  0  0
    5.8013    6.4674    4.7139 N   0  0  0  0  0  0  0  0  0  0  0  0
   13.1729    7.3794    8.6812 C   0  0  1  0  0  0  0  0  0  0  0  0
   14.3552    6.9307    9.4761 N   0  0  0  0  0  0  0  0  0  0  0  0
    3.7567    4.3149    9.1042 C   0  0  2  0  0  0  0  0  0  0  0  0
    2.8916    3.2518    8.6682 O   0  0  0  0  0  0  0  0  0  0  0  0
    7.3428    6.5441    6.6336 C   0  0  2  0  0  0  0  0  0  0  0  0
   12.8103    8.8627    9.0333 C   0  0  1  0  0  0  0  0  0  0  0  0
   13.9149    9.7101    8.7287 O   0  0  0  0  0  0  0  0  0  0  0  0
    3.6968    5.5238    8.0945 C   0  0  2  0  0  0  0  0  0  0  0  0
    4.6035    6.5985    8.5431 O   0  0  0  0  0  0  0  0  0  0  0  0
    8.8044    6.2849    7.0770 C   0  0  2  0  0  0  0  0  0  0  0  0
    8.9201    6.6170    8.4567 O   0  0  0  0  0  0  0  0  0  0  0  0
   11.5765    9.2914    8.1781 C   0  0  0  0  0  0  0  0  0  0  0  0
   11.8538    9.1211    6.7316 O   0  0  0  0  0  0  0  0  0  0  0  0
    2.2653    6.1094    7.9761 C   0  0  2  0  0  0  0  0  0  0  0  0
    2.2358    7.0836    6.9363 O   0  0  0  0  0  0  0  0  0  0  0  0
    9.7968    7.1592    6.2756 C   0  0  1  0  0  0  0  0  0  0  0  0
   11.1242    6.8406    6.7559 O   0  0  0  0  0  0  0  0  0  0  0  0
    1.8290    6.7848    9.2657 C   0  0  0  0  0  0  0  0  0  0  0  0
   12.4884    9.0374   10.5124 C   0  0  0  0  0  0  0  0  0  0  0  0
   14.0450    5.6129   10.0627 C   0  0  0  0  0  0  0  0  0  0  0  0
  1  2  1  6  0  0  0
  1  6  1  0  0  0  0
  1 23  1  0  0  0  0
  3  4  1  6  0  0  0
  3  8  1  0  0  0  0
  3 30  1  0  0  0  0
  5  9  1  0  0  0  0
  5 27  1  0  0  0  0
  5 31  1  1  0  0  0
  6  7  1  6  0  0  0
  6 11  1  0  0  0  0
  8 13  1  0  0  0  0
  9 10  1  6  0  0  0
  9 15  1  0  0  0  0
 11 12  1  1  0  0  0
 11 17  1  0  0  0  0
 13 14  1  6  0  0  0
 13 19  1  0  0  0  0
 15 16  1  1  0  0  0
 15 20  1  0  0  0  0
 16 34  1  0  0  0  0
 17 18  1  6  0  0  0
 17 22  1  0  0  0  0
 19  2  1  1  0  0  0
 19 24  1  0  0  0  0
 20 21  1  6  0  0  0
 20 26  1  0  0  0  0
 20 33  1  0  0  0  0
 22 23  1  1  0  0  0
 22 28  1  0  0  0  0
 24 25  1  1  0  0  0
 24 30  1  0  0  0  0
 26 27  1  0  0  0  0
 28 29  1  6  0  0  0
 28 32  1  0  0  0  0
 30 31  1  1  0  0  0
M  END
>  <CHROM.1>
-132.97184955,-156.65088281,-107.01366306,-172.93329955,76.71928654,173.34937913
8.48990545,6.52114853,7.75728164,-3.00805998,-0.23500189,-1.18750229

>  <Name>
ligand

>  <RI>
0

>  <Rbt.Current_Directory>
/home/itssahil/PROJECTS/Mol_Feturizer/New_Systems/rnas/3TD1

>  <Rbt.Executable>
rbdock ($Id: //depot/dev/client3/rdock/2013.1/src/exe/rbdock.cxx#4 $)

>  <Rbt.Library>
libRbt.so (2013.1, Build901 2013/11/27)

>  <Rbt.Parameter_File>
/export/apps/rDock/src/rDock_2013.1_src/data/scripts/dock_solv.prm

>  <Rbt.Receptor>
prm/pocket_docking_2.prm

>  <SCORE>
-15.1489

>  <SCORE.INTER>
-11.2109

>  <SCORE.INTER.CONST>
1

>  <SCORE.INTER.POLAR>
0

>  <SCORE.INTER.ROT>
6

>  <SCORE.INTER.SOLV>
14.3401

>  <SCORE.INTER.VDW>
-19.8539

>  <SCORE.INTER.norm>
-0.329732

>  <SCORE.INTRA>
-3.93804

>  <SCORE.INTRA.DIHEDRAL>
-7.99743

>  <SCORE.INTRA.DIHEDRAL.0>
19.5869

>  <SCORE.INTRA.POLAR>
0

>  <SCORE.INTRA.POLAR.0>
0

>  <SCORE.INTRA.REPUL>
0

>  <SCORE.INTRA.REPUL.0>
0

>  <SCORE.INTRA.SOLV>
-0.477555

>  <SCORE.INTRA.SOLV.lig_0>
-70.101

>  <SCORE.INTRA.VDW>
0.29945

>  <SCORE.INTRA.VDW.0>
-3.39718

>  <SCORE.INTRA.norm>
-0.115825

>  <SCORE.RESTR>
0

>  <SCORE.RESTR.CAVITY>
0

>  <SCORE.RESTR.norm>
0

>  <SCORE.SYSTEM>
0

>  <SCORE.SYSTEM.CONST>
0

>  <SCORE.SYSTEM.DIHEDRAL>
0

>  <SCORE.SYSTEM.SOLV>
0

>  <SCORE.SYSTEM.norm>
0

>  <SCORE.heavy>
34

>  <SCORE.norm>
-0.445556

>  <RMSD>
1.342

$$$$
ligand
 OpenBabel11021811483D
libRbt.so/2013.1/901 2013/11/27
 34 36  0  0  0  0  0  0  0  0999 V2000
    6.0631    6.1908    8.6555 C   0  0  2  0  0  0  0  0  0  0  0  0
    6.4741    5.7106    7.3659 O   0  0  0  0  0  0  0  0  0  0  0  0
    9.6880    6.7438    4.7457 C   0  0  2  0  0  0  0  0  0  0  0  0
   10.6044    7.5147    3.9127 N   0  0  0  0  0  0  0  0  0  0  0  0
   12.2423    7.7767    6.3498 C   0  0  2  0  0  0  0  0  0  0  0  0
    6.2096    5.0108    9.6815 C   0  0  2  0  0  0  0  0  0  0  0  0
    7.6048    4.5524    9.7677 N   0  0  0  0  0  0  0  0  0  0  0  0
    8.2352    7.0512    4.2511 C   0  0  0  0  0  0  0  0  0  0  0  0
   13.5206    7.3114    7.1350 C   0  0  2  0  0  0  0  0  0  0  0  0
   13.8657    5.9899    6.7539 O   0  0  0  0  0  0  0  0  0  0  0  0
    5.2979    3.8419    9.2494 C   0  0  1  0  0  0  0  0  0  0  0  0
    5.4211    2.7613   10.1885 O   0  0  0  0  0  0  0  0  0  0  0  0
    7.2519    6.2061    5.1296 C   0  0  2  0  0  0  0  0  0  0  0  0
    5.8576    6.4590    4.7130 N   0  0  0  0  0  0  0  0  0  0  0  0
   13.2215    7.3952    8.6820 C   0  0  1  0  0  0  0  0  0  0  0  0
   14.4049    6.9466    9.4754 N   0  0  0  0  0  0  0  0  0  0  0  0
    3.8406    4.3531    9.1582 C   0  0  2  0  0  0  0  0  0  0  0  0
    2.9803    3.2768    8.7458 O   0  0  0  0  0  0  0  0  0  0  0  0
    7.4005    6.5650    6.6303 C   0  0  2  0  0  0  0  0  0  0  0  0
   12.8471    8.8720    9.0489 C   0  0  1  0  0  0  0  0  0  0  0  0
   13.9463    9.7306    8.7564 O   0  0  0  0  0  0  0  0  0  0  0  0
    3.7623    5.5461    8.1309 C   0  0  2  0  0  0  0  0  0  0  0  0
    4.6642    6.6346    8.5553 O   0  0  0  0  0  0  0  0  0  0  0  0
    8.8623    6.3121    7.0766 C   0  0  2  0  0  0  0  0  0  0  0  0
    8.9790    6.6656    8.4509 O   0  0  0  0  0  0  0  0  0  0  0  0
   11.6125    9.3008    8.1948 C   0  0  0  0  0  0  0  0  0  0  0  0
   11.8951    9.1480    6.7473 O   0  0  0  0  0  0  0  0  0  0  0  0
    2.3253    6.1185    8.0161 C   0  0  2  0  0  0  0  0  0  0  0  0
    2.2943    7.1237    7.0062 O   0  0  0  0  0  0  0  0  0  0  0  0
    9.8544    7.1736    6.2611 C   0  0  1  0  0  0  0  0  0  0  0  0
   11.1820    6.8620    6.7454 O   0  0  0  0  0  0  0  0  0  0  0  0
    1.8686    6.7492    9.3212 C   0  0  0  0  0  0  0  0  0  0  0  0
   12.5199    9.0286   10.5288 C   0  0  0  0  0  0  0  0  0  0  0  0
   14.0418    5.7057   10.1861 C   0  0  0  0  0  0  0  0  0  0  0  0
  1  2  1  6  0  0  0
  1  6  1  0  0  0  0
  1 23  1  0  0  0  0
  3  4  1  6  0  0  0
  3  8  1  0  0  0  0
  3 30  1  0  0  0  0
  5  9  1  0  0  0  0
  5 27  1  0  0  0  0
  5 31  1  1  0  0  0
  6  7  1  6  0  0  0
  6 11  1  0  0  0  0
  8 13  1  0  0  0  0
  9 10  1  6  0  0  0
  9 15  1  0  0  0  0
 11 12  1  1  0  0  0
 11 17  1  0  0  0  0
 13 14  1  6  0  0  0
 13 19  1  0  0  0  0
 15 16  1  1  0  0  0
 15 20  1  0  0  0  0
 16 34  1  0  0  0  0
 17 18  1  6  0  0  0
 17 22  1  0  0  0  0
 19  2  1  1  0  0  0
 19 24  1  0  0  0  0
 20 21  1  6  0  0  0
 20 26  1  0  0  0  0
 20 33  1  0  0  0  0
 22 23  1  1  0  0  0
 22 28  1  0  0  0  0
 24 25  1  1  0  0  0
 24 30  1  0  0  0  0
 26 27  1  0  0  0  0
 28 29  1  6  0  0  0
 28 32  1  0  0  0  0
 30 31  1  1  0  0  0
M  END
>  <CHROM.1>
-132.24187505,-157.01361502,-114.13738330,-175.76320104,78.19426224,173.54789356
8.54742152,6.54631947,7.77716492,-3.01058939,-0.23651502,-1.21208279

>  <Name>
ligand

>  <RI>
0

>  <Rbt.Current_Directory>
/home/itssahil/PROJECTS/Mol_Feturizer/New_Systems/rnas/3TD1

>  <Rbt.Executable>
rbdock ($Id: //depot/dev/client3/rdock/2013.1/src/exe/rbdock.cxx#4 $)

>  <Rbt.Library>
libRbt.so (2013.1, Build901 2013/11/27)

>  <Rbt.Parameter_File>
/export/apps/rDock/src/rDock_2013.1_src/data/scripts/dock_solv.prm

>  <Rbt.Receptor>
prm/pocket_docking_2.prm

>  <SCORE>
-15.2574

>  <SCORE.INTER>
-11.3479

>  <SCORE.INTER.CONST>
1

>  <SCORE.INTER.POLAR>
0

>  <SCORE.INTER.ROT>
6

>  <SCORE.INTER.SOLV>
14.3418

>  <SCORE.INTER.VDW>
-19.9459

>  <SCORE.INTER.norm>
-0.333762

>  <SCORE.INTRA>
-3.90953

>  <SCORE.INTRA.DIHEDRAL>
-7.78644

>  <SCORE.INTRA.DIHEDRAL.0>
19.5869

>  <SCORE.INTRA.POLAR>
0

>  <SCORE.INTRA.POLAR.0>
0

>  <SCORE.INTRA.REPUL>
0

>  <SCORE.INTRA.REPUL.0>
0

>  <SCORE.INTRA.SOLV>
-0.536832

>  <SCORE.INTRA.SOLV.lig_0>
-70.101

>  <SCORE.INTRA.VDW>
0.252104

>  <SCORE.INTRA.VDW.0>
-3.39718

>  <SCORE.INTRA.norm>
-0.114986

>  <SCORE.RESTR>
0

>  <SCORE.RESTR.CAVITY>
0

>  <SCORE.RESTR.norm>
0

>  <SCORE.SYSTEM>
0

>  <SCORE.SYSTEM.CONST>
0

>  <SCORE.SYSTEM.DIHEDRAL>
0

>  <SCORE.SYSTEM.SOLV>
0

>  <SCORE.SYSTEM.norm>
0

>  <SCORE.heavy>
34

>  <SCORE.norm>
-0.448748

>  <RMSD>
1.359

$$$$
ligand
 OpenBabel11021811483D
libRbt.so/2013.1/901 2013/11/27
 34 36  0  0  0  0  0  0  0  0999 V2000
    6.1058    5.8028    8.8385 C   0  0  2  0  0  0  0  0  0  0  0  0
    6.2744    5.5035    7.4440 O   0  0  0  0  0  0  0  0  0  0  0  0
    9.1921    6.8129    4.6096 C   0  0  2  0  0  0  0  0  0  0  0  0
   10.0035    7.6670    3.7492 N   0  0  0  0  0  0  0  0  0  0  0  0
   11.8708    7.7680    5.9484 C   0  0  2  0  0  0  0  0  0  0  0  0
    5.9621    4.4437    9.6122 C   0  0  2  0  0  0  0  0  0  0  0  0
    7.1623    3.6092    9.4470 N   0  0  0  0  0  0  0  0  0  0  0  0
    7.6909    7.1050    4.2771 C   0  0  0  0  0  0  0  0  0  0  0  0
   13.2319    7.3176    6.5900 C   0  0  2  0  0  0  0  0  0  0  0  0
   13.5446    5.9970    6.1788 O   0  0  0  0  0  0  0  0  0  0  0  0
    4.7206    3.6878    9.0909 C   0  0  1  0  0  0  0  0  0  0  0  0
    4.5784    2.4464    9.8004 O   0  0  0  0  0  0  0  0  0  0  0  0
    6.8194    6.1717    5.1840 C   0  0  2  0  0  0  0  0  0  0  0  0
    5.3853    6.4061    4.9196 N   0  0  0  0  0  0  0  0  0  0  0  0
   13.1043    7.4071    8.1601 C   0  0  1  0  0  0  0  0  0  0  0  0
   14.3719    6.9726    8.8202 N   0  0  0  0  0  0  0  0  0  0  0  0
    3.4764    4.5901    9.2681 C   0  0  2  0  0  0  0  0  0  0  0  0
    2.3125    3.9030    8.7765 O   0  0  0  0  0  0  0  0  0  0  0  0
    7.1028    6.4347    6.6851 C   0  0  2  0  0  0  0  0  0  0  0  0
   12.7595    8.8826    8.5596 C   0  0  1  0  0  0  0  0  0  0  0  0
   13.8122    9.7488    8.1440 O   0  0  0  0  0  0  0  0  0  0  0  0
    3.6889    5.9428    8.4873 C   0  0  2  0  0  0  0  0  0  0  0  0
    4.8969    6.6274    8.9877 O   0  0  0  0  0  0  0  0  0  0  0  0
    8.6069    6.2005    6.9726 C   0  0  2  0  0  0  0  0  0  0  0  0
    8.8466    6.4654    8.3509 O   0  0  0  0  0  0  0  0  0  0  0  0
   11.4346    9.2965    7.8450 C   0  0  0  0  0  0  0  0  0  0  0  0
   11.5573    9.1384    6.3758 O   0  0  0  0  0  0  0  0  0  0  0  0
    2.4806    6.9017    8.6498 C   0  0  2  0  0  0  0  0  0  0  0  0
    2.0883    6.9424   10.0194 O   0  0  0  0  0  0  0  0  0  0  0  0
    9.4928    7.1462    6.1286 C   0  0  1  0  0  0  0  0  0  0  0  0
   10.8687    6.8467    6.4625 O   0  0  0  0  0  0  0  0  0  0  0  0
    1.2859    6.4393    7.8322 C   0  0  0  0  0  0  0  0  0  0  0  0
   12.5961    9.0443   10.0659 C   0  0  0  0  0  0  0  0  0  0  0  0
   14.0568    5.8655    9.7432 C   0  0  0  0  0  0  0  0  0  0  0  0
  1  2  1  6  0  0  0
  1  6  1  0  0  0  0
  1 23  1  0  0  0  0
  3  4  1  6  0  0  0
  3  8  1  0  0  0  0
  3 30  1  0  0  0  0
  5  9  1  0  0  0  0
  5 27  1  0  0  0  0
  5 31  1  1  0  0  0
  6  7  1  6  0  0  0
  6 11  1  0  0  0  0
  8 13  1  0  0  0  0
  9 10  1  1  0  0  0
  9 15  1  0  0  0  0
 11 12  1  1  0  0  0
 11 17  1  0  0  0  0
 13 14  1  1  0  0  0
 13 19  1  0  0  0  0
 15 16  1  1  0  0  0
 15 20  1  0  0  0  0
 16 34  1  0  0  0  0
 17 18  1  6  0  0  0
 17 22  1  0  0  0  0
 19  2  1  1  0  0  0
 19 24  1  0  0  0  0
 20 21  1  6  0  0  0
 20 26  1  0  0  0  0
 20 33  1  0  0  0  0
 22 23  1  1  0  0  0
 22 28  1  0  0  0  0
 24 25  1  1  0  0  0
 24 30  1  0  0  0  0
 26 27  1  0  0  0  0
 28 29  1  1  0  0  0
 28 32  1  0  0  0  0
 30 31  1  1  0  0  0
M  END
>  <CHROM.1>
-148.01840770,-163.99186302,-123.19341058,45.51701873,73.83263384,173.41491931
8.26819191,6.51296353,7.67641007,-2.93209527,-0.21309768,-1.20703035

>  <Name>
ligand

>  <RI>
0

>  <Rbt.Current_Directory>
/home/itssahil/PROJECTS/Mol_Feturizer/New_Systems/rnas/3TD1

>  <Rbt.Executable>
rbdock ($Id: //depot/dev/client3/rdock/2013.1/src/exe/rbdock.cxx#4 $)

>  <Rbt.Library>
libRbt.so (2013.1, Build901 2013/11/27)

>  <Rbt.Parameter_File>
/export/apps/rDock/src/rDock_2013.1_src/data/scripts/dock_solv.prm

>  <Rbt.Receptor>
prm/pocket_docking_3.prm

>  <SCORE>
-15.6009

>  <SCORE.INTER>
-10.2647

>  <SCORE.INTER.CONST>
1

>  <SCORE.INTER.POLAR>
0

>  <SCORE.INTER.ROT>
6

>  <SCORE.INTER.SOLV>
17.0196

>  <SCORE.INTER.VDW>
-20.1164

>  <SCORE.INTER.norm>
-0.301903

>  <SCORE.INTRA>
-5.33619

>  <SCORE.INTRA.DIHEDRAL>
-11.3309

>  <SCORE.INTRA.DIHEDRAL.0>
19.5869

>  <SCORE.INTRA.POLAR>
0

>  <SCORE.INTRA.POLAR.0>
0

>  <SCORE.INTRA.REPUL>
0

>  <SCORE.INTRA.REPUL.0>
0

>  <SCORE.INTRA.SOLV>
-0.768957

>  <SCORE.INTRA.SOLV.lig_0>
-70.101

>  <SCORE.INTRA.VDW>
0.713719

>  <SCORE.INTRA.VDW.0>
-3.39718

>  <SCORE.INTRA.norm>
-0.156947

>  <SCORE.RESTR>
0

>  <SCORE.RESTR.CAVITY>
0

>  <SCORE.RESTR.norm>
0

>  <SCORE.SYSTEM>
0

>  <SCORE.SYSTEM.CONST>
0

>  <SCORE.SYSTEM.DIHEDRAL>
0

>  <SCORE.SYSTEM.SOLV>
0

>  <SCORE.SYSTEM.norm>
0

>  <SCORE.heavy>
34

>  <SCORE.norm>
-0.45885

>  <RMSD>
1.372

$$$$
ligand
 OpenBabel11021811483D
libRbt.so/2013.1/901 2013/11/27
 34 36  0  0  0  0  0  0  0  0999 V2000
    6.0100    5.4090    8.7230 C   0  0  2  0  0  0  0  0  0  0  0  0
    6.1597    5.3108    7.2981 O   0  0  0  0  0  0  0  0  0  0  0  0
    9.1105    6.9998    4.7094 C   0  0  2  0  0  0  0  0  0  0  0  0
    9.9174    7.9641    3.9696 N   0  0  0  0  0  0  0  0  0  0  0  0
   11.7354    7.8064    6.0935 C   0  0  2  0  0  0  0  0  0  0  0  0
    5.6994    3.9731    9.2780 C   0  0  2  0  0  0  0  0  0  0  0  0
    6.7962    3.0394    8.9785 N   0  0  0  0  0  0  0  0  0  0  0  0
    7.6104    7.2822    4.3638 C   0  0  0  0  0  0  0  0  0  0  0  0
   13.1088    7.3053    6.6677 C   0  0  2  0  0  0  0  0  0  0  0  0
   13.3807    5.9969    6.1935 O   0  0  0  0  0  0  0  0  0  0  0  0
    4.3848    3.4572    8.6535 C   0  0  1  0  0  0  0  0  0  0  0  0
    4.0903    2.1464    9.1631 O   0  0  0  0  0  0  0  0  0  0  0  0
    6.7447    6.2324    5.1394 C   0  0  2  0  0  0  0  0  0  0  0  0
    5.3116    6.4521    4.8575 N   0  0  0  0  0  0  0  0  0  0  0  0
   13.0379    7.3336    8.2437 C   0  0  1  0  0  0  0  0  0  0  0  0
   14.3188    6.8494    8.8404 N   0  0  0  0  0  0  0  0  0  0  0  0
    3.2521    4.4607    8.9755 C   0  0  2  0  0  0  0  0  0  0  0  0
    2.0222    3.9986    8.3905 O   0  0  0  0  0  0  0  0  0  0  0  0
    6.9782    6.3414    6.6679 C   0  0  2  0  0  0  0  0  0  0  0  0
   12.7367    8.7979    8.7135 C   0  0  1  0  0  0  0  0  0  0  0  0
   13.7912    9.6605    8.2955 O   0  0  0  0  0  0  0  0  0  0  0  0
    3.6304    5.8834    8.4121 C   0  0  2  0  0  0  0  0  0  0  0  0
    4.9037    6.3364    9.0053 O   0  0  0  0  0  0  0  0  0  0  0  0
    8.4807    6.1215    6.9750 C   0  0  2  0  0  0  0  0  0  0  0  0
    8.6738    6.2443    8.3803 O   0  0  0  0  0  0  0  0  0  0  0  0
   11.3961    9.2648    8.0636 C   0  0  0  0  0  0  0  0  0  0  0  0
   11.4643    9.1640    6.5859 O   0  0  0  0  0  0  0  0  0  0  0  0
    2.5401    6.9404    8.7283 C   0  0  2  0  0  0  0  0  0  0  0  0
    2.1888    6.8616   10.1073 O   0  0  0  0  0  0  0  0  0  0  0  0
    9.3586    7.1773    6.2636 C   0  0  1  0  0  0  0  0  0  0  0  0
   10.7337    6.8837    6.6059 O   0  0  0  0  0  0  0  0  0  0  0  0
    1.2816    6.7081    7.9086 C   0  0  0  0  0  0  0  0  0  0  0  0
   12.6291    8.9015   10.2300 C   0  0  0  0  0  0  0  0  0  0  0  0
   14.0164    5.7003    9.7150 C   0  0  0  0  0  0  0  0  0  0  0  0
  1  2  1  6  0  0  0
  1  6  1  0  0  0  0
  1 23  1  0  0  0  0
  3  4  1  6  0  0  0
  3  8  1  0  0  0  0
  3 30  1  0  0  0  0
  5  9  1  0  0  0  0
  5 27  1  0  0  0  0
  5 31  1  1  0  0  0
  6  7  1  6  0  0  0
  6 11  1  0  0  0  0
  8 13  1  0  0  0  0
  9 10  1  1  0  0  0
  9 15  1  0  0  0  0
 11 12  1  1  0  0  0
 11 17  1  0  0  0  0
 13 14  1  1  0  0  0
 13 19  1  0  0  0  0
 15 16  1  1  0  0  0
 15 20  1  0  0  0  0
 16 34  1  0  0  0  0
 17 18  1  6  0  0  0
 17 22  1  0  0  0  0
 19  2  1  1  0  0  0
 19 24  1  0  0  0  0
 20 21  1  6  0  0  0
 20 26  1  0  0  0  0
 20 33  1  0  0  0  0
 22 23  1  1  0  0  0
 22 28  1  0  0  0  0
 24 25  1  1  0  0  0
 24 30  1  0  0  0  0
 26 27  1  0  0  0  0
 28 29  1  1  0  0  0
 28 32  1  0  0  0  0
 30 31  1  6  0  0  0
M  END
>  <CHROM.1>
-154.87629875,-167.61238358,-122.43478348,48.53667665,67.16234309,177.07905898
8.15362546,6.43818375,7.65156893,-2.93775672,-0.21859195,-1.11051138

>  <Name>
ligand

>  <RI>
0

>  <Rbt.Current_Directory>
/home/itssahil/PROJECTS/Mol_Feturizer/New_Systems/rnas/3TD1

>  <Rbt.Executable>
rbdock ($Id: //depot/dev/client3/rdock/2013.1/src/exe/rbdock.cxx#4 $)

>  <Rbt.Library>
libRbt.so (2013.1, Build901 2013/11/27)

>  <Rbt.Parameter_File>
/export/apps/rDock/src/rDock_2013.1_src/data/scripts/dock_solv.prm

>  <Rbt.Receptor>
prm/pocket_docking_2.prm

>  <SCORE>
-15.8037

>  <SCORE.INTER>
-9.52798

>  <SCORE.INTER.CONST>
1

>  <SCORE.INTER.POLAR>
0

>  <SCORE.INTER.ROT>
6

>  <SCORE.INTER.SOLV>
17.5463

>  <SCORE.INTER.VDW>
-19.8007

>  <SCORE.INTER.norm>
-0.280235

>  <SCORE.INTRA>
-6.27575

>  <SCORE.INTRA.DIHEDRAL>
-14.1483

>  <SCORE.INTRA.DIHEDRAL.0>
19.5869

>  <SCORE.INTRA.POLAR>
0

>  <SCORE.INTRA.POLAR.0>
0

>  <SCORE.INTRA.REPUL>
0

>  <SCORE.INTRA.REPUL.0>
0

>  <SCORE.INTRA.SOLV>
-0.950781

>  <SCORE.INTRA.SOLV.lig_0>
-70.101

>  <SCORE.INTRA.VDW>
1.27378

>  <SCORE.INTRA.VDW.0>
-3.39718

>  <SCORE.INTRA.norm>
-0.184581

>  <SCORE.RESTR>
0

>  <SCORE.RESTR.CAVITY>
0

>  <SCORE.RESTR.norm>
0

>  <SCORE.SYSTEM>
0

>  <SCORE.SYSTEM.CONST>
0

>  <SCORE.SYSTEM.DIHEDRAL>
0

>  <SCORE.SYSTEM.SOLV>
0

>  <SCORE.SYSTEM.norm>
0

>  <SCORE.heavy>
34

>  <SCORE.norm>
-0.464815

>  <RMSD>
1.375

$$$$
ligand
 OpenBabel11021811483D
libRbt.so/2013.1/901 2013/11/27
 34 36  0  0  0  0  0  0  0  0999 V2000
    6.0777    5.8472    9.1761 C   0  0  2  0  0  0  0  0  0  0  0  0
    6.3022    5.5125    7.7976 O   0  0  0  0  0  0  0  0  0  0  0  0
    9.2001    6.8404    4.9514 C   0  0  2  0  0  0  0  0  0  0  0  0
   10.0040    7.6998    4.0894 N   0  0  0  0  0  0  0  0  0  0  0  0
   11.8770    7.8367    6.3389 C   0  0  2  0  0  0  0  0  0  0  0  0
    6.4578    4.5966   10.0468 C   0  0  2  0  0  0  0  0  0  0  0  0
    7.8732    4.2366    9.8695 N   0  0  0  0  0  0  0  0  0  0  0  0
    7.6961    7.1289    4.6283 C   0  0  0  0  0  0  0  0  0  0  0  0
   13.2420    7.3712    6.9611 C   0  0  2  0  0  0  0  0  0  0  0  0
   13.5765    6.0807    6.4778 O   0  0  0  0  0  0  0  0  0  0  0  0
    5.5589    3.4054    9.6499 C   0  0  1  0  0  0  0  0  0  0  0  0
    5.8960    2.2594   10.4485 O   0  0  0  0  0  0  0  0  0  0  0  0
    6.8326    6.1899    5.5368 C   0  0  2  0  0  0  0  0  0  0  0  0
    5.3963    6.4208    5.2813 N   0  0  0  0  0  0  0  0  0  0  0  0
   13.1063    7.3701    8.5331 C   0  0  1  0  0  0  0  0  0  0  0  0
   14.3774    6.9180    9.1742 N   0  0  0  0  0  0  0  0  0  0  0  0
    4.0784    3.8137    9.8370 C   0  0  2  0  0  0  0  0  0  0  0  0
    3.2278    2.7167    9.4606 O   0  0  0  0  0  0  0  0  0  0  0  0
    7.1235    6.4487    7.0372 C   0  0  2  0  0  0  0  0  0  0  0  0
   12.7374    8.8154    9.0132 C   0  0  1  0  0  0  0  0  0  0  0  0
   13.7786    9.7192    8.6525 O   0  0  0  0  0  0  0  0  0  0  0  0
    3.7645    5.0824    8.9557 C   0  0  2  0  0  0  0  0  0  0  0  0
    4.6574    6.1934    9.3386 O   0  0  0  0  0  0  0  0  0  0  0  0
    8.6299    6.2182    7.3155 C   0  0  2  0  0  0  0  0  0  0  0  0
    8.8765    6.4792    8.6934 O   0  0  0  0  0  0  0  0  0  0  0  0
   11.4095    9.2492    8.3162 C   0  0  0  0  0  0  0  0  0  0  0  0
   11.5409    9.1760    6.8411 O   0  0  0  0  0  0  0  0  0  0  0  0
    2.2966    5.5548    9.1224 C   0  0  2  0  0  0  0  0  0  0  0  0
    1.4136    4.4990    8.7525 O   0  0  0  0  0  0  0  0  0  0  0  0
    9.5082    7.1695    6.4698 C   0  0  1  0  0  0  0  0  0  0  0  0
   10.8868    6.8730    6.7950 O   0  0  0  0  0  0  0  0  0  0  0  0
    1.9913    6.7537    8.2397 C   0  0  0  0  0  0  0  0  0  0  0  0
   12.5650    8.8895   10.5254 C   0  0  0  0  0  0  0  0  0  0  0  0
   14.0654    5.7941   10.0779 C   0  0  0  0  0  0  0  0  0  0  0  0
  1  2  1  6  0  0  0
  1  6  1  0  0  0  0
  1 23  1  0  0  0  0
  3  4  1  6  0  0  0
  3  8  1  0  0  0  0
  3 30  1  0  0  0  0
  5  9  1  0  0  0  0
  5 27  1  0  0  0  0
  5 31  1  1  0  0  0
  6  7  1  6  0  0  0
  6 11  1  0  0  0  0
  8 13  1  0  0  0  0
  9 10  1  6  0  0  0
  9 15  1  0  0  0  0
 11 12  1  1  0  0  0
 11 17  1  0  0  0  0
 13 14  1  1  0  0  0
 13 19  1  0  0  0  0
 15 16  1  1  0  0  0
 15 20  1  0  0  0  0
 16 34  1  0  0  0  0
 17 18  1  6  0  0  0
 17 22  1  0  0  0  0
 19  2  1  1  0  0  0
 19 24  1  0  0  0  0
 20 21  1  6  0  0  0
 20 26  1  0  0  0  0
 20 33  1  0  0  0  0
 22 23  1  1  0  0  0
 22 28  1  0  0  0  0
 24 25  1  1  0  0  0
 24 30  1  0  0  0  0
 26 27  1  0  0  0  0
 28 29  1  6  0  0  0
 28 32  1  0  0  0  0
 30 31  1  6  0  0  0
M  END
>  <CHROM.1>
-128.16649966,-160.57829765,-125.67126037,-58.87725286,76.96655210,173.49462601
8.40606217,6.31769552,8.03536224,-2.89177560,-0.25423002,-1.08377415

>  <Name>
ligand

>  <RI>
0

>  <Rbt.Current_Directory>
/home/itssahil/PROJECTS/Mol_Feturizer/New_Systems/rnas/3TD1

>  <Rbt.Executable>
rbdock ($Id: //depot/dev/client3/rdock/2013.1/src/exe/rbdock.cxx#4 $)

>  <Rbt.Library>
libRbt.so (2013.1, Build901 2013/11/27)

>  <Rbt.Parameter_File>
/export/apps/rDock/src/rDock_2013.1_src/data/scripts/dock_solv.prm

>  <Rbt.Receptor>
prm/pocket_docking_2.prm

>  <SCORE>
-14.6861

>  <SCORE.INTER>
-10.6583

>  <SCORE.INTER.CONST>
1

>  <SCORE.INTER.POLAR>
0

>  <SCORE.INTER.ROT>
6

>  <SCORE.INTER.SOLV>
15.5645

>  <SCORE.INTER.VDW>
-19.8937

>  <SCORE.INTER.norm>
-0.313479

>  <SCORE.INTRA>
-4.02779

>  <SCORE.INTRA.DIHEDRAL>
-8.23742

>  <SCORE.INTRA.DIHEDRAL.0>
19.5869

>  <SCORE.INTRA.POLAR>
0

>  <SCORE.INTRA.POLAR.0>
0

>  <SCORE.INTRA.REPUL>
0

>  <SCORE.INTRA.REPUL.0>
0

>  <SCORE.INTRA.SOLV>
-0.0850183

>  <SCORE.INTRA.SOLV.lig_0>
-70.101

>  <SCORE.INTRA.VDW>
0.13343

>  <SCORE.INTRA.VDW.0>
-3.39718

>  <SCORE.INTRA.norm>
-0.118464

>  <SCORE.RESTR>
0

>  <SCORE.RESTR.CAVITY>
0

>  <SCORE.RESTR.norm>
0

>  <SCORE.SYSTEM>
0

>  <SCORE.SYSTEM.CONST>
0

>  <SCORE.SYSTEM.DIHEDRAL>
0

>  <SCORE.SYSTEM.SOLV>
0

>  <SCORE.SYSTEM.norm>
0

>  <SCORE.heavy>
34

>  <SCORE.norm>
-0.431943

>  <RMSD>
1.415

$$$$
ligand
 OpenBabel11021811483D
libRbt.so/2013.1/901 2013/11/27
 34 36  0  0  0  0  0  0  0  0999 V2000
    6.3349    5.8060    9.2392 C   0  0  2  0  0  0  0  0  0  0  0  0
    6.6003    5.4660    7.8693 O   0  0  0  0  0  0  0  0  0  0  0  0
    9.5851    6.7934    5.1141 C   0  0  2  0  0  0  0  0  0  0  0  0
   10.4107    7.6519    4.2718 N   0  0  0  0  0  0  0  0  0  0  0  0
   12.1808    7.8953    6.7014 C   0  0  2  0  0  0  0  0  0  0  0  0
    6.1909    4.4694   10.0513 C   0  0  2  0  0  0  0  0  0  0  0  0
    7.4276    3.6750    9.9898 N   0  0  0  0  0  0  0  0  0  0  0  0
    8.0908    7.0625    4.7340 C   0  0  0  0  0  0  0  0  0  0  0  0
   13.5172    7.4403    7.3900 C   0  0  2  0  0  0  0  0  0  0  0  0
   13.9417    6.2013    6.8463 O   0  0  0  0  0  0  0  0  0  0  0  0
    5.0115    3.6507    9.4828 C   0  0  1  0  0  0  0  0  0  0  0  0
    4.8690    2.4296   10.2266 O   0  0  0  0  0  0  0  0  0  0  0  0
    7.2048    6.1244    5.6215 C   0  0  2  0  0  0  0  0  0  0  0  0
    5.7763    6.3373    5.3121 N   0  0  0  0  0  0  0  0  0  0  0  0
   13.2701    7.3225    8.9438 C   0  0  1  0  0  0  0  0  0  0  0  0
   14.5111    6.8759    9.6452 N   0  0  0  0  0  0  0  0  0  0  0  0
    3.7278    4.5117    9.5511 C   0  0  2  0  0  0  0  0  0  0  0  0
    2.6216    3.7654    9.0145 O   0  0  0  0  0  0  0  0  0  0  0  0
    7.4389    6.4026    7.1284 C   0  0  2  0  0  0  0  0  0  0  0  0
   12.8049    8.7147    9.4923 C   0  0  1  0  0  0  0  0  0  0  0  0
   13.8283    9.6817    9.2719 O   0  0  0  0  0  0  0  0  0  0  0  0
    3.9411    5.8441    8.7363 C   0  0  2  0  0  0  0  0  0  0  0  0
    5.0909    6.5896    9.2845 O   0  0  0  0  0  0  0  0  0  0  0  0
    8.9366    6.1910    7.4631 C   0  0  2  0  0  0  0  0  0  0  0  0
    9.1308    6.4695    8.8459 O   0  0  0  0  0  0  0  0  0  0  0  0
   11.5121    9.1448    8.7299 C   0  0  0  0  0  0  0  0  0  0  0  0
   11.7513    9.1815    7.2671 O   0  0  0  0  0  0  0  0  0  0  0  0
    2.6922    6.7623    8.7901 C   0  0  2  0  0  0  0  0  0  0  0  0
    2.2579    6.8936   10.1412 O   0  0  0  0  0  0  0  0  0  0  0  0
    9.8350    7.1422    6.6388 C   0  0  1  0  0  0  0  0  0  0  0  0
   11.2040    6.8638    7.0165 O   0  0  0  0  0  0  0  0  0  0  0  0
    1.5412    6.1889    7.9801 C   0  0  0  0  0  0  0  0  0  0  0  0
   12.5222    8.6746   10.9891 C   0  0  0  0  0  0  0  0  0  0  0  0
   14.2114    5.6216   10.3620 C   0  0  0  0  0  0  0  0  0  0  0  0
  1  2  1  6  0  0  0
  1  6  1  0  0  0  0
  1 23  1  0  0  0  0
  3  4  1  6  0  0  0
  3  8  1  0  0  0  0
  3 30  1  0  0  0  0
  5  9  1  0  0  0  0
  5 27  1  0  0  0  0
  5 31  1  1  0  0  0
  6  7  1  6  0  0  0
  6 11  1  0  0  0  0
  8 13  1  0  0  0  0
  9 10  1  6  0  0  0
  9 15  1  0  0  0  0
 11 12  1  1  0  0  0
 11 17  1  0  0  0  0
 13 14  1  6  0  0  0
 13 19  1  0  0  0  0
 15 16  1  1  0  0  0
 15 20  1  0  0  0  0
 16 34  1  0  0  0  0
 17 18  1  6  0  0  0
 17 22  1  0  0  0  0
 19  2  1  1  0  0  0
 19 24  1  0  0  0  0
 20 21  1  6  0  0  0
 20 26  1  0  0  0  0
 20 33  1  0  0  0  0
 22 23  1  1  0  0  0
 22 28  1  0  0  0  0
 24 25  1  1  0  0  0
 24 30  1  0  0  0  0
 26 27  1  0  0  0  0
 28 29  1  1  0  0  0
 28 32  1  0  0  0  0
 30 31  1  1  0  0  0
M  END
>  <CHROM.1>
-148.14576981,-161.22396380,-121.39538776,48.67480348,82.81296001,172.11160909
8.51975617,6.46310205,8.20921398,-2.98764920,-0.23617352,-1.23209115

>  <Name>
ligand

>  <RI>
0

>  <Rbt.Current_Directory>
/home/itssahil/PROJECTS/Mol_Feturizer/New_Systems/rnas/3TD1

>  <Rbt.Executable>
rbdock ($Id: //depot/dev/client3/rdock/2013.1/src/exe/rbdock.cxx#4 $)

>  <Rbt.Library>
libRbt.so (2013.1, Build901 2013/11/27)

>  <Rbt.Parameter_File>
/export/apps/rDock/src/rDock_2013.1_src/data/scripts/dock_solv.prm

>  <Rbt.Receptor>
prm/pocket_docking_4.prm

>  <SCORE>
-15.4995

>  <SCORE.INTER>
-10.7126

>  <SCORE.INTER.CONST>
1

>  <SCORE.INTER.POLAR>
0

>  <SCORE.INTER.ROT>
6

>  <SCORE.INTER.SOLV>
16.4771

>  <SCORE.INTER.VDW>
-20.2341

>  <SCORE.INTER.norm>
-0.315078

>  <SCORE.INTRA>
-4.8036

>  <SCORE.INTRA.DIHEDRAL>
-9.7691

>  <SCORE.INTRA.DIHEDRAL.0>
19.5869

>  <SCORE.INTRA.POLAR>
0

>  <SCORE.INTRA.POLAR.0>
0

>  <SCORE.INTRA.REPUL>
0

>  <SCORE.INTRA.REPUL.0>
0

>  <SCORE.INTRA.SOLV>
-0.89742

>  <SCORE.INTRA.SOLV.lig_0>
-70.101

>  <SCORE.INTRA.VDW>
0.529658

>  <SCORE.INTRA.VDW.0>
-3.39718

>  <SCORE.INTRA.norm>
-0.141282

>  <SCORE.RESTR>
0.0167892

>  <SCORE.RESTR.CAVITY>
0.0167892

>  <SCORE.RESTR.norm>
0.000493801

>  <SCORE.SYSTEM>
0

>  <SCORE.SYSTEM.CONST>
0

>  <SCORE.SYSTEM.DIHEDRAL>
0

>  <SCORE.SYSTEM.SOLV>
0

>  <SCORE.SYSTEM.norm>
0

>  <SCORE.heavy>
34

>  <SCORE.norm>
-0.455866

>  <RMSD>
1.419

$$$$
ligand
 OpenBabel11021811483D
libRbt.so/2013.1/901 2013/11/27
 34 36  0  0  0  0  0  0  0  0999 V2000
    6.3241    5.7719    9.0936 C   0  0  2  0  0  0  0  0  0  0  0  0
    6.5366    5.4472    7.7109 O   0  0  0  0  0  0  0  0  0  0  0  0
    9.5524    6.6811    4.9461 C   0  0  2  0  0  0  0  0  0  0  0  0
   10.4000    7.5132    4.0992 N   0  0  0  0  0  0  0  0  0  0  0  0
   12.1990    7.6462    6.3964 C   0  0  2  0  0  0  0  0  0  0  0  0
    6.1927    4.4264    9.8929 C   0  0  2  0  0  0  0  0  0  0  0  0
    7.4166    3.6183    9.7771 N   0  0  0  0  0  0  0  0  0  0  0  0
    8.0656    6.9896    4.5670 C   0  0  0  0  0  0  0  0  0  0  0  0
   13.5087    7.2422    7.1636 C   0  0  2  0  0  0  0  0  0  0  0  0
   13.8829    5.9197    6.8146 O   0  0  0  0  0  0  0  0  0  0  0  0
    4.9839    3.6293    9.3564 C   0  0  1  0  0  0  0  0  0  0  0  0
    4.8529    2.4001   10.0889 O   0  0  0  0  0  0  0  0  0  0  0  0
    7.1554    6.0797    5.4596 C   0  0  2  0  0  0  0  0  0  0  0  0
    5.7329    6.3306    5.1512 N   0  0  0  0  0  0  0  0  0  0  0  0
   13.2443    7.3659    8.7141 C   0  0  1  0  0  0  0  0  0  0  0  0
   14.4589    6.9762    9.4914 N   0  0  0  0  0  0  0  0  0  0  0  0
    3.7141    4.5043    9.4815 C   0  0  2  0  0  0  0  0  0  0  0  0
    2.5804    3.7785    8.9752 O   0  0  0  0  0  0  0  0  0  0  0  0
    7.3994    6.3574    6.9650 C   0  0  2  0  0  0  0  0  0  0  0  0
   12.8360    8.8423    9.0448 C   0  0  1  0  0  0  0  0  0  0  0  0
   13.9025    9.7221    8.6989 O   0  0  0  0  0  0  0  0  0  0  0  0
    3.9147    5.8450    8.6771 C   0  0  2  0  0  0  0  0  0  0  0  0
    5.0922    6.5695    9.1935 O   0  0  0  0  0  0  0  0  0  0  0  0
    8.8912    6.1062    7.2984 C   0  0  2  0  0  0  0  0  0  0  0  0
    9.0950    6.3848    8.6798 O   0  0  0  0  0  0  0  0  0  0  0  0
   11.5694    9.2089    8.2088 C   0  0  0  0  0  0  0  0  0  0  0  0
   11.8216    9.0189    6.7601 O   0  0  0  0  0  0  0  0  0  0  0  0
    2.6798    6.7770    8.7873 C   0  0  2  0  0  0  0  0  0  0  0  0
    2.2566    6.8449   10.1466 O   0  0  0  0  0  0  0  0  0  0  0  0
    9.8142    7.0291    6.4690 C   0  0  1  0  0  0  0  0  0  0  0  0
   11.1756    6.7147    6.8459 O   0  0  0  0  0  0  0  0  0  0  0  0
    1.5151    6.2627    7.9575 C   0  0  0  0  0  0  0  0  0  0  0  0
   12.5399    9.0359   10.5269 C   0  0  0  0  0  0  0  0  0  0  0  0
   14.1476    5.7511   10.2525 C   0  0  0  0  0  0  0  0  0  0  0  0
  1  2  1  6  0  0  0
  1  6  1  0  0  0  0
  1 23  1  0  0  0  0
  3  4  1  6  0  0  0
  3  8  1  0  0  0  0
  3 30  1  0  0  0  0
  5  9  1  0  0  0  0
  5 27  1  0  0  0  0
  5 31  1  1  0  0  0
  6  7  1  6  0  0  0
  6 11  1  0  0  0  0
  8 13  1  0  0  0  0
  9 10  1  1  0  0  0
  9 15  1  0  0  0  0
 11 12  1  1  0  0  0
 11 17  1  0  0  0  0
 13 14  1  6  0  0  0
 13 19  1  0  0  0  0
 15 16  1  1  0  0  0
 15 20  1  0  0  0  0
 16 34  1  0  0  0  0
 17 18  1  6  0  0  0
 17 22  1  0  0  0  0
 19  2  1  1  0  0  0
 19 24  1  0  0  0  0
 20 21  1  6  0  0  0
 20 26  1  0  0  0  0
 20 33  1  0  0  0  0
 22 23  1  1  0  0  0
 22 28  1  0  0  0  0
 24 25  1  1  0  0  0
 24 30  1  0  0  0  0
 26 27  1  0  0  0  0
 28 29  1  1  0  0  0
 28 32  1  0  0  0  0
 30 31  1  1  0  0  0
M  END
>  <CHROM.1>
-145.99818207,-163.53078349,-114.34601653,45.93991337,76.28315479,169.06265243
8.50463895,6.43200404,8.01958148,-2.96477405,-0.22966264,-1.23642161

>  <Name>
ligand

>  <RI>
0

>  <Rbt.Current_Directory>
/home/itssahil/PROJECTS/Mol_Feturizer/New_Systems/rnas/3TD1

>  <Rbt.Executable>
rbdock ($Id: //depot/dev/client3/rdock/2013.1/src/exe/rbdock.cxx#4 $)

>  <Rbt.Library>
libRbt.so (2013.1, Build901 2013/11/27)

>  <Rbt.Parameter_File>
/export/apps/rDock/src/rDock_2013.1_src/data/scripts/dock_solv.prm

>  <Rbt.Receptor>
prm/pocket_docking_2.prm

>  <SCORE>
-15.5381

>  <SCORE.INTER>
-10.6879

>  <SCORE.INTER.CONST>
1

>  <SCORE.INTER.POLAR>
0

>  <SCORE.INTER.ROT>
6

>  <SCORE.INTER.SOLV>
15.9976

>  <SCORE.INTER.VDW>
-20.0578

>  <SCORE.INTER.norm>
-0.314351

>  <SCORE.INTRA>
-4.85014

>  <SCORE.INTRA.DIHEDRAL>
-10.2639

>  <SCORE.INTRA.DIHEDRAL.0>
19.5869

>  <SCORE.INTRA.POLAR>
0

>  <SCORE.INTRA.POLAR.0>
0

>  <SCORE.INTRA.REPUL>
0

>  <SCORE.INTRA.REPUL.0>
0

>  <SCORE.INTRA.SOLV>
-0.653738

>  <SCORE.INTRA.SOLV.lig_0>
-70.101

>  <SCORE.INTRA.VDW>
0.608676

>  <SCORE.INTRA.VDW.0>
-3.39718

>  <SCORE.INTRA.norm>
-0.142651

>  <SCORE.RESTR>
0

>  <SCORE.RESTR.CAVITY>
0

>  <SCORE.RESTR.norm>
0

>  <SCORE.SYSTEM>
0

>  <SCORE.SYSTEM.CONST>
0

>  <SCORE.SYSTEM.DIHEDRAL>
0

>  <SCORE.SYSTEM.SOLV>
0

>  <SCORE.SYSTEM.norm>
0

>  <SCORE.heavy>
34

>  <SCORE.norm>
-0.457003

>  <RMSD>
1.457

$$$$
ligand
 OpenBabel11021811483D
libRbt.so/2013.1/901 2013/11/27
 34 36  0  0  0  0  0  0  0  0999 V2000
    6.2266    5.8366    9.1340 C   0  0  2  0  0  0  0  0  0  0  0  0
    6.4680    5.4716    7.7662 O   0  0  0  0  0  0  0  0  0  0  0  0
    9.4615    6.6659    4.9600 C   0  0  2  0  0  0  0  0  0  0  0  0
   10.3068    7.4866    4.0998 N   0  0  0  0  0  0  0  0  0  0  0  0
   12.1441    7.5509    6.2899 C   0  0  2  0  0  0  0  0  0  0  0  0
    6.1050    4.5152    9.9742 C   0  0  2  0  0  0  0  0  0  0  0  0
    7.3445    3.7259    9.9046 N   0  0  0  0  0  0  0  0  0  0  0  0
    7.9732    6.9884    4.5985 C   0  0  0  0  0  0  0  0  0  0  0  0
   13.4588    7.1855    7.0679 C   0  0  2  0  0  0  0  0  0  0  0  0
   13.7959    5.8283    6.8335 O   0  0  0  0  0  0  0  0  0  0  0  0
    4.9195    3.6799    9.4440 C   0  0  1  0  0  0  0  0  0  0  0  0
    4.7975    2.4726   10.2136 O   0  0  0  0  0  0  0  0  0  0  0  0
    7.0651    6.0906    5.5053 C   0  0  2  0  0  0  0  0  0  0  0  0
    5.6415    6.3550    5.2139 N   0  0  0  0  0  0  0  0  0  0  0  0
   13.2273    7.4546    8.6052 C   0  0  1  0  0  0  0  0  0  0  0  0
   14.4474    7.1067    9.3936 N   0  0  0  0  0  0  0  0  0  0  0  0
    3.6328    4.5356    9.5200 C   0  0  2  0  0  0  0  0  0  0  0  0
    2.5206    3.7737    9.0189 O   0  0  0  0  0  0  0  0  0  0  0  0
    7.3307    6.3706    7.0066 C   0  0  2  0  0  0  0  0  0  0  0  0
   12.8592    8.9643    8.8081 C   0  0  1  0  0  0  0  0  0  0  0  0
   13.9387    9.7830    8.3660 O   0  0  0  0  0  0  0  0  0  0  0  0
    3.8237    5.8532    8.6760 C   0  0  2  0  0  0  0  0  0  0  0  0
    4.9795    6.6148    9.1879 O   0  0  0  0  0  0  0  0  0  0  0  0
    8.8239    6.1052    7.3222 C   0  0  2  0  0  0  0  0  0  0  0  0
    9.0478    6.3861    8.7000 O   0  0  0  0  0  0  0  0  0  0  0  0
   11.5855    9.2852    7.9643 C   0  0  0  0  0  0  0  0  0  0  0  0
   11.8053    8.9595    6.5346 O   0  0  0  0  0  0  0  0  0  0  0  0
    2.5711    6.7661    8.7358 C   0  0  2  0  0  0  0  0  0  0  0  0
    2.0907    6.8250   10.0763 O   0  0  0  0  0  0  0  0  0  0  0  0
    9.7458    7.0160    6.4783 C   0  0  1  0  0  0  0  0  0  0  0  0
   11.1085    6.6890    6.8393 O   0  0  0  0  0  0  0  0  0  0  0  0
    1.4499    6.2355    7.8577 C   0  0  0  0  0  0  0  0  0  0  0  0
   12.5962    9.2975   10.2715 C   0  0  0  0  0  0  0  0  0  0  0  0
   14.0750    6.0930   10.3990 C   0  0  0  0  0  0  0  0  0  0  0  0
  1  2  1  6  0  0  0
  1  6  1  0  0  0  0
  1 23  1  0  0  0  0
  3  4  1  6  0  0  0
  3  8  1  0  0  0  0
  3 30  1  0  0  0  0
  5  9  1  0  0  0  0
  5 27  1  0  0  0  0
  5 31  1  1  0  0  0
  6  7  1  6  0  0  0
  6 11  1  0  0  0  0
  8 13  1  0  0  0  0
  9 10  1  1  0  0  0
  9 15  1  0  0  0  0
 11 12  1  1  0  0  0
 11 17  1  0  0  0  0
 13 14  1  6  0  0  0
 13 19  1  0  0  0  0
 15 16  1  1  0  0  0
 15 20  1  0  0  0  0
 16 34  1  0  0  0  0
 17 18  1  6  0  0  0
 17 22  1  0  0  0  0
 19  2  1  1  0  0  0
 19 24  1  0  0  0  0
 20 21  1  6  0  0  0
 20 26  1  0  0  0  0
 20 33  1  0  0  0  0
 22 23  1  1  0  0  0
 22 28  1  0  0  0  0
 24 25  1  1  0  0  0
 24 30  1  0  0  0  0
 26 27  1  0  0  0  0
 28 29  1  1  0  0  0
 28 32  1  0  0  0  0
 30 31  1  1  0  0  0
M  END
>  <CHROM.1>
-145.82153301,-160.76990169,-122.16401173,43.53377490,71.79469224,167.98728099
8.44344297,6.46649558,7.99169202,-2.94929175,-0.22722143,-1.22585167

>  <Name>
ligand

>  <RI>
0

>  <Rbt.Current_Directory>
/home/itssahil/PROJECTS/Mol_Feturizer/New_Systems/rnas/3TD1

>  <Rbt.Executable>
rbdock ($Id: //depot/dev/client3/rdock/2013.1/src/exe/rbdock.cxx#4 $)

>  <Rbt.Library>
libRbt.so (2013.1, Build901 2013/11/27)

>  <Rbt.Parameter_File>
/export/apps/rDock/src/rDock_2013.1_src/data/scripts/dock_solv.prm

>  <Rbt.Receptor>
prm/pocket_docking_7.prm

>  <SCORE>
-15.8426

>  <SCORE.INTER>
-11.3182

>  <SCORE.INTER.CONST>
1

>  <SCORE.INTER.POLAR>
0

>  <SCORE.INTER.ROT>
6

>  <SCORE.INTER.SOLV>
16.688

>  <SCORE.INTER.VDW>
-20.7082

>  <SCORE.INTER.norm>
-0.332889

>  <SCORE.INTRA>
-4.52434

>  <SCORE.INTRA.DIHEDRAL>
-9.99298

>  <SCORE.INTRA.DIHEDRAL.0>
19.5869

>  <SCORE.INTRA.POLAR>
0

>  <SCORE.INTRA.POLAR.0>
0

>  <SCORE.INTRA.REPUL>
0

>  <SCORE.INTRA.REPUL.0>
0

>  <SCORE.INTRA.SOLV>
-0.346287

>  <SCORE.INTRA.SOLV.lig_0>
-70.101

>  <SCORE.INTRA.VDW>
0.645288

>  <SCORE.INTRA.VDW.0>
-3.39718

>  <SCORE.INTRA.norm>
-0.133069

>  <SCORE.RESTR>
0

>  <SCORE.RESTR.CAVITY>
0

>  <SCORE.RESTR.norm>
0

>  <SCORE.SYSTEM>
0

>  <SCORE.SYSTEM.CONST>
0

>  <SCORE.SYSTEM.DIHEDRAL>
0

>  <SCORE.SYSTEM.SOLV>
0

>  <SCORE.SYSTEM.norm>
0

>  <SCORE.heavy>
34

>  <SCORE.norm>
-0.465958

>  <RMSD>
1.495

$$$$
ligand
 OpenBabel11021811483D
libRbt.so/2013.1/901 2013/11/27
 34 36  0  0  0  0  0  0  0  0999 V2000
    6.2797    5.8020    9.1677 C   0  0  2  0  0  0  0  0  0  0  0  0
    6.5188    5.4448    7.7974 O   0  0  0  0  0  0  0  0  0  0  0  0
    9.5917    6.5962    5.0601 C   0  0  2  0  0  0  0  0  0  0  0  0
   10.4620    7.4038    4.2125 N   0  0  0  0  0  0  0  0  0  0  0  0
   12.2389    7.4835    6.4337 C   0  0  2  0  0  0  0  0  0  0  0  0
    6.1420    4.4758    9.9976 C   0  0  2  0  0  0  0  0  0  0  0  0
    7.3725    3.6729    9.9234 N   0  0  0  0  0  0  0  0  0  0  0  0
    8.1146    6.9147    4.6521 C   0  0  0  0  0  0  0  0  0  0  0  0
   13.5283    7.1479    7.2656 C   0  0  2  0  0  0  0  0  0  0  0  0
   13.8695    5.7821    7.0954 O   0  0  0  0  0  0  0  0  0  0  0  0
    4.9477    3.6581    9.4595 C   0  0  1  0  0  0  0  0  0  0  0  0
    4.8109    2.4465   10.2197 O   0  0  0  0  0  0  0  0  0  0  0  0
    7.1802    6.0308    5.5456 C   0  0  2  0  0  0  0  0  0  0  0  0
    5.7657    6.2921    5.2104 N   0  0  0  0  0  0  0  0  0  0  0  0
   13.2503    7.4777    8.7832 C   0  0  1  0  0  0  0  0  0  0  0  0
   14.4450    7.1600    9.6218 N   0  0  0  0  0  0  0  0  0  0  0  0
    3.6707    4.5279    9.5405 C   0  0  2  0  0  0  0  0  0  0  0  0
    2.5506    3.7826    9.0322 O   0  0  0  0  0  0  0  0  0  0  0  0
    7.4036    6.3321    7.0497 C   0  0  2  0  0  0  0  0  0  0  0  0
   12.8795    8.9945    8.9150 C   0  0  1  0  0  0  0  0  0  0  0  0
   13.9738    9.7942    8.4743 O   0  0  0  0  0  0  0  0  0  0  0  0
    3.8778    5.8496    8.7068 C   0  0  2  0  0  0  0  0  0  0  0  0
    5.0416    6.5940    9.2260 O   0  0  0  0  0  0  0  0  0  0  0  0
    8.8871    6.0700    7.4112 C   0  0  2  0  0  0  0  0  0  0  0  0
    9.0723    6.3705    8.7906 O   0  0  0  0  0  0  0  0  0  0  0  0
   11.6330    9.2831    8.0204 C   0  0  0  0  0  0  0  0  0  0  0  0
   11.8958    8.9010    6.6121 O   0  0  0  0  0  0  0  0  0  0  0  0
    2.6356    6.7763    8.7721 C   0  0  2  0  0  0  0  0  0  0  0  0
    2.2035    6.8956   10.1250 O   0  0  0  0  0  0  0  0  0  0  0  0
    9.8335    6.9678    6.5807 C   0  0  1  0  0  0  0  0  0  0  0  0
   11.1851    6.6449    6.9846 O   0  0  0  0  0  0  0  0  0  0  0  0
    1.4798    6.2205    7.9567 C   0  0  0  0  0  0  0  0  0  0  0  0
   12.5725    9.3856   10.3553 C   0  0  0  0  0  0  0  0  0  0  0  0
   14.0979    6.0381   10.5151 C   0  0  0  0  0  0  0  0  0  0  0  0
  1  2  1  6  0  0  0
  1  6  1  0  0  0  0
  1 23  1  0  0  0  0
  3  4  1  6  0  0  0
  3  8  1  0  0  0  0
  3 30  1  0  0  0  0
  5  9  1  0  0  0  0
  5 27  1  0  0  0  0
  5 31  1  1  0  0  0
  6  7  1  6  0  0  0
  6 11  1  0  0  0  0
  8 13  1  0  0  0  0
  9 10  1  1  0  0  0
  9 15  1  0  0  0  0
 11 12  1  1  0  0  0
 11 17  1  0  0  0  0
 13 14  1  6  0  0  0
 13 19  1  0  0  0  0
 15 16  1  1  0  0  0
 15 20  1  0  0  0  0
 16 34  1  0  0  0  0
 17 18  1  6  0  0  0
 17 22  1  0  0  0  0
 19  2  1  1  0  0  0
 19 24  1  0  0  0  0
 20 21  1  6  0  0  0
 20 26  1  0  0  0  0
 20 33  1  0  0  0  0
 22 23  1  1  0  0  0
 22 28  1  0  0  0  0
 24 25  1  1  0  0  0
 24 30  1  0  0  0  0
 26 27  1  0  0  0  0
 28 29  1  1  0  0  0
 28 32  1  0  0  0  0
 30 31  1  1  0  0  0
M  END
>  <CHROM.1>
-145.21507969,-163.04464548,-113.47496456,47.05766492,70.75029498,167.34360402
8.50307861,6.44494385,8.07271781,-2.96367631,-0.23478579,-1.24565684

>  <Name>
ligand

>  <RI>
0

>  <Rbt.Current_Directory>
/home/itssahil/PROJECTS/Mol_Feturizer/New_Systems/rnas/3TD1

>  <Rbt.Executable>
rbdock ($Id: //depot/dev/client3/rdock/2013.1/src/exe/rbdock.cxx#4 $)

>  <Rbt.Library>
libRbt.so (2013.1, Build901 2013/11/27)

>  <Rbt.Parameter_File>
/export/apps/rDock/src/rDock_2013.1_src/data/scripts/dock_solv.prm

>  <Rbt.Receptor>
prm/pocket_docking_5.prm

>  <SCORE>
-15.771

>  <SCORE.INTER>
-11.1899

>  <SCORE.INTER.CONST>
1

>  <SCORE.INTER.POLAR>
0

>  <SCORE.INTER.ROT>
6

>  <SCORE.INTER.SOLV>
16.3398

>  <SCORE.INTER.VDW>
-20.5065

>  <SCORE.INTER.norm>
-0.329114

>  <SCORE.INTRA>
-4.58113

>  <SCORE.INTRA.DIHEDRAL>
-10.6386

>  <SCORE.INTRA.DIHEDRAL.0>
19.5869

>  <SCORE.INTRA.POLAR>
0

>  <SCORE.INTRA.POLAR.0>
0

>  <SCORE.INTRA.REPUL>
0

>  <SCORE.INTRA.REPUL.0>
0

>  <SCORE.INTRA.SOLV>
-0.323843

>  <SCORE.INTRA.SOLV.lig_0>
-70.101

>  <SCORE.INTRA.VDW>
0.900089

>  <SCORE.INTRA.VDW.0>
-3.39718

>  <SCORE.INTRA.norm>
-0.134739

>  <SCORE.RESTR>
0

>  <SCORE.RESTR.CAVITY>
0

>  <SCORE.RESTR.norm>
0

>  <SCORE.SYSTEM>
0

>  <SCORE.SYSTEM.CONST>
0

>  <SCORE.SYSTEM.DIHEDRAL>
0

>  <SCORE.SYSTEM.SOLV>
0

>  <SCORE.SYSTEM.norm>
0

>  <SCORE.heavy>
34

>  <SCORE.norm>
-0.463853

>  <RMSD>
1.553

$$$$
ligand
 OpenBabel11021811483D
libRbt.so/2013.1/901 2013/11/27
 34 36  0  0  0  0  0  0  0  0999 V2000
    6.6016    5.9691    8.4144 C   0  0  2  0  0  0  0  0  0  0  0  0
    7.0483    5.4293    7.1607 O   0  0  0  0  0  0  0  0  0  0  0  0
   10.3657    6.3584    4.6322 C   0  0  2  0  0  0  0  0  0  0  0  0
   11.3030    7.0914    3.7883 N   0  0  0  0  0  0  0  0  0  0  0  0
   12.7979    7.6047    6.2918 C   0  0  2  0  0  0  0  0  0  0  0  0
    6.2800    4.7671    9.3727 C   0  0  2  0  0  0  0  0  0  0  0  0
    7.4749    3.9422    9.6092 N   0  0  0  0  0  0  0  0  0  0  0  0
    8.9330    6.5805    4.0425 C   0  0  0  0  0  0  0  0  0  0  0  0
   14.0074    7.3144    7.2510 C   0  0  2  0  0  0  0  0  0  0  0  0
   14.4565    5.9816    7.0703 O   0  0  0  0  0  0  0  0  0  0  0  0
    5.1600    3.9042    8.7518 C   0  0  1  0  0  0  0  0  0  0  0  0
    4.8550    2.8065    9.6275 O   0  0  0  0  0  0  0  0  0  0  0  0
    7.9286    5.7750    4.9343 C   0  0  2  0  0  0  0  0  0  0  0  0
    6.5517    5.9507    4.4295 N   0  0  0  0  0  0  0  0  0  0  0  0
   13.5422    7.5589    8.7387 C   0  0  1  0  0  0  0  0  0  0  0  0
   14.6557    7.2802    9.6945 N   0  0  0  0  0  0  0  0  0  0  0  0
    3.9207    4.7971    8.5057 C   0  0  2  0  0  0  0  0  0  0  0  0
    2.8717    4.0087    7.9170 O   0  0  0  0  0  0  0  0  0  0  0  0
    7.9881    6.2533    6.4076 C   0  0  2  0  0  0  0  0  0  0  0  0
   13.0578    9.0421    8.8834 C   0  0  1  0  0  0  0  0  0  0  0  0
   14.1376    9.9276    8.5988 O   0  0  0  0  0  0  0  0  0  0  0  0
    4.3111    5.9929    7.5558 C   0  0  2  0  0  0  0  0  0  0  0  0
    5.4013    6.7812    8.1626 O   0  0  0  0  0  0  0  0  0  0  0  0
    9.4308    6.0821    6.9453 C   0  0  2  0  0  0  0  0  0  0  0  0
    9.4653    6.5441    8.2917 O   0  0  0  0  0  0  0  0  0  0  0  0
   11.9008    9.2909    7.8651 C   0  0  0  0  0  0  0  0  0  0  0  0
   12.3425    8.9886    6.4824 O   0  0  0  0  0  0  0  0  0  0  0  0
    3.1108    6.9395    7.2929 C   0  0  2  0  0  0  0  0  0  0  0  0
    2.3760    7.1204    8.5006 O   0  0  0  0  0  0  0  0  0  0  0  0
   10.4402    6.9090    6.1154 C   0  0  1  0  0  0  0  0  0  0  0  0
   11.7486    6.6781    6.6890 O   0  0  0  0  0  0  0  0  0  0  0  0
    2.1659    6.3678    6.2489 C   0  0  0  0  0  0  0  0  0  0  0  0
   12.5682    9.3492   10.2933 C   0  0  0  0  0  0  0  0  0  0  0  0
   14.2481    6.1616   10.5661 C   0  0  0  0  0  0  0  0  0  0  0  0
  1  2  1  6  0  0  0
  1  6  1  0  0  0  0
  1 23  1  0  0  0  0
  3  4  1  6  0  0  0
  3  8  1  0  0  0  0
  3 30  1  0  0  0  0
  5  9  1  0  0  0  0
  5 27  1  0  0  0  0
  5 31  1  1  0  0  0
  6  7  1  6  0  0  0
  6 11  1  0  0  0  0
  8 13  1  0  0  0  0
  9 10  1  1  0  0  0
  9 15  1  0  0  0  0
 11 12  1  1  0  0  0
 11 17  1  0  0  0  0
 13 14  1  6  0  0  0
 13 19  1  0  0  0  0
 15 16  1  1  0  0  0
 15 20  1  0  0  0  0
 16 34  1  0  0  0  0
 17 18  1  6  0  0  0
 17 22  1  0  0  0  0
 19  2  1  1  0  0  0
 19 24  1  0  0  0  0
 20 21  1  6  0  0  0
 20 26  1  0  0  0  0
 20 33  1  0  0  0  0
 22 23  1  1  0  0  0
 22 28  1  0  0  0  0
 24 25  1  1  0  0  0
 24 30  1  0  0  0  0
 26 27  1  0  0  0  0
 28 29  1  1  0  0  0
 28 32  1  0  0  0  0
 30 31  1  1  0  0  0
M  END
>  <CHROM.1>
-150.44874435,-159.61753986,-117.48638274,40.38248534,79.07731943,169.13907270
8.91244440,6.51730232,7.52992724,-3.11010030,-0.26348263,-1.39191376

>  <Name>
ligand

>  <RI>
0

>  <Rbt.Current_Directory>
/home/itssahil/PROJECTS/Mol_Feturizer/New_Systems/rnas/3TD1

>  <Rbt.Executable>
rbdock ($Id: //depot/dev/client3/rdock/2013.1/src/exe/rbdock.cxx#4 $)

>  <Rbt.Library>
libRbt.so (2013.1, Build901 2013/11/27)

>  <Rbt.Parameter_File>
/export/apps/rDock/src/rDock_2013.1_src/data/scripts/dock_solv.prm

>  <Rbt.Receptor>
prm/pocket_docking_5.prm

>  <SCORE>
-15.2147

>  <SCORE.INTER>
-10.2752

>  <SCORE.INTER.CONST>
1

>  <SCORE.INTER.POLAR>
0

>  <SCORE.INTER.ROT>
6

>  <SCORE.INTER.SOLV>
13.7531

>  <SCORE.INTER.VDW>
-19.0345

>  <SCORE.INTER.norm>
-0.302212

>  <SCORE.INTRA>
-4.93948

>  <SCORE.INTRA.DIHEDRAL>
-9.4654

>  <SCORE.INTRA.DIHEDRAL.0>
19.5869

>  <SCORE.INTRA.POLAR>
0

>  <SCORE.INTRA.POLAR.0>
0

>  <SCORE.INTRA.REPUL>
0

>  <SCORE.INTRA.REPUL.0>
0

>  <SCORE.INTRA.SOLV>
-0.741577

>  <SCORE.INTRA.SOLV.lig_0>
-70.101

>  <SCORE.INTRA.VDW>
0.164008

>  <SCORE.INTRA.VDW.0>
-3.39718

>  <SCORE.INTRA.norm>
-0.145279

>  <SCORE.RESTR>
0

>  <SCORE.RESTR.CAVITY>
0

>  <SCORE.RESTR.norm>
0

>  <SCORE.SYSTEM>
0

>  <SCORE.SYSTEM.CONST>
0

>  <SCORE.SYSTEM.DIHEDRAL>
0

>  <SCORE.SYSTEM.SOLV>
0

>  <SCORE.SYSTEM.norm>
0

>  <SCORE.heavy>
34

>  <SCORE.norm>
-0.44749

>  <RMSD>
1.685

$$$$
ligand
 OpenBabel11021811483D
libRbt.so/2013.1/901 2013/11/27
 34 36  0  0  0  0  0  0  0  0999 V2000
    5.2950    6.2042    8.7938 C   0  0  2  0  0  0  0  0  0  0  0  0
    5.8550    5.7963    7.5359 O   0  0  0  0  0  0  0  0  0  0  0  0
    9.0988    7.2969    5.1933 C   0  0  2  0  0  0  0  0  0  0  0  0
    9.9554    8.1932    4.4246 N   0  0  0  0  0  0  0  0  0  0  0  0
   11.4025    7.0743    6.5205 C   0  0  2  0  0  0  0  0  0  0  0  0
    5.4268    5.0021    9.7958 C   0  0  2  0  0  0  0  0  0  0  0  0
    6.8362    4.6333   10.0003 N   0  0  0  0  0  0  0  0  0  0  0  0
    7.6703    7.3544    4.5563 C   0  0  0  0  0  0  0  0  0  0  0  0
   12.2618    6.2294    7.5279 C   0  0  2  0  0  0  0  0  0  0  0  0
   11.4585    5.2213    8.1188 O   0  0  0  0  0  0  0  0  0  0  0  0
    4.6409    3.7913    9.2473 C   0  0  1  0  0  0  0  0  0  0  0  0
    4.7507    2.6897   10.1635 O   0  0  0  0  0  0  0  0  0  0  0  0
    6.7557    6.3747    5.3666 C   0  0  2  0  0  0  0  0  0  0  0  0
    5.3858    6.3892    4.8144 N   0  0  0  0  0  0  0  0  0  0  0  0
   12.8527    7.1983    8.6240 C   0  0  1  0  0  0  0  0  0  0  0  0
   13.6680    6.4386    9.6187 N   0  0  0  0  0  0  0  0  0  0  0  0
    3.1666    4.2088    9.0335 C   0  0  2  0  0  0  0  0  0  0  0  0
    2.4237    3.0931    8.5121 O   0  0  0  0  0  0  0  0  0  0  0  0
    6.6984    6.7782    6.8622 C   0  0  2  0  0  0  0  0  0  0  0  0
   13.7297    8.2894    7.9197 C   0  0  1  0  0  0  0  0  0  0  0  0
   14.8153    7.6645    7.2399 O   0  0  0  0  0  0  0  0  0  0  0  0
    3.1019    5.4285    8.0370 C   0  0  2  0  0  0  0  0  0  0  0  0
    3.8843    6.5585    8.5746 O   0  0  0  0  0  0  0  0  0  0  0  0
    8.1317    6.7752    7.4502 C   0  0  2  0  0  0  0  0  0  0  0  0
    8.0563    7.1659    8.8173 O   0  0  0  0  0  0  0  0  0  0  0  0
   12.8420    9.0533    6.8873 C   0  0  0  0  0  0  0  0  0  0  0  0
   12.2436    8.1127    5.9097 O   0  0  0  0  0  0  0  0  0  0  0  0
    1.6458    5.9090    7.8033 C   0  0  2  0  0  0  0  0  0  0  0  0
    1.6341    6.9125    6.7914 O   0  0  0  0  0  0  0  0  0  0  0  0
    9.0463    7.7735    6.7029 C   0  0  1  0  0  0  0  0  0  0  0  0
   10.3535    7.6913    7.3182 O   0  0  0  0  0  0  0  0  0  0  0  0
    1.0448    6.5065    9.0648 C   0  0  0  0  0  0  0  0  0  0  0  0
   14.3182    9.2812    8.9156 C   0  0  0  0  0  0  0  0  0  0  0  0
   13.3917    6.9883   10.9597 C   0  0  0  0  0  0  0  0  0  0  0  0
  1  2  1  6  0  0  0
  1  6  1  0  0  0  0
  1 23  1  0  0  0  0
  3  4  1  6  0  0  0
  3  8  1  0  0  0  0
  3 30  1  0  0  0  0
  5  9  1  0  0  0  0
  5 27  1  0  0  0  0
  5 31  1  1  0  0  0
  6  7  1  6  0  0  0
  6 11  1  0  0  0  0
  8 13  1  0  0  0  0
  9 10  1  1  0  0  0
  9 15  1  0  0  0  0
 11 12  1  1  0  0  0
 11 17  1  0  0  0  0
 13 14  1  6  0  0  0
 13 19  1  0  0  0  0
 15 16  1  1  0  0  0
 15 20  1  0  0  0  0
 16 34  1  0  0  0  0
 17 18  1  6  0  0  0
 17 22  1  0  0  0  0
 19  2  1  1  0  0  0
 19 24  1  0  0  0  0
 20 21  1  6  0  0  0
 20 26  1  0  0  0  0
 20 33  1  0  0  0  0
 22 23  1  1  0  0  0
 22 28  1  0  0  0  0
 24 25  1  1  0  0  0
 24 30  1  0  0  0  0
 26 27  1  0  0  0  0
 28 29  1  6  0  0  0
 28 32  1  0  0  0  0
 30 31  1  1  0  0  0
M  END
>  <CHROM.1>
-137.05690687,-159.57140863,-139.87966119,-173.84174837,-6.29703482,-141.71162335
8.04685561,6.46624052,7.75893379,-2.97357091,-0.18762219,-1.04960068

>  <Name>
ligand

>  <RI>
0

>  <Rbt.Current_Directory>
/home/itssahil/PROJECTS/Mol_Feturizer/New_Systems/rnas/3TD1

>  <Rbt.Executable>
rbdock ($Id: //depot/dev/client3/rdock/2013.1/src/exe/rbdock.cxx#4 $)

>  <Rbt.Library>
libRbt.so (2013.1, Build901 2013/11/27)

>  <Rbt.Parameter_File>
/export/apps/rDock/src/rDock_2013.1_src/data/scripts/dock_solv.prm

>  <Rbt.Receptor>
prm/pocket_docking_2.prm

>  <SCORE>
-5.59692

>  <SCORE.INTER>
-11.4924

>  <SCORE.INTER.CONST>
1

>  <SCORE.INTER.POLAR>
0

>  <SCORE.INTER.ROT>
6

>  <SCORE.INTER.SOLV>
17.0158

>  <SCORE.INTER.VDW>
-20.9336

>  <SCORE.INTER.norm>
-0.338013

>  <SCORE.INTRA>
4.66595

>  <SCORE.INTRA.DIHEDRAL>
1.2582

>  <SCORE.INTRA.DIHEDRAL.0>
19.5869

>  <SCORE.INTRA.POLAR>
0

>  <SCORE.INTRA.POLAR.0>
0

>  <SCORE.INTRA.REPUL>
0

>  <SCORE.INTRA.REPUL.0>
0

>  <SCORE.INTRA.SOLV>
0.375499

>  <SCORE.INTRA.SOLV.lig_0>
-70.101

>  <SCORE.INTRA.VDW>
3.8491

>  <SCORE.INTRA.VDW.0>
-3.39718

>  <SCORE.INTRA.norm>
0.137234

>  <SCORE.RESTR>
1.22957

>  <SCORE.RESTR.CAVITY>
1.22957

>  <SCORE.RESTR.norm>
0.0361637

>  <SCORE.SYSTEM>
0

>  <SCORE.SYSTEM.CONST>
0

>  <SCORE.SYSTEM.DIHEDRAL>
0

>  <SCORE.SYSTEM.SOLV>
0

>  <SCORE.SYSTEM.norm>
0

>  <SCORE.heavy>
34

>  <SCORE.norm>
-0.164615

>  <RMSD>
1.718

$$$$
ligand
 OpenBabel11021811483D
libRbt.so/2013.1/901 2013/11/27
 34 36  0  0  0  0  0  0  0  0999 V2000
    6.2973    5.7462    9.1989 C   0  0  2  0  0  0  0  0  0  0  0  0
    6.8165    5.3142    7.9315 O   0  0  0  0  0  0  0  0  0  0  0  0
   10.3865    6.2359    5.7711 C   0  0  2  0  0  0  0  0  0  0  0  0
   11.4488    6.9776    5.1007 N   0  0  0  0  0  0  0  0  0  0  0  0
   12.8359    6.8576    7.5611 C   0  0  2  0  0  0  0  0  0  0  0  0
    6.1850    4.4874   10.1313 C   0  0  2  0  0  0  0  0  0  0  0  0
    7.5009    3.8651   10.3440 N   0  0  0  0  0  0  0  0  0  0  0  0
    9.0291    6.6835    5.1333 C   0  0  0  0  0  0  0  0  0  0  0  0
   14.0383    6.0150    8.1190 C   0  0  2  0  0  0  0  0  0  0  0  0
   14.0538    4.7351    7.5086 O   0  0  0  0  0  0  0  0  0  0  0  0
    5.2169    3.4658    9.4960 C   0  0  1  0  0  0  0  0  0  0  0  0
    5.1033    2.3144   10.3482 O   0  0  0  0  0  0  0  0  0  0  0  0
    7.8898    5.8707    5.8363 C   0  0  2  0  0  0  0  0  0  0  0  0
    6.5771    6.2551    5.2790 N   0  0  0  0  0  0  0  0  0  0  0  0
   13.8870    5.8943    9.6849 C   0  0  1  0  0  0  0  0  0  0  0  0
   15.0015    5.0858   10.2640 N   0  0  0  0  0  0  0  0  0  0  0  0
    3.8460    4.1480    9.2755 C   0  0  2  0  0  0  0  0  0  0  0  0
    2.9359    3.2108    8.6738 O   0  0  0  0  0  0  0  0  0  0  0  0
    7.8829    6.1328    7.3641 C   0  0  2  0  0  0  0  0  0  0  0  0
   13.8759    7.3323   10.3076 C   0  0  1  0  0  0  0  0  0  0  0  0
   15.1105    7.9855   10.0242 O   0  0  0  0  0  0  0  0  0  0  0  0
    4.0271    5.4118    8.3510 C   0  0  2  0  0  0  0  0  0  0  0  0
    4.9780    6.3553    8.9706 O   0  0  0  0  0  0  0  0  0  0  0  0
    9.2589    5.7414    7.9586 C   0  0  2  0  0  0  0  0  0  0  0  0
    9.2352    6.0076    9.3571 O   0  0  0  0  0  0  0  0  0  0  0  0
   12.7026    8.1425    9.6717 C   0  0  0  0  0  0  0  0  0  0  0  0
   12.8304    8.1832    8.1951 O   0  0  0  0  0  0  0  0  0  0  0  0
    2.6857    6.1538    8.1147 C   0  0  2  0  0  0  0  0  0  0  0  0
    2.8787    7.1880    7.1532 O   0  0  0  0  0  0  0  0  0  0  0  0
   10.4006    6.5663    7.3200 C   0  0  1  0  0  0  0  0  0  0  0  0
   11.6350    6.1250    7.9330 O   0  0  0  0  0  0  0  0  0  0  0  0
    2.1665    6.7913    9.3929 C   0  0  0  0  0  0  0  0  0  0  0  0
   13.7081    7.2989   11.8217 C   0  0  0  0  0  0  0  0  0  0  0  0
   14.5011    3.7204   10.5136 C   0  0  0  0  0  0  0  0  0  0  0  0
  1  2  1  6  0  0  0
  1  6  1  0  0  0  0
  1 23  1  0  0  0  0
  3  4  1  6  0  0  0
  3  8  1  0  0  0  0
  3 30  1  0  0  0  0
  5  9  1  0  0  0  0
  5 27  1  0  0  0  0
  5 31  1  1  0  0  0
  6  7  1  6  0  0  0
  6 11  1  0  0  0  0
  8 13  1  0  0  0  0
  9 10  1  6  0  0  0
  9 15  1  0  0  0  0
 11 12  1  1  0  0  0
 11 17  1  0  0  0  0
 13 14  1  6  0  0  0
 13 19  1  0  0  0  0
 15 16  1  1  0  0  0
 15 20  1  0  0  0  0
 16 34  1  0  0  0  0
 17 18  1  6  0  0  0
 17 22  1  0  0  0  0
 19  2  1  1  0  0  0
 19 24  1  0  0  0  0
 20 21  1  6  0  0  0
 20 26  1  0  0  0  0
 20 33  1  0  0  0  0
 22 23  1  1  0  0  0
 22 28  1  0  0  0  0
 24 25  1  1  0  0  0
 24 30  1  0  0  0  0
 26 27  1  0  0  0  0
 28 29  1  6  0  0  0
 28 32  1  0  0  0  0
 30 31  1  1  0  0  0
M  END
>  <CHROM.1>
-134.33222490,-157.53060957,-100.38350714,-173.25784942,69.30441148,-168.90600702
9.01862998,5.82918154,8.49415066,-3.12787668,-0.14360638,-1.07654938

>  <Name>
ligand

>  <RI>
0

>  <Rbt.Current_Directory>
/home/itssahil/PROJECTS/Mol_Feturizer/New_Systems/rnas/3TD1

>  <Rbt.Executable>
rbdock ($Id: //depot/dev/client3/rdock/2013.1/src/exe/rbdock.cxx#4 $)

>  <Rbt.Library>
libRbt.so (2013.1, Build901 2013/11/27)

>  <Rbt.Parameter_File>
/export/apps/rDock/src/rDock_2013.1_src/data/scripts/dock_solv.prm

>  <Rbt.Receptor>
prm/pocket_docking_4.prm

>  <SCORE>
-12.6275

>  <SCORE.INTER>
-8.54661

>  <SCORE.INTER.CONST>
1

>  <SCORE.INTER.POLAR>
0

>  <SCORE.INTER.ROT>
6

>  <SCORE.INTER.SOLV>
12.4611

>  <SCORE.INTER.VDW>
-17.4514

>  <SCORE.INTER.norm>
-0.251371

>  <SCORE.INTRA>
-4.08094

>  <SCORE.INTRA.DIHEDRAL>
-8.98096

>  <SCORE.INTRA.DIHEDRAL.0>
19.5869

>  <SCORE.INTRA.POLAR>
0

>  <SCORE.INTRA.POLAR.0>
0

>  <SCORE.INTRA.REPUL>
0

>  <SCORE.INTRA.REPUL.0>
0

>  <SCORE.INTRA.SOLV>
-0.390273

>  <SCORE.INTRA.SOLV.lig_0>
-70.101

>  <SCORE.INTRA.VDW>
0.604676

>  <SCORE.INTRA.VDW.0>
-3.39718

>  <SCORE.INTRA.norm>
-0.120028

>  <SCORE.RESTR>
0

>  <SCORE.RESTR.CAVITY>
0

>  <SCORE.RESTR.norm>
0

>  <SCORE.SYSTEM>
0

>  <SCORE.SYSTEM.CONST>
0

>  <SCORE.SYSTEM.DIHEDRAL>
0

>  <SCORE.SYSTEM.SOLV>
0

>  <SCORE.SYSTEM.norm>
0

>  <SCORE.heavy>
34

>  <SCORE.norm>
-0.371398

>  <RMSD>
1.883

$$$$
ligand
 OpenBabel11021811483D
libRbt.so/2013.1/901 2013/11/27
 34 36  0  0  0  0  0  0  0  0999 V2000
    6.4796    5.5906    9.7202 C   0  0  2  0  0  0  0  0  0  0  0  0
    6.9341    5.3998    8.3713 O   0  0  0  0  0  0  0  0  0  0  0  0
    9.9770    7.4084    6.1422 C   0  0  2  0  0  0  0  0  0  0  0  0
   10.7293    8.4474    5.4477 N   0  0  0  0  0  0  0  0  0  0  0  0
   11.7368    9.0283    8.7213 C   0  0  2  0  0  0  0  0  0  0  0  0
    6.1719    4.1775   10.3325 C   0  0  2  0  0  0  0  0  0  0  0  0
    7.3767    3.3334   10.3518 N   0  0  0  0  0  0  0  0  0  0  0  0
    8.5392    7.3798    5.5245 C   0  0  0  0  0  0  0  0  0  0  0  0
   13.1667    8.7403    9.3040 C   0  0  2  0  0  0  0  0  0  0  0  0
   14.0043    8.2150    8.2874 O   0  0  0  0  0  0  0  0  0  0  0  0
    5.0633    3.4922    9.5044 C   0  0  1  0  0  0  0  0  0  0  0  0
    4.7710    2.2014   10.0641 O   0  0  0  0  0  0  0  0  0  0  0  0
    7.7378    6.2488    6.2535 C   0  0  2  0  0  0  0  0  0  0  0  0
    6.3640    6.1762    5.7160 N   0  0  0  0  0  0  0  0  0  0  0  0
   13.0280    7.7259   10.5045 C   0  0  1  0  0  0  0  0  0  0  0  0
   14.3666    7.4062   11.0852 N   0  0  0  0  0  0  0  0  0  0  0  0
    3.8133    4.4038    9.4932 C   0  0  2  0  0  0  0  0  0  0  0  0
    2.7747    3.7829    8.7158 O   0  0  0  0  0  0  0  0  0  0  0  0
    7.6667    6.5143    7.7791 C   0  0  2  0  0  0  0  0  0  0  0  0
   12.0958    8.3538   11.5964 C   0  0  1  0  0  0  0  0  0  0  0  0
   12.6799    9.5566   12.0894 O   0  0  0  0  0  0  0  0  0  0  0  0
    4.1898    5.8096    8.8877 C   0  0  2  0  0  0  0  0  0  0  0  0
    5.2696    6.4262    9.6827 O   0  0  0  0  0  0  0  0  0  0  0  0
    9.1031    6.6015    8.3527 C   0  0  2  0  0  0  0  0  0  0  0  0
    9.0131    6.8636    9.7493 O   0  0  0  0  0  0  0  0  0  0  0  0
   10.7135    8.6768   10.9467 C   0  0  0  0  0  0  0  0  0  0  0  0
   10.8776    9.5766    9.7797 O   0  0  0  0  0  0  0  0  0  0  0  0
    2.9782    6.7779    8.8743 C   0  0  2  0  0  0  0  0  0  0  0  0
    2.2934    6.6981   10.1217 O   0  0  0  0  0  0  0  0  0  0  0  0
    9.9037    7.7455    7.6880 C   0  0  1  0  0  0  0  0  0  0  0  0
   11.2228    7.7396    8.2830 O   0  0  0  0  0  0  0  0  0  0  0  0
    1.9920    6.4246    7.7733 C   0  0  0  0  0  0  0  0  0  0  0  0
   11.8935    7.4189   12.7825 C   0  0  0  0  0  0  0  0  0  0  0  0
   14.6337    5.9713   10.8694 C   0  0  0  0  0  0  0  0  0  0  0  0
  1  2  1  6  0  0  0
  1  6  1  0  0  0  0
  1 23  1  0  0  0  0
  3  4  1  6  0  0  0
  3  8  1  0  0  0  0
  3 30  1  0  0  0  0
  5  9  1  0  0  0  0
  5 27  1  0  0  0  0
  5 31  1  1  0  0  0
  6  7  1  6  0  0  0
  6 11  1  0  0  0  0
  8 13  1  0  0  0  0
  9 10  1  6  0  0  0
  9 15  1  0  0  0  0
 11 12  1  1  0  0  0
 11 17  1  0  0  0  0
 13 14  1  6  0  0  0
 13 19  1  0  0  0  0
 15 16  1  1  0  0  0
 15 20  1  0  0  0  0
 16 34  1  0  0  0  0
 17 18  1  6  0  0  0
 17 22  1  0  0  0  0
 19  2  1  1  0  0  0
 19 24  1  0  0  0  0
 20 21  1  1  0  0  0
 20 26  1  0  0  0  0
 20 33  1  0  0  0  0
 22 23  1  1  0  0  0
 22 28  1  0  0  0  0
 24 25  1  1  0  0  0
 24 30  1  0  0  0  0
 26 27  1  0  0  0  0
 28 29  1  1  0  0  0
 28 32  1  0  0  0  0
 30 31  1  1  0  0  0
M  END
>  <CHROM.1>
-161.03324479,-165.90190933,-115.83390497,44.37587490,111.56587384,-179.41249213
8.50296045,6.65458503,9.10989980,-3.13485198,-0.35910999,-1.22409632

>  <Name>
ligand

>  <RI>
0

>  <Rbt.Current_Directory>
/home/itssahil/PROJECTS/Mol_Feturizer/New_Systems/rnas/3TD1

>  <Rbt.Executable>
rbdock ($Id: //depot/dev/client3/rdock/2013.1/src/exe/rbdock.cxx#4 $)

>  <Rbt.Library>
libRbt.so (2013.1, Build901 2013/11/27)

>  <Rbt.Parameter_File>
/export/apps/rDock/src/rDock_2013.1_src/data/scripts/dock_solv.prm

>  <Rbt.Receptor>
prm/pocket_docking_4.prm

>  <SCORE>
-12.4078

>  <SCORE.INTER>
-8.0979

>  <SCORE.INTER.CONST>
1

>  <SCORE.INTER.POLAR>
0

>  <SCORE.INTER.ROT>
6

>  <SCORE.INTER.SOLV>
17.4821

>  <SCORE.INTER.VDW>
-18.826

>  <SCORE.INTER.norm>
-0.238174

>  <SCORE.INTRA>
-4.31756

>  <SCORE.INTRA.DIHEDRAL>
-8.16483

>  <SCORE.INTRA.DIHEDRAL.0>
19.5869

>  <SCORE.INTRA.POLAR>
0

>  <SCORE.INTRA.POLAR.0>
0

>  <SCORE.INTRA.REPUL>
0

>  <SCORE.INTRA.REPUL.0>
0

>  <SCORE.INTRA.SOLV>
-2.00476

>  <SCORE.INTRA.SOLV.lig_0>
-70.101

>  <SCORE.INTRA.VDW>
0.767234

>  <SCORE.INTRA.VDW.0>
-3.39718

>  <SCORE.INTRA.norm>
-0.126987

>  <SCORE.RESTR>
0.00767933

>  <SCORE.RESTR.CAVITY>
0.00767933

>  <SCORE.RESTR.norm>
0.000225863

>  <SCORE.SYSTEM>
0

>  <SCORE.SYSTEM.CONST>
0

>  <SCORE.SYSTEM.DIHEDRAL>
0

>  <SCORE.SYSTEM.SOLV>
0

>  <SCORE.SYSTEM.norm>
0

>  <SCORE.heavy>
34

>  <SCORE.norm>
-0.364935

>  <RMSD>
1.992

$$$$
ligand
 OpenBabel11021811483D
libRbt.so/2013.1/901 2013/11/27
 34 36  0  0  0  0  0  0  0  0999 V2000
    6.9325    5.5242    9.4898 C   0  0  2  0  0  0  0  0  0  0  0  0
    7.1758    5.1698    8.1195 O   0  0  0  0  0  0  0  0  0  0  0  0
    8.4218    7.1142    4.5239 C   0  0  2  0  0  0  0  0  0  0  0  0
    8.7227    8.1478    3.5394 N   0  0  0  0  0  0  0  0  0  0  0  0
   11.7040    8.0958    5.8090 C   0  0  2  0  0  0  0  0  0  0  0  0
    7.2643    4.2739   10.3803 C   0  0  2  0  0  0  0  0  0  0  0  0
    8.6736    3.8775   10.2349 N   0  0  0  0  0  0  0  0  0  0  0  0
    6.9298    7.3017    4.9580 C   0  0  0  0  0  0  0  0  0  0  0  0
   12.9646    7.9131    4.8899 C   0  0  2  0  0  0  0  0  0  0  0  0
   12.6046    8.1133    3.5331 O   0  0  0  0  0  0  0  0  0  0  0  0
    6.3443    3.1010    9.9774 C   0  0  1  0  0  0  0  0  0  0  0  0
    6.6372    1.9555   10.7940 O   0  0  0  0  0  0  0  0  0  0  0  0
    6.5990    6.1781    5.9977 C   0  0  2  0  0  0  0  0  0  0  0  0
    5.1995    6.3063    6.4520 N   0  0  0  0  0  0  0  0  0  0  0  0
   13.5472    6.4640    5.1138 C   0  0  1  0  0  0  0  0  0  0  0  0
   14.7424    6.2339    4.2478 N   0  0  0  0  0  0  0  0  0  0  0  0
    4.8709    3.5474   10.1309 C   0  0  2  0  0  0  0  0  0  0  0  0
    4.0010    2.4677    9.7486 O   0  0  0  0  0  0  0  0  0  0  0  0
    7.5367    6.2678    7.2288 C   0  0  2  0  0  0  0  0  0  0  0  0
   13.9282    6.2963    6.6246 C   0  0  1  0  0  0  0  0  0  0  0  0
   14.9344    7.2440    6.9719 O   0  0  0  0  0  0  0  0  0  0  0  0
    4.6059    4.8141    9.2310 C   0  0  2  0  0  0  0  0  0  0  0  0
    5.5182    5.9069    9.6205 O   0  0  0  0  0  0  0  0  0  0  0  0
    9.0090    6.1436    6.7631 C   0  0  2  0  0  0  0  0  0  0  0  0
    9.8512    6.2470    7.9066 O   0  0  0  0  0  0  0  0  0  0  0  0
   12.6550    6.5504    7.4916 C   0  0  0  0  0  0  0  0  0  0  0  0
   12.0872    7.8914    7.2127 O   0  0  0  0  0  0  0  0  0  0  0  0
    3.1471    5.3241    9.3636 C   0  0  2  0  0  0  0  0  0  0  0  0
    2.2465    4.2950    8.9623 O   0  0  0  0  0  0  0  0  0  0  0  0
    9.3813    7.2726    5.7741 C   0  0  1  0  0  0  0  0  0  0  0  0
   10.7630    7.0654    5.3967 O   0  0  0  0  0  0  0  0  0  0  0  0
    2.8967    6.5375    8.4834 C   0  0  0  0  0  0  0  0  0  0  0  0
   14.4785    4.9075    6.9252 C   0  0  0  0  0  0  0  0  0  0  0  0
   14.2932    5.5800    3.0038 C   0  0  0  0  0  0  0  0  0  0  0  0
  1  2  1  6  0  0  0
  1  6  1  0  0  0  0
  1 23  1  0  0  0  0
  3  4  1  6  0  0  0
  3  8  1  0  0  0  0
  3 30  1  0  0  0  0
  5  9  1  0  0  0  0
  5 27  1  0  0  0  0
  5 31  1  6  0  0  0
  6  7  1  6  0  0  0
  6 11  1  0  0  0  0
  8 13  1  0  0  0  0
  9 10  1  6  0  0  0
  9 15  1  0  0  0  0
 11 12  1  1  0  0  0
 11 17  1  0  0  0  0
 13 14  1  1  0  0  0
 13 19  1  0  0  0  0
 15 16  1  6  0  0  0
 15 20  1  0  0  0  0
 16 34  1  0  0  0  0
 17 18  1  6  0  0  0
 17 22  1  0  0  0  0
 19  2  1  1  0  0  0
 19 24  1  0  0  0  0
 20 21  1  1  0  0  0
 20 26  1  0  0  0  0
 20 33  1  0  0  0  0
 22 23  1  1  0  0  0
 22 28  1  0  0  0  0
 24 25  1  1  0  0  0
 24 30  1  0  0  0  0
 26 27  1  0  0  0  0
 28 29  1  6  0  0  0
 28 32  1  0  0  0  0
 30 31  1  6  0  0  0
M  END
>  <CHROM.1>
-152.40170351,-129.06015129,-94.12004814,-59.98449588,129.07891580,-160.86471545
8.84584998,5.87361622,7.21632611,-2.63885521,0.05192257,-0.93228814

>  <Name>
ligand

>  <RI>
0

>  <Rbt.Current_Directory>
/home/itssahil/PROJECTS/Mol_Feturizer/New_Systems/rnas/3TD1

>  <Rbt.Executable>
rbdock ($Id: //depot/dev/client3/rdock/2013.1/src/exe/rbdock.cxx#4 $)

>  <Rbt.Library>
libRbt.so (2013.1, Build901 2013/11/27)

>  <Rbt.Parameter_File>
/export/apps/rDock/src/rDock_2013.1_src/data/scripts/dock_solv.prm

>  <Rbt.Receptor>
prm/pocket_docking_4.prm

>  <SCORE>
-12.4168

>  <SCORE.INTER>
-12.3754

>  <SCORE.INTER.CONST>
1

>  <SCORE.INTER.POLAR>
0

>  <SCORE.INTER.ROT>
6

>  <SCORE.INTER.SOLV>
15.1617

>  <SCORE.INTER.VDW>
-20.9042

>  <SCORE.INTER.norm>
-0.363984

>  <SCORE.INTRA>
-0.0413802

>  <SCORE.INTRA.DIHEDRAL>
-0.483958

>  <SCORE.INTRA.DIHEDRAL.0>
19.5869

>  <SCORE.INTRA.POLAR>
0

>  <SCORE.INTRA.POLAR.0>
0

>  <SCORE.INTRA.REPUL>
0

>  <SCORE.INTRA.REPUL.0>
0

>  <SCORE.INTRA.SOLV>
1.04084

>  <SCORE.INTRA.SOLV.lig_0>
-70.101

>  <SCORE.INTRA.VDW>
-0.319823

>  <SCORE.INTRA.VDW.0>
-3.39718

>  <SCORE.INTRA.norm>
-0.00121707

>  <SCORE.RESTR>
0

>  <SCORE.RESTR.CAVITY>
0

>  <SCORE.RESTR.norm>
0

>  <SCORE.SYSTEM>
0

>  <SCORE.SYSTEM.CONST>
0

>  <SCORE.SYSTEM.DIHEDRAL>
0

>  <SCORE.SYSTEM.SOLV>
0

>  <SCORE.SYSTEM.norm>
0

>  <SCORE.heavy>
34

>  <SCORE.norm>
-0.365201

>  <RMSD>
1.993

$$$$
ligand
 OpenBabel11021811483D
libRbt.so/2013.1/901 2013/11/27
 34 36  0  0  0  0  0  0  0  0999 V2000
    5.4458    6.2529    8.4884 C   0  0  2  0  0  0  0  0  0  0  0  0
    5.9318    5.8388    7.2020 O   0  0  0  0  0  0  0  0  0  0  0  0
    9.4019    7.0322    5.0120 C   0  0  2  0  0  0  0  0  0  0  0  0
   10.3655    7.8426    4.2752 N   0  0  0  0  0  0  0  0  0  0  0  0
   10.9368    6.0073    7.5386 C   0  0  2  0  0  0  0  0  0  0  0  0
    5.5948    5.0409    9.4760 C   0  0  2  0  0  0  0  0  0  0  0  0
    7.0022    4.6337    9.6083 N   0  0  0  0  0  0  0  0  0  0  0  0
    8.0176    7.1871    4.2982 C   0  0  0  0  0  0  0  0  0  0  0  0
   12.1068    6.1298    8.5794 C   0  0  2  0  0  0  0  0  0  0  0  0
   11.6512    6.8071    9.7390 O   0  0  0  0  0  0  0  0  0  0  0  0
    4.7507    3.8551    8.9606 C   0  0  1  0  0  0  0  0  0  0  0  0
    4.8761    2.7448    9.8641 O   0  0  0  0  0  0  0  0  0  0  0  0
    6.9875    6.2991    5.0747 C   0  0  2  0  0  0  0  0  0  0  0  0
    5.6538    6.4085    4.4495 N   0  0  0  0  0  0  0  0  0  0  0  0
   13.3041    6.9045    7.9044 C   0  0  1  0  0  0  0  0  0  0  0  0
   14.4401    7.0617    8.8615 N   0  0  0  0  0  0  0  0  0  0  0  0
    3.2793    4.3129    8.8225 C   0  0  2  0  0  0  0  0  0  0  0  0
    2.4819    3.2208    8.3325 O   0  0  0  0  0  0  0  0  0  0  0  0
    6.8841    6.7375    6.5579 C   0  0  2  0  0  0  0  0  0  0  0  0
   13.7682    6.1158    6.6323 C   0  0  1  0  0  0  0  0  0  0  0  0
   14.2279    4.8218    7.0134 O   0  0  0  0  0  0  0  0  0  0  0  0
    3.1981    5.5406    7.8371 C   0  0  2  0  0  0  0  0  0  0  0  0
    4.0360    6.6459    8.3414 O   0  0  0  0  0  0  0  0  0  0  0  0
    8.2800    6.6355    7.2221 C   0  0  2  0  0  0  0  0  0  0  0  0
    8.1643    7.0599    8.5763 O   0  0  0  0  0  0  0  0  0  0  0  0
   12.5520    5.9699    5.6643 C   0  0  0  0  0  0  0  0  0  0  0  0
   11.4163    5.3005    6.3431 O   0  0  0  0  0  0  0  0  0  0  0  0
    1.7455    6.0610    7.6786 C   0  0  2  0  0  0  0  0  0  0  0  0
    1.7041    7.0452    6.6486 O   0  0  0  0  0  0  0  0  0  0  0  0
    9.3082    7.5435    6.5081 C   0  0  1  0  0  0  0  0  0  0  0  0
   10.5710    7.3729    7.1942 O   0  0  0  0  0  0  0  0  0  0  0  0
    1.2375    6.7002    8.9603 C   0  0  0  0  0  0  0  0  0  0  0  0
   14.9113    6.8175    5.9093 C   0  0  0  0  0  0  0  0  0  0  0  0
   14.6268    8.5013    9.1254 C   0  0  0  0  0  0  0  0  0  0  0  0
  1  2  1  6  0  0  0
  1  6  1  0  0  0  0
  1 23  1  0  0  0  0
  3  4  1  6  0  0  0
  3  8  1  0  0  0  0
  3 30  1  0  0  0  0
  5  9  1  0  0  0  0
  5 27  1  0  0  0  0
  5 31  1  6  0  0  0
  6  7  1  6  0  0  0
  6 11  1  0  0  0  0
  8 13  1  0  0  0  0
  9 10  1  1  0  0  0
  9 15  1  0  0  0  0
 11 12  1  1  0  0  0
 11 17  1  0  0  0  0
 13 14  1  6  0  0  0
 13 19  1  0  0  0  0
 15 16  1  1  0  0  0
 15 20  1  0  0  0  0
 16 34  1  0  0  0  0
 17 18  1  6  0  0  0
 17 22  1  0  0  0  0
 19  2  1  1  0  0  0
 19 24  1  0  0  0  0
 20 21  1  1  0  0  0
 20 26  1  0  0  0  0
 20 33  1  0  0  0  0
 22 23  1  1  0  0  0
 22 28  1  0  0  0  0
 24 25  1  1  0  0  0
 24 30  1  0  0  0  0
 26 27  1  0  0  0  0
 28 29  1  6  0  0  0
 28 32  1  0  0  0  0
 30 31  1  1  0  0  0
M  END
>  <CHROM.1>
-130.53665706,-165.78480401,-115.86929319,-172.26486585,-72.44768381,-165.29650174
8.19116991,6.12334088,7.45608245,-3.00948476,-0.08181184,-1.13566972

>  <Name>
ligand

>  <RI>
0

>  <Rbt.Current_Directory>
/home/itssahil/PROJECTS/Mol_Feturizer/New_Systems/rnas/3TD1

>  <Rbt.Executable>
rbdock ($Id: //depot/dev/client3/rdock/2013.1/src/exe/rbdock.cxx#4 $)

>  <Rbt.Library>
libRbt.so (2013.1, Build901 2013/11/27)

>  <Rbt.Parameter_File>
/export/apps/rDock/src/rDock_2013.1_src/data/scripts/dock_solv.prm

>  <Rbt.Receptor>
prm/pocket_docking_3.prm

>  <SCORE>
-13.4751

>  <SCORE.INTER>
-10.8341

>  <SCORE.INTER.CONST>
1

>  <SCORE.INTER.POLAR>
0

>  <SCORE.INTER.ROT>
6

>  <SCORE.INTER.SOLV>
14.9029

>  <SCORE.INTER.VDW>
-19.7904

>  <SCORE.INTER.norm>
-0.31865

>  <SCORE.INTRA>
-2.64103

>  <SCORE.INTRA.DIHEDRAL>
-8.7466

>  <SCORE.INTRA.DIHEDRAL.0>
19.5869

>  <SCORE.INTRA.POLAR>
0

>  <SCORE.INTRA.POLAR.0>
0

>  <SCORE.INTRA.REPUL>
0

>  <SCORE.INTRA.REPUL.0>
0

>  <SCORE.INTRA.SOLV>
-0.082461

>  <SCORE.INTRA.SOLV.lig_0>
-70.101

>  <SCORE.INTRA.VDW>
1.7735

>  <SCORE.INTRA.VDW.0>
-3.39718

>  <SCORE.INTRA.norm>
-0.0776772

>  <SCORE.RESTR>
0

>  <SCORE.RESTR.CAVITY>
0

>  <SCORE.RESTR.norm>
0

>  <SCORE.SYSTEM>
0

>  <SCORE.SYSTEM.CONST>
0

>  <SCORE.SYSTEM.DIHEDRAL>
0

>  <SCORE.SYSTEM.SOLV>
0

>  <SCORE.SYSTEM.norm>
0

>  <SCORE.heavy>
34

>  <SCORE.norm>
-0.396327

>  <RMSD>
2.063

$$$$
ligand
 OpenBabel11021811483D
libRbt.so/2013.1/901 2013/11/27
 34 36  0  0  0  0  0  0  0  0999 V2000
    6.0448    6.1500    9.0137 C   0  0  2  0  0  0  0  0  0  0  0  0
    6.7762    5.6954    7.8644 O   0  0  0  0  0  0  0  0  0  0  0  0
    8.6428    7.4034    4.4205 C   0  0  2  0  0  0  0  0  0  0  0  0
    9.0919    8.3669    3.4215 N   0  0  0  0  0  0  0  0  0  0  0  0
   11.5273    8.8080    5.6556 C   0  0  2  0  0  0  0  0  0  0  0  0
    6.9360    5.9051   10.2835 C   0  0  2  0  0  0  0  0  0  0  0  0
    8.1996    6.6535   10.1977 N   0  0  0  0  0  0  0  0  0  0  0  0
    7.0866    7.5319    4.5280 C   0  0  0  0  0  0  0  0  0  0  0  0
   13.0318    8.3624    5.5833 C   0  0  2  0  0  0  0  0  0  0  0  0
   13.2474    7.5813    4.4196 O   0  0  0  0  0  0  0  0  0  0  0  0
    7.2278    4.3948   10.4193 C   0  0  1  0  0  0  0  0  0  0  0  0
    8.0365    4.1626   11.5841 O   0  0  0  0  0  0  0  0  0  0  0  0
    6.6011    6.4816    5.5834 C   0  0  2  0  0  0  0  0  0  0  0  0
    5.1338    6.5586    5.7347 N   0  0  0  0  0  0  0  0  0  0  0  0
   13.3795    7.5447    6.8871 C   0  0  1  0  0  0  0  0  0  0  0  0
   14.7999    7.0830    6.8597 N   0  0  0  0  0  0  0  0  0  0  0  0
    5.8840    3.6322   10.4983 C   0  0  2  0  0  0  0  0  0  0  0  0
    6.1399    2.2217   10.6144 O   0  0  0  0  0  0  0  0  0  0  0  0
    7.2619    6.7347    6.9626 C   0  0  2  0  0  0  0  0  0  0  0  0
   13.1250    8.4513    8.1397 C   0  0  1  0  0  0  0  0  0  0  0  0
   13.9763    9.5928    8.0845 O   0  0  0  0  0  0  0  0  0  0  0  0
    5.0288    3.9333    9.2088 C   0  0  2  0  0  0  0  0  0  0  0  0
    4.7908    5.3851    9.0915 O   0  0  0  0  0  0  0  0  0  0  0  0
    8.8024    6.6653    6.8144 C   0  0  2  0  0  0  0  0  0  0  0  0
    9.3873    6.9186    8.0877 O   0  0  0  0  0  0  0  0  0  0  0  0
   11.6343    8.9148    8.1256 C   0  0  0  0  0  0  0  0  0  0  0  0
   11.3143    9.6203    6.8613 O   0  0  0  0  0  0  0  0  0  0  0  0
    3.6552    3.2137    9.2436 C   0  0  2  0  0  0  0  0  0  0  0  0
    3.8302    1.8408    8.9032 O   0  0  0  0  0  0  0  0  0  0  0  0
    9.3180    7.7278    5.8160 C   0  0  1  0  0  0  0  0  0  0  0  0
   10.7555    7.5777    5.7437 O   0  0  0  0  0  0  0  0  0  0  0  0
    2.6792    3.8234    8.2510 C   0  0  0  0  0  0  0  0  0  0  0  0
   13.4171    7.7200    9.4442 C   0  0  0  0  0  0  0  0  0  0  0  0
   14.8151    5.6555    6.4869 C   0  0  0  0  0  0  0  0  0  0  0  0
  1  2  1  6  0  0  0
  1  6  1  0  0  0  0
  1 23  1  0  0  0  0
  3  4  1  6  0  0  0
  3  8  1  0  0  0  0
  3 30  1  0  0  0  0
  5  9  1  0  0  0  0
  5 27  1  0  0  0  0
  5 31  1  1  0  0  0
  6  7  1  6  0  0  0
  6 11  1  0  0  0  0
  8 13  1  0  0  0  0
  9 10  1  6  0  0  0
  9 15  1  0  0  0  0
 11 12  1  1  0  0  0
 11 17  1  0  0  0  0
 13 14  1  1  0  0  0
 13 19  1  0  0  0  0
 15 16  1  6  0  0  0
 15 20  1  0  0  0  0
 16 34  1  0  0  0  0
 17 18  1  6  0  0  0
 17 22  1  0  0  0  0
 19  2  1  1  0  0  0
 19 24  1  0  0  0  0
 20 21  1  6  0  0  0
 20 26  1  0  0  0  0
 20 33  1  0  0  0  0
 22 23  1  1  0  0  0
 22 28  1  0  0  0  0
 24 25  1  1  0  0  0
 24 30  1  0  0  0  0
 26 27  1  0  0  0  0
 28 29  1  6  0  0  0
 28 32  1  0  0  0  0
 30 31  1  6  0  0  0
M  END
>  <CHROM.1>
-109.58056212,-119.14637753,-101.93957377,-78.15981721,102.94528000,-179.71754730
8.88188436,6.39942508,7.63484734,2.66447971,0.29785449,2.04831454

>  <Name>
ligand

>  <RI>
0

>  <Rbt.Current_Directory>
/home/itssahil/PROJECTS/Mol_Feturizer/New_Systems/rnas/3TD1

>  <Rbt.Executable>
rbdock ($Id: //depot/dev/client3/rdock/2013.1/src/exe/rbdock.cxx#4 $)

>  <Rbt.Library>
libRbt.so (2013.1, Build901 2013/11/27)

>  <Rbt.Parameter_File>
/export/apps/rDock/src/rDock_2013.1_src/data/scripts/dock_solv.prm

>  <Rbt.Receptor>
prm/pocket_docking_3.prm

>  <SCORE>
-10.6037

>  <SCORE.INTER>
-12.6431

>  <SCORE.INTER.CONST>
1

>  <SCORE.INTER.POLAR>
0

>  <SCORE.INTER.ROT>
6

>  <SCORE.INTER.SOLV>
19.7254

>  <SCORE.INTER.VDW>
-22.6039

>  <SCORE.INTER.norm>
-0.371856

>  <SCORE.INTRA>
2.03939

>  <SCORE.INTRA.DIHEDRAL>
2.19097

>  <SCORE.INTRA.DIHEDRAL.0>
19.5869

>  <SCORE.INTRA.POLAR>
0

>  <SCORE.INTRA.POLAR.0>
0

>  <SCORE.INTRA.REPUL>
0.00679607

>  <SCORE.INTRA.REPUL.0>
0

>  <SCORE.INTRA.SOLV>
0.271434

>  <SCORE.INTRA.SOLV.lig_0>
-70.101

>  <SCORE.INTRA.VDW>
0.774205

>  <SCORE.INTRA.VDW.0>
-3.39718

>  <SCORE.INTRA.norm>
0.0599819

>  <SCORE.RESTR>
0

>  <SCORE.RESTR.CAVITY>
0

>  <SCORE.RESTR.norm>
0

>  <SCORE.SYSTEM>
0

>  <SCORE.SYSTEM.CONST>
0

>  <SCORE.SYSTEM.DIHEDRAL>
0

>  <SCORE.SYSTEM.SOLV>
0

>  <SCORE.SYSTEM.norm>
0

>  <SCORE.heavy>
34

>  <SCORE.norm>
-0.311874

>  <RMSD>
2.066

$$$$
ligand
 OpenBabel11021811483D
libRbt.so/2013.1/901 2013/11/27
 34 36  0  0  0  0  0  0  0  0999 V2000
    5.5292    6.0633    8.3484 C   0  0  2  0  0  0  0  0  0  0  0  0
    6.3300    5.4883    7.3041 O   0  0  0  0  0  0  0  0  0  0  0  0
    8.8341    6.8508    4.1205 C   0  0  2  0  0  0  0  0  0  0  0  0
    9.5352    7.7223    3.1841 N   0  0  0  0  0  0  0  0  0  0  0  0
   11.7194    7.7668    5.2613 C   0  0  2  0  0  0  0  0  0  0  0  0
    6.2441    5.7818    9.7182 C   0  0  2  0  0  0  0  0  0  0  0  0
    7.5820    6.3926    9.7542 N   0  0  0  0  0  0  0  0  0  0  0  0
    7.3101    7.1957    4.0292 C   0  0  0  0  0  0  0  0  0  0  0  0
   13.0973    7.3562    5.8937 C   0  0  2  0  0  0  0  0  0  0  0  0
   13.4922    6.0851    5.4048 O   0  0  0  0  0  0  0  0  0  0  0  0
    6.3566    4.2567    9.9319 C   0  0  1  0  0  0  0  0  0  0  0  0
    7.0030    3.9919   11.1877 O   0  0  0  0  0  0  0  0  0  0  0  0
    6.5539    6.2445    5.0173 C   0  0  2  0  0  0  0  0  0  0  0  0
    5.1046    6.5270    4.9808 N   0  0  0  0  0  0  0  0  0  0  0  0
   12.9467    7.3376    7.4642 C   0  0  1  0  0  0  0  0  0  0  0  0
   14.2301    6.9363    8.1147 N   0  0  0  0  0  0  0  0  0  0  0  0
    4.9388    3.6398    9.8805 C   0  0  2  0  0  0  0  0  0  0  0  0
    5.0286    2.2166   10.0675 O   0  0  0  0  0  0  0  0  0  0  0  0
    7.0655    6.4317    6.4685 C   0  0  2  0  0  0  0  0  0  0  0  0
   12.5109    8.7620    7.9508 C   0  0  1  0  0  0  0  0  0  0  0  0
   13.5152    9.7127    7.6067 O   0  0  0  0  0  0  0  0  0  0  0  0
    4.2676    3.9724    8.4936 C   0  0  2  0  0  0  0  0  0  0  0  0
    4.2000    5.4348    8.3060 O   0  0  0  0  0  0  0  0  0  0  0  0
    8.5875    6.1466    6.5173 C   0  0  2  0  0  0  0  0  0  0  0  0
    9.0377    6.3424    7.8538 O   0  0  0  0  0  0  0  0  0  0  0  0
   11.1721    9.1429    7.2437 C   0  0  0  0  0  0  0  0  0  0  0  0
   11.3207    9.0865    5.7696 O   0  0  0  0  0  0  0  0  0  0  0  0
    2.8297    3.3994    8.3935 C   0  0  2  0  0  0  0  0  0  0  0  0
    2.1125    3.7068    9.5862 O   0  0  0  0  0  0  0  0  0  0  0  0
    9.3677    7.1069    5.5896 C   0  0  1  0  0  0  0  0  0  0  0  0
   10.7677    6.7577    5.7008 O   0  0  0  0  0  0  0  0  0  0  0  0
    2.8400    1.8888    8.2273 C   0  0  0  0  0  0  0  0  0  0  0  0
   12.3209    8.8173    9.4616 C   0  0  0  0  0  0  0  0  0  0  0  0
   13.9808    5.7273    8.9228 C   0  0  0  0  0  0  0  0  0  0  0  0
  1  2  1  6  0  0  0
  1  6  1  0  0  0  0
  1 23  1  0  0  0  0
  3  4  1  6  0  0  0
  3  8  1  0  0  0  0
  3 30  1  0  0  0  0
  5  9  1  0  0  0  0
  5 27  1  0  0  0  0
  5 31  1  1  0  0  0
  6  7  1  6  0  0  0
  6 11  1  0  0  0  0
  8 13  1  0  0  0  0
  9 10  1  6  0  0  0
  9 15  1  0  0  0  0
 11 12  1  1  0  0  0
 11 17  1  0  0  0  0
 13 14  1  1  0  0  0
 13 19  1  0  0  0  0
 15 16  1  1  0  0  0
 15 20  1  0  0  0  0
 16 34  1  0  0  0  0
 17 18  1  6  0  0  0
 17 22  1  0  0  0  0
 19  2  1  1  0  0  0
 19 24  1  0  0  0  0
 20 21  1  6  0  0  0
 20 26  1  0  0  0  0
 20 33  1  0  0  0  0
 22 23  1  1  0  0  0
 22 28  1  0  0  0  0
 24 25  1  1  0  0  0
 24 30  1  0  0  0  0
 26 27  1  0  0  0  0
 28 29  1  1  0  0  0
 28 32  1  0  0  0  0
 30 31  1  6  0  0  0
M  END
>  <CHROM.1>
-107.03699442,-119.03365498,-121.19024334,46.61758534,82.72658529,162.37722651
8.46726974,6.16617275,7.43629265,2.77276490,0.33436253,1.94261079

>  <Name>
ligand

>  <RI>
0

>  <Rbt.Current_Directory>
/home/itssahil/PROJECTS/Mol_Feturizer/New_Systems/rnas/3TD1

>  <Rbt.Executable>
rbdock ($Id: //depot/dev/client3/rdock/2013.1/src/exe/rbdock.cxx#4 $)

>  <Rbt.Library>
libRbt.so (2013.1, Build901 2013/11/27)

>  <Rbt.Parameter_File>
/export/apps/rDock/src/rDock_2013.1_src/data/scripts/dock_solv.prm

>  <Rbt.Receptor>
prm/pocket_docking_2.prm

>  <SCORE>
-9.46393

>  <SCORE.INTER>
-11.2042

>  <SCORE.INTER.CONST>
1

>  <SCORE.INTER.POLAR>
0

>  <SCORE.INTER.ROT>
6

>  <SCORE.INTER.SOLV>
18.1066

>  <SCORE.INTER.VDW>
-21.105

>  <SCORE.INTER.norm>
-0.329534

>  <SCORE.INTRA>
1.64292

>  <SCORE.INTRA.DIHEDRAL>
-0.448806

>  <SCORE.INTRA.DIHEDRAL.0>
19.5869

>  <SCORE.INTRA.POLAR>
0

>  <SCORE.INTRA.POLAR.0>
0

>  <SCORE.INTRA.REPUL>
0.00689605

>  <SCORE.INTRA.REPUL.0>
0

>  <SCORE.INTRA.SOLV>
0.942705

>  <SCORE.INTRA.SOLV.lig_0>
-70.101

>  <SCORE.INTRA.VDW>
1.36149

>  <SCORE.INTRA.VDW.0>
-3.39718

>  <SCORE.INTRA.norm>
0.0483213

>  <SCORE.RESTR>
0.0972973

>  <SCORE.RESTR.CAVITY>
0.0972973

>  <SCORE.RESTR.norm>
0.00286169

>  <SCORE.SYSTEM>
0

>  <SCORE.SYSTEM.CONST>
0

>  <SCORE.SYSTEM.DIHEDRAL>
0

>  <SCORE.SYSTEM.SOLV>
0

>  <SCORE.SYSTEM.norm>
0

>  <SCORE.heavy>
34

>  <SCORE.norm>
-0.278351

>  <RMSD>
2.069

$$$$
ligand
 OpenBabel11021811483D
libRbt.so/2013.1/901 2013/11/27
 34 36  0  0  0  0  0  0  0  0999 V2000
    5.4042    5.9583    9.2043 C   0  0  2  0  0  0  0  0  0  0  0  0
    5.6044    5.7033    7.8052 O   0  0  0  0  0  0  0  0  0  0  0  0
    8.7018    7.1495    5.2408 C   0  0  2  0  0  0  0  0  0  0  0  0
    9.5273    8.0353    4.4270 N   0  0  0  0  0  0  0  0  0  0  0  0
   10.6375    6.0717    7.3809 C   0  0  2  0  0  0  0  0  0  0  0  0
    5.8316    4.6720    9.9976 C   0  0  2  0  0  0  0  0  0  0  0  0
    7.2501    4.3551    9.7705 N   0  0  0  0  0  0  0  0  0  0  0  0
    7.2293    7.2789    4.7266 C   0  0  0  0  0  0  0  0  0  0  0  0
   11.9538    6.1699    8.2323 C   0  0  2  0  0  0  0  0  0  0  0  0
   11.6568    6.6806    9.5214 O   0  0  0  0  0  0  0  0  0  0  0  0
    4.9503    3.4833    9.5564 C   0  0  1  0  0  0  0  0  0  0  0  0
    5.3308    2.3043   10.2843 O   0  0  0  0  0  0  0  0  0  0  0  0
    6.3461    6.3108    5.5844 C   0  0  2  0  0  0  0  0  0  0  0  0
    4.9372    6.3927    5.1486 N   0  0  0  0  0  0  0  0  0  0  0  0
   12.9767    7.1024    7.4751 C   0  0  1  0  0  0  0  0  0  0  0  0
   14.2437    7.2414    8.2540 N   0  0  0  0  0  0  0  0  0  0  0  0
    3.4658    3.8465    9.7973 C   0  0  2  0  0  0  0  0  0  0  0  0
    2.6312    2.7517    9.3807 O   0  0  0  0  0  0  0  0  0  0  0  0
    6.4279    6.6723    7.0895 C   0  0  2  0  0  0  0  0  0  0  0  0
   13.2700    6.4940    6.0610 C   0  0  1  0  0  0  0  0  0  0  0  0
   13.8604    5.2053    6.2082 O   0  0  0  0  0  0  0  0  0  0  0  0
    3.1040    5.1529    8.9930 C   0  0  2  0  0  0  0  0  0  0  0  0
    3.9807    6.2623    9.4161 O   0  0  0  0  0  0  0  0  0  0  0  0
    7.9034    6.5986    7.5559 C   0  0  2  0  0  0  0  0  0  0  0  0
    7.9561    6.9518    8.9343 O   0  0  0  0  0  0  0  0  0  0  0  0
   11.9216    6.3612    5.2855 C   0  0  0  0  0  0  0  0  0  0  0  0
   10.9539    5.5374    6.0492 O   0  0  0  0  0  0  0  0  0  0  0  0
    1.6302    5.5815    9.2168 C   0  0  2  0  0  0  0  0  0  0  0  0
    0.7609    4.5566    8.7424 O   0  0  0  0  0  0  0  0  0  0  0  0
    8.7924    7.5834    6.7614 C   0  0  1  0  0  0  0  0  0  0  0  0
   10.1415    7.4346    7.2635 O   0  0  0  0  0  0  0  0  0  0  0  0
    1.3002    6.8618    8.4674 C   0  0  0  0  0  0  0  0  0  0  0  0
   14.2359    7.3553    5.2566 C   0  0  0  0  0  0  0  0  0  0  0  0
   14.2462    8.5678    8.9003 C   0  0  0  0  0  0  0  0  0  0  0  0
  1  2  1  6  0  0  0
  1  6  1  0  0  0  0
  1 23  1  0  0  0  0
  3  4  1  6  0  0  0
  3  8  1  0  0  0  0
  3 30  1  0  0  0  0
  5  9  1  0  0  0  0
  5 27  1  0  0  0  0
  5 31  1  6  0  0  0
  6  7  1  6  0  0  0
  6 11  1  0  0  0  0
  8 13  1  0  0  0  0
  9 10  1  1  0  0  0
  9 15  1  0  0  0  0
 11 12  1  1  0  0  0
 11 17  1  0  0  0  0
 13 14  1  6  0  0  0
 13 19  1  0  0  0  0
 15 16  1  1  0  0  0
 15 20  1  0  0  0  0
 16 34  1  0  0  0  0
 17 18  1  6  0  0  0
 17 22  1  0  0  0  0
 19  2  1  1  0  0  0
 19 24  1  0  0  0  0
 20 21  1  1  0  0  0
 20 26  1  0  0  0  0
 20 33  1  0  0  0  0
 22 23  1  1  0  0  0
 22 28  1  0  0  0  0
 24 25  1  1  0  0  0
 24 30  1  0  0  0  0
 26 27  1  0  0  0  0
 28 29  1  6  0  0  0
 28 32  1  0  0  0  0
 30 31  1  1  0  0  0
M  END
>  <CHROM.1>
-126.01733923,-172.40102879,-103.74977901,-62.00909963,-67.68288318,-167.54448010
7.90748568,6.00413960,7.72946506,-2.84939041,-0.07967589,-1.05220024

>  <Name>
ligand

>  <RI>
0

>  <Rbt.Current_Directory>
/home/itssahil/PROJECTS/Mol_Feturizer/New_Systems/rnas/3TD1

>  <Rbt.Executable>
rbdock ($Id: //depot/dev/client3/rdock/2013.1/src/exe/rbdock.cxx#4 $)

>  <Rbt.Library>
libRbt.so (2013.1, Build901 2013/11/27)

>  <Rbt.Parameter_File>
/export/apps/rDock/src/rDock_2013.1_src/data/scripts/dock_solv.prm

>  <Rbt.Receptor>
prm/pocket_docking_4.prm

>  <SCORE>
-14.4625

>  <SCORE.INTER>
-11.2967

>  <SCORE.INTER.CONST>
1

>  <SCORE.INTER.POLAR>
0

>  <SCORE.INTER.ROT>
6

>  <SCORE.INTER.SOLV>
17.3965

>  <SCORE.INTER.VDW>
-20.93

>  <SCORE.INTER.norm>
-0.332256

>  <SCORE.INTRA>
-3.16583

>  <SCORE.INTRA.DIHEDRAL>
-10.1821

>  <SCORE.INTRA.DIHEDRAL.0>
19.5869

>  <SCORE.INTRA.POLAR>
0

>  <SCORE.INTRA.POLAR.0>
0

>  <SCORE.INTRA.REPUL>
0

>  <SCORE.INTRA.REPUL.0>
0

>  <SCORE.INTRA.SOLV>
0.526574

>  <SCORE.INTRA.SOLV.lig_0>
-70.101

>  <SCORE.INTRA.VDW>
1.66195

>  <SCORE.INTRA.VDW.0>
-3.39718

>  <SCORE.INTRA.norm>
-0.0931127

>  <SCORE.RESTR>
0

>  <SCORE.RESTR.CAVITY>
0

>  <SCORE.RESTR.norm>
0

>  <SCORE.SYSTEM>
0

>  <SCORE.SYSTEM.CONST>
0

>  <SCORE.SYSTEM.DIHEDRAL>
0

>  <SCORE.SYSTEM.SOLV>
0

>  <SCORE.SYSTEM.norm>
0

>  <SCORE.heavy>
34

>  <SCORE.norm>
-0.425369

>  <RMSD>
2.215

$$$$
ligand
 OpenBabel11021811483D
libRbt.so/2013.1/901 2013/11/27
 34 36  0  0  0  0  0  0  0  0999 V2000
    6.2214    5.7238    9.6401 C   0  0  2  0  0  0  0  0  0  0  0  0
    6.9327    5.4524    8.4223 O   0  0  0  0  0  0  0  0  0  0  0  0
   10.2378    7.3902    6.5294 C   0  0  2  0  0  0  0  0  0  0  0  0
   11.0757    8.4076    5.9043 N   0  0  0  0  0  0  0  0  0  0  0  0
   11.6882    9.0800    9.2414 C   0  0  2  0  0  0  0  0  0  0  0  0
    6.0155    4.3622   10.3951 C   0  0  2  0  0  0  0  0  0  0  0  0
    7.3060    3.7388   10.7272 N   0  0  0  0  0  0  0  0  0  0  0  0
    8.8865    7.3478    5.7408 C   0  0  0  0  0  0  0  0  0  0  0  0
   13.1058    8.8247    9.8678 C   0  0  2  0  0  0  0  0  0  0  0  0
   13.9834    8.3101    8.8799 O   0  0  0  0  0  0  0  0  0  0  0  0
    5.1832    3.4084    9.5108 C   0  0  1  0  0  0  0  0  0  0  0  0
    4.9842    2.1628   10.1990 O   0  0  0  0  0  0  0  0  0  0  0  0
    7.9951    6.2396    6.3967 C   0  0  2  0  0  0  0  0  0  0  0  0
    6.6972    6.1553    5.6968 N   0  0  0  0  0  0  0  0  0  0  0  0
   12.9522    7.8153   11.0707 C   0  0  1  0  0  0  0  0  0  0  0  0
   14.2793    7.5265   11.6926 N   0  0  0  0  0  0  0  0  0  0  0  0
    3.8376    4.0913    9.1696 C   0  0  2  0  0  0  0  0  0  0  0  0
    3.0551    3.2183    8.3365 O   0  0  0  0  0  0  0  0  0  0  0  0
    7.7388    6.5480    7.8941 C   0  0  2  0  0  0  0  0  0  0  0  0
   11.9758    8.4310   12.1304 C   0  0  1  0  0  0  0  0  0  0  0  0
   12.5208    9.6485   12.6321 O   0  0  0  0  0  0  0  0  0  0  0  0
    4.1103    5.4581    8.4332 C   0  0  2  0  0  0  0  0  0  0  0  0
    4.9303    6.3359    9.2906 O   0  0  0  0  0  0  0  0  0  0  0  0
    9.0945    6.6478    8.6372 C   0  0  2  0  0  0  0  0  0  0  0  0
    8.8352    6.9492   10.0045 O   0  0  0  0  0  0  0  0  0  0  0  0
   10.6070    8.7219   11.4383 C   0  0  0  0  0  0  0  0  0  0  0  0
   10.7874    9.6173   10.2704 O   0  0  0  0  0  0  0  0  0  0  0  0
    2.7942    6.2027    8.0877 C   0  0  2  0  0  0  0  0  0  0  0  0
    3.0832    7.3039    7.2304 O   0  0  0  0  0  0  0  0  0  0  0  0
    9.9772    7.7708    8.0447 C   0  0  1  0  0  0  0  0  0  0  0  0
   11.2134    7.7783    8.7971 O   0  0  0  0  0  0  0  0  0  0  0  0
    2.1138    6.7435    9.3344 C   0  0  0  0  0  0  0  0  0  0  0  0
   11.7574    7.4996   13.3165 C   0  0  0  0  0  0  0  0  0  0  0  0
   14.7390    6.2098   11.2111 C   0  0  0  0  0  0  0  0  0  0  0  0
  1  2  1  6  0  0  0
  1  6  1  0  0  0  0
  1 23  1  0  0  0  0
  3  4  1  6  0  0  0
  3  8  1  0  0  0  0
  3 30  1  0  0  0  0
  5  9  1  0  0  0  0
  5 27  1  0  0  0  0
  5 31  1  1  0  0  0
  6  7  1  6  0  0  0
  6 11  1  0  0  0  0
  8 13  1  0  0  0  0
  9 10  1  6  0  0  0
  9 15  1  0  0  0  0
 11 12  1  1  0  0  0
 11 17  1  0  0  0  0
 13 14  1  6  0  0  0
 13 19  1  0  0  0  0
 15 16  1  1  0  0  0
 15 20  1  0  0  0  0
 16 34  1  0  0  0  0
 17 18  1  6  0  0  0
 17 22  1  0  0  0  0
 19  2  1  1  0  0  0
 19 24  1  0  0  0  0
 20 21  1  1  0  0  0
 20 26  1  0  0  0  0
 20 33  1  0  0  0  0
 22 23  1  1  0  0  0
 22 28  1  0  0  0  0
 24 25  1  1  0  0  0
 24 30  1  0  0  0  0
 26 27  1  0  0  0  0
 28 29  1  6  0  0  0
 28 32  1  0  0  0  0
 30 31  1  1  0  0  0
M  END
>  <CHROM.1>
-153.06006247,-160.56932981,-101.73809373,-170.11954326,110.62744691,-173.38023074
8.53924120,6.68178756,9.26148148,3.06929217,-0.41047179,-1.20553828

>  <Name>
ligand

>  <RI>
0

>  <Rbt.Current_Directory>
/home/itssahil/PROJECTS/Mol_Feturizer/New_Systems/rnas/3TD1

>  <Rbt.Executable>
rbdock ($Id: //depot/dev/client3/rdock/2013.1/src/exe/rbdock.cxx#4 $)

>  <Rbt.Library>
libRbt.so (2013.1, Build901 2013/11/27)

>  <Rbt.Parameter_File>
/export/apps/rDock/src/rDock_2013.1_src/data/scripts/dock_solv.prm

>  <Rbt.Receptor>
prm/pocket_docking_5.prm

>  <SCORE>
-13.6063

>  <SCORE.INTER>
-9.7846

>  <SCORE.INTER.CONST>
1

>  <SCORE.INTER.POLAR>
0

>  <SCORE.INTER.ROT>
6

>  <SCORE.INTER.SOLV>
16.4822

>  <SCORE.INTER.VDW>
-19.6171

>  <SCORE.INTER.norm>
-0.287782

>  <SCORE.INTRA>
-3.82174

>  <SCORE.INTRA.DIHEDRAL>
-6.58627

>  <SCORE.INTRA.DIHEDRAL.0>
19.5869

>  <SCORE.INTRA.POLAR>
0

>  <SCORE.INTRA.POLAR.0>
0

>  <SCORE.INTRA.REPUL>
0

>  <SCORE.INTRA.REPUL.0>
0

>  <SCORE.INTRA.SOLV>
-1.69448

>  <SCORE.INTRA.SOLV.lig_0>
-70.101

>  <SCORE.INTRA.VDW>
0.318641

>  <SCORE.INTRA.VDW.0>
-3.39718

>  <SCORE.INTRA.norm>
-0.112404

>  <SCORE.RESTR>
0

>  <SCORE.RESTR.CAVITY>
0

>  <SCORE.RESTR.norm>
0

>  <SCORE.SYSTEM>
0

>  <SCORE.SYSTEM.CONST>
0

>  <SCORE.SYSTEM.DIHEDRAL>
0

>  <SCORE.SYSTEM.SOLV>
0

>  <SCORE.SYSTEM.norm>
0

>  <SCORE.heavy>
34

>  <SCORE.norm>
-0.400186

>  <RMSD>
2.257

$$$$
ligand
 OpenBabel11021811483D
libRbt.so/2013.1/901 2013/11/27
 34 36  0  0  0  0  0  0  0  0999 V2000
    4.8719    6.4197    8.1781 C   0  0  2  0  0  0  0  0  0  0  0  0
    5.4010    5.9556    6.9262 O   0  0  0  0  0  0  0  0  0  0  0  0
    8.7561    7.2428    4.6137 C   0  0  2  0  0  0  0  0  0  0  0  0
    9.6593    8.0728    3.8241 N   0  0  0  0  0  0  0  0  0  0  0  0
   10.4167    6.4006    7.1017 C   0  0  2  0  0  0  0  0  0  0  0  0
    5.0064    5.2549    9.2230 C   0  0  2  0  0  0  0  0  0  0  0  0
    6.4142    4.8732    9.4142 N   0  0  0  0  0  0  0  0  0  0  0  0
    7.3514    7.2943    3.9255 C   0  0  0  0  0  0  0  0  0  0  0  0
   11.6485    6.6163    8.0521 C   0  0  2  0  0  0  0  0  0  0  0  0
   11.2377    7.2972    9.2261 O   0  0  0  0  0  0  0  0  0  0  0  0
    4.1927    4.0359    8.7368 C   0  0  1  0  0  0  0  0  0  0  0  0
    4.3049    2.9687    9.6924 O   0  0  0  0  0  0  0  0  0  0  0  0
    6.3869    6.3848    4.7594 C   0  0  2  0  0  0  0  0  0  0  0  0
    5.0369    6.3972    4.1603 N   0  0  0  0  0  0  0  0  0  0  0  0
   12.7480    7.4390    7.2751 C   0  0  1  0  0  0  0  0  0  0  0  0
   13.9380    7.6851    8.1439 N   0  0  0  0  0  0  0  0  0  0  0  0
    2.7205    4.4670    8.5355 C   0  0  2  0  0  0  0  0  0  0  0  0
    1.9516    3.3435    8.0719 O   0  0  0  0  0  0  0  0  0  0  0  0
    6.2898    6.8770    6.2261 C   0  0  2  0  0  0  0  0  0  0  0  0
   13.1657    6.6443    5.9908 C   0  0  1  0  0  0  0  0  0  0  0  0
   13.7256    5.3887    6.3665 O   0  0  0  0  0  0  0  0  0  0  0  0
    2.6534    5.6485    7.4942 C   0  0  2  0  0  0  0  0  0  0  0  0
    3.4623    6.7865    7.9727 O   0  0  0  0  0  0  0  0  0  0  0  0
    7.7023    6.8768    6.8624 C   0  0  2  0  0  0  0  0  0  0  0  0
    7.5911    7.3491    8.2010 O   0  0  0  0  0  0  0  0  0  0  0  0
   11.8945    6.4045    5.1168 C   0  0  0  0  0  0  0  0  0  0  0  0
   10.8506    5.6905    5.8906 O   0  0  0  0  0  0  0  0  0  0  0  0
    1.1999    6.1415    7.2703 C   0  0  2  0  0  0  0  0  0  0  0  0
    0.3857    5.0465    6.8589 O   0  0  0  0  0  0  0  0  0  0  0  0
    8.6651    7.8087    6.0903 C   0  0  1  0  0  0  0  0  0  0  0  0
    9.9489    7.7339    6.7541 O   0  0  0  0  0  0  0  0  0  0  0  0
    1.1316    7.2095    6.1912 C   0  0  0  0  0  0  0  0  0  0  0  0
   14.2121    7.3898    5.1715 C   0  0  0  0  0  0  0  0  0  0  0  0
   13.8474    9.0591    8.6740 C   0  0  0  0  0  0  0  0  0  0  0  0
  1  2  1  6  0  0  0
  1  6  1  0  0  0  0
  1 23  1  0  0  0  0
  3  4  1  6  0  0  0
  3  8  1  0  0  0  0
  3 30  1  0  0  0  0
  5  9  1  0  0  0  0
  5 27  1  0  0  0  0
  5 31  1  6  0  0  0
  6  7  1  6  0  0  0
  6 11  1  0  0  0  0
  8 13  1  0  0  0  0
  9 10  1  1  0  0  0
  9 15  1  0  0  0  0
 11 12  1  1  0  0  0
 11 17  1  0  0  0  0
 13 14  1  6  0  0  0
 13 19  1  0  0  0  0
 15 16  1  1  0  0  0
 15 20  1  0  0  0  0
 16 34  1  0  0  0  0
 17 18  1  6  0  0  0
 17 22  1  0  0  0  0
 19  2  1  1  0  0  0
 19 24  1  0  0  0  0
 20 21  1  1  0  0  0
 20 26  1  0  0  0  0
 20 33  1  0  0  0  0
 22 23  1  1  0  0  0
 22 28  1  0  0  0  0
 24 25  1  1  0  0  0
 24 30  1  0  0  0  0
 26 27  1  0  0  0  0
 28 29  1  6  0  0  0
 28 32  1  0  0  0  0
 30 31  1  1  0  0  0
M  END
>  <CHROM.1>
-134.57958288,-163.11333140,-100.03552111,-56.31172547,-70.35407510,-168.59862702
7.59888502,6.34556245,6.99233046,-2.98703977,-0.14307680,-1.17815962

>  <Name>
ligand

>  <RI>
0

>  <Rbt.Current_Directory>
/home/itssahil/PROJECTS/Mol_Feturizer/New_Systems/rnas/3TD1

>  <Rbt.Executable>
rbdock ($Id: //depot/dev/client3/rdock/2013.1/src/exe/rbdock.cxx#4 $)

>  <Rbt.Library>
libRbt.so (2013.1, Build901 2013/11/27)

>  <Rbt.Parameter_File>
/export/apps/rDock/src/rDock_2013.1_src/data/scripts/dock_solv.prm

>  <Rbt.Receptor>
prm/pocket_docking_4.prm

>  <SCORE>
-13.4153

>  <SCORE.INTER>
-10.1137

>  <SCORE.INTER.CONST>
1

>  <SCORE.INTER.POLAR>
0

>  <SCORE.INTER.ROT>
6

>  <SCORE.INTER.SOLV>
16.8617

>  <SCORE.INTER.VDW>
-19.963

>  <SCORE.INTER.norm>
-0.297461

>  <SCORE.INTRA>
-3.30159

>  <SCORE.INTRA.DIHEDRAL>
-9.91198

>  <SCORE.INTRA.DIHEDRAL.0>
19.5869

>  <SCORE.INTRA.POLAR>
0

>  <SCORE.INTRA.POLAR.0>
0

>  <SCORE.INTRA.REPUL>
0

>  <SCORE.INTRA.REPUL.0>
0

>  <SCORE.INTRA.SOLV>
0.579292

>  <SCORE.INTRA.SOLV.lig_0>
-70.101

>  <SCORE.INTRA.VDW>
1.36475

>  <SCORE.INTRA.VDW.0>
-3.39718

>  <SCORE.INTRA.norm>
-0.0971056

>  <SCORE.RESTR>
0

>  <SCORE.RESTR.CAVITY>
0

>  <SCORE.RESTR.norm>
0

>  <SCORE.SYSTEM>
0

>  <SCORE.SYSTEM.CONST>
0

>  <SCORE.SYSTEM.DIHEDRAL>
0

>  <SCORE.SYSTEM.SOLV>
0

>  <SCORE.SYSTEM.norm>
0

>  <SCORE.heavy>
34

>  <SCORE.norm>
-0.394567

>  <RMSD>
2.261

$$$$
ligand
 OpenBabel11021811483D
libRbt.so/2013.1/901 2013/11/27
 34 36  0  0  0  0  0  0  0  0999 V2000
    5.2270    6.1588    8.6724 C   0  0  2  0  0  0  0  0  0  0  0  0
    5.8546    5.7931    7.4335 O   0  0  0  0  0  0  0  0  0  0  0  0
    9.4696    7.2817    5.7080 C   0  0  2  0  0  0  0  0  0  0  0  0
   10.4404    8.1634    5.0690 N   0  0  0  0  0  0  0  0  0  0  0  0
   10.8691    6.5858    8.2718 C   0  0  2  0  0  0  0  0  0  0  0  0
    5.3427    4.9379    9.6534 C   0  0  2  0  0  0  0  0  0  0  0  0
    6.7501    4.5989    9.9155 N   0  0  0  0  0  0  0  0  0  0  0  0
    8.2051    7.2325    4.7870 C   0  0  0  0  0  0  0  0  0  0  0  0
   11.3356    6.6365    9.7707 C   0  0  2  0  0  0  0  0  0  0  0  0
   10.2113    6.7957   10.6201 O   0  0  0  0  0  0  0  0  0  0  0  0
    4.6139    3.7211    9.0430 C   0  0  1  0  0  0  0  0  0  0  0  0
    4.7090    2.6021    9.9395 O   0  0  0  0  0  0  0  0  0  0  0  0
    7.1714    6.2678    5.4606 C   0  0  2  0  0  0  0  0  0  0  0  0
    5.9478    6.1841    4.6377 N   0  0  0  0  0  0  0  0  0  0  0  0
   12.3504    7.8322    9.9437 C   0  0  1  0  0  0  0  0  0  0  0  0
   12.8134    7.9334   11.3603 N   0  0  0  0  0  0  0  0  0  0  0  0
    3.1409    4.1075    8.7696 C   0  0  2  0  0  0  0  0  0  0  0  0
    2.4512    2.9862    8.1903 O   0  0  0  0  0  0  0  0  0  0  0  0
    6.7900    6.7657    6.8782 C   0  0  2  0  0  0  0  0  0  0  0  0
   13.5703    7.6072    8.9862 C   0  0  1  0  0  0  0  0  0  0  0  0
   14.2369    6.3974    9.3374 O   0  0  0  0  0  0  0  0  0  0  0  0
    3.0915    5.3474    7.7976 C   0  0  2  0  0  0  0  0  0  0  0  0
    3.8195    6.4837    8.3952 O   0  0  0  0  0  0  0  0  0  0  0  0
    8.0678    6.8662    7.7483 C   0  0  2  0  0  0  0  0  0  0  0  0
    7.6959    7.3421    9.0378 O   0  0  0  0  0  0  0  0  0  0  0  0
   13.0419    7.5016    7.5209 C   0  0  0  0  0  0  0  0  0  0  0  0
   12.0395    6.4159    7.3997 O   0  0  0  0  0  0  0  0  0  0  0  0
    1.6360    5.7977    7.5064 C   0  0  2  0  0  0  0  0  0  0  0  0
    0.8795    4.6840    7.0388 O   0  0  0  0  0  0  0  0  0  0  0  0
    9.0876    7.8536    7.1348 C   0  0  1  0  0  0  0  0  0  0  0  0
   10.2390    7.8712    8.0113 O   0  0  0  0  0  0  0  0  0  0  0  0
    1.5880    6.8795    6.4402 C   0  0  0  0  0  0  0  0  0  0  0  0
   14.5871    8.7383    9.0792 C   0  0  0  0  0  0  0  0  0  0  0  0
   12.0412    9.0011   12.0241 C   0  0  0  0  0  0  0  0  0  0  0  0
  1  2  1  6  0  0  0
  1  6  1  0  0  0  0
  1 23  1  0  0  0  0
  3  4  1  6  0  0  0
  3  8  1  0  0  0  0
  3 30  1  0  0  0  0
  5  9  1  0  0  0  0
  5 27  1  0  0  0  0
  5 31  1  6  0  0  0
  6  7  1  6  0  0  0
  6 11  1  0  0  0  0
  8 13  1  0  0  0  0
  9 10  1  1  0  0  0
  9 15  1  0  0  0  0
 11 12  1  1  0  0  0
 11 17  1  0  0  0  0
 13 14  1  6  0  0  0
 13 19  1  0  0  0  0
 15 16  1  1  0  0  0
 15 20  1  0  0  0  0
 16 34  1  0  0  0  0
 17 18  1  6  0  0  0
 17 22  1  0  0  0  0
 19  2  1  1  0  0  0
 19 24  1  0  0  0  0
 20 21  1  1  0  0  0
 20 26  1  0  0  0  0
 20 33  1  0  0  0  0
 22 23  1  1  0  0  0
 22 28  1  0  0  0  0
 24 25  1  1  0  0  0
 24 30  1  0  0  0  0
 26 27  1  0  0  0  0
 28 29  1  6  0  0  0
 28 32  1  0  0  0  0
 30 31  1  1  0  0  0
M  END
>  <CHROM.1>
-132.11824006,-171.56276804,-99.72342118,-53.52697469,-59.85359861,-143.60329142
7.90420644,6.37969792,8.18657552,3.10340935,-0.30292205,-1.24748031

>  <Name>
ligand

>  <RI>
0

>  <Rbt.Current_Directory>
/home/itssahil/PROJECTS/Mol_Feturizer/New_Systems/rnas/3TD1

>  <Rbt.Executable>
rbdock ($Id: //depot/dev/client3/rdock/2013.1/src/exe/rbdock.cxx#4 $)

>  <Rbt.Library>
libRbt.so (2013.1, Build901 2013/11/27)

>  <Rbt.Parameter_File>
/export/apps/rDock/src/rDock_2013.1_src/data/scripts/dock_solv.prm

>  <Rbt.Receptor>
prm/pocket_docking_3.prm

>  <SCORE>
-11.6785

>  <SCORE.INTER>
-9.35766

>  <SCORE.INTER.CONST>
1

>  <SCORE.INTER.POLAR>
0

>  <SCORE.INTER.ROT>
6

>  <SCORE.INTER.SOLV>
14.9736

>  <SCORE.INTER.VDW>
-18.8296

>  <SCORE.INTER.norm>
-0.275225

>  <SCORE.INTRA>
-2.32082

>  <SCORE.INTRA.DIHEDRAL>
-6.84989

>  <SCORE.INTRA.DIHEDRAL.0>
19.5869

>  <SCORE.INTRA.POLAR>
0

>  <SCORE.INTRA.POLAR.0>
0

>  <SCORE.INTRA.REPUL>
0

>  <SCORE.INTRA.REPUL.0>
0

>  <SCORE.INTRA.SOLV>
0.185832

>  <SCORE.INTRA.SOLV.lig_0>
-70.101

>  <SCORE.INTRA.VDW>
1.01121

>  <SCORE.INTRA.VDW.0>
-3.39718

>  <SCORE.INTRA.norm>
-0.0682593

>  <SCORE.RESTR>
0

>  <SCORE.RESTR.CAVITY>
0

>  <SCORE.RESTR.norm>
0

>  <SCORE.SYSTEM>
0

>  <SCORE.SYSTEM.CONST>
0

>  <SCORE.SYSTEM.DIHEDRAL>
0

>  <SCORE.SYSTEM.SOLV>
0

>  <SCORE.SYSTEM.norm>
0

>  <SCORE.heavy>
34

>  <SCORE.norm>
-0.343485

>  <RMSD>
2.263

$$$$
ligand
 OpenBabel11021811483D
libRbt.so/2013.1/901 2013/11/27
 34 36  0  0  0  0  0  0  0  0999 V2000
    7.1052    4.7375    9.0047 C   0  0  2  0  0  0  0  0  0  0  0  0
    7.4909    3.9786    7.8480 O   0  0  0  0  0  0  0  0  0  0  0  0
   10.9059    4.6282    5.3626 C   0  0  2  0  0  0  0  0  0  0  0  0
   11.8058    5.1932    4.3630 N   0  0  0  0  0  0  0  0  0  0  0  0
   12.8495    6.8442    6.5554 C   0  0  2  0  0  0  0  0  0  0  0  0
    6.3455    3.7743    9.9853 C   0  0  2  0  0  0  0  0  0  0  0  0
    7.2090    2.6625   10.4125 N   0  0  0  0  0  0  0  0  0  0  0  0
    9.5501    4.3132    4.6468 C   0  0  0  0  0  0  0  0  0  0  0  0
   14.1114    6.9220    7.4874 C   0  0  2  0  0  0  0  0  0  0  0  0
   14.6958    5.6364    7.6155 O   0  0  0  0  0  0  0  0  0  0  0  0
    5.0853    3.2217    9.2846 C   0  0  1  0  0  0  0  0  0  0  0  0
    4.3809    2.3454   10.1793 O   0  0  0  0  0  0  0  0  0  0  0  0
    8.5911    3.6851    5.7139 C   0  0  2  0  0  0  0  0  0  0  0  0
    7.2864    3.3702    5.0974 N   0  0  0  0  0  0  0  0  0  0  0  0
   13.6674    7.4853    8.8928 C   0  0  1  0  0  0  0  0  0  0  0  0
   14.8326    7.5642    9.8241 N   0  0  0  0  0  0  0  0  0  0  0  0
    4.2010    4.4102    8.8384 C   0  0  2  0  0  0  0  0  0  0  0  0
    3.0273    3.9108    8.1739 O   0  0  0  0  0  0  0  0  0  0  0  0
    8.3648    4.6593    6.8981 C   0  0  2  0  0  0  0  0  0  0  0  0
   13.0306    8.9033    8.6949 C   0  0  1  0  0  0  0  0  0  0  0  0
   13.9998    9.7895    8.1412 O   0  0  0  0  0  0  0  0  0  0  0  0
    5.0232    5.3483    7.8749 C   0  0  2  0  0  0  0  0  0  0  0  0
    6.2342    5.8372    8.5624 O   0  0  0  0  0  0  0  0  0  0  0  0
    9.7284    5.0041    7.5474 C   0  0  2  0  0  0  0  0  0  0  0  0
    9.4978    5.9129    8.6190 O   0  0  0  0  0  0  0  0  0  0  0  0
   11.8236    8.7758    7.7129 C   0  0  0  0  0  0  0  0  0  0  0  0
   12.2536    8.1809    6.4247 O   0  0  0  0  0  0  0  0  0  0  0  0
    4.1936    6.5751    7.4137 C   0  0  2  0  0  0  0  0  0  0  0  0
    3.3864    7.0352    8.4944 O   0  0  0  0  0  0  0  0  0  0  0  0
   10.6802    5.6750    6.5297 C   0  0  1  0  0  0  0  0  0  0  0  0
   11.9185    5.9495    7.2264 O   0  0  0  0  0  0  0  0  0  0  0  0
    3.2737    6.2248    6.2558 C   0  0  0  0  0  0  0  0  0  0  0  0
   12.5533    9.5051   10.0109 C   0  0  0  0  0  0  0  0  0  0  0  0
   14.5987    6.6256   10.9382 C   0  0  0  0  0  0  0  0  0  0  0  0
  1  2  1  6  0  0  0
  1  6  1  0  0  0  0
  1 23  1  0  0  0  0
  3  4  1  6  0  0  0
  3  8  1  0  0  0  0
  3 30  1  0  0  0  0
  5  9  1  0  0  0  0
  5 27  1  0  0  0  0
  5 31  1  1  0  0  0
  6  7  1  6  0  0  0
  6 11  1  0  0  0  0
  8 13  1  0  0  0  0
  9 10  1  1  0  0  0
  9 15  1  0  0  0  0
 11 12  1  1  0  0  0
 11 17  1  0  0  0  0
 13 14  1  6  0  0  0
 13 19  1  0  0  0  0
 15 16  1  1  0  0  0
 15 20  1  0  0  0  0
 16 34  1  0  0  0  0
 17 18  1  6  0  0  0
 17 22  1  0  0  0  0
 19  2  1  1  0  0  0
 19 24  1  0  0  0  0
 20 21  1  6  0  0  0
 20 26  1  0  0  0  0
 20 33  1  0  0  0  0
 22 23  1  1  0  0  0
 22 28  1  0  0  0  0
 24 25  1  1  0  0  0
 24 30  1  0  0  0  0
 26 27  1  0  0  0  0
 28 29  1  1  0  0  0
 28 32  1  0  0  0  0
 30 31  1  1  0  0  0
M  END
>  <CHROM.1>
-172.17819012,-177.39289635,-115.26470047,37.80607968,77.37633849,-177.80199405
9.21159692,5.74409800,7.86293772,3.00224150,-0.30534731,-2.05741528

>  <Name>
ligand

>  <RI>
0

>  <Rbt.Current_Directory>
/home/itssahil/PROJECTS/Mol_Feturizer/New_Systems/rnas/3TD1

>  <Rbt.Executable>
rbdock ($Id: //depot/dev/client3/rdock/2013.1/src/exe/rbdock.cxx#4 $)

>  <Rbt.Library>
libRbt.so (2013.1, Build901 2013/11/27)

>  <Rbt.Parameter_File>
/export/apps/rDock/src/rDock_2013.1_src/data/scripts/dock_solv.prm

>  <Rbt.Receptor>
prm/pocket_docking_5.prm

>  <SCORE>
-14.8962

>  <SCORE.INTER>
-7.17709

>  <SCORE.INTER.CONST>
1

>  <SCORE.INTER.POLAR>
0

>  <SCORE.INTER.ROT>
6

>  <SCORE.INTER.SOLV>
18.0245

>  <SCORE.INTER.VDW>
-18.3929

>  <SCORE.INTER.norm>
-0.211091

>  <SCORE.INTRA>
-7.71913

>  <SCORE.INTRA.DIHEDRAL>
-15.0011

>  <SCORE.INTRA.DIHEDRAL.0>
19.5869

>  <SCORE.INTRA.POLAR>
0

>  <SCORE.INTRA.POLAR.0>
0

>  <SCORE.INTRA.REPUL>
0

>  <SCORE.INTRA.REPUL.0>
0

>  <SCORE.INTRA.SOLV>
-2.16809

>  <SCORE.INTRA.SOLV.lig_0>
-70.101

>  <SCORE.INTRA.VDW>
0.865465

>  <SCORE.INTRA.VDW.0>
-3.39718

>  <SCORE.INTRA.norm>
-0.227033

>  <SCORE.RESTR>
0

>  <SCORE.RESTR.CAVITY>
0

>  <SCORE.RESTR.norm>
0

>  <SCORE.SYSTEM>
0

>  <SCORE.SYSTEM.CONST>
0

>  <SCORE.SYSTEM.DIHEDRAL>
0

>  <SCORE.SYSTEM.SOLV>
0

>  <SCORE.SYSTEM.norm>
0

>  <SCORE.heavy>
34

>  <SCORE.norm>
-0.438124

>  <RMSD>
2.364

$$$$
ligand
 OpenBabel11021811483D
libRbt.so/2013.1/901 2013/11/27
 34 36  0  0  0  0  0  0  0  0999 V2000
    5.3067    5.8087    7.8341 C   0  0  2  0  0  0  0  0  0  0  0  0
    6.2271    5.2886    6.8620 O   0  0  0  0  0  0  0  0  0  0  0  0
    8.8976    6.8321    3.9044 C   0  0  2  0  0  0  0  0  0  0  0  0
    9.6495    7.7561    3.0624 N   0  0  0  0  0  0  0  0  0  0  0  0
   11.7247    7.6009    5.1145 C   0  0  2  0  0  0  0  0  0  0  0  0
    6.1126    6.1237    9.1448 C   0  0  2  0  0  0  0  0  0  0  0  0
    7.1590    7.1275    8.8964 N   0  0  0  0  0  0  0  0  0  0  0  0
    7.3817    7.1925    3.7568 C   0  0  0  0  0  0  0  0  0  0  0  0
   13.0637    7.2390    5.8516 C   0  0  2  0  0  0  0  0  0  0  0  0
   13.4810    5.9357    5.4802 O   0  0  0  0  0  0  0  0  0  0  0  0
    6.7490    4.8220    9.6786 C   0  0  1  0  0  0  0  0  0  0  0  0
    7.4816    5.1016   10.8827 O   0  0  0  0  0  0  0  0  0  0  0  0
    6.5719    6.1861    4.6424 C   0  0  2  0  0  0  0  0  0  0  0  0
    5.1275    6.4803    4.5493 N   0  0  0  0  0  0  0  0  0  0  0  0
   12.8254    7.3358    7.4083 C   0  0  1  0  0  0  0  0  0  0  0  0
   14.0691    6.9844    8.1574 N   0  0  0  0  0  0  0  0  0  0  0  0
    5.6292    3.7826    9.9223 C   0  0  2  0  0  0  0  0  0  0  0  0
    6.2085    2.5599   10.4100 O   0  0  0  0  0  0  0  0  0  0  0  0
    7.0084    6.2778    6.1269 C   0  0  2  0  0  0  0  0  0  0  0  0
   12.3678    8.7918    7.7637 C   0  0  1  0  0  0  0  0  0  0  0  0
   13.3930    9.7154    7.4076 O   0  0  0  0  0  0  0  0  0  0  0  0
    4.8463    3.5244    8.5787 C   0  0  2  0  0  0  0  0  0  0  0  0
    4.2743    4.7900    8.0794 O   0  0  0  0  0  0  0  0  0  0  0  0
    8.5247    5.9797    6.2358 C   0  0  2  0  0  0  0  0  0  0  0  0
    8.9058    6.0876    7.6034 O   0  0  0  0  0  0  0  0  0  0  0  0
   11.0720    9.1187    6.9567 C   0  0  0  0  0  0  0  0  0  0  0  0
   11.3026    8.9541    5.5013 O   0  0  0  0  0  0  0  0  0  0  0  0
    3.6913    2.5066    8.7677 C   0  0  2  0  0  0  0  0  0  0  0  0
    3.1653    2.1440    7.4937 O   0  0  0  0  0  0  0  0  0  0  0  0
    9.3554    6.9913    5.4123 C   0  0  1  0  0  0  0  0  0  0  0  0
   10.7465    6.6261    5.5730 O   0  0  0  0  0  0  0  0  0  0  0  0
    2.5587    3.0930    9.5942 C   0  0  0  0  0  0  0  0  0  0  0  0
   12.0938    8.9579    9.2534 C   0  0  0  0  0  0  0  0  0  0  0  0
   13.7583    5.8698    9.0728 C   0  0  0  0  0  0  0  0  0  0  0  0
  1  2  1  6  0  0  0
  1  6  1  0  0  0  0
  1 23  1  0  0  0  0
  3  4  1  6  0  0  0
  3  8  1  0  0  0  0
  3 30  1  0  0  0  0
  5  9  1  0  0  0  0
  5 27  1  0  0  0  0
  5 31  1  1  0  0  0
  6  7  1  6  0  0  0
  6 11  1  0  0  0  0
  8 13  1  0  0  0  0
  9 10  1  1  0  0  0
  9 15  1  0  0  0  0
 11 12  1  1  0  0  0
 11 17  1  0  0  0  0
 13 14  1  1  0  0  0
 13 19  1  0  0  0  0
 15 16  1  1  0  0  0
 15 20  1  0  0  0  0
 16 34  1  0  0  0  0
 17 18  1  6  0  0  0
 17 22  1  0  0  0  0
 19  2  1  1  0  0  0
 19 24  1  0  0  0  0
 20 21  1  6  0  0  0
 20 26  1  0  0  0  0
 20 33  1  0  0  0  0
 22 23  1  1  0  0  0
 22 28  1  0  0  0  0
 24 25  1  1  0  0  0
 24 30  1  0  0  0  0
 26 27  1  0  0  0  0
 28 29  1  6  0  0  0
 28 32  1  0  0  0  0
 30 31  1  6  0  0  0
M  END
>  <CHROM.1>
-81.54743938,-114.85354626,-123.22013176,-170.43396986,76.41498915,159.72530204
8.55893139,6.14489984,7.23416063,2.78087458,0.37356237,1.91826160

>  <Name>
ligand

>  <RI>
0

>  <Rbt.Current_Directory>
/home/itssahil/PROJECTS/Mol_Feturizer/New_Systems/rnas/3TD1

>  <Rbt.Executable>
rbdock ($Id: //depot/dev/client3/rdock/2013.1/src/exe/rbdock.cxx#4 $)

>  <Rbt.Library>
libRbt.so (2013.1, Build901 2013/11/27)

>  <Rbt.Parameter_File>
/export/apps/rDock/src/rDock_2013.1_src/data/scripts/dock_solv.prm

>  <Rbt.Receptor>
prm/pocket_docking_2.prm

>  <SCORE>
-8.99117

>  <SCORE.INTER>
-8.73327

>  <SCORE.INTER.CONST>
1

>  <SCORE.INTER.POLAR>
0

>  <SCORE.INTER.ROT>
6

>  <SCORE.INTER.SOLV>
19.5755

>  <SCORE.INTER.VDW>
-19.9474

>  <SCORE.INTER.norm>
-0.256861

>  <SCORE.INTRA>
-0.617708

>  <SCORE.INTRA.DIHEDRAL>
-5.78781

>  <SCORE.INTRA.DIHEDRAL.0>
19.5869

>  <SCORE.INTRA.POLAR>
0

>  <SCORE.INTRA.POLAR.0>
0

>  <SCORE.INTRA.REPUL>
0

>  <SCORE.INTRA.REPUL.0>
0

>  <SCORE.INTRA.SOLV>
1.4201

>  <SCORE.INTRA.SOLV.lig_0>
-70.101

>  <SCORE.INTRA.VDW>
1.56615

>  <SCORE.INTRA.VDW.0>
-3.39718

>  <SCORE.INTRA.norm>
-0.0181679

>  <SCORE.RESTR>
0.359806

>  <SCORE.RESTR.CAVITY>
0.359806

>  <SCORE.RESTR.norm>
0.0105825

>  <SCORE.SYSTEM>
0

>  <SCORE.SYSTEM.CONST>
0

>  <SCORE.SYSTEM.DIHEDRAL>
0

>  <SCORE.SYSTEM.SOLV>
0

>  <SCORE.SYSTEM.norm>
0

>  <SCORE.heavy>
34

>  <SCORE.norm>
-0.264446

>  <RMSD>
2.421

$$$$
ligand
 OpenBabel11021811483D
libRbt.so/2013.1/901 2013/11/27
 34 36  0  0  0  0  0  0  0  0999 V2000
    5.6696    5.9894    7.5132 C   0  0  2  0  0  0  0  0  0  0  0  0
    6.6639    5.4070    6.6561 O   0  0  0  0  0  0  0  0  0  0  0  0
    9.6826    6.7560    3.9488 C   0  0  2  0  0  0  0  0  0  0  0  0
   10.5435    7.6241    3.1530 N   0  0  0  0  0  0  0  0  0  0  0  0
   12.3656    7.5656    5.4746 C   0  0  2  0  0  0  0  0  0  0  0  0
    6.3853    6.4814    8.8217 C   0  0  2  0  0  0  0  0  0  0  0  0
    7.4056    7.4971    8.5189 N   0  0  0  0  0  0  0  0  0  0  0  0
    8.2008    7.1307    3.6118 C   0  0  0  0  0  0  0  0  0  0  0  0
   13.5974    7.2067    6.3807 C   0  0  2  0  0  0  0  0  0  0  0  0
   14.0429    5.8923    6.0897 O   0  0  0  0  0  0  0  0  0  0  0  0
    7.0386    5.2754    9.5311 C   0  0  1  0  0  0  0  0  0  0  0  0
    7.6889    5.7173   10.7338 O   0  0  0  0  0  0  0  0  0  0  0  0
    7.2756    6.1834    4.4483 C   0  0  2  0  0  0  0  0  0  0  0  0
    5.8573    6.4937    4.1769 N   0  0  0  0  0  0  0  0  0  0  0  0
   13.1671    7.3375    7.8930 C   0  0  1  0  0  0  0  0  0  0  0  0
   14.3029    6.9902    8.7989 N   0  0  0  0  0  0  0  0  0  0  0  0
    5.9467    4.2205    9.8292 C   0  0  2  0  0  0  0  0  0  0  0  0
    6.5427    3.0854   10.4810 O   0  0  0  0  0  0  0  0  0  0  0  0
    7.5434    6.3453    5.9665 C   0  0  2  0  0  0  0  0  0  0  0  0
   12.6854    8.8045    8.1603 C   0  0  1  0  0  0  0  0  0  0  0  0
   13.7578    9.7113    7.9180 O   0  0  0  0  0  0  0  0  0  0  0  0
    5.2536    3.7824    8.4830 C   0  0  2  0  0  0  0  0  0  0  0  0
    4.6640    4.9591    7.8153 O   0  0  0  0  0  0  0  0  0  0  0  0
    9.0312    6.0309    6.2620 C   0  0  2  0  0  0  0  0  0  0  0  0
    9.2576    6.2037    7.6571 O   0  0  0  0  0  0  0  0  0  0  0  0
   11.5048    9.1266    7.1908 C   0  0  0  0  0  0  0  0  0  0  0  0
   11.9140    8.9302    5.7793 O   0  0  0  0  0  0  0  0  0  0  0  0
    4.1289    2.7414    8.7225 C   0  0  2  0  0  0  0  0  0  0  0  0
    3.5073    2.4204    7.4808 O   0  0  0  0  0  0  0  0  0  0  0  0
    9.9703    6.9862    5.4892 C   0  0  1  0  0  0  0  0  0  0  0  0
   11.3265    6.6093    5.8252 O   0  0  0  0  0  0  0  0  0  0  0  0
    3.0592    3.2793    9.6585 C   0  0  0  0  0  0  0  0  0  0  0  0
   12.2288    9.0035    9.6003 C   0  0  0  0  0  0  0  0  0  0  0  0
   13.8826    5.8665    9.6577 C   0  0  0  0  0  0  0  0  0  0  0  0
  1  2  1  6  0  0  0
  1  6  1  0  0  0  0
  1 23  1  0  0  0  0
  3  4  1  6  0  0  0
  3  8  1  0  0  0  0
  3 30  1  0  0  0  0
  5  9  1  0  0  0  0
  5 27  1  0  0  0  0
  5 31  1  1  0  0  0
  6  7  1  6  0  0  0
  6 11  1  0  0  0  0
  8 13  1  0  0  0  0
  9 10  1  1  0  0  0
  9 15  1  0  0  0  0
 11 12  1  1  0  0  0
 11 17  1  0  0  0  0
 13 14  1  1  0  0  0
 13 19  1  0  0  0  0
 15 16  1  1  0  0  0
 15 20  1  0  0  0  0
 16 34  1  0  0  0  0
 17 18  1  6  0  0  0
 17 22  1  0  0  0  0
 19  2  1  1  0  0  0
 19 24  1  0  0  0  0
 20 21  1  6  0  0  0
 20 26  1  0  0  0  0
 20 33  1  0  0  0  0
 22 23  1  1  0  0  0
 22 28  1  0  0  0  0
 24 25  1  1  0  0  0
 24 30  1  0  0  0  0
 26 27  1  0  0  0  0
 28 29  1  6  0  0  0
 28 32  1  0  0  0  0
 30 31  1  6  0  0  0
M  END
>  <CHROM.1>
-75.24124832,-116.18722948,-121.30405158,177.87631268,78.46088855,159.47696823
9.00780411,6.26647439,7.31870313,2.88015818,0.38393139,1.82720684

>  <Name>
ligand

>  <RI>
0

>  <Rbt.Current_Directory>
/home/itssahil/PROJECTS/Mol_Feturizer/New_Systems/rnas/3TD1

>  <Rbt.Executable>
rbdock ($Id: //depot/dev/client3/rdock/2013.1/src/exe/rbdock.cxx#4 $)

>  <Rbt.Library>
libRbt.so (2013.1, Build901 2013/11/27)

>  <Rbt.Parameter_File>
/export/apps/rDock/src/rDock_2013.1_src/data/scripts/dock_solv.prm

>  <Rbt.Receptor>
prm/pocket_docking_2.prm

>  <SCORE>
-8.91193

>  <SCORE.INTER>
-8.70738

>  <SCORE.INTER.CONST>
1

>  <SCORE.INTER.POLAR>
0

>  <SCORE.INTER.ROT>
6

>  <SCORE.INTER.SOLV>
17.7607

>  <SCORE.INTER.VDW>
-19.3252

>  <SCORE.INTER.norm>
-0.2561

>  <SCORE.INTRA>
-0.752553

>  <SCORE.INTRA.DIHEDRAL>
-6.67781

>  <SCORE.INTRA.DIHEDRAL.0>
19.5869

>  <SCORE.INTRA.POLAR>
0

>  <SCORE.INTRA.POLAR.0>
0

>  <SCORE.INTRA.REPUL>
0

>  <SCORE.INTRA.REPUL.0>
0

>  <SCORE.INTRA.SOLV>
1.6604

>  <SCORE.INTRA.SOLV.lig_0>
-70.101

>  <SCORE.INTRA.VDW>
1.75615

>  <SCORE.INTRA.VDW.0>
-3.39718

>  <SCORE.INTRA.norm>
-0.0221339

>  <SCORE.RESTR>
0.548008

>  <SCORE.RESTR.CAVITY>
0.548008

>  <SCORE.RESTR.norm>
0.0161179

>  <SCORE.SYSTEM>
0

>  <SCORE.SYSTEM.CONST>
0

>  <SCORE.SYSTEM.DIHEDRAL>
0

>  <SCORE.SYSTEM.SOLV>
0

>  <SCORE.SYSTEM.norm>
0

>  <SCORE.heavy>
34

>  <SCORE.norm>
-0.262116

>  <RMSD>
2.498

$$$$
ligand
 OpenBabel11021811483D
libRbt.so/2013.1/901 2013/11/27
 34 36  0  0  0  0  0  0  0  0999 V2000
    6.3250    5.9834    8.7702 C   0  0  2  0  0  0  0  0  0  0  0  0
    6.6814    5.4112    7.5022 O   0  0  0  0  0  0  0  0  0  0  0  0
    7.9577    6.7733    3.6580 C   0  0  2  0  0  0  0  0  0  0  0  0
    8.3022    7.6448    2.5400 N   0  0  0  0  0  0  0  0  0  0  0  0
   11.0873    7.6988    3.8108 C   0  0  2  0  0  0  0  0  0  0  0  0
    6.4170    4.8521    9.8557 C   0  0  2  0  0  0  0  0  0  0  0  0
    7.7824    4.3118    9.9450 N   0  0  0  0  0  0  0  0  0  0  0  0
    6.4956    7.1247    4.0919 C   0  0  0  0  0  0  0  0  0  0  0  0
   12.2045    6.9382    3.0103 C   0  0  2  0  0  0  0  0  0  0  0  0
   11.6100    6.0840    2.0472 O   0  0  0  0  0  0  0  0  0  0  0  0
    5.4266    3.7218    9.5009 C   0  0  1  0  0  0  0  0  0  0  0  0
    5.4999    2.6865   10.4946 O   0  0  0  0  0  0  0  0  0  0  0  0
    6.1165    6.1736    5.2771 C   0  0  2  0  0  0  0  0  0  0  0  0
    4.7430    6.4623    5.7370 N   0  0  0  0  0  0  0  0  0  0  0  0
   13.0856    6.1169    4.0294 C   0  0  1  0  0  0  0  0  0  0  0  0
   14.1566    5.3604    3.3139 N   0  0  0  0  0  0  0  0  0  0  0  0
    4.0024    4.3184    9.4046 C   0  0  2  0  0  0  0  0  0  0  0  0
    3.0694    3.2783    9.0638 O   0  0  0  0  0  0  0  0  0  0  0  0
    7.0929    6.3541    6.4674 C   0  0  2  0  0  0  0  0  0  0  0  0
   13.7174    7.1055    5.0682 C   0  0  1  0  0  0  0  0  0  0  0  0
   14.5604    8.0347    4.3922 O   0  0  0  0  0  0  0  0  0  0  0  0
    3.9793    5.4583    8.3161 C   0  0  2  0  0  0  0  0  0  0  0  0
    4.9548    6.5085    8.6677 O   0  0  0  0  0  0  0  0  0  0  0  0
    8.5390    6.0626    5.9943 C   0  0  2  0  0  0  0  0  0  0  0  0
    9.4187    6.2523    7.0977 O   0  0  0  0  0  0  0  0  0  0  0  0
   12.5662    7.8773    5.7868 C   0  0  0  0  0  0  0  0  0  0  0  0
   11.7122    8.5847    4.8026 O   0  0  0  0  0  0  0  0  0  0  0  0
    2.5787    6.1132    8.1928 C   0  0  2  0  0  0  0  0  0  0  0  0
    2.6077    7.1059    7.1705 O   0  0  0  0  0  0  0  0  0  0  0  0
    8.9613    7.0226    4.8578 C   0  0  1  0  0  0  0  0  0  0  0  0
   10.3136    6.6672    4.4848 O   0  0  0  0  0  0  0  0  0  0  0  0
    2.1597    6.7859    9.4895 C   0  0  0  0  0  0  0  0  0  0  0  0
   14.5671    6.3805    6.1046 C   0  0  0  0  0  0  0  0  0  0  0  0
   13.6189    4.0377    2.9419 C   0  0  0  0  0  0  0  0  0  0  0  0
  1  2  1  6  0  0  0
  1  6  1  0  0  0  0
  1 23  1  0  0  0  0
  3  4  1  6  0  0  0
  3  8  1  0  0  0  0
  3 30  1  0  0  0  0
  5  9  1  0  0  0  0
  5 27  1  0  0  0  0
  5 31  1  1  0  0  0
  6  7  1  6  0  0  0
  6 11  1  0  0  0  0
  8 13  1  0  0  0  0
  9 10  1  6  0  0  0
  9 15  1  0  0  0  0
 11 12  1  1  0  0  0
 11 17  1  0  0  0  0
 13 14  1  1  0  0  0
 13 19  1  0  0  0  0
 15 16  1  6  0  0  0
 15 20  1  0  0  0  0
 16 34  1  0  0  0  0
 17 18  1  6  0  0  0
 17 22  1  0  0  0  0
 19  2  1  1  0  0  0
 19 24  1  0  0  0  0
 20 21  1  6  0  0  0
 20 26  1  0  0  0  0
 20 33  1  0  0  0  0
 22 23  1  1  0  0  0
 22 28  1  0  0  0  0
 24 25  1  1  0  0  0
 24 30  1  0  0  0  0
 26 27  1  0  0  0  0
 28 29  1  6  0  0  0
 28 32  1  0  0  0  0
 30 31  1  6  0  0  0
M  END
>  <CHROM.1>
-160.08906151,-120.80507925,-89.30107402,-178.31790194,85.84105844,-157.05894791
8.30733189,6.09260981,6.24240666,-2.63252203,0.12049088,-1.05439521

>  <Name>
ligand

>  <RI>
0

>  <Rbt.Current_Directory>
/home/itssahil/PROJECTS/Mol_Feturizer/New_Systems/rnas/3TD1

>  <Rbt.Executable>
rbdock ($Id: //depot/dev/client3/rdock/2013.1/src/exe/rbdock.cxx#4 $)

>  <Rbt.Library>
libRbt.so (2013.1, Build901 2013/11/27)

>  <Rbt.Parameter_File>
/export/apps/rDock/src/rDock_2013.1_src/data/scripts/dock_solv.prm

>  <Rbt.Receptor>
prm/pocket_docking_5.prm

>  <SCORE>
-13.3048

>  <SCORE.INTER>
-12.242

>  <SCORE.INTER.CONST>
1

>  <SCORE.INTER.POLAR>
0

>  <SCORE.INTER.ROT>
6

>  <SCORE.INTER.SOLV>
14.9777

>  <SCORE.INTER.VDW>
-20.7539

>  <SCORE.INTER.norm>
-0.360059

>  <SCORE.INTRA>
-1.0628

>  <SCORE.INTRA.DIHEDRAL>
-4.8732

>  <SCORE.INTRA.DIHEDRAL.0>
19.5869

>  <SCORE.INTRA.POLAR>
0

>  <SCORE.INTRA.POLAR.0>
0

>  <SCORE.INTRA.REPUL>
0

>  <SCORE.INTRA.REPUL.0>
0

>  <SCORE.INTRA.SOLV>
1.99259

>  <SCORE.INTRA.SOLV.lig_0>
-70.101

>  <SCORE.INTRA.VDW>
0.377502

>  <SCORE.INTRA.VDW.0>
-3.39718

>  <SCORE.INTRA.norm>
-0.0312589

>  <SCORE.RESTR>
0

>  <SCORE.RESTR.CAVITY>
0

>  <SCORE.RESTR.norm>
0

>  <SCORE.SYSTEM>
0

>  <SCORE.SYSTEM.CONST>
0

>  <SCORE.SYSTEM.DIHEDRAL>
0

>  <SCORE.SYSTEM.SOLV>
0

>  <SCORE.SYSTEM.norm>
0

>  <SCORE.heavy>
34

>  <SCORE.norm>
-0.391318

>  <RMSD>
2.564

$$$$
ligand
 OpenBabel11021811483D
libRbt.so/2013.1/901 2013/11/27
 34 36  0  0  0  0  0  0  0  0999 V2000
    5.2496    5.8201    6.3700 C   0  0  2  0  0  0  0  0  0  0  0  0
    5.8274    7.0764    6.7579 O   0  0  0  0  0  0  0  0  0  0  0  0
    9.6179    6.6127    4.8400 C   0  0  2  0  0  0  0  0  0  0  0  0
   10.8258    6.8913    4.0709 N   0  0  0  0  0  0  0  0  0  0  0  0
   11.2245    8.2561    7.8417 C   0  0  2  0  0  0  0  0  0  0  0  0
    3.7591    5.7988    6.8644 C   0  0  2  0  0  0  0  0  0  0  0  0
    2.9815    6.8882    6.2537 N   0  0  0  0  0  0  0  0  0  0  0  0
    8.3931    6.9583    3.9288 C   0  0  0  0  0  0  0  0  0  0  0  0
   12.7174    8.4526    7.3946 C   0  0  2  0  0  0  0  0  0  0  0  0
   12.7656    8.8292    6.0284 O   0  0  0  0  0  0  0  0  0  0  0  0
    3.7290    5.9298    8.4027 C   0  0  1  0  0  0  0  0  0  0  0  0
    2.3680    5.9030    8.8627 O   0  0  0  0  0  0  0  0  0  0  0  0
    7.0958    6.6376    4.7454 C   0  0  2  0  0  0  0  0  0  0  0  0
    5.8998    6.9503    3.9371 N   0  0  0  0  0  0  0  0  0  0  0  0
   13.4993    7.1041    7.6387 C   0  0  1  0  0  0  0  0  0  0  0  0
   14.9253    7.2342    7.2133 N   0  0  0  0  0  0  0  0  0  0  0  0
    4.5602    4.7790    9.0177 C   0  0  2  0  0  0  0  0  0  0  0  0
    4.5504    4.8941   10.4513 O   0  0  0  0  0  0  0  0  0  0  0  0
    7.0464    7.4642    6.0558 C   0  0  2  0  0  0  0  0  0  0  0  0
   13.4154    6.7349    9.1593 C   0  0  1  0  0  0  0  0  0  0  0  0
   14.0326    7.7591    9.9346 O   0  0  0  0  0  0  0  0  0  0  0  0
    6.0368    4.8420    8.4695 C   0  0  2  0  0  0  0  0  0  0  0  0
    6.0307    4.7429    6.9970 O   0  0  0  0  0  0  0  0  0  0  0  0
    8.3014    7.1509    6.9083 C   0  0  2  0  0  0  0  0  0  0  0  0
    8.2435    7.9339    8.0961 O   0  0  0  0  0  0  0  0  0  0  0  0
   11.9117    6.6150    9.5615 C   0  0  0  0  0  0  0  0  0  0  0  0
   11.1840    7.8709    9.2591 O   0  0  0  0  0  0  0  0  0  0  0  0
    6.9136    3.6935    9.0335 C   0  0  2  0  0  0  0  0  0  0  0  0
    6.9644    3.7894   10.4546 O   0  0  0  0  0  0  0  0  0  0  0  0
    9.5994    7.5072    6.1470 C   0  0  1  0  0  0  0  0  0  0  0  0
   10.7057    7.1742    7.0186 O   0  0  0  0  0  0  0  0  0  0  0  0
    8.3372    3.7663    8.5063 C   0  0  0  0  0  0  0  0  0  0  0  0
   14.1304    5.4259    9.4707 C   0  0  0  0  0  0  0  0  0  0  0  0
   15.0877    6.5406    5.9212 C   0  0  0  0  0  0  0  0  0  0  0  0
  1  2  1  1  0  0  0
  1  6  1  0  0  0  0
  1 23  1  0  0  0  0
  3  4  1  6  0  0  0
  3  8  1  0  0  0  0
  3 30  1  0  0  0  0
  5  9  1  0  0  0  0
  5 27  1  0  0  0  0
  5 31  1  6  0  0  0
  6  7  1  6  0  0  0
  6 11  1  0  0  0  0
  8 13  1  0  0  0  0
  9 10  1  6  0  0  0
  9 15  1  0  0  0  0
 11 12  1  1  0  0  0
 11 17  1  0  0  0  0
 13 14  1  6  0  0  0
 13 19  1  0  0  0  0
 15 16  1  1  0  0  0
 15 20  1  0  0  0  0
 16 34  1  0  0  0  0
 17 18  1  1  0  0  0
 17 22  1  0  0  0  0
 19  2  1  1  0  0  0
 19 24  1  0  0  0  0
 20 21  1  1  0  0  0
 20 26  1  0  0  0  0
 20 33  1  0  0  0  0
 22 23  1  6  0  0  0
 22 28  1  0  0  0  0
 24 25  1  1  0  0  0
 24 30  1  0  0  0  0
 26 27  1  0  0  0  0
 28 29  1  1  0  0  0
 28 32  1  0  0  0  0
 30 31  1  1  0  0  0
M  END
>  <CHROM.1>
-161.90064061,19.58207584,-103.65758485,-60.17957401,149.85072176,-118.09069490
8.77433710,6.46879403,7.44520827,3.06771829,0.16947161,1.96126265

>  <Name>
ligand

>  <RI>
0

>  <Rbt.Current_Directory>
/home/itssahil/PROJECTS/Mol_Feturizer/New_Systems/rnas/3TD1

>  <Rbt.Executable>
rbdock ($Id: //depot/dev/client3/rdock/2013.1/src/exe/rbdock.cxx#4 $)

>  <Rbt.Library>
libRbt.so (2013.1, Build901 2013/11/27)

>  <Rbt.Parameter_File>
/export/apps/rDock/src/rDock_2013.1_src/data/scripts/dock_solv.prm

>  <Rbt.Receptor>
prm/pocket_docking_2.prm

>  <SCORE>
2.21822

>  <SCORE.INTER>
-1.10804

>  <SCORE.INTER.CONST>
1

>  <SCORE.INTER.POLAR>
0

>  <SCORE.INTER.ROT>
6

>  <SCORE.INTER.SOLV>
19.741

>  <SCORE.INTER.VDW>
-14.919

>  <SCORE.INTER.norm>
-0.0325894

>  <SCORE.INTRA>
2.68205

>  <SCORE.INTRA.DIHEDRAL>
-0.824796

>  <SCORE.INTRA.DIHEDRAL.0>
19.5869

>  <SCORE.INTRA.POLAR>
0

>  <SCORE.INTRA.POLAR.0>
0

>  <SCORE.INTRA.REPUL>
0

>  <SCORE.INTRA.REPUL.0>
0

>  <SCORE.INTRA.SOLV>
0.120505

>  <SCORE.INTRA.SOLV.lig_0>
-70.101

>  <SCORE.INTRA.VDW>
3.03419

>  <SCORE.INTRA.VDW.0>
-3.39718

>  <SCORE.INTRA.norm>
0.0788838

>  <SCORE.RESTR>
0.644214

>  <SCORE.RESTR.CAVITY>
0.644214

>  <SCORE.RESTR.norm>
0.0189475

>  <SCORE.SYSTEM>
0

>  <SCORE.SYSTEM.CONST>
0

>  <SCORE.SYSTEM.DIHEDRAL>
0

>  <SCORE.SYSTEM.SOLV>
0

>  <SCORE.SYSTEM.norm>
0

>  <SCORE.heavy>
34

>  <SCORE.norm>
0.0652418

>  <RMSD>
2.757

$$$$
ligand
 OpenBabel11021811483D
libRbt.so/2013.1/901 2013/11/27
 34 36  0  0  0  0  0  0  0  0999 V2000
    5.8630    5.0672    9.7801 C   0  0  2  0  0  0  0  0  0  0  0  0
    6.4850    5.1197    8.4867 O   0  0  0  0  0  0  0  0  0  0  0  0
    9.7444    7.5575    7.1847 C   0  0  2  0  0  0  0  0  0  0  0  0
   10.5342    8.7147    6.7781 N   0  0  0  0  0  0  0  0  0  0  0  0
   10.4476    8.6447   10.6851 C   0  0  2  0  0  0  0  0  0  0  0  0
    5.3511    3.6008   10.0127 C   0  0  2  0  0  0  0  0  0  0  0  0
    6.4635    2.6387    9.9809 N   0  0  0  0  0  0  0  0  0  0  0  0
    8.4754    7.5123    6.2698 C   0  0  0  0  0  0  0  0  0  0  0  0
   11.9443    8.8479   11.1161 C   0  0  2  0  0  0  0  0  0  0  0  0
   12.6807    9.4169   10.0462 O   0  0  0  0  0  0  0  0  0  0  0  0
    4.3152    3.2427    8.9249 C   0  0  1  0  0  0  0  0  0  0  0  0
    3.8365    1.9045    9.1364 O   0  0  0  0  0  0  0  0  0  0  0  0
    7.6385    6.2570    6.6902 C   0  0  2  0  0  0  0  0  0  0  0  0
    6.4188    6.1627    5.8626 N   0  0  0  0  0  0  0  0  0  0  0  0
   12.5432    7.4500   11.5361 C   0  0  1  0  0  0  0  0  0  0  0  0
   13.9745    7.5870   11.9410 N   0  0  0  0  0  0  0  0  0  0  0  0
    3.1629    4.2738    8.9747 C   0  0  2  0  0  0  0  0  0  0  0  0
    2.1944    3.9592    7.9590 O   0  0  0  0  0  0  0  0  0  0  0  0
    7.2276    6.3385    8.1826 C   0  0  2  0  0  0  0  0  0  0  0  0
   11.6956    6.8673   12.7183 C   0  0  1  0  0  0  0  0  0  0  0  0
   11.7722    7.7442   13.8391 O   0  0  0  0  0  0  0  0  0  0  0  0
    3.7411    5.7237    8.7552 C   0  0  2  0  0  0  0  0  0  0  0  0
    4.7473    6.0256    9.7918 O   0  0  0  0  0  0  0  0  0  0  0  0
    8.4995    6.4469    9.0603 C   0  0  2  0  0  0  0  0  0  0  0  0
    8.0974    6.5389   10.4231 O   0  0  0  0  0  0  0  0  0  0  0  0
   10.2096    6.7466   12.2549 C   0  0  0  0  0  0  0  0  0  0  0  0
    9.6914    8.0595   11.8008 O   0  0  0  0  0  0  0  0  0  0  0  0
    2.6317    6.8059    8.8204 C   0  0  2  0  0  0  0  0  0  0  0  0
    1.8169    6.5812    9.9679 O   0  0  0  0  0  0  0  0  0  0  0  0
    9.3210    7.7076    8.7036 C   0  0  1  0  0  0  0  0  0  0  0  0
   10.4822    7.7139    9.5672 O   0  0  0  0  0  0  0  0  0  0  0  0
    1.7368    6.7639    7.5928 C   0  0  0  0  0  0  0  0  0  0  0  0
   12.2006    5.5011   13.1656 C   0  0  0  0  0  0  0  0  0  0  0  0
   14.8093    6.9247   10.9204 C   0  0  0  0  0  0  0  0  0  0  0  0
  1  2  1  6  0  0  0
  1  6  1  0  0  0  0
  1 23  1  0  0  0  0
  3  4  1  6  0  0  0
  3  8  1  0  0  0  0
  3 30  1  0  0  0  0
  5  9  1  0  0  0  0
  5 27  1  0  0  0  0
  5 31  1  6  0  0  0
  6  7  1  6  0  0  0
  6 11  1  0  0  0  0
  8 13  1  0  0  0  0
  9 10  1  6  0  0  0
  9 15  1  0  0  0  0
 11 12  1  1  0  0  0
 11 17  1  0  0  0  0
 13 14  1  6  0  0  0
 13 19  1  0  0  0  0
 15 16  1  1  0  0  0
 15 20  1  0  0  0  0
 16 34  1  0  0  0  0
 17 18  1  6  0  0  0
 17 22  1  0  0  0  0
 19  2  1  1  0  0  0
 19 24  1  0  0  0  0
 20 21  1  1  0  0  0
 20 26  1  0  0  0  0
 20 33  1  0  0  0  0
 22 23  1  1  0  0  0
 22 28  1  0  0  0  0
 24 25  1  1  0  0  0
 24 30  1  0  0  0  0
 26 27  1  0  0  0  0
 28 29  1  1  0  0  0
 28 32  1  0  0  0  0
 30 31  1  1  0  0  0
M  END
>  <CHROM.1>
-169.77375134,-172.40634849,-110.93054368,47.48463684,140.41043023,-159.57553810
7.94459803,6.36418935,9.64144185,3.03954407,-0.40858532,-1.06517317

>  <Name>
ligand

>  <RI>
0

>  <Rbt.Current_Directory>
/home/itssahil/PROJECTS/Mol_Feturizer/New_Systems/rnas/3TD1

>  <Rbt.Executable>
rbdock ($Id: //depot/dev/client3/rdock/2013.1/src/exe/rbdock.cxx#4 $)

>  <Rbt.Library>
libRbt.so (2013.1, Build901 2013/11/27)

>  <Rbt.Parameter_File>
/export/apps/rDock/src/rDock_2013.1_src/data/scripts/dock_solv.prm

>  <Rbt.Receptor>
prm/pocket_docking_8.prm

>  <SCORE>
-12.5336

>  <SCORE.INTER>
-7.69895

>  <SCORE.INTER.CONST>
1

>  <SCORE.INTER.POLAR>
0

>  <SCORE.INTER.ROT>
6

>  <SCORE.INTER.SOLV>
18.4323

>  <SCORE.INTER.VDW>
-18.8767

>  <SCORE.INTER.norm>
-0.22644

>  <SCORE.INTRA>
-4.83465

>  <SCORE.INTRA.DIHEDRAL>
-9.93258

>  <SCORE.INTRA.DIHEDRAL.0>
19.5869

>  <SCORE.INTRA.POLAR>
0

>  <SCORE.INTRA.POLAR.0>
0

>  <SCORE.INTRA.REPUL>
0

>  <SCORE.INTRA.REPUL.0>
0

>  <SCORE.INTRA.SOLV>
-2.51514

>  <SCORE.INTRA.SOLV.lig_0>
-70.101

>  <SCORE.INTRA.VDW>
1.38921

>  <SCORE.INTRA.VDW.0>
-3.39718

>  <SCORE.INTRA.norm>
-0.142195

>  <SCORE.RESTR>
0

>  <SCORE.RESTR.CAVITY>
0

>  <SCORE.RESTR.norm>
0

>  <SCORE.SYSTEM>
0

>  <SCORE.SYSTEM.CONST>
0

>  <SCORE.SYSTEM.DIHEDRAL>
0

>  <SCORE.SYSTEM.SOLV>
0

>  <SCORE.SYSTEM.norm>
0

>  <SCORE.heavy>
34

>  <SCORE.norm>
-0.368635

>  <RMSD>
2.800

$$$$
ligand
 OpenBabel11021811483D
libRbt.so/2013.1/901 2013/11/27
 34 36  0  0  0  0  0  0  0  0999 V2000
    5.4028    5.8245    6.3694 C   0  0  2  0  0  0  0  0  0  0  0  0
    5.8765    7.1709    6.5290 O   0  0  0  0  0  0  0  0  0  0  0  0
    9.5335    6.6578    4.3784 C   0  0  2  0  0  0  0  0  0  0  0  0
   10.6834    6.9136    3.5180 N   0  0  0  0  0  0  0  0  0  0  0  0
   11.2871    8.4260    7.2373 C   0  0  2  0  0  0  0  0  0  0  0  0
    4.0060    5.7147    7.0789 C   0  0  2  0  0  0  0  0  0  0  0  0
    3.0305    6.6363    6.4763 N   0  0  0  0  0  0  0  0  0  0  0  0
    8.2461    6.9546    3.5392 C   0  0  0  0  0  0  0  0  0  0  0  0
   12.8397    8.4138    7.0003 C   0  0  2  0  0  0  0  0  0  0  0  0
   13.1191    8.6292    5.6268 O   0  0  0  0  0  0  0  0  0  0  0  0
    4.1698    6.0314    8.5813 C   0  0  1  0  0  0  0  0  0  0  0  0
    2.8964    5.9250    9.2384 O   0  0  0  0  0  0  0  0  0  0  0  0
    7.0106    6.6579    4.4549 C   0  0  2  0  0  0  0  0  0  0  0  0
    5.7592    6.9264    3.7175 N   0  0  0  0  0  0  0  0  0  0  0  0
   13.4138    7.0262    7.4845 C   0  0  1  0  0  0  0  0  0  0  0  0
   14.8898    6.9579    7.2652 N   0  0  0  0  0  0  0  0  0  0  0  0
    5.2060    5.0551    9.1869 C   0  0  2  0  0  0  0  0  0  0  0  0
    5.3773    5.3452   10.5851 O   0  0  0  0  0  0  0  0  0  0  0  0
    7.0408    7.5387    5.7300 C   0  0  2  0  0  0  0  0  0  0  0  0
   13.0791    6.8391    9.0039 C   0  0  1  0  0  0  0  0  0  0  0  0
   13.7026    7.8726    9.7616 O   0  0  0  0  0  0  0  0  0  0  0  0
    6.5768    5.1980    8.4220 C   0  0  2  0  0  0  0  0  0  0  0  0
    6.3827    4.9173    6.9862 O   0  0  0  0  0  0  0  0  0  0  0  0
    8.3540    7.2720    6.5074 C   0  0  2  0  0  0  0  0  0  0  0  0
    8.3680    8.1040    7.6629 O   0  0  0  0  0  0  0  0  0  0  0  0
   11.5310    6.9230    9.1880 C   0  0  0  0  0  0  0  0  0  0  0  0
   11.0073    8.2069    8.6630 O   0  0  0  0  0  0  0  0  0  0  0  0
    7.6507    4.2223    8.9704 C   0  0  2  0  0  0  0  0  0  0  0  0
    7.1329    2.8945    8.9632 O   0  0  0  0  0  0  0  0  0  0  0  0
    9.5936    7.6065    5.6454 C   0  0  1  0  0  0  0  0  0  0  0  0
   10.7599    7.3197    6.4527 O   0  0  0  0  0  0  0  0  0  0  0  0
    8.0422    4.5665   10.3980 C   0  0  0  0  0  0  0  0  0  0  0  0
   13.5828    5.5050    9.5408 C   0  0  0  0  0  0  0  0  0  0  0  0
   15.1375    6.2190    6.0124 C   0  0  0  0  0  0  0  0  0  0  0  0
  1  2  1  1  0  0  0
  1  6  1  0  0  0  0
  1 23  1  0  0  0  0
  3  4  1  6  0  0  0
  3  8  1  0  0  0  0
  3 30  1  0  0  0  0
  5  9  1  0  0  0  0
  5 27  1  0  0  0  0
  5 31  1  6  0  0  0
  6  7  1  6  0  0  0
  6 11  1  0  0  0  0
  8 13  1  0  0  0  0
  9 10  1  6  0  0  0
  9 15  1  0  0  0  0
 11 12  1  1  0  0  0
 11 17  1  0  0  0  0
 13 14  1  6  0  0  0
 13 19  1  0  0  0  0
 15 16  1  1  0  0  0
 15 20  1  0  0  0  0
 16 34  1  0  0  0  0
 17 18  1  1  0  0  0
 17 22  1  0  0  0  0
 19  2  1  1  0  0  0
 19 24  1  0  0  0  0
 20 21  1  1  0  0  0
 20 26  1  0  0  0  0
 20 33  1  0  0  0  0
 22 23  1  6  0  0  0
 22 28  1  0  0  0  0
 24 25  1  1  0  0  0
 24 30  1  0  0  0  0
 26 27  1  0  0  0  0
 28 29  1  1  0  0  0
 28 32  1  0  0  0  0
 30 31  1  1  0  0  0
M  END
>  <CHROM.1>
-169.05734003,28.07004600,-98.40513976,53.33958048,152.38385071,-133.48962635
8.85639093,6.53882881,7.28416266,3.04573438,0.16196037,1.91568993

>  <Name>
ligand

>  <RI>
0

>  <Rbt.Current_Directory>
/home/itssahil/PROJECTS/Mol_Feturizer/New_Systems/rnas/3TD1

>  <Rbt.Executable>
rbdock ($Id: //depot/dev/client3/rdock/2013.1/src/exe/rbdock.cxx#4 $)

>  <Rbt.Library>
libRbt.so (2013.1, Build901 2013/11/27)

>  <Rbt.Parameter_File>
/export/apps/rDock/src/rDock_2013.1_src/data/scripts/dock_solv.prm

>  <Rbt.Receptor>
prm/pocket_docking_2.prm

>  <SCORE>
-1.00741

>  <SCORE.INTER>
-2.29786

>  <SCORE.INTER.CONST>
1

>  <SCORE.INTER.POLAR>
0

>  <SCORE.INTER.ROT>
6

>  <SCORE.INTER.SOLV>
19.2811

>  <SCORE.INTER.VDW>
-15.5589

>  <SCORE.INTER.norm>
-0.0675841

>  <SCORE.INTRA>
0.743586

>  <SCORE.INTRA.DIHEDRAL>
-4.5442

>  <SCORE.INTRA.DIHEDRAL.0>
19.5869

>  <SCORE.INTRA.POLAR>
0

>  <SCORE.INTRA.POLAR.0>
0

>  <SCORE.INTRA.REPUL>
0

>  <SCORE.INTRA.REPUL.0>
0

>  <SCORE.INTRA.SOLV>
-0.552373

>  <SCORE.INTRA.SOLV.lig_0>
-70.101

>  <SCORE.INTRA.VDW>
3.29188

>  <SCORE.INTRA.VDW.0>
-3.39718

>  <SCORE.INTRA.norm>
0.0218702

>  <SCORE.RESTR>
0.54686

>  <SCORE.RESTR.CAVITY>
0.54686

>  <SCORE.RESTR.norm>
0.0160841

>  <SCORE.SYSTEM>
0

>  <SCORE.SYSTEM.CONST>
0

>  <SCORE.SYSTEM.DIHEDRAL>
0

>  <SCORE.SYSTEM.SOLV>
0

>  <SCORE.SYSTEM.norm>
0

>  <SCORE.heavy>
34

>  <SCORE.norm>
-0.0296298

>  <RMSD>
2.836

$$$$
ligand
 OpenBabel11021811483D
libRbt.so/2013.1/901 2013/11/27
 34 36  0  0  0  0  0  0  0  0999 V2000
    5.7347    5.7444    6.4817 C   0  0  2  0  0  0  0  0  0  0  0  0
    5.9327    7.1501    6.2643 O   0  0  0  0  0  0  0  0  0  0  0  0
    9.7108    6.6480    4.3314 C   0  0  2  0  0  0  0  0  0  0  0  0
   10.9070    6.9062    3.5374 N   0  0  0  0  0  0  0  0  0  0  0  0
   11.3056    8.4497    7.2539 C   0  0  2  0  0  0  0  0  0  0  0  0
    4.2677    5.5363    7.0025 C   0  0  2  0  0  0  0  0  0  0  0  0
    3.2825    6.0083    6.0171 N   0  0  0  0  0  0  0  0  0  0  0  0
    8.4723    6.9323    3.4176 C   0  0  0  0  0  0  0  0  0  0  0  0
   12.8529    8.5050    6.9894 C   0  0  2  0  0  0  0  0  0  0  0  0
   13.0981    8.7429    5.6131 O   0  0  0  0  0  0  0  0  0  0  0  0
    4.0855    6.2970    8.3338 C   0  0  1  0  0  0  0  0  0  0  0  0
    2.7472    6.1044    8.8203 O   0  0  0  0  0  0  0  0  0  0  0  0
    7.1877    6.6330    4.2620 C   0  0  2  0  0  0  0  0  0  0  0  0
    5.9795    6.8900    3.4522 N   0  0  0  0  0  0  0  0  0  0  0  0
   13.4935    7.1391    7.4514 C   0  0  1  0  0  0  0  0  0  0  0  0
   14.9669    7.1350    7.2054 N   0  0  0  0  0  0  0  0  0  0  0  0
    5.1380    5.7883    9.3472 C   0  0  2  0  0  0  0  0  0  0  0  0
    4.9874    6.4960   10.5901 O   0  0  0  0  0  0  0  0  0  0  0  0
    7.1391    7.5208    5.5318 C   0  0  2  0  0  0  0  0  0  0  0  0
   13.1944    6.9260    8.9748 C   0  0  1  0  0  0  0  0  0  0  0  0
   13.7875    7.9790    9.7302 O   0  0  0  0  0  0  0  0  0  0  0  0
    6.5848    6.0057    8.7605 C   0  0  2  0  0  0  0  0  0  0  0  0
    6.7189    5.2909    7.4763 O   0  0  0  0  0  0  0  0  0  0  0  0
    8.4067    7.2663    6.3852 C   0  0  2  0  0  0  0  0  0  0  0  0
    8.3491    8.1045    7.5348 O   0  0  0  0  0  0  0  0  0  0  0  0
   11.6478    6.9430    9.1869 C   0  0  0  0  0  0  0  0  0  0  0  0
   11.0611    8.2078    8.6825 O   0  0  0  0  0  0  0  0  0  0  0  0
    7.6846    5.4894    9.7248 C   0  0  2  0  0  0  0  0  0  0  0  0
    8.9666    5.7028    9.1399 O   0  0  0  0  0  0  0  0  0  0  0  0
    9.6921    7.6037    5.5943 C   0  0  1  0  0  0  0  0  0  0  0  0
   10.8114    7.3284    6.4693 O   0  0  0  0  0  0  0  0  0  0  0  0
    7.5347    4.0022    9.9990 C   0  0  0  0  0  0  0  0  0  0  0  0
   13.7634    5.6102    9.4911 C   0  0  0  0  0  0  0  0  0  0  0  0
   15.2327    6.3234    6.0023 C   0  0  0  0  0  0  0  0  0  0  0  0
  1  2  1  1  0  0  0
  1  6  1  0  0  0  0
  1 23  1  0  0  0  0
  3  4  1  6  0  0  0
  3  8  1  0  0  0  0
  3 30  1  0  0  0  0
  5  9  1  0  0  0  0
  5 27  1  0  0  0  0
  5 31  1  6  0  0  0
  6  7  1  6  0  0  0
  6 11  1  0  0  0  0
  8 13  1  0  0  0  0
  9 10  1  6  0  0  0
  9 15  1  0  0  0  0
 11 12  1  1  0  0  0
 11 17  1  0  0  0  0
 13 14  1  6  0  0  0
 13 19  1  0  0  0  0
 15 16  1  1  0  0  0
 15 20  1  0  0  0  0
 16 34  1  0  0  0  0
 17 18  1  1  0  0  0
 17 22  1  0  0  0  0
 19  2  1  1  0  0  0
 19 24  1  0  0  0  0
 20 21  1  1  0  0  0
 20 26  1  0  0  0  0
 20 33  1  0  0  0  0
 22 23  1  6  0  0  0
 22 28  1  0  0  0  0
 24 25  1  1  0  0  0
 24 30  1  0  0  0  0
 26 27  1  0  0  0  0
 28 29  1  6  0  0  0
 28 32  1  0  0  0  0
 30 31  1  1  0  0  0
M  END
>  <CHROM.1>
-168.27363891,49.32975578,-102.97815993,179.58747955,151.02166248,-128.17147683
8.97749265,6.75212233,7.24939229,3.09302985,0.14205302,1.76171710

>  <Name>
ligand

>  <RI>
0

>  <Rbt.Current_Directory>
/home/itssahil/PROJECTS/Mol_Feturizer/New_Systems/rnas/3TD1

>  <Rbt.Executable>
rbdock ($Id: //depot/dev/client3/rdock/2013.1/src/exe/rbdock.cxx#4 $)

>  <Rbt.Library>
libRbt.so (2013.1, Build901 2013/11/27)

>  <Rbt.Parameter_File>
/export/apps/rDock/src/rDock_2013.1_src/data/scripts/dock_solv.prm

>  <Rbt.Receptor>
prm/pocket_docking_2.prm

>  <SCORE>
-4.88873

>  <SCORE.INTER>
-2.53511

>  <SCORE.INTER.CONST>
1

>  <SCORE.INTER.POLAR>
0

>  <SCORE.INTER.ROT>
6

>  <SCORE.INTER.SOLV>
20.0864

>  <SCORE.INTER.VDW>
-15.9856

>  <SCORE.INTER.norm>
-0.0745622

>  <SCORE.INTRA>
-2.94359

>  <SCORE.INTRA.DIHEDRAL>
-7.12292

>  <SCORE.INTRA.DIHEDRAL.0>
19.5869

>  <SCORE.INTRA.POLAR>
0

>  <SCORE.INTRA.POLAR.0>
0

>  <SCORE.INTRA.REPUL>
0

>  <SCORE.INTRA.REPUL.0>
0

>  <SCORE.INTRA.SOLV>
0.00799415

>  <SCORE.INTRA.SOLV.lig_0>
-70.101

>  <SCORE.INTRA.VDW>
0.613872

>  <SCORE.INTRA.VDW.0>
-3.39718

>  <SCORE.INTRA.norm>
-0.0865763

>  <SCORE.RESTR>
0.589976

>  <SCORE.RESTR.CAVITY>
0.589976

>  <SCORE.RESTR.norm>
0.0173522

>  <SCORE.SYSTEM>
0

>  <SCORE.SYSTEM.CONST>
0

>  <SCORE.SYSTEM.DIHEDRAL>
0

>  <SCORE.SYSTEM.SOLV>
0

>  <SCORE.SYSTEM.norm>
0

>  <SCORE.heavy>
34

>  <SCORE.norm>
-0.143786

>  <RMSD>
2.895

$$$$
ligand
 OpenBabel11021811483D
libRbt.so/2013.1/901 2013/11/27
 34 36  0  0  0  0  0  0  0  0999 V2000
    7.2559    5.4127    9.0097 C   0  0  2  0  0  0  0  0  0  0  0  0
    7.2146    4.9993    7.6349 O   0  0  0  0  0  0  0  0  0  0  0  0
    7.9010    6.7355    3.7909 C   0  0  2  0  0  0  0  0  0  0  0  0
    8.0773    7.7133    2.7229 N   0  0  0  0  0  0  0  0  0  0  0  0
   11.0336    7.6731    3.5741 C   0  0  2  0  0  0  0  0  0  0  0  0
    7.6862    4.1750    9.8754 C   0  0  2  0  0  0  0  0  0  0  0  0
    9.0193    3.6912    9.4844 N   0  0  0  0  0  0  0  0  0  0  0  0
    6.5240    7.0315    4.4736 C   0  0  0  0  0  0  0  0  0  0  0  0
   12.2137    7.0231    2.7665 C   0  0  2  0  0  0  0  0  0  0  0  0
   11.6971    6.1300    1.7937 O   0  0  0  0  0  0  0  0  0  0  0  0
    6.6465    3.0460    9.7050 C   0  0  1  0  0  0  0  0  0  0  0  0
    7.0299    1.9128   10.5010 O   0  0  0  0  0  0  0  0  0  0  0  0
    6.3233    5.9676    5.6054 C   0  0  2  0  0  0  0  0  0  0  0  0
    5.0374    6.1993    6.2942 N   0  0  0  0  0  0  0  0  0  0  0  0
   13.1641    6.2720    3.7774 C   0  0  1  0  0  0  0  0  0  0  0  0
   14.2979    5.6212    3.0547 N   0  0  0  0  0  0  0  0  0  0  0  0
    5.2547    3.5838   10.1139 C   0  0  2  0  0  0  0  0  0  0  0  0
    4.2730    2.5455    9.9501 O   0  0  0  0  0  0  0  0  0  0  0  0
    7.4703    6.0408    6.6454 C   0  0  2  0  0  0  0  0  0  0  0  0
   13.7060    7.3014    4.8274 C   0  0  1  0  0  0  0  0  0  0  0  0
   14.4634    8.3089    4.1622 O   0  0  0  0  0  0  0  0  0  0  0  0
    4.8890    4.8335    9.2255 C   0  0  2  0  0  0  0  0  0  0  0  0
    5.9143    5.8826    9.3879 O   0  0  0  0  0  0  0  0  0  0  0  0
    8.8258    5.8081    5.9324 C   0  0  2  0  0  0  0  0  0  0  0  0
    9.8641    5.8980    6.9026 O   0  0  0  0  0  0  0  0  0  0  0  0
   12.4910    7.9604    5.5533 C   0  0  0  0  0  0  0  0  0  0  0  0
   11.5776    8.6000    4.5760 O   0  0  0  0  0  0  0  0  0  0  0  0
    3.5108    5.4332    9.6085 C   0  0  2  0  0  0  0  0  0  0  0  0
    2.5178    4.4121    9.5550 O   0  0  0  0  0  0  0  0  0  0  0  0
    9.0767    6.8764    4.8428 C   0  0  1  0  0  0  0  0  0  0  0  0
   10.3544    6.5697    4.2363 O   0  0  0  0  0  0  0  0  0  0  0  0
    3.0979    6.5408    8.6532 C   0  0  0  0  0  0  0  0  0  0  0  0
   14.6167    6.6434    5.8567 C   0  0  0  0  0  0  0  0  0  0  0  0
   13.8988    4.2420    2.7149 C   0  0  0  0  0  0  0  0  0  0  0  0
  1  2  1  6  0  0  0
  1  6  1  0  0  0  0
  1 23  1  0  0  0  0
  3  4  1  6  0  0  0
  3  8  1  0  0  0  0
  3 30  1  0  0  0  0
  5  9  1  0  0  0  0
  5 27  1  0  0  0  0
  5 31  1  1  0  0  0
  6  7  1  6  0  0  0
  6 11  1  0  0  0  0
  8 13  1  0  0  0  0
  9 10  1  6  0  0  0
  9 15  1  0  0  0  0
 11 12  1  1  0  0  0
 11 17  1  0  0  0  0
 13 14  1  1  0  0  0
 13 19  1  0  0  0  0
 15 16  1  6  0  0  0
 15 20  1  0  0  0  0
 16 34  1  0  0  0  0
 17 18  1  6  0  0  0
 17 22  1  0  0  0  0
 19  2  1  1  0  0  0
 19 24  1  0  0  0  0
 20 21  1  6  0  0  0
 20 26  1  0  0  0  0
 20 33  1  0  0  0  0
 22 23  1  1  0  0  0
 22 28  1  0  0  0  0
 24 25  1  1  0  0  0
 24 30  1  0  0  0  0
 26 27  1  0  0  0  0
 28 29  1  6  0  0  0
 28 32  1  0  0  0  0
 30 31  1  6  0  0  0
M  END
>  <CHROM.1>
-151.74258243,-129.71115868,-91.50240201,-54.37071394,86.81287569,-168.70118662
8.73662166,5.78407159,6.38864424,-2.49173078,0.14108377,-0.97525021

>  <Name>
ligand

>  <RI>
0

>  <Rbt.Current_Directory>
/home/itssahil/PROJECTS/Mol_Feturizer/New_Systems/rnas/3TD1

>  <Rbt.Executable>
rbdock ($Id: //depot/dev/client3/rdock/2013.1/src/exe/rbdock.cxx#4 $)

>  <Rbt.Library>
libRbt.so (2013.1, Build901 2013/11/27)

>  <Rbt.Parameter_File>
/export/apps/rDock/src/rDock_2013.1_src/data/scripts/dock_solv.prm

>  <Rbt.Receptor>
prm/pocket_docking_6.prm

>  <SCORE>
-13.3146

>  <SCORE.INTER>
-11.056

>  <SCORE.INTER.CONST>
1

>  <SCORE.INTER.POLAR>
0

>  <SCORE.INTER.ROT>
6

>  <SCORE.INTER.SOLV>
14.4755

>  <SCORE.INTER.VDW>
-19.7958

>  <SCORE.INTER.norm>
-0.325176

>  <SCORE.INTRA>
-2.25878

>  <SCORE.INTRA.DIHEDRAL>
-5.16506

>  <SCORE.INTRA.DIHEDRAL.0>
19.5869

>  <SCORE.INTRA.POLAR>
0

>  <SCORE.INTRA.POLAR.0>
0

>  <SCORE.INTRA.REPUL>
0

>  <SCORE.INTRA.REPUL.0>
0

>  <SCORE.INTRA.SOLV>
1.36495

>  <SCORE.INTRA.SOLV.lig_0>
-70.101

>  <SCORE.INTRA.VDW>
-0.358728

>  <SCORE.INTRA.VDW.0>
-3.39718

>  <SCORE.INTRA.norm>
-0.0664348

>  <SCORE.RESTR>
0.000182089

>  <SCORE.RESTR.CAVITY>
0.000182089

>  <SCORE.RESTR.norm>
5.35556e-06

>  <SCORE.SYSTEM>
0

>  <SCORE.SYSTEM.CONST>
0

>  <SCORE.SYSTEM.DIHEDRAL>
0

>  <SCORE.SYSTEM.SOLV>
0

>  <SCORE.SYSTEM.norm>
0

>  <SCORE.heavy>
34

>  <SCORE.norm>
-0.391606

>  <RMSD>
2.918

$$$$
ligand
 OpenBabel11021811483D
libRbt.so/2013.1/901 2013/11/27
 34 36  0  0  0  0  0  0  0  0999 V2000
    5.6021    6.2798    6.9377 C   0  0  2  0  0  0  0  0  0  0  0  0
    6.5479    5.4144    6.2904 O   0  0  0  0  0  0  0  0  0  0  0  0
    9.5156    5.8776    3.2506 C   0  0  2  0  0  0  0  0  0  0  0  0
   10.4927    6.4742    2.3465 N   0  0  0  0  0  0  0  0  0  0  0  0
   12.3905    5.7013    4.1599 C   0  0  2  0  0  0  0  0  0  0  0  0
    6.2162    6.7274    8.3121 C   0  0  2  0  0  0  0  0  0  0  0  0
    7.4760    7.4616    8.1168 N   0  0  0  0  0  0  0  0  0  0  0  0
    8.1673    6.6486    3.0569 C   0  0  0  0  0  0  0  0  0  0  0  0
   13.6144    4.8873    4.7137 C   0  0  2  0  0  0  0  0  0  0  0  0
   13.3935    3.4990    4.5276 O   0  0  0  0  0  0  0  0  0  0  0  0
    6.4644    5.4820    9.1906 C   0  0  1  0  0  0  0  0  0  0  0  0
    7.0192    5.8851   10.4534 O   0  0  0  0  0  0  0  0  0  0  0  0
    7.1114    5.9937    4.0104 C   0  0  2  0  0  0  0  0  0  0  0  0
    5.8130    6.6851    3.8773 N   0  0  0  0  0  0  0  0  0  0  0  0
   13.8000    5.2318    6.2422 C   0  0  1  0  0  0  0  0  0  0  0  0
   14.9458    4.4685    6.8219 N   0  0  0  0  0  0  0  0  0  0  0  0
    5.1274    4.7250    9.3721 C   0  0  2  0  0  0  0  0  0  0  0  0
    5.3451    3.5554   10.1803 O   0  0  0  0  0  0  0  0  0  0  0  0
    7.5733    6.0731    5.4879 C   0  0  2  0  0  0  0  0  0  0  0  0
   14.0406    6.7731    6.3912 C   0  0  1  0  0  0  0  0  0  0  0  0
   15.2316    7.1400    5.6998 O   0  0  0  0  0  0  0  0  0  0  0  0
    4.5529    4.3211    7.9609 C   0  0  2  0  0  0  0  0  0  0  0  0
    4.3533    5.5282    7.1356 O   0  0  0  0  0  0  0  0  0  0  0  0
    8.9396    5.3585    5.6380 C   0  0  2  0  0  0  0  0  0  0  0  0
    9.3519    5.4600    6.9971 O   0  0  0  0  0  0  0  0  0  0  0  0
   12.8254    7.5303    5.7689 C   0  0  0  0  0  0  0  0  0  0  0  0
   12.6301    7.1382    4.3524 O   0  0  0  0  0  0  0  0  0  0  0  0
    3.1960    3.5791    8.0786 C   0  0  2  0  0  0  0  0  0  0  0  0
    2.4017    4.1999    9.0861 O   0  0  0  0  0  0  0  0  0  0  0  0
   10.0177    6.0172    4.7463 C   0  0  1  0  0  0  0  0  0  0  0  0
   11.2453    5.2789    4.9519 O   0  0  0  0  0  0  0  0  0  0  0  0
    3.3873    2.1212    8.4629 C   0  0  0  0  0  0  0  0  0  0  0  0
   14.2059    7.1883    7.8479 C   0  0  0  0  0  0  0  0  0  0  0  0
   14.4017    3.3586    7.6276 C   0  0  0  0  0  0  0  0  0  0  0  0
  1  2  1  1  0  0  0
  1  6  1  0  0  0  0
  1 23  1  0  0  0  0
  3  4  1  6  0  0  0
  3  8  1  0  0  0  0
  3 30  1  0  0  0  0
  5  9  1  0  0  0  0
  5 27  1  0  0  0  0
  5 31  1  1  0  0  0
  6  7  1  6  0  0  0
  6 11  1  0  0  0  0
  8 13  1  0  0  0  0
  9 10  1  1  0  0  0
  9 15  1  0  0  0  0
 11 12  1  1  0  0  0
 11 17  1  0  0  0  0
 13 14  1  1  0  0  0
 13 19  1  0  0  0  0
 15 16  1  6  0  0  0
 15 20  1  0  0  0  0
 16 34  1  0  0  0  0
 17 18  1  1  0  0  0
 17 22  1  0  0  0  0
 19  2  1  1  0  0  0
 19 24  1  0  0  0  0
 20 21  1  6  0  0  0
 20 26  1  0  0  0  0
 20 33  1  0  0  0  0
 22 23  1  6  0  0  0
 22 28  1  0  0  0  0
 24 25  1  1  0  0  0
 24 30  1  0  0  0  0
 26 27  1  0  0  0  0
 28 29  1  1  0  0  0
 28 32  1  0  0  0  0
 30 31  1  6  0  0  0
M  END
>  <CHROM.1>
-86.13825859,-99.12698065,-103.69548445,40.45195494,61.68204049,172.31816113
9.04444913,5.51121376,6.45070443,2.82023254,0.03007361,1.86323655

>  <Name>
ligand

>  <RI>
0

>  <Rbt.Current_Directory>
/home/itssahil/PROJECTS/Mol_Feturizer/New_Systems/rnas/3TD1

>  <Rbt.Executable>
rbdock ($Id: //depot/dev/client3/rdock/2013.1/src/exe/rbdock.cxx#4 $)

>  <Rbt.Library>
libRbt.so (2013.1, Build901 2013/11/27)

>  <Rbt.Parameter_File>
/export/apps/rDock/src/rDock_2013.1_src/data/scripts/dock_solv.prm

>  <Rbt.Receptor>
prm/pocket_docking_5.prm

>  <SCORE>
-12.2439

>  <SCORE.INTER>
-9.34806

>  <SCORE.INTER.CONST>
1

>  <SCORE.INTER.POLAR>
0

>  <SCORE.INTER.ROT>
6

>  <SCORE.INTER.SOLV>
17.9173

>  <SCORE.INTER.VDW>
-19.8045

>  <SCORE.INTER.norm>
-0.274943

>  <SCORE.INTRA>
-2.89586

>  <SCORE.INTRA.DIHEDRAL>
-8.81282

>  <SCORE.INTRA.DIHEDRAL.0>
19.5869

>  <SCORE.INTRA.POLAR>
0

>  <SCORE.INTRA.POLAR.0>
0

>  <SCORE.INTRA.REPUL>
0

>  <SCORE.INTRA.REPUL.0>
0

>  <SCORE.INTRA.SOLV>
1.63192

>  <SCORE.INTRA.SOLV.lig_0>
-70.101

>  <SCORE.INTRA.VDW>
0.694591

>  <SCORE.INTRA.VDW.0>
-3.39718

>  <SCORE.INTRA.norm>
-0.0851723

>  <SCORE.RESTR>
0

>  <SCORE.RESTR.CAVITY>
0

>  <SCORE.RESTR.norm>
0

>  <SCORE.SYSTEM>
0

>  <SCORE.SYSTEM.CONST>
0

>  <SCORE.SYSTEM.DIHEDRAL>
0

>  <SCORE.SYSTEM.SOLV>
0

>  <SCORE.SYSTEM.norm>
0

>  <SCORE.heavy>
34

>  <SCORE.norm>
-0.360115

>  <RMSD>
3.044

$$$$
ligand
 OpenBabel11021811483D
libRbt.so/2013.1/901 2013/11/27
 34 36  0  0  0  0  0  0  0  0999 V2000
    6.4302    4.9380    7.1445 C   0  0  2  0  0  0  0  0  0  0  0  0
    6.2023    6.3560    7.1361 O   0  0  0  0  0  0  0  0  0  0  0  0
    9.0247    7.1068    4.0164 C   0  0  2  0  0  0  0  0  0  0  0  0
    9.7760    7.7708    2.9568 N   0  0  0  0  0  0  0  0  0  0  0  0
   11.4179    8.9633    5.9510 C   0  0  2  0  0  0  0  0  0  0  0  0
    5.2723    4.2658    7.9655 C   0  0  2  0  0  0  0  0  0  0  0  0
    3.9621    4.5330    7.3521 N   0  0  0  0  0  0  0  0  0  0  0  0
    7.5071    7.2062    3.6467 C   0  0  0  0  0  0  0  0  0  0  0  0
   12.9411    8.5879    5.8729 C   0  0  2  0  0  0  0  0  0  0  0  0
   13.2381    8.0427    4.5980 O   0  0  0  0  0  0  0  0  0  0  0  0
    5.2941    4.8026    9.4132 C   0  0  1  0  0  0  0  0  0  0  0  0
    4.2418    4.1855   10.1725 O   0  0  0  0  0  0  0  0  0  0  0  0
    6.7012    6.4732    4.7720 C   0  0  2  0  0  0  0  0  0  0  0  0
    5.2545    6.5384    4.4816 N   0  0  0  0  0  0  0  0  0  0  0  0
   13.2662    7.5552    7.0206 C   0  0  1  0  0  0  0  0  0  0  0  0
   14.7042    7.1529    6.9796 N   0  0  0  0  0  0  0  0  0  0  0  0
    6.6838    4.5169   10.0303 C   0  0  2  0  0  0  0  0  0  0  0  0
    6.7229    5.0214   11.3766 O   0  0  0  0  0  0  0  0  0  0  0  0
    6.9653    7.1210    6.1553 C   0  0  2  0  0  0  0  0  0  0  0  0
   12.9214    8.2059    8.4038 C   0  0  1  0  0  0  0  0  0  0  0  0
   13.7267    9.3652    8.6007 O   0  0  0  0  0  0  0  0  0  0  0  0
    7.8019    5.1990    9.1531 C   0  0  2  0  0  0  0  0  0  0  0  0
    7.7375    4.6873    7.7703 O   0  0  0  0  0  0  0  0  0  0  0  0
    8.4818    7.0664    6.4669 C   0  0  2  0  0  0  0  0  0  0  0  0
    8.7022    7.6825    7.7315 O   0  0  0  0  0  0  0  0  0  0  0  0
   11.4148    8.6154    8.4010 C   0  0  0  0  0  0  0  0  0  0  0  0
   11.1204    9.5315    7.2730 O   0  0  0  0  0  0  0  0  0  0  0  0
    9.2232    4.9247    9.7105 C   0  0  2  0  0  0  0  0  0  0  0  0
   10.1845    5.6218    8.9222 O   0  0  0  0  0  0  0  0  0  0  0  0
    9.3012    7.8281    5.3991 C   0  0  1  0  0  0  0  0  0  0  0  0
   10.6943    7.7134    5.7741 O   0  0  0  0  0  0  0  0  0  0  0  0
    9.5646    3.4444    9.6677 C   0  0  0  0  0  0  0  0  0  0  0  0
   13.1874    7.2562    9.5653 C   0  0  0  0  0  0  0  0  0  0  0  0
   14.8202    5.9338    6.1566 C   0  0  0  0  0  0  0  0  0  0  0  0
  1  2  1  1  0  0  0
  1  6  1  0  0  0  0
  1 23  1  0  0  0  0
  3  4  1  6  0  0  0
  3  8  1  0  0  0  0
  3 30  1  0  0  0  0
  5  9  1  0  0  0  0
  5 27  1  0  0  0  0
  5 31  1  1  0  0  0
  6  7  1  6  0  0  0
  6 11  1  0  0  0  0
  8 13  1  0  0  0  0
  9 10  1  6  0  0  0
  9 15  1  0  0  0  0
 11 12  1  1  0  0  0
 11 17  1  0  0  0  0
 13 14  1  6  0  0  0
 13 19  1  0  0  0  0
 15 16  1  1  0  0  0
 15 20  1  0  0  0  0
 16 34  1  0  0  0  0
 17 18  1  1  0  0  0
 17 22  1  0  0  0  0
 19  2  1  1  0  0  0
 19 24  1  0  0  0  0
 20 21  1  1  0  0  0
 20 26  1  0  0  0  0
 20 33  1  0  0  0  0
 22 23  1  6  0  0  0
 22 28  1  0  0  0  0
 24 25  1  1  0  0  0
 24 30  1  0  0  0  0
 26 27  1  0  0  0  0
 28 29  1  6  0  0  0
 28 32  1  0  0  0  0
 30 31  1  1  0  0  0
M  END
>  <CHROM.1>
-165.04464749,53.75616027,-92.58665477,-176.92813237,120.56120790,-161.70165462
9.27754260,6.59666740,7.27270306,2.80086900,0.29953668,1.95842046

>  <Name>
ligand

>  <RI>
0

>  <Rbt.Current_Directory>
/home/itssahil/PROJECTS/Mol_Feturizer/New_Systems/rnas/3TD1

>  <Rbt.Executable>
rbdock ($Id: //depot/dev/client3/rdock/2013.1/src/exe/rbdock.cxx#4 $)

>  <Rbt.Library>
libRbt.so (2013.1, Build901 2013/11/27)

>  <Rbt.Parameter_File>
/export/apps/rDock/src/rDock_2013.1_src/data/scripts/dock_solv.prm

>  <Rbt.Receptor>
prm/pocket_docking_3.prm

>  <SCORE>
-10.467

>  <SCORE.INTER>
-6.5833

>  <SCORE.INTER.CONST>
1

>  <SCORE.INTER.POLAR>
0

>  <SCORE.INTER.ROT>
6

>  <SCORE.INTER.SOLV>
19.552

>  <SCORE.INTER.VDW>
-18.5062

>  <SCORE.INTER.norm>
-0.193626

>  <SCORE.INTRA>
-3.88374

>  <SCORE.INTRA.DIHEDRAL>
-8.94047

>  <SCORE.INTRA.DIHEDRAL.0>
19.5869

>  <SCORE.INTRA.POLAR>
0

>  <SCORE.INTRA.POLAR.0>
0

>  <SCORE.INTRA.REPUL>
0.046101

>  <SCORE.INTRA.REPUL.0>
0

>  <SCORE.INTRA.SOLV>
0.0803545

>  <SCORE.INTRA.SOLV.lig_0>
-70.101

>  <SCORE.INTRA.VDW>
0.315816

>  <SCORE.INTRA.VDW.0>
-3.39718

>  <SCORE.INTRA.norm>
-0.114228

>  <SCORE.RESTR>
0

>  <SCORE.RESTR.CAVITY>
0

>  <SCORE.RESTR.norm>
0

>  <SCORE.SYSTEM>
0

>  <SCORE.SYSTEM.CONST>
0

>  <SCORE.SYSTEM.DIHEDRAL>
0

>  <SCORE.SYSTEM.SOLV>
0

>  <SCORE.SYSTEM.norm>
0

>  <SCORE.heavy>
34

>  <SCORE.norm>
-0.307854

>  <RMSD>
3.099

$$$$
ligand
 OpenBabel11021811483D
libRbt.so/2013.1/901 2013/11/27
 34 36  0  0  0  0  0  0  0  0999 V2000
    6.4348    5.0413    7.0553 C   0  0  2  0  0  0  0  0  0  0  0  0
    6.2474    6.4625    6.9677 O   0  0  0  0  0  0  0  0  0  0  0  0
    9.0515    6.9509    3.7802 C   0  0  2  0  0  0  0  0  0  0  0  0
    9.8083    7.5310    2.6762 N   0  0  0  0  0  0  0  0  0  0  0  0
   11.5264    8.8424    5.5546 C   0  0  2  0  0  0  0  0  0  0  0  0
    5.2790    4.4537    7.9415 C   0  0  2  0  0  0  0  0  0  0  0  0
    3.9621    4.7234    7.3438 N   0  0  0  0  0  0  0  0  0  0  0  0
    7.5329    7.0731    3.4215 C   0  0  0  0  0  0  0  0  0  0  0  0
   13.0347    8.4047    5.5822 C   0  0  2  0  0  0  0  0  0  0  0  0
   13.3576    7.7134    4.3869 O   0  0  0  0  0  0  0  0  0  0  0  0
    5.3523    5.0738    9.3538 C   0  0  1  0  0  0  0  0  0  0  0  0
    4.3020    4.5344   10.1727 O   0  0  0  0  0  0  0  0  0  0  0  0
    6.7203    6.4296    4.5956 C   0  0  2  0  0  0  0  0  0  0  0  0
    5.2726    6.5202    4.3173 N   0  0  0  0  0  0  0  0  0  0  0  0
   13.2727    7.4918    6.8468 C   0  0  1  0  0  0  0  0  0  0  0  0
   14.6934    7.0347    6.9104 N   0  0  0  0  0  0  0  0  0  0  0  0
    6.7482    4.7834    9.9543 C   0  0  2  0  0  0  0  0  0  0  0  0
    6.8352    5.3648   11.2670 O   0  0  0  0  0  0  0  0  0  0  0  0
    7.0197    7.1475    5.9364 C   0  0  2  0  0  0  0  0  0  0  0  0
   12.9023    8.3015    8.1363 C   0  0  1  0  0  0  0  0  0  0  0  0
   13.7466    9.4448    8.2418 O   0  0  0  0  0  0  0  0  0  0  0  0
    7.8631    5.3787    9.0124 C   0  0  2  0  0  0  0  0  0  0  0  0
    7.7496    4.7887    7.6644 O   0  0  0  0  0  0  0  0  0  0  0  0
    8.5378    7.0667    6.2345 C   0  0  2  0  0  0  0  0  0  0  0  0
    8.7912    7.7475    7.4592 O   0  0  0  0  0  0  0  0  0  0  0  0
   11.4151    8.7635    8.0254 C   0  0  0  0  0  0  0  0  0  0  0  0
   11.2022    9.5617    6.7942 O   0  0  0  0  0  0  0  0  0  0  0  0
    9.2894    5.0952    9.5520 C   0  0  2  0  0  0  0  0  0  0  0  0
   10.2493    5.7318    8.7126 O   0  0  0  0  0  0  0  0  0  0  0  0
    9.3654    7.7418    5.1160 C   0  0  1  0  0  0  0  0  0  0  0  0
   10.7591    7.6082    5.4821 O   0  0  0  0  0  0  0  0  0  0  0  0
    9.5947    3.6066    9.5703 C   0  0  0  0  0  0  0  0  0  0  0  0
   13.0841    7.4747    9.4032 C   0  0  0  0  0  0  0  0  0  0  0  0
   14.7764    5.6959    6.2957 C   0  0  0  0  0  0  0  0  0  0  0  0
  1  2  1  1  0  0  0
  1  6  1  0  0  0  0
  1 23  1  0  0  0  0
  3  4  1  6  0  0  0
  3  8  1  0  0  0  0
  3 30  1  0  0  0  0
  5  9  1  0  0  0  0
  5 27  1  0  0  0  0
  5 31  1  1  0  0  0
  6  7  1  6  0  0  0
  6 11  1  0  0  0  0
  8 13  1  0  0  0  0
  9 10  1  6  0  0  0
  9 15  1  0  0  0  0
 11 12  1  1  0  0  0
 11 17  1  0  0  0  0
 13 14  1  6  0  0  0
 13 19  1  0  0  0  0
 15 16  1  1  0  0  0
 15 20  1  0  0  0  0
 16 34  1  0  0  0  0
 17 18  1  1  0  0  0
 17 22  1  0  0  0  0
 19  2  1  1  0  0  0
 19 24  1  0  0  0  0
 20 21  1  1  0  0  0
 20 26  1  0  0  0  0
 20 33  1  0  0  0  0
 22 23  1  6  0  0  0
 22 28  1  0  0  0  0
 24 25  1  1  0  0  0
 24 30  1  0  0  0  0
 26 27  1  0  0  0  0
 28 29  1  6  0  0  0
 28 32  1  0  0  0  0
 30 31  1  1  0  0  0
M  END
>  <CHROM.1>
-165.77375328,53.75202498,-95.71635510,-176.08756894,119.44871638,-165.29946077
9.31608764,6.63825457,7.08789852,2.81106300,0.28076262,1.90303950

>  <Name>
ligand

>  <RI>
0

>  <Rbt.Current_Directory>
/home/itssahil/PROJECTS/Mol_Feturizer/New_Systems/rnas/3TD1

>  <Rbt.Executable>
rbdock ($Id: //depot/dev/client3/rdock/2013.1/src/exe/rbdock.cxx#4 $)

>  <Rbt.Library>
libRbt.so (2013.1, Build901 2013/11/27)

>  <Rbt.Parameter_File>
/export/apps/rDock/src/rDock_2013.1_src/data/scripts/dock_solv.prm

>  <Rbt.Receptor>
prm/pocket_docking_3.prm

>  <SCORE>
-10.3296

>  <SCORE.INTER>
-6.2509

>  <SCORE.INTER.CONST>
1

>  <SCORE.INTER.POLAR>
0

>  <SCORE.INTER.ROT>
6

>  <SCORE.INTER.SOLV>
19.2217

>  <SCORE.INTER.VDW>
-18.1745

>  <SCORE.INTER.norm>
-0.18385

>  <SCORE.INTRA>
-4.07866

>  <SCORE.INTRA.DIHEDRAL>
-9.43016

>  <SCORE.INTRA.DIHEDRAL.0>
19.5869

>  <SCORE.INTRA.POLAR>
0

>  <SCORE.INTRA.POLAR.0>
0

>  <SCORE.INTRA.REPUL>
0.073097

>  <SCORE.INTRA.REPUL.0>
0

>  <SCORE.INTRA.SOLV>
-0.00885468

>  <SCORE.INTRA.SOLV.lig_0>
-70.101

>  <SCORE.INTRA.VDW>
0.275361

>  <SCORE.INTRA.VDW.0>
-3.39718

>  <SCORE.INTRA.norm>
-0.119961

>  <SCORE.RESTR>
0

>  <SCORE.RESTR.CAVITY>
0

>  <SCORE.RESTR.norm>
0

>  <SCORE.SYSTEM>
0

>  <SCORE.SYSTEM.CONST>
0

>  <SCORE.SYSTEM.DIHEDRAL>
0

>  <SCORE.SYSTEM.SOLV>
0

>  <SCORE.SYSTEM.norm>
0

>  <SCORE.heavy>
34

>  <SCORE.norm>
-0.303811

>  <RMSD>
3.181

$$$$
ligand
 OpenBabel11021811483D
libRbt.so/2013.1/901 2013/11/27
 34 36  0  0  0  0  0  0  0  0999 V2000
    5.7084    5.8856    6.6266 C   0  0  2  0  0  0  0  0  0  0  0  0
    6.0650    7.2599    6.4108 O   0  0  0  0  0  0  0  0  0  0  0  0
    9.7979    6.3264    4.5520 C   0  0  2  0  0  0  0  0  0  0  0  0
   11.0431    6.4519    3.8023 N   0  0  0  0  0  0  0  0  0  0  0  0
   12.2732    7.1310    6.4009 C   0  0  2  0  0  0  0  0  0  0  0  0
    4.1472    5.8080    6.7793 C   0  0  2  0  0  0  0  0  0  0  0  0
    3.4704    6.2896    5.5651 N   0  0  0  0  0  0  0  0  0  0  0  0
    8.6402    6.8213    3.6222 C   0  0  0  0  0  0  0  0  0  0  0  0
   13.1798    6.5722    7.5555 C   0  0  2  0  0  0  0  0  0  0  0  0
   13.0802    5.1586    7.6049 O   0  0  0  0  0  0  0  0  0  0  0  0
    3.7101    6.6536    7.9952 C   0  0  1  0  0  0  0  0  0  0  0  0
    2.2829    6.5807    8.1456 O   0  0  0  0  0  0  0  0  0  0  0  0
    7.3003    6.6652    4.4179 C   0  0  2  0  0  0  0  0  0  0  0  0
    6.1655    7.1240    3.5913 N   0  0  0  0  0  0  0  0  0  0  0  0
   12.7192    7.2208    8.9181 C   0  0  1  0  0  0  0  0  0  0  0  0
   13.5429    6.7081   10.0539 N   0  0  0  0  0  0  0  0  0  0  0  0
    4.4424    6.1324    9.2544 C   0  0  2  0  0  0  0  0  0  0  0  0
    4.0530    6.9181   10.3944 O   0  0  0  0  0  0  0  0  0  0  0  0
    7.3336    7.4924    5.7284 C   0  0  2  0  0  0  0  0  0  0  0  0
   12.8491    8.7787    8.8100 C   0  0  1  0  0  0  0  0  0  0  0  0
   14.2114    9.1301    8.5826 O   0  0  0  0  0  0  0  0  0  0  0  0
    6.0007    6.2169    9.0326 C   0  0  2  0  0  0  0  0  0  0  0  0
    6.3835    5.4230    7.8488 O   0  0  0  0  0  0  0  0  0  0  0  0
    8.5263    7.0258    6.6001 C   0  0  2  0  0  0  0  0  0  0  0  0
    8.5477    7.8107    7.7879 O   0  0  0  0  0  0  0  0  0  0  0  0
   11.9795    9.2699    7.6101 C   0  0  0  0  0  0  0  0  0  0  0  0
   12.3864    8.5953    6.3540 O   0  0  0  0  0  0  0  0  0  0  0  0
    6.7899    5.6822   10.2562 C   0  0  2  0  0  0  0  0  0  0  0  0
    8.1738    5.9829   10.0963 O   0  0  0  0  0  0  0  0  0  0  0  0
    9.8704    7.2171    5.8597 C   0  0  1  0  0  0  0  0  0  0  0  0
   10.9127    6.7495    6.7482 O   0  0  0  0  0  0  0  0  0  0  0  0
    6.6495    4.1755   10.3972 C   0  0  0  0  0  0  0  0  0  0  0  0
   12.3978    9.4804   10.0851 C   0  0  0  0  0  0  0  0  0  0  0  0
   12.8006    5.6122   10.7057 C   0  0  0  0  0  0  0  0  0  0  0  0
  1  2  1  1  0  0  0
  1  6  1  0  0  0  0
  1 23  1  0  0  0  0
  3  4  1  6  0  0  0
  3  8  1  0  0  0  0
  3 30  1  0  0  0  0
  5  9  1  0  0  0  0
  5 27  1  0  0  0  0
  5 31  1  1  0  0  0
  6  7  1  6  0  0  0
  6 11  1  0  0  0  0
  8 13  1  0  0  0  0
  9 10  1  1  0  0  0
  9 15  1  0  0  0  0
 11 12  1  1  0  0  0
 11 17  1  0  0  0  0
 13 14  1  6  0  0  0
 13 19  1  0  0  0  0
 15 16  1  1  0  0  0
 15 20  1  0  0  0  0
 16 34  1  0  0  0  0
 17 18  1  1  0  0  0
 17 22  1  0  0  0  0
 19  2  1  1  0  0  0
 19 24  1  0  0  0  0
 20 21  1  6  0  0  0
 20 26  1  0  0  0  0
 20 33  1  0  0  0  0
 22 23  1  6  0  0  0
 22 28  1  0  0  0  0
 24 25  1  1  0  0  0
 24 30  1  0  0  0  0
 26 27  1  0  0  0  0
 28 29  1  6  0  0  0
 28 32  1  0  0  0  0
 30 31  1  1  0  0  0
M  END
>  <CHROM.1>
-156.21670291,53.03457611,-97.24065056,-170.49852056,78.62117682,176.87110382
8.75928955,6.83594597,7.52030150,-3.09449127,0.15764384,1.67190909

>  <Name>
ligand

>  <RI>
0

>  <Rbt.Current_Directory>
/home/itssahil/PROJECTS/Mol_Feturizer/New_Systems/rnas/3TD1

>  <Rbt.Executable>
rbdock ($Id: //depot/dev/client3/rdock/2013.1/src/exe/rbdock.cxx#4 $)

>  <Rbt.Library>
libRbt.so (2013.1, Build901 2013/11/27)

>  <Rbt.Parameter_File>
/export/apps/rDock/src/rDock_2013.1_src/data/scripts/dock_solv.prm

>  <Rbt.Receptor>
prm/pocket_docking_3.prm

>  <SCORE>
-13.7105

>  <SCORE.INTER>
-7.61752

>  <SCORE.INTER.CONST>
1

>  <SCORE.INTER.POLAR>
0

>  <SCORE.INTER.ROT>
6

>  <SCORE.INTER.SOLV>
18.7212

>  <SCORE.INTER.VDW>
-18.9187

>  <SCORE.INTER.norm>
-0.224045

>  <SCORE.INTRA>
-6.09295

>  <SCORE.INTRA.DIHEDRAL>
-14.0662

>  <SCORE.INTRA.DIHEDRAL.0>
19.5869

>  <SCORE.INTRA.POLAR>
0

>  <SCORE.INTRA.POLAR.0>
0

>  <SCORE.INTRA.REPUL>
0.0040984

>  <SCORE.INTRA.REPUL.0>
0

>  <SCORE.INTRA.SOLV>
0.227146

>  <SCORE.INTRA.SOLV.lig_0>
-70.101

>  <SCORE.INTRA.VDW>
0.806089

>  <SCORE.INTRA.VDW.0>
-3.39718

>  <SCORE.INTRA.norm>
-0.179204

>  <SCORE.RESTR>
0

>  <SCORE.RESTR.CAVITY>
0

>  <SCORE.RESTR.norm>
0

>  <SCORE.SYSTEM>
0

>  <SCORE.SYSTEM.CONST>
0

>  <SCORE.SYSTEM.DIHEDRAL>
0

>  <SCORE.SYSTEM.SOLV>
0

>  <SCORE.SYSTEM.norm>
0

>  <SCORE.heavy>
34

>  <SCORE.norm>
-0.403249

>  <RMSD>
3.216

$$$$
ligand
 OpenBabel11021811483D
libRbt.so/2013.1/901 2013/11/27
 34 36  0  0  0  0  0  0  0  0999 V2000
    5.7447    5.9071    6.6199 C   0  0  2  0  0  0  0  0  0  0  0  0
    6.1127    7.2808    6.4200 O   0  0  0  0  0  0  0  0  0  0  0  0
    9.8110    6.3382    4.4976 C   0  0  2  0  0  0  0  0  0  0  0  0
   11.0462    6.4619    3.7314 N   0  0  0  0  0  0  0  0  0  0  0  0
   12.3192    7.1011    6.3174 C   0  0  2  0  0  0  0  0  0  0  0  0
    4.1843    5.8424    6.7860 C   0  0  2  0  0  0  0  0  0  0  0  0
    3.5011    6.3476    5.5850 N   0  0  0  0  0  0  0  0  0  0  0  0
    8.6440    6.8520    3.5900 C   0  0  0  0  0  0  0  0  0  0  0  0
   13.2402    6.5021    7.4399 C   0  0  2  0  0  0  0  0  0  0  0  0
   13.1224    5.0890    7.4566 O   0  0  0  0  0  0  0  0  0  0  0  0
    3.7667    6.6749    8.0176 C   0  0  1  0  0  0  0  0  0  0  0  0
    2.3403    6.6137    8.1803 O   0  0  0  0  0  0  0  0  0  0  0  0
    7.3145    6.6978    4.4033 C   0  0  2  0  0  0  0  0  0  0  0  0
    6.1716    7.1744    3.5981 N   0  0  0  0  0  0  0  0  0  0  0  0
   12.8148    7.1226    8.8268 C   0  0  1  0  0  0  0  0  0  0  0  0
   13.6532    6.5713    9.9333 N   0  0  0  0  0  0  0  0  0  0  0  0
    4.5053    6.1290    9.2626 C   0  0  2  0  0  0  0  0  0  0  0  0
    4.1341    6.9023   10.4171 O   0  0  0  0  0  0  0  0  0  0  0  0
    7.3732    7.5107    5.7219 C   0  0  2  0  0  0  0  0  0  0  0  0
   12.9636    8.6809    8.7544 C   0  0  1  0  0  0  0  0  0  0  0  0
   14.3259    9.0201    8.5090 O   0  0  0  0  0  0  0  0  0  0  0  0
    6.0623    6.2016    9.0275 C   0  0  2  0  0  0  0  0  0  0  0  0
    6.4264    5.4208    7.8292 O   0  0  0  0  0  0  0  0  0  0  0  0
    8.5745    7.0254    6.5712 C   0  0  2  0  0  0  0  0  0  0  0  0
    8.6193    7.7973    7.7669 O   0  0  0  0  0  0  0  0  0  0  0  0
   12.0778    9.2130    7.5842 C   0  0  0  0  0  0  0  0  0  0  0  0
   12.4512    8.5644    6.3042 O   0  0  0  0  0  0  0  0  0  0  0  0
    6.8574    5.6422   10.2361 C   0  0  2  0  0  0  0  0  0  0  0  0
    8.2487    5.8809   10.0400 O   0  0  0  0  0  0  0  0  0  0  0  0
    9.9094    7.2141    5.8136 C   0  0  1  0  0  0  0  0  0  0  0  0
   10.9606    6.7289    6.6818 O   0  0  0  0  0  0  0  0  0  0  0  0
    6.6551    4.1442   10.3934 C   0  0  0  0  0  0  0  0  0  0  0  0
   12.5466    9.3566   10.0549 C   0  0  0  0  0  0  0  0  0  0  0  0
   12.8430    5.5931   10.6842 C   0  0  0  0  0  0  0  0  0  0  0  0
  1  2  1  1  0  0  0
  1  6  1  0  0  0  0
  1 23  1  0  0  0  0
  3  4  1  6  0  0  0
  3  8  1  0  0  0  0
  3 30  1  0  0  0  0
  5  9  1  0  0  0  0
  5 27  1  0  0  0  0
  5 31  1  1  0  0  0
  6  7  1  6  0  0  0
  6 11  1  0  0  0  0
  8 13  1  0  0  0  0
  9 10  1  1  0  0  0
  9 15  1  0  0  0  0
 11 12  1  1  0  0  0
 11 17  1  0  0  0  0
 13 14  1  6  0  0  0
 13 19  1  0  0  0  0
 15 16  1  1  0  0  0
 15 20  1  0  0  0  0
 16 34  1  0  0  0  0
 17 18  1  1  0  0  0
 17 22  1  0  0  0  0
 19  2  1  1  0  0  0
 19 24  1  0  0  0  0
 20 21  1  6  0  0  0
 20 26  1  0  0  0  0
 20 33  1  0  0  0  0
 22 23  1  6  0  0  0
 22 28  1  0  0  0  0
 24 25  1  1  0  0  0
 24 30  1  0  0  0  0
 26 27  1  0  0  0  0
 28 29  1  6  0  0  0
 28 32  1  0  0  0  0
 30 31  1  1  0  0  0
M  END
>  <CHROM.1>
-155.85153333,52.70520242,-104.57628802,-172.97726737,78.49597649,177.82472365
8.81517021,6.81329151,7.48682122,-3.10685365,0.14666157,1.68718862

>  <Name>
ligand

>  <RI>
0

>  <Rbt.Current_Directory>
/home/itssahil/PROJECTS/Mol_Feturizer/New_Systems/rnas/3TD1

>  <Rbt.Executable>
rbdock ($Id: //depot/dev/client3/rdock/2013.1/src/exe/rbdock.cxx#4 $)

>  <Rbt.Library>
libRbt.so (2013.1, Build901 2013/11/27)

>  <Rbt.Parameter_File>
/export/apps/rDock/src/rDock_2013.1_src/data/scripts/dock_solv.prm

>  <Rbt.Receptor>
prm/pocket_docking_3.prm

>  <SCORE>
-13.7742

>  <SCORE.INTER>
-7.5975

>  <SCORE.INTER.CONST>
1

>  <SCORE.INTER.POLAR>
0

>  <SCORE.INTER.ROT>
6

>  <SCORE.INTER.SOLV>
18.5986

>  <SCORE.INTER.VDW>
-18.8645

>  <SCORE.INTER.norm>
-0.223456

>  <SCORE.INTRA>
-6.17666

>  <SCORE.INTRA.DIHEDRAL>
-13.9783

>  <SCORE.INTRA.DIHEDRAL.0>
19.5869

>  <SCORE.INTRA.POLAR>
0

>  <SCORE.INTRA.POLAR.0>
0

>  <SCORE.INTRA.REPUL>
0.000685573

>  <SCORE.INTRA.REPUL.0>
0

>  <SCORE.INTRA.SOLV>
0.232094

>  <SCORE.INTRA.SOLV.lig_0>
-70.101

>  <SCORE.INTRA.VDW>
0.693012

>  <SCORE.INTRA.VDW.0>
-3.39718

>  <SCORE.INTRA.norm>
-0.181667

>  <SCORE.RESTR>
0

>  <SCORE.RESTR.CAVITY>
0

>  <SCORE.RESTR.norm>
0

>  <SCORE.SYSTEM>
0

>  <SCORE.SYSTEM.CONST>
0

>  <SCORE.SYSTEM.DIHEDRAL>
0

>  <SCORE.SYSTEM.SOLV>
0

>  <SCORE.SYSTEM.norm>
0

>  <SCORE.heavy>
34

>  <SCORE.norm>
-0.405123

>  <RMSD>
3.217

$$$$
ligand
 OpenBabel11021811483D
libRbt.so/2013.1/901 2013/11/27
 34 36  0  0  0  0  0  0  0  0999 V2000
    6.0197    5.9474    6.1921 C   0  0  2  0  0  0  0  0  0  0  0  0
    6.3476    7.3421    6.2906 O   0  0  0  0  0  0  0  0  0  0  0  0
    9.9091    7.0255    3.9504 C   0  0  2  0  0  0  0  0  0  0  0  0
   11.0450    7.3673    3.1011 N   0  0  0  0  0  0  0  0  0  0  0  0
   12.4536    8.0323    5.8400 C   0  0  2  0  0  0  0  0  0  0  0  0
    4.5782    5.7454    6.7816 C   0  0  2  0  0  0  0  0  0  0  0  0
    3.5823    6.5221    6.0271 N   0  0  0  0  0  0  0  0  0  0  0  0
    8.6146    7.5151    3.2195 C   0  0  0  0  0  0  0  0  0  0  0  0
   13.5504    7.3213    6.7108 C   0  0  2  0  0  0  0  0  0  0  0  0
   13.7274    5.9862    6.2668 O   0  0  0  0  0  0  0  0  0  0  0  0
    4.5675    6.1764    8.2643 C   0  0  1  0  0  0  0  0  0  0  0  0
    3.2529    5.9867    8.8125 O   0  0  0  0  0  0  0  0  0  0  0  0
    7.3928    7.1278    4.1197 C   0  0  2  0  0  0  0  0  0  0  0  0
    6.1358    7.5712    3.4834 N   0  0  0  0  0  0  0  0  0  0  0  0
   13.0994    7.3607    8.2223 C   0  0  1  0  0  0  0  0  0  0  0  0
   14.1048    6.6808    9.0931 N   0  0  0  0  0  0  0  0  0  0  0  0
    5.6283    5.3517    9.0313 C   0  0  2  0  0  0  0  0  0  0  0  0
    5.6375    5.7502   10.4132 O   0  0  0  0  0  0  0  0  0  0  0  0
    7.5053    7.7835    5.5198 C   0  0  2  0  0  0  0  0  0  0  0  0
   12.9192    8.8542    8.6610 C   0  0  1  0  0  0  0  0  0  0  0  0
   14.1632    9.5399    8.5451 O   0  0  0  0  0  0  0  0  0  0  0  0
    7.0463    5.5803    8.3819 C   0  0  2  0  0  0  0  0  0  0  0  0
    7.0172    5.1863    6.9599 O   0  0  0  0  0  0  0  0  0  0  0  0
    8.8253    7.3326    6.1936 C   0  0  2  0  0  0  0  0  0  0  0  0
    8.9155    7.9607    7.4682 O   0  0  0  0  0  0  0  0  0  0  0  0
   11.8672    9.5264    7.7235 C   0  0  0  0  0  0  0  0  0  0  0  0
   12.2804    9.4158    6.3039 O   0  0  0  0  0  0  0  0  0  0  0  0
    8.1498    4.7561    9.0953 C   0  0  2  0  0  0  0  0  0  0  0  0
    7.8431    4.6542   10.4834 O   0  0  0  0  0  0  0  0  0  0  0  0
   10.0546    7.7481    5.3523 C   0  0  1  0  0  0  0  0  0  0  0  0
   11.2278    7.2791    6.0579 O   0  0  0  0  0  0  0  0  0  0  0  0
    9.5133    5.4141    8.9623 C   0  0  0  0  0  0  0  0  0  0  0  0
   12.4592    8.9738   10.1088 C   0  0  0  0  0  0  0  0  0  0  0  0
   13.4612    5.5067    9.7128 C   0  0  0  0  0  0  0  0  0  0  0  0
  1  2  1  1  0  0  0
  1  6  1  0  0  0  0
  1 23  1  0  0  0  0
  3  4  1  6  0  0  0
  3  8  1  0  0  0  0
  3 30  1  0  0  0  0
  5  9  1  0  0  0  0
  5 27  1  0  0  0  0
  5 31  1  1  0  0  0
  6  7  1  6  0  0  0
  6 11  1  0  0  0  0
  8 13  1  0  0  0  0
  9 10  1  6  0  0  0
  9 15  1  0  0  0  0
 11 12  1  1  0  0  0
 11 17  1  0  0  0  0
 13 14  1  6  0  0  0
 13 19  1  0  0  0  0
 15 16  1  1  0  0  0
 15 20  1  0  0  0  0
 16 34  1  0  0  0  0
 17 18  1  1  0  0  0
 17 22  1  0  0  0  0
 19  2  1  1  0  0  0
 19 24  1  0  0  0  0
 20 21  1  6  0  0  0
 20 26  1  0  0  0  0
 20 33  1  0  0  0  0
 22 23  1  6  0  0  0
 22 28  1  0  0  0  0
 24 25  1  1  0  0  0
 24 30  1  0  0  0  0
 26 27  1  0  0  0  0
 28 29  1  1  0  0  0
 28 32  1  0  0  0  0
 30 31  1  1  0  0  0
M  END
>  <CHROM.1>
-166.18307266,44.10272252,-116.48886717,-33.49632172,91.54910839,179.94889522
9.21807928,6.94742849,7.14682639,3.10717149,0.22617890,1.85290894

>  <Name>
ligand

>  <RI>
0

>  <Rbt.Current_Directory>
/home/itssahil/PROJECTS/Mol_Feturizer/New_Systems/rnas/3TD1

>  <Rbt.Executable>
rbdock ($Id: //depot/dev/client3/rdock/2013.1/src/exe/rbdock.cxx#4 $)

>  <Rbt.Library>
libRbt.so (2013.1, Build901 2013/11/27)

>  <Rbt.Parameter_File>
/export/apps/rDock/src/rDock_2013.1_src/data/scripts/dock_solv.prm

>  <Rbt.Receptor>
prm/pocket_docking_2.prm

>  <SCORE>
-8.08762

>  <SCORE.INTER>
-3.86943

>  <SCORE.INTER.CONST>
1

>  <SCORE.INTER.POLAR>
0

>  <SCORE.INTER.ROT>
6

>  <SCORE.INTER.SOLV>
17.9631

>  <SCORE.INTER.VDW>
-16.1673

>  <SCORE.INTER.norm>
-0.113807

>  <SCORE.INTRA>
-4.40828

>  <SCORE.INTRA.DIHEDRAL>
-10.1898

>  <SCORE.INTRA.DIHEDRAL.0>
19.5869

>  <SCORE.INTRA.POLAR>
0

>  <SCORE.INTRA.POLAR.0>
0

>  <SCORE.INTRA.REPUL>
0

>  <SCORE.INTRA.REPUL.0>
0

>  <SCORE.INTRA.SOLV>
-0.409387

>  <SCORE.INTRA.SOLV.lig_0>
-70.101

>  <SCORE.INTRA.VDW>
0.891334

>  <SCORE.INTRA.VDW.0>
-3.39718

>  <SCORE.INTRA.norm>
-0.129655

>  <SCORE.RESTR>
0.190089

>  <SCORE.RESTR.CAVITY>
0.190089

>  <SCORE.RESTR.norm>
0.00559085

>  <SCORE.SYSTEM>
0

>  <SCORE.SYSTEM.CONST>
0

>  <SCORE.SYSTEM.DIHEDRAL>
0

>  <SCORE.SYSTEM.SOLV>
0

>  <SCORE.SYSTEM.norm>
0

>  <SCORE.heavy>
34

>  <SCORE.norm>
-0.237871

>  <RMSD>
3.228

$$$$
ligand
 OpenBabel11021811483D
libRbt.so/2013.1/901 2013/11/27
 34 36  0  0  0  0  0  0  0  0999 V2000
    6.2445    6.0036    6.3855 C   0  0  2  0  0  0  0  0  0  0  0  0
    6.4608    7.4199    6.2858 O   0  0  0  0  0  0  0  0  0  0  0  0
    9.9851    7.0299    3.9006 C   0  0  2  0  0  0  0  0  0  0  0  0
   11.1122    7.3467    3.0304 N   0  0  0  0  0  0  0  0  0  0  0  0
   12.5430    8.0965    5.8190 C   0  0  2  0  0  0  0  0  0  0  0  0
    4.7372    5.7685    6.7588 C   0  0  2  0  0  0  0  0  0  0  0  0
    3.8430    6.3143    5.7260 N   0  0  0  0  0  0  0  0  0  0  0  0
    8.6855    7.5225    3.1808 C   0  0  0  0  0  0  0  0  0  0  0  0
   13.6467    7.3802    6.6768 C   0  0  2  0  0  0  0  0  0  0  0  0
   13.8685    6.0706    6.1802 O   0  0  0  0  0  0  0  0  0  0  0  0
    4.4377    6.4352    8.1190 C   0  0  1  0  0  0  0  0  0  0  0  0
    3.0616    6.2172    8.4707 O   0  0  0  0  0  0  0  0  0  0  0  0
    7.4727    7.1619    4.1038 C   0  0  2  0  0  0  0  0  0  0  0  0
    6.2115    7.6093    3.4787 N   0  0  0  0  0  0  0  0  0  0  0  0
   13.1722    7.3430    8.1811 C   0  0  1  0  0  0  0  0  0  0  0  0
   14.1835    6.6553    9.0388 N   0  0  0  0  0  0  0  0  0  0  0  0
    5.3965    5.8505    9.1831 C   0  0  2  0  0  0  0  0  0  0  0  0
    5.1364    6.4704   10.4546 O   0  0  0  0  0  0  0  0  0  0  0  0
    7.6120    7.8372    5.4921 C   0  0  2  0  0  0  0  0  0  0  0  0
   12.9427    8.8110    8.6790 C   0  0  1  0  0  0  0  0  0  0  0  0
   14.1681    9.5355    8.6120 O   0  0  0  0  0  0  0  0  0  0  0  0
    6.8895    6.0996    8.7432 C   0  0  2  0  0  0  0  0  0  0  0  0
    7.1368    5.4756    7.4289 O   0  0  0  0  0  0  0  0  0  0  0  0
    8.9367    7.3821    6.1540 C   0  0  2  0  0  0  0  0  0  0  0  0
    9.0517    8.0281    7.4177 O   0  0  0  0  0  0  0  0  0  0  0  0
   11.8860    9.4925    7.7536 C   0  0  0  0  0  0  0  0  0  0  0  0
   12.3234    9.4536    6.3375 O   0  0  0  0  0  0  0  0  0  0  0  0
    7.8997    5.5105    9.7622 C   0  0  2  0  0  0  0  0  0  0  0  0
    9.2252    5.8604    9.3725 O   0  0  0  0  0  0  0  0  0  0  0  0
   10.1582    7.7717    5.2893 C   0  0  1  0  0  0  0  0  0  0  0  0
   11.3363    7.3006    5.9853 O   0  0  0  0  0  0  0  0  0  0  0  0
    7.8125    3.9945    9.8234 C   0  0  0  0  0  0  0  0  0  0  0  0
   12.4579    8.8563   10.1229 C   0  0  0  0  0  0  0  0  0  0  0  0
   13.5699    5.4299    9.5854 C   0  0  0  0  0  0  0  0  0  0  0  0
  1  2  1  1  0  0  0
  1  6  1  0  0  0  0
  1 23  1  0  0  0  0
  3  4  1  6  0  0  0
  3  8  1  0  0  0  0
  3 30  1  0  0  0  0
  5  9  1  0  0  0  0
  5 27  1  0  0  0  0
  5 31  1  1  0  0  0
  6  7  1  6  0  0  0
  6 11  1  0  0  0  0
  8 13  1  0  0  0  0
  9 10  1  6  0  0  0
  9 15  1  0  0  0  0
 11 12  1  1  0  0  0
 11 17  1  0  0  0  0
 13 14  1  6  0  0  0
 13 19  1  0  0  0  0
 15 16  1  1  0  0  0
 15 20  1  0  0  0  0
 16 34  1  0  0  0  0
 17 18  1  1  0  0  0
 17 22  1  0  0  0  0
 19  2  1  1  0  0  0
 19 24  1  0  0  0  0
 20 21  1  6  0  0  0
 20 26  1  0  0  0  0
 20 33  1  0  0  0  0
 22 23  1  6  0  0  0
 22 28  1  0  0  0  0
 24 25  1  1  0  0  0
 24 30  1  0  0  0  0
 26 27  1  0  0  0  0
 28 29  1  6  0  0  0
 28 32  1  0  0  0  0
 30 31  1  1  0  0  0
M  END
>  <CHROM.1>
-158.23509920,53.70341263,-115.81744612,-175.22143356,96.04493125,179.49266323
9.24004096,7.04363699,7.14742876,3.11009754,0.19822597,1.79943048

>  <Name>
ligand

>  <RI>
0

>  <Rbt.Current_Directory>
/home/itssahil/PROJECTS/Mol_Feturizer/New_Systems/rnas/3TD1

>  <Rbt.Executable>
rbdock ($Id: //depot/dev/client3/rdock/2013.1/src/exe/rbdock.cxx#4 $)

>  <Rbt.Library>
libRbt.so (2013.1, Build901 2013/11/27)

>  <Rbt.Parameter_File>
/export/apps/rDock/src/rDock_2013.1_src/data/scripts/dock_solv.prm

>  <Rbt.Receptor>
prm/pocket_docking_2.prm

>  <SCORE>
-9.72501

>  <SCORE.INTER>
-5.08109

>  <SCORE.INTER.CONST>
1

>  <SCORE.INTER.POLAR>
0

>  <SCORE.INTER.ROT>
6

>  <SCORE.INTER.SOLV>
18.8391

>  <SCORE.INTER.VDW>
-17.2671

>  <SCORE.INTER.norm>
-0.149444

>  <SCORE.INTRA>
-5.21024

>  <SCORE.INTRA.DIHEDRAL>
-11.2993

>  <SCORE.INTRA.DIHEDRAL.0>
19.5869

>  <SCORE.INTRA.POLAR>
0

>  <SCORE.INTRA.POLAR.0>
0

>  <SCORE.INTRA.REPUL>
0.071767

>  <SCORE.INTRA.REPUL.0>
0

>  <SCORE.INTRA.SOLV>
-0.199849

>  <SCORE.INTRA.SOLV.lig_0>
-70.101

>  <SCORE.INTRA.VDW>
0.180492

>  <SCORE.INTRA.VDW.0>
-3.39718

>  <SCORE.INTRA.norm>
-0.153242

>  <SCORE.RESTR>
0.566328

>  <SCORE.RESTR.CAVITY>
0.566328

>  <SCORE.RESTR.norm>
0.0166567

>  <SCORE.SYSTEM>
0

>  <SCORE.SYSTEM.CONST>
0

>  <SCORE.SYSTEM.DIHEDRAL>
0

>  <SCORE.SYSTEM.SOLV>
0

>  <SCORE.SYSTEM.norm>
0

>  <SCORE.heavy>
34

>  <SCORE.norm>
-0.28603

>  <RMSD>
3.230

$$$$
ligand
 OpenBabel11021811483D
libRbt.so/2013.1/901 2013/11/27
 34 36  0  0  0  0  0  0  0  0999 V2000
    6.3327    5.9020    6.3596 C   0  0  2  0  0  0  0  0  0  0  0  0
    6.5873    7.3131    6.2799 O   0  0  0  0  0  0  0  0  0  0  0  0
   10.1467    6.8618    3.9586 C   0  0  2  0  0  0  0  0  0  0  0  0
   11.2891    7.1569    3.1007 N   0  0  0  0  0  0  0  0  0  0  0  0
   12.6855    7.9380    5.8791 C   0  0  2  0  0  0  0  0  0  0  0  0
    4.9292    5.6999    7.0348 C   0  0  2  0  0  0  0  0  0  0  0  0
    3.8628    6.3312    6.2420 N   0  0  0  0  0  0  0  0  0  0  0  0
    8.8612    7.3472    3.2093 C   0  0  0  0  0  0  0  0  0  0  0  0
   13.7621    7.2550    6.7965 C   0  0  2  0  0  0  0  0  0  0  0  0
   13.9790    5.9194    6.3723 O   0  0  0  0  0  0  0  0  0  0  0  0
    4.9545    6.3027    8.4562 C   0  0  1  0  0  0  0  0  0  0  0  0
    3.6753    6.1142    9.0830 O   0  0  0  0  0  0  0  0  0  0  0  0
    7.6321    7.0097    4.1194 C   0  0  2  0  0  0  0  0  0  0  0  0
    6.3833    7.4515    3.4661 N   0  0  0  0  0  0  0  0  0  0  0  0
   13.2549    7.2999    8.2899 C   0  0  1  0  0  0  0  0  0  0  0  0
   14.2394    6.6464    9.2036 N   0  0  0  0  0  0  0  0  0  0  0  0
    6.0888    5.6286    9.2639 C   0  0  2  0  0  0  0  0  0  0  0  0
    6.1316    6.1881   10.5881 O   0  0  0  0  0  0  0  0  0  0  0  0
    7.7530    7.7100    5.4970 C   0  0  2  0  0  0  0  0  0  0  0  0
   13.0320    8.7938    8.7072 C   0  0  1  0  0  0  0  0  0  0  0  0
   14.2670    9.5009    8.6304 O   0  0  0  0  0  0  0  0  0  0  0  0
    7.4649    5.8487    8.5274 C   0  0  2  0  0  0  0  0  0  0  0  0
    7.4004    5.2879    7.1637 O   0  0  0  0  0  0  0  0  0  0  0  0
    9.0647    7.2609    6.1882 C   0  0  2  0  0  0  0  0  0  0  0  0
    9.1630    7.9297    7.4413 O   0  0  0  0  0  0  0  0  0  0  0  0
   12.0035    9.4382    7.7252 C   0  0  0  0  0  0  0  0  0  0  0  0
   12.4707    9.3222    6.3228 O   0  0  0  0  0  0  0  0  0  0  0  0
    8.6397    5.1709    9.2799 C   0  0  2  0  0  0  0  0  0  0  0  0
    8.2366    3.8771    9.7215 O   0  0  0  0  0  0  0  0  0  0  0  0
   10.3017    7.6284    5.3360 C   0  0  1  0  0  0  0  0  0  0  0  0
   11.4662    7.1646    6.0591 O   0  0  0  0  0  0  0  0  0  0  0  0
    9.0602    5.9741   10.4997 C   0  0  0  0  0  0  0  0  0  0  0  0
   12.5168    8.9182   10.1358 C   0  0  0  0  0  0  0  0  0  0  0  0
   13.6884    5.3430    9.6213 C   0  0  0  0  0  0  0  0  0  0  0  0
  1  2  1  1  0  0  0
  1  6  1  0  0  0  0
  1 23  1  0  0  0  0
  3  4  1  6  0  0  0
  3  8  1  0  0  0  0
  3 30  1  0  0  0  0
  5  9  1  0  0  0  0
  5 27  1  0  0  0  0
  5 31  1  1  0  0  0
  6  7  1  6  0  0  0
  6 11  1  0  0  0  0
  8 13  1  0  0  0  0
  9 10  1  6  0  0  0
  9 15  1  0  0  0  0
 11 12  1  1  0  0  0
 11 17  1  0  0  0  0
 13 14  1  6  0  0  0
 13 19  1  0  0  0  0
 15 16  1  1  0  0  0
 15 20  1  0  0  0  0
 16 34  1  0  0  0  0
 17 18  1  1  0  0  0
 17 22  1  0  0  0  0
 19  2  1  1  0  0  0
 19 24  1  0  0  0  0
 20 21  1  6  0  0  0
 20 26  1  0  0  0  0
 20 33  1  0  0  0  0
 22 23  1  6  0  0  0
 22 28  1  0  0  0  0
 24 25  1  1  0  0  0
 24 30  1  0  0  0  0
 26 27  1  0  0  0  0
 28 29  1  1  0  0  0
 28 32  1  0  0  0  0
 30 31  1  1  0  0  0
M  END
>  <CHROM.1>
-170.95813602,51.39606019,-106.46622613,42.70626545,95.02198028,178.24854536
9.46506061,6.92310449,7.24030427,3.11075267,0.21244012,1.79711034

>  <Name>
ligand

>  <RI>
0

>  <Rbt.Current_Directory>
/home/itssahil/PROJECTS/Mol_Feturizer/New_Systems/rnas/3TD1

>  <Rbt.Executable>
rbdock ($Id: //depot/dev/client3/rdock/2013.1/src/exe/rbdock.cxx#4 $)

>  <Rbt.Library>
libRbt.so (2013.1, Build901 2013/11/27)

>  <Rbt.Parameter_File>
/export/apps/rDock/src/rDock_2013.1_src/data/scripts/dock_solv.prm

>  <Rbt.Receptor>
prm/pocket_docking_3.prm

>  <SCORE>
-11.9262

>  <SCORE.INTER>
-6.06284

>  <SCORE.INTER.CONST>
1

>  <SCORE.INTER.POLAR>
0

>  <SCORE.INTER.ROT>
6

>  <SCORE.INTER.SOLV>
16.7447

>  <SCORE.INTER.VDW>
-17.2234

>  <SCORE.INTER.norm>
-0.178319

>  <SCORE.INTRA>
-5.86338

>  <SCORE.INTRA.DIHEDRAL>
-12.2036

>  <SCORE.INTRA.DIHEDRAL.0>
19.5869

>  <SCORE.INTRA.POLAR>
0

>  <SCORE.INTRA.POLAR.0>
0

>  <SCORE.INTRA.REPUL>
0

>  <SCORE.INTRA.REPUL.0>
0

>  <SCORE.INTRA.SOLV>
-0.773524

>  <SCORE.INTRA.SOLV.lig_0>
-70.101

>  <SCORE.INTRA.VDW>
0.625158

>  <SCORE.INTRA.VDW.0>
-3.39718

>  <SCORE.INTRA.norm>
-0.172452

>  <SCORE.RESTR>
0

>  <SCORE.RESTR.CAVITY>
0

>  <SCORE.RESTR.norm>
0

>  <SCORE.SYSTEM>
0

>  <SCORE.SYSTEM.CONST>
0

>  <SCORE.SYSTEM.DIHEDRAL>
0

>  <SCORE.SYSTEM.SOLV>
0

>  <SCORE.SYSTEM.norm>
0

>  <SCORE.heavy>
34

>  <SCORE.norm>
-0.350771

>  <RMSD>
3.331

$$$$
ligand
 OpenBabel11021811483D
libRbt.so/2013.1/901 2013/11/27
 34 36  0  0  0  0  0  0  0  0999 V2000
    6.3765    5.9471    6.3019 C   0  0  2  0  0  0  0  0  0  0  0  0
    6.6312    7.3593    6.2429 O   0  0  0  0  0  0  0  0  0  0  0  0
   10.2010    6.9405    3.9314 C   0  0  2  0  0  0  0  0  0  0  0  0
   11.3469    7.2475    3.0824 N   0  0  0  0  0  0  0  0  0  0  0  0
   12.7250    8.0050    5.8945 C   0  0  2  0  0  0  0  0  0  0  0  0
    4.9759    5.7350    6.9800 C   0  0  2  0  0  0  0  0  0  0  0  0
    3.9063    6.3788    6.2017 N   0  0  0  0  0  0  0  0  0  0  0  0
    8.9184    7.4352    3.1829 C   0  0  0  0  0  0  0  0  0  0  0  0
   13.7986    7.3074    6.8042 C   0  0  2  0  0  0  0  0  0  0  0  0
   14.0321    5.9856    6.3468 O   0  0  0  0  0  0  0  0  0  0  0  0
    5.0075    6.3159    8.4104 C   0  0  1  0  0  0  0  0  0  0  0  0
    3.7310    6.1181    9.0398 O   0  0  0  0  0  0  0  0  0  0  0  0
    7.6856    7.0851    4.0832 C   0  0  2  0  0  0  0  0  0  0  0  0
    6.4394    7.5348    3.4304 N   0  0  0  0  0  0  0  0  0  0  0  0
   13.2763    7.3078    8.2931 C   0  0  1  0  0  0  0  0  0  0  0  0
   14.2577    6.6390    9.1990 N   0  0  0  0  0  0  0  0  0  0  0  0
    6.1451    5.6290    9.2027 C   0  0  2  0  0  0  0  0  0  0  0  0
    6.1939    6.1680   10.5352 O   0  0  0  0  0  0  0  0  0  0  0  0
    7.8001    7.7671    5.4705 C   0  0  2  0  0  0  0  0  0  0  0  0
   13.0355    8.7880    8.7477 C   0  0  1  0  0  0  0  0  0  0  0  0
   14.2646    9.5079    8.7023 O   0  0  0  0  0  0  0  0  0  0  0  0
    7.5181    5.8602    8.4637 C   0  0  2  0  0  0  0  0  0  0  0  0
    7.4474    5.3205    7.0919 O   0  0  0  0  0  0  0  0  0  0  0  0
    9.1090    7.3095    6.1613 C   0  0  2  0  0  0  0  0  0  0  0  0
    9.2016    7.9618    7.4236 O   0  0  0  0  0  0  0  0  0  0  0  0
   12.0109    9.4492    7.7728 C   0  0  0  0  0  0  0  0  0  0  0  0
   12.4931    9.3749    6.3726 O   0  0  0  0  0  0  0  0  0  0  0  0
    8.6959    5.1704    9.2006 C   0  0  2  0  0  0  0  0  0  0  0  0
    8.3050    3.8579    9.5953 O   0  0  0  0  0  0  0  0  0  0  0  0
   10.3495    7.6889    5.3194 C   0  0  1  0  0  0  0  0  0  0  0  0
   11.5112    7.2162    6.0414 O   0  0  0  0  0  0  0  0  0  0  0  0
    9.0994    5.9363   10.4497 C   0  0  0  0  0  0  0  0  0  0  0  0
   12.5051    8.8696   10.1738 C   0  0  0  0  0  0  0  0  0  0  0  0
   13.7369    5.3007    9.5378 C   0  0  0  0  0  0  0  0  0  0  0  0
  1  2  1  1  0  0  0
  1  6  1  0  0  0  0
  1 23  1  0  0  0  0
  3  4  1  6  0  0  0
  3  8  1  0  0  0  0
  3 30  1  0  0  0  0
  5  9  1  0  0  0  0
  5 27  1  0  0  0  0
  5 31  1  1  0  0  0
  6  7  1  6  0  0  0
  6 11  1  0  0  0  0
  8 13  1  0  0  0  0
  9 10  1  6  0  0  0
  9 15  1  0  0  0  0
 11 12  1  1  0  0  0
 11 17  1  0  0  0  0
 13 14  1  6  0  0  0
 13 19  1  0  0  0  0
 15 16  1  1  0  0  0
 15 20  1  0  0  0  0
 16 34  1  0  0  0  0
 17 18  1  1  0  0  0
 17 22  1  0  0  0  0
 19  2  1  1  0  0  0
 19 24  1  0  0  0  0
 20 21  1  6  0  0  0
 20 26  1  0  0  0  0
 20 33  1  0  0  0  0
 22 23  1  6  0  0  0
 22 28  1  0  0  0  0
 24 25  1  1  0  0  0
 24 30  1  0  0  0  0
 26 27  1  0  0  0  0
 28 29  1  1  0  0  0
 28 32  1  0  0  0  0
 30 31  1  1  0  0  0
M  END
>  <CHROM.1>
-171.45063715,51.34959123,-104.48570877,44.11187702,95.99856204,178.22878318
9.50643409,6.95128886,7.21448752,3.11828807,0.21291374,1.81103274

>  <Name>
ligand

>  <RI>
0

>  <Rbt.Current_Directory>
/home/itssahil/PROJECTS/Mol_Feturizer/New_Systems/rnas/3TD1

>  <Rbt.Executable>
rbdock ($Id: //depot/dev/client3/rdock/2013.1/src/exe/rbdock.cxx#4 $)

>  <Rbt.Library>
libRbt.so (2013.1, Build901 2013/11/27)

>  <Rbt.Parameter_File>
/export/apps/rDock/src/rDock_2013.1_src/data/scripts/dock_solv.prm

>  <Rbt.Receptor>
prm/pocket_docking_3.prm

>  <SCORE>
-11.9161

>  <SCORE.INTER>
-6.12119

>  <SCORE.INTER.CONST>
1

>  <SCORE.INTER.POLAR>
0

>  <SCORE.INTER.ROT>
6

>  <SCORE.INTER.SOLV>
16.8269

>  <SCORE.INTER.VDW>
-17.2898

>  <SCORE.INTER.norm>
-0.180035

>  <SCORE.INTRA>
-5.79493

>  <SCORE.INTRA.DIHEDRAL>
-12.2602

>  <SCORE.INTRA.DIHEDRAL.0>
19.5869

>  <SCORE.INTRA.POLAR>
0

>  <SCORE.INTRA.POLAR.0>
0

>  <SCORE.INTRA.REPUL>
0

>  <SCORE.INTRA.REPUL.0>
0

>  <SCORE.INTRA.SOLV>
-0.812623

>  <SCORE.INTRA.SOLV.lig_0>
-70.101

>  <SCORE.INTRA.VDW>
0.741472

>  <SCORE.INTRA.VDW.0>
-3.39718

>  <SCORE.INTRA.norm>
-0.170439

>  <SCORE.RESTR>
0

>  <SCORE.RESTR.CAVITY>
0

>  <SCORE.RESTR.norm>
0

>  <SCORE.SYSTEM>
0

>  <SCORE.SYSTEM.CONST>
0

>  <SCORE.SYSTEM.DIHEDRAL>
0

>  <SCORE.SYSTEM.SOLV>
0

>  <SCORE.SYSTEM.norm>
0

>  <SCORE.heavy>
34

>  <SCORE.norm>
-0.350474

>  <RMSD>
3.348

$$$$
ligand
 OpenBabel11021811483D
libRbt.so/2013.1/901 2013/11/27
 34 36  0  0  0  0  0  0  0  0999 V2000
    5.9164    5.9296    6.5027 C   0  0  2  0  0  0  0  0  0  0  0  0
    6.3831    7.2864    6.4407 O   0  0  0  0  0  0  0  0  0  0  0  0
    9.9633    6.3526    4.3025 C   0  0  2  0  0  0  0  0  0  0  0  0
   11.1339    6.4709    3.4400 N   0  0  0  0  0  0  0  0  0  0  0  0
   12.5243    7.5507    6.0648 C   0  0  2  0  0  0  0  0  0  0  0  0
    4.6366    5.8983    7.4125 C   0  0  2  0  0  0  0  0  0  0  0  0
    3.5686    6.7432    6.8558 N   0  0  0  0  0  0  0  0  0  0  0  0
    8.7150    6.7735    3.4574 C   0  0  0  0  0  0  0  0  0  0  0  0
   13.5567    6.9571    7.0889 C   0  0  2  0  0  0  0  0  0  0  0  0
   13.6737    5.5568    6.8981 O   0  0  0  0  0  0  0  0  0  0  0  0
    5.0059    6.3844    8.8308 C   0  0  1  0  0  0  0  0  0  0  0  0
    3.8407    6.3507    9.6710 O   0  0  0  0  0  0  0  0  0  0  0  0
    7.4550    6.6245    4.3756 C   0  0  2  0  0  0  0  0  0  0  0  0
    6.2396    7.0151    3.6328 N   0  0  0  0  0  0  0  0  0  0  0  0
   13.0667    7.2909    8.5510 C   0  0  1  0  0  0  0  0  0  0  0  0
   14.0096    6.7323    9.5661 N   0  0  0  0  0  0  0  0  0  0  0  0
    6.1352    5.4856    9.3879 C   0  0  2  0  0  0  0  0  0  0  0  0
    6.4977    5.9334   10.7057 O   0  0  0  0  0  0  0  0  0  0  0  0
    7.5800    7.5155    5.6380 C   0  0  2  0  0  0  0  0  0  0  0  0
   12.9552    8.8461    8.7080 C   0  0  1  0  0  0  0  0  0  0  0  0
   14.2371    9.4389    8.5171 O   0  0  0  0  0  0  0  0  0  0  0  0
    7.3809    5.5435    8.4237 C   0  0  2  0  0  0  0  0  0  0  0  0
    6.9903    5.1006    7.0711 O   0  0  0  0  0  0  0  0  0  0  0  0
    8.8571    7.1207    6.4209 C   0  0  2  0  0  0  0  0  0  0  0  0
    8.9606    7.9630    7.5642 O   0  0  0  0  0  0  0  0  0  0  0  0
   11.9673    9.3873    7.6270 C   0  0  0  0  0  0  0  0  0  0  0  0
   12.4131    9.0020    6.2664 O   0  0  0  0  0  0  0  0  0  0  0  0
    8.5394    4.6388    8.9191 C   0  0  2  0  0  0  0  0  0  0  0  0
    9.4270    4.3696    7.8369 O   0  0  0  0  0  0  0  0  0  0  0  0
   10.1252    7.3076    5.5557 C   0  0  1  0  0  0  0  0  0  0  0  0
   11.2542    6.9091    6.3687 O   0  0  0  0  0  0  0  0  0  0  0  0
    8.0248    3.3097    9.4466 C   0  0  0  0  0  0  0  0  0  0  0  0
   12.4624    9.2476   10.0929 C   0  0  0  0  0  0  0  0  0  0  0  0
   13.4124    5.5048   10.1259 C   0  0  0  0  0  0  0  0  0  0  0  0
  1  2  1  1  0  0  0
  1  6  1  0  0  0  0
  1 23  1  0  0  0  0
  3  4  1  6  0  0  0
  3  8  1  0  0  0  0
  3 30  1  0  0  0  0
  5  9  1  0  0  0  0
  5 27  1  0  0  0  0
  5 31  1  1  0  0  0
  6  7  1  6  0  0  0
  6 11  1  0  0  0  0
  8 13  1  0  0  0  0
  9 10  1  1  0  0  0
  9 15  1  0  0  0  0
 11 12  1  1  0  0  0
 11 17  1  0  0  0  0
 13 14  1  6  0  0  0
 13 19  1  0  0  0  0
 15 16  1  1  0  0  0
 15 20  1  0  0  0  0
 16 34  1  0  0  0  0
 17 18  1  1  0  0  0
 17 22  1  0  0  0  0
 19  2  1  1  0  0  0
 19 24  1  0  0  0  0
 20 21  1  6  0  0  0
 20 26  1  0  0  0  0
 20 33  1  0  0  0  0
 22 23  1  6  0  0  0
 22 28  1  0  0  0  0
 24 25  1  1  0  0  0
 24 30  1  0  0  0  0
 26 27  1  0  0  0  0
 28 29  1  6  0  0  0
 28 32  1  0  0  0  0
 30 31  1  1  0  0  0
M  END
>  <CHROM.1>
179.71839890,39.64614609,-102.36512901,160.64772088,92.15706271,179.39758275
9.34041844,6.71867346,7.32553875,3.13923240,0.21559756,1.76610012

>  <Name>
ligand

>  <RI>
0

>  <Rbt.Current_Directory>
/home/itssahil/PROJECTS/Mol_Feturizer/New_Systems/rnas/3TD1

>  <Rbt.Executable>
rbdock ($Id: //depot/dev/client3/rdock/2013.1/src/exe/rbdock.cxx#4 $)

>  <Rbt.Library>
libRbt.so (2013.1, Build901 2013/11/27)

>  <Rbt.Parameter_File>
/export/apps/rDock/src/rDock_2013.1_src/data/scripts/dock_solv.prm

>  <Rbt.Receptor>
prm/pocket_docking_4.prm

>  <SCORE>
-9.29856

>  <SCORE.INTER>
-5.9359

>  <SCORE.INTER.CONST>
1

>  <SCORE.INTER.POLAR>
0

>  <SCORE.INTER.ROT>
6

>  <SCORE.INTER.SOLV>
16.7308

>  <SCORE.INTER.VDW>
-17.1342

>  <SCORE.INTER.norm>
-0.174585

>  <SCORE.INTRA>
-3.36265

>  <SCORE.INTRA.DIHEDRAL>
-11.4934

>  <SCORE.INTRA.DIHEDRAL.0>
19.5869

>  <SCORE.INTRA.POLAR>
0

>  <SCORE.INTRA.POLAR.0>
0

>  <SCORE.INTRA.REPUL>
0.0279455

>  <SCORE.INTRA.REPUL.0>
0

>  <SCORE.INTRA.SOLV>
-0.647186

>  <SCORE.INTRA.SOLV.lig_0>
-70.101

>  <SCORE.INTRA.VDW>
2.56793

>  <SCORE.INTRA.VDW.0>
-3.39718

>  <SCORE.INTRA.norm>
-0.0989016

>  <SCORE.RESTR>
0

>  <SCORE.RESTR.CAVITY>
0

>  <SCORE.RESTR.norm>
0

>  <SCORE.SYSTEM>
0

>  <SCORE.SYSTEM.CONST>
0

>  <SCORE.SYSTEM.DIHEDRAL>
0

>  <SCORE.SYSTEM.SOLV>
0

>  <SCORE.SYSTEM.norm>
0

>  <SCORE.heavy>
34

>  <SCORE.norm>
-0.273487

>  <RMSD>
3.348

$$$$
ligand
 OpenBabel11021811483D
libRbt.so/2013.1/901 2013/11/27
 34 36  0  0  0  0  0  0  0  0999 V2000
    6.3614    5.9114    6.3264 C   0  0  2  0  0  0  0  0  0  0  0  0
    6.6262    7.3193    6.2242 O   0  0  0  0  0  0  0  0  0  0  0  0
   10.2204    6.8059    3.9703 C   0  0  2  0  0  0  0  0  0  0  0  0
   11.3728    7.0765    3.1178 N   0  0  0  0  0  0  0  0  0  0  0  0
   12.7203    7.9811    5.8988 C   0  0  2  0  0  0  0  0  0  0  0  0
    4.9573    5.7304    7.0063 C   0  0  2  0  0  0  0  0  0  0  0  0
    3.8946    6.3570    6.2049 N   0  0  0  0  0  0  0  0  0  0  0  0
    8.9426    7.2546    3.1859 C   0  0  0  0  0  0  0  0  0  0  0  0
   13.8064    7.2991    6.8057 C   0  0  2  0  0  0  0  0  0  0  0  0
   14.0336    5.9696    6.3680 O   0  0  0  0  0  0  0  0  0  0  0  0
    4.9888    6.3554    8.4180 C   0  0  1  0  0  0  0  0  0  0  0  0
    3.7091    6.1862    9.0492 O   0  0  0  0  0  0  0  0  0  0  0  0
    7.7030    6.9429    4.0910 C   0  0  2  0  0  0  0  0  0  0  0  0
    6.4607    7.3519    3.4047 N   0  0  0  0  0  0  0  0  0  0  0  0
   13.3045    7.3255    8.3013 C   0  0  1  0  0  0  0  0  0  0  0  0
   14.2983    6.6723    9.2051 N   0  0  0  0  0  0  0  0  0  0  0  0
    6.1192    5.6857    9.2349 C   0  0  2  0  0  0  0  0  0  0  0  0
    6.1679    6.2656   10.5501 O   0  0  0  0  0  0  0  0  0  0  0  0
    7.8003    7.6946    5.4431 C   0  0  2  0  0  0  0  0  0  0  0  0
   13.0699    8.8134    8.7334 C   0  0  1  0  0  0  0  0  0  0  0  0
   14.2982    9.5322    8.6587 O   0  0  0  0  0  0  0  0  0  0  0  0
    7.4960    5.8840    8.4934 C   0  0  2  0  0  0  0  0  0  0  0  0
    7.4255    5.3023    7.1389 O   0  0  0  0  0  0  0  0  0  0  0  0
    9.1050    7.2801    6.1684 C   0  0  2  0  0  0  0  0  0  0  0  0
    9.1817    7.9957    7.3971 O   0  0  0  0  0  0  0  0  0  0  0  0
   12.0320    9.4577    7.7614 C   0  0  0  0  0  0  0  0  0  0  0  0
   12.4949    9.3591    6.3562 O   0  0  0  0  0  0  0  0  0  0  0  0
    8.6667    5.2095    9.2552 C   0  0  2  0  0  0  0  0  0  0  0  0
    8.2485    3.9340    9.7344 O   0  0  0  0  0  0  0  0  0  0  0  0
   10.3515    7.6240    5.3202 C   0  0  1  0  0  0  0  0  0  0  0  0
   11.5086    7.1952    6.0760 O   0  0  0  0  0  0  0  0  0  0  0  0
    9.1082    6.0388   10.4498 C   0  0  0  0  0  0  0  0  0  0  0  0
   12.5591    8.9197   10.1651 C   0  0  0  0  0  0  0  0  0  0  0  0
   13.7296    5.3927    9.6701 C   0  0  0  0  0  0  0  0  0  0  0  0
  1  2  1  1  0  0  0
  1  6  1  0  0  0  0
  1 23  1  0  0  0  0
  3  4  1  6  0  0  0
  3  8  1  0  0  0  0
  3 30  1  0  0  0  0
  5  9  1  0  0  0  0
  5 27  1  0  0  0  0
  5 31  1  1  0  0  0
  6  7  1  6  0  0  0
  6 11  1  0  0  0  0
  8 13  1  0  0  0  0
  9 10  1  6  0  0  0
  9 15  1  0  0  0  0
 11 12  1  1  0  0  0
 11 17  1  0  0  0  0
 13 14  1  6  0  0  0
 13 19  1  0  0  0  0
 15 16  1  1  0  0  0
 15 20  1  0  0  0  0
 16 34  1  0  0  0  0
 17 18  1  1  0  0  0
 17 22  1  0  0  0  0
 19  2  1  1  0  0  0
 19 24  1  0  0  0  0
 20 21  1  6  0  0  0
 20 26  1  0  0  0  0
 20 33  1  0  0  0  0
 22 23  1  6  0  0  0
 22 28  1  0  0  0  0
 24 25  1  1  0  0  0
 24 30  1  0  0  0  0
 26 27  1  0  0  0  0
 28 29  1  1  0  0  0
 28 32  1  0  0  0  0
 30 31  1  1  0  0  0
M  END
>  <CHROM.1>
-171.45625197,49.98147080,-109.44958734,41.86831041,95.87434557,-179.37830338
9.50696358,6.94172330,7.22942969,3.12735884,0.21407414,1.77347569

>  <Name>
ligand

>  <RI>
0

>  <Rbt.Current_Directory>
/home/itssahil/PROJECTS/Mol_Feturizer/New_Systems/rnas/3TD1

>  <Rbt.Executable>
rbdock ($Id: //depot/dev/client3/rdock/2013.1/src/exe/rbdock.cxx#4 $)

>  <Rbt.Library>
libRbt.so (2013.1, Build901 2013/11/27)

>  <Rbt.Parameter_File>
/export/apps/rDock/src/rDock_2013.1_src/data/scripts/dock_solv.prm

>  <Rbt.Receptor>
prm/pocket_docking_3.prm

>  <SCORE>
-11.8163

>  <SCORE.INTER>
-6.03936

>  <SCORE.INTER.CONST>
1

>  <SCORE.INTER.POLAR>
0

>  <SCORE.INTER.ROT>
6

>  <SCORE.INTER.SOLV>
16.764

>  <SCORE.INTER.VDW>
-17.2142

>  <SCORE.INTER.norm>
-0.177628

>  <SCORE.INTRA>
-5.77698

>  <SCORE.INTRA.DIHEDRAL>
-11.8325

>  <SCORE.INTRA.DIHEDRAL.0>
19.5869

>  <SCORE.INTRA.POLAR>
0

>  <SCORE.INTRA.POLAR.0>
0

>  <SCORE.INTRA.REPUL>
0

>  <SCORE.INTRA.REPUL.0>
0

>  <SCORE.INTRA.SOLV>
-0.839009

>  <SCORE.INTRA.SOLV.lig_0>
-70.101

>  <SCORE.INTRA.VDW>
0.558783

>  <SCORE.INTRA.VDW.0>
-3.39718

>  <SCORE.INTRA.norm>
-0.169911

>  <SCORE.RESTR>
0

>  <SCORE.RESTR.CAVITY>
0

>  <SCORE.RESTR.norm>
0

>  <SCORE.SYSTEM>
0

>  <SCORE.SYSTEM.CONST>
0

>  <SCORE.SYSTEM.DIHEDRAL>
0

>  <SCORE.SYSTEM.SOLV>
0

>  <SCORE.SYSTEM.norm>
0

>  <SCORE.heavy>
34

>  <SCORE.norm>
-0.347539

>  <RMSD>
3.350

$$$$
ligand
 OpenBabel11021811483D
libRbt.so/2013.1/901 2013/11/27
 34 36  0  0  0  0  0  0  0  0999 V2000
    6.7642    4.2004    7.5241 C   0  0  2  0  0  0  0  0  0  0  0  0
    6.5805    5.5506    7.9778 O   0  0  0  0  0  0  0  0  0  0  0  0
    8.6273    7.2848    4.6513 C   0  0  2  0  0  0  0  0  0  0  0  0
    9.1146    8.2528    3.6748 N   0  0  0  0  0  0  0  0  0  0  0  0
   11.3766    8.7839    5.9878 C   0  0  2  0  0  0  0  0  0  0  0  0
    5.6783    3.3036    8.2191 C   0  0  2  0  0  0  0  0  0  0  0  0
    4.3200    3.7435    7.8644 N   0  0  0  0  0  0  0  0  0  0  0  0
    7.0642    7.3656    4.6502 C   0  0  0  0  0  0  0  0  0  0  0  0
   12.8803    8.3700    5.8018 C   0  0  2  0  0  0  0  0  0  0  0  0
   13.0269    7.6075    4.6152 O   0  0  0  0  0  0  0  0  0  0  0  0
    5.8678    3.3658    9.7503 C   0  0  1  0  0  0  0  0  0  0  0  0
    4.8821    2.5408   10.3925 O   0  0  0  0  0  0  0  0  0  0  0  0
    6.5393    6.3102    5.6815 C   0  0  2  0  0  0  0  0  0  0  0  0
    5.0634    6.3427    5.7308 N   0  0  0  0  0  0  0  0  0  0  0  0
   13.3370    7.5442    7.0662 C   0  0  1  0  0  0  0  0  0  0  0  0
   14.7605    7.1120    6.9309 N   0  0  0  0  0  0  0  0  0  0  0  0
    7.3049    2.9074   10.0941 C   0  0  2  0  0  0  0  0  0  0  0  0
    7.5001    2.9704   11.5177 O   0  0  0  0  0  0  0  0  0  0  0  0
    7.0953    6.5964    7.0999 C   0  0  2  0  0  0  0  0  0  0  0  0
   13.1556    8.4303    8.3458 C   0  0  1  0  0  0  0  0  0  0  0  0
   13.9782    9.5897    8.2450 O   0  0  0  0  0  0  0  0  0  0  0  0
    8.3457    3.8309    9.3534 C   0  0  2  0  0  0  0  0  0  0  0  0
    8.1214    3.7722    7.8959 O   0  0  0  0  0  0  0  0  0  0  0  0
    8.6438    6.5738    7.0587 C   0  0  2  0  0  0  0  0  0  0  0  0
    9.1314    6.8568    8.3662 O   0  0  0  0  0  0  0  0  0  0  0  0
   11.6589    8.8634    8.4449 C   0  0  0  0  0  0  0  0  0  0  0  0
   11.2350    9.5772    7.2164 O   0  0  0  0  0  0  0  0  0  0  0  0
    9.8083    3.4018    9.6408 C   0  0  2  0  0  0  0  0  0  0  0  0
   10.7030    4.3163    9.0127 O   0  0  0  0  0  0  0  0  0  0  0  0
    9.1944    7.6428    6.0863 C   0  0  1  0  0  0  0  0  0  0  0  0
   10.6374    7.5370    6.1145 O   0  0  0  0  0  0  0  0  0  0  0  0
   10.1001    2.0120    9.0996 C   0  0  0  0  0  0  0  0  0  0  0  0
   13.5551    7.6897    9.6162 C   0  0  0  0  0  0  0  0  0  0  0  0
   14.7819    5.7868    6.2826 C   0  0  0  0  0  0  0  0  0  0  0  0
  1  2  1  1  0  0  0
  1  6  1  0  0  0  0
  1 23  1  0  0  0  0
  3  4  1  6  0  0  0
  3  8  1  0  0  0  0
  3 30  1  0  0  0  0
  5  9  1  0  0  0  0
  5 27  1  0  0  0  0
  5 31  1  1  0  0  0
  6  7  1  1  0  0  0
  6 11  1  0  0  0  0
  8 13  1  0  0  0  0
  9 10  1  6  0  0  0
  9 15  1  0  0  0  0
 11 12  1  1  0  0  0
 11 17  1  0  0  0  0
 13 14  1  1  0  0  0
 13 19  1  0  0  0  0
 15 16  1  6  0  0  0
 15 20  1  0  0  0  0
 16 34  1  0  0  0  0
 17 18  1  1  0  0  0
 17 22  1  0  0  0  0
 19  2  1  1  0  0  0
 19 24  1  0  0  0  0
 20 21  1  6  0  0  0
 20 26  1  0  0  0  0
 20 33  1  0  0  0  0
 22 23  1  6  0  0  0
 22 28  1  0  0  0  0
 24 25  1  1  0  0  0
 24 30  1  0  0  0  0
 26 27  1  0  0  0  0
 28 29  1  6  0  0  0
 28 32  1  0  0  0  0
 30 31  1  6  0  0  0
M  END
>  <CHROM.1>
-156.52160933,50.68803475,-90.71582593,-176.57382957,99.50457445,-170.59950014
9.47010984,6.05296303,7.55918945,2.55879461,0.27545835,2.31911810

>  <Name>
ligand

>  <RI>
0

>  <Rbt.Current_Directory>
/home/itssahil/PROJECTS/Mol_Feturizer/New_Systems/rnas/3TD1

>  <Rbt.Executable>
rbdock ($Id: //depot/dev/client3/rdock/2013.1/src/exe/rbdock.cxx#4 $)

>  <Rbt.Library>
libRbt.so (2013.1, Build901 2013/11/27)

>  <Rbt.Parameter_File>
/export/apps/rDock/src/rDock_2013.1_src/data/scripts/dock_solv.prm

>  <Rbt.Receptor>
prm/pocket_docking_4.prm

>  <SCORE>
-12.5564

>  <SCORE.INTER>
-8.15233

>  <SCORE.INTER.CONST>
1

>  <SCORE.INTER.POLAR>
0

>  <SCORE.INTER.ROT>
6

>  <SCORE.INTER.SOLV>
18.4594

>  <SCORE.INTER.VDW>
-19.188

>  <SCORE.INTER.norm>
-0.239774

>  <SCORE.INTRA>
-4.40419

>  <SCORE.INTRA.DIHEDRAL>
-10.3659

>  <SCORE.INTRA.DIHEDRAL.0>
19.5869

>  <SCORE.INTRA.POLAR>
0

>  <SCORE.INTRA.POLAR.0>
0

>  <SCORE.INTRA.REPUL>
0.0290847

>  <SCORE.INTRA.REPUL.0>
0

>  <SCORE.INTRA.SOLV>
-0.0674883

>  <SCORE.INTRA.SOLV.lig_0>
-70.101

>  <SCORE.INTRA.VDW>
0.667092

>  <SCORE.INTRA.VDW.0>
-3.39718

>  <SCORE.INTRA.norm>
-0.129535

>  <SCORE.RESTR>
8.55408e-05

>  <SCORE.RESTR.CAVITY>
8.55408e-05

>  <SCORE.RESTR.norm>
2.51591e-06

>  <SCORE.SYSTEM>
0

>  <SCORE.SYSTEM.CONST>
0

>  <SCORE.SYSTEM.DIHEDRAL>
0

>  <SCORE.SYSTEM.SOLV>
0

>  <SCORE.SYSTEM.norm>
0

>  <SCORE.heavy>
34

>  <SCORE.norm>
-0.369307

>  <RMSD>
3.367

$$$$
ligand
 OpenBabel11021811483D
libRbt.so/2013.1/901 2013/11/27
 34 36  0  0  0  0  0  0  0  0999 V2000
    6.3613    5.9454    6.3067 C   0  0  2  0  0  0  0  0  0  0  0  0
    6.6431    7.3530    6.2658 O   0  0  0  0  0  0  0  0  0  0  0  0
   10.1975    6.9044    3.9363 C   0  0  2  0  0  0  0  0  0  0  0  0
   11.3357    7.1996    3.0729 N   0  0  0  0  0  0  0  0  0  0  0  0
   12.7213    8.0395    5.8873 C   0  0  2  0  0  0  0  0  0  0  0  0
    4.9555    5.7517    6.9796 C   0  0  2  0  0  0  0  0  0  0  0  0
    3.8999    6.4255    6.2075 N   0  0  0  0  0  0  0  0  0  0  0  0
    8.9072    7.3782    3.1879 C   0  0  0  0  0  0  0  0  0  0  0  0
   13.8130    7.3466    6.7790 C   0  0  2  0  0  0  0  0  0  0  0  0
   14.0655    6.0360    6.3001 O   0  0  0  0  0  0  0  0  0  0  0  0
    4.9954    6.3139    8.4172 C   0  0  1  0  0  0  0  0  0  0  0  0
    3.7140    6.1328    9.0418 O   0  0  0  0  0  0  0  0  0  0  0  0
    7.6827    7.0405    4.1041 C   0  0  2  0  0  0  0  0  0  0  0  0
    6.4296    7.4715    3.4518 N   0  0  0  0  0  0  0  0  0  0  0  0
   13.3013    7.3159    8.2712 C   0  0  1  0  0  0  0  0  0  0  0  0
   14.3003    6.6503    9.1602 N   0  0  0  0  0  0  0  0  0  0  0  0
    6.1180    5.5956    9.2028 C   0  0  2  0  0  0  0  0  0  0  0  0
    6.1744    6.1169   10.5421 O   0  0  0  0  0  0  0  0  0  0  0  0
    7.8043    7.7506    5.4766 C   0  0  2  0  0  0  0  0  0  0  0  0
   13.0389    8.7848    8.7498 C   0  0  1  0  0  0  0  0  0  0  0  0
   14.2553    9.5261    8.7068 O   0  0  0  0  0  0  0  0  0  0  0  0
    7.4967    5.8095    8.4692 C   0  0  2  0  0  0  0  0  0  0  0  0
    7.4184    5.2885    7.0906 O   0  0  0  0  0  0  0  0  0  0  0  0
    9.1204    7.3129    6.1666 C   0  0  2  0  0  0  0  0  0  0  0  0
    9.2193    7.9906    7.4149 O   0  0  0  0  0  0  0  0  0  0  0  0
   11.9963    9.4430    7.7920 C   0  0  0  0  0  0  0  0  0  0  0  0
   12.4697    9.3979    6.3877 O   0  0  0  0  0  0  0  0  0  0  0  0
    8.6596    5.0882    9.1995 C   0  0  2  0  0  0  0  0  0  0  0  0
    8.8237    5.6489   10.4994 O   0  0  0  0  0  0  0  0  0  0  0  0
   10.3528    7.6810    5.3080 C   0  0  1  0  0  0  0  0  0  0  0  0
   11.5220    7.2281    6.0306 O   0  0  0  0  0  0  0  0  0  0  0  0
    9.9728    5.2449    8.4508 C   0  0  0  0  0  0  0  0  0  0  0  0
   12.5173    8.8359   10.1806 C   0  0  0  0  0  0  0  0  0  0  0  0
   13.7804    5.3184    9.5244 C   0  0  0  0  0  0  0  0  0  0  0  0
  1  2  1  1  0  0  0
  1  6  1  0  0  0  0
  1 23  1  0  0  0  0
  3  4  1  6  0  0  0
  3  8  1  0  0  0  0
  3 30  1  0  0  0  0
  5  9  1  0  0  0  0
  5 27  1  0  0  0  0
  5 31  1  1  0  0  0
  6  7  1  6  0  0  0
  6 11  1  0  0  0  0
  8 13  1  0  0  0  0
  9 10  1  6  0  0  0
  9 15  1  0  0  0  0
 11 12  1  1  0  0  0
 11 17  1  0  0  0  0
 13 14  1  6  0  0  0
 13 19  1  0  0  0  0
 15 16  1  1  0  0  0
 15 20  1  0  0  0  0
 16 34  1  0  0  0  0
 17 18  1  1  0  0  0
 17 22  1  0  0  0  0
 19  2  1  1  0  0  0
 19 24  1  0  0  0  0
 20 21  1  6  0  0  0
 20 26  1  0  0  0  0
 20 33  1  0  0  0  0
 22 23  1  6  0  0  0
 22 28  1  0  0  0  0
 24 25  1  1  0  0  0
 24 30  1  0  0  0  0
 26 27  1  0  0  0  0
 28 29  1  1  0  0  0
 28 32  1  0  0  0  0
 30 31  1  1  0  0  0
M  END
>  <CHROM.1>
-170.16750986,48.72074321,-106.63290406,-63.17949112,97.58679992,179.10472059
9.54919033,6.98234297,7.18130333,-3.13864038,0.20170987,1.76985292

>  <Name>
ligand

>  <RI>
0

>  <Rbt.Current_Directory>
/home/itssahil/PROJECTS/Mol_Feturizer/New_Systems/rnas/3TD1

>  <Rbt.Executable>
rbdock ($Id: //depot/dev/client3/rdock/2013.1/src/exe/rbdock.cxx#4 $)

>  <Rbt.Library>
libRbt.so (2013.1, Build901 2013/11/27)

>  <Rbt.Parameter_File>
/export/apps/rDock/src/rDock_2013.1_src/data/scripts/dock_solv.prm

>  <Rbt.Receptor>
prm/pocket_docking_4.prm

>  <SCORE>
-12.5149

>  <SCORE.INTER>
-6.11409

>  <SCORE.INTER.CONST>
1

>  <SCORE.INTER.POLAR>
0

>  <SCORE.INTER.ROT>
6

>  <SCORE.INTER.SOLV>
16.8633

>  <SCORE.INTER.VDW>
-17.2972

>  <SCORE.INTER.norm>
-0.179826

>  <SCORE.INTRA>
-6.40076

>  <SCORE.INTRA.DIHEDRAL>
-12.4224

>  <SCORE.INTRA.DIHEDRAL.0>
19.5869

>  <SCORE.INTRA.POLAR>
0

>  <SCORE.INTRA.POLAR.0>
0

>  <SCORE.INTRA.REPUL>
0

>  <SCORE.INTRA.REPUL.0>
0

>  <SCORE.INTRA.SOLV>
-0.713582

>  <SCORE.INTRA.SOLV.lig_0>
-70.101

>  <SCORE.INTRA.VDW>
0.167247

>  <SCORE.INTRA.VDW.0>
-3.39718

>  <SCORE.INTRA.norm>
-0.188258

>  <SCORE.RESTR>
0

>  <SCORE.RESTR.CAVITY>
0

>  <SCORE.RESTR.norm>
0

>  <SCORE.SYSTEM>
0

>  <SCORE.SYSTEM.CONST>
0

>  <SCORE.SYSTEM.DIHEDRAL>
0

>  <SCORE.SYSTEM.SOLV>
0

>  <SCORE.SYSTEM.norm>
0

>  <SCORE.heavy>
34

>  <SCORE.norm>
-0.368084

>  <RMSD>
3.373

$$$$
ligand
 OpenBabel11021811483D
libRbt.so/2013.1/901 2013/11/27
 34 36  0  0  0  0  0  0  0  0999 V2000
    6.3761    5.9389    6.3167 C   0  0  2  0  0  0  0  0  0  0  0  0
    6.6583    7.3464    6.2717 O   0  0  0  0  0  0  0  0  0  0  0  0
   10.2132    6.8905    3.9444 C   0  0  2  0  0  0  0  0  0  0  0  0
   11.3511    7.1828    3.0796 N   0  0  0  0  0  0  0  0  0  0  0  0
   12.7355    8.0375    5.8911 C   0  0  2  0  0  0  0  0  0  0  0  0
    4.9683    5.7479    6.9860 C   0  0  2  0  0  0  0  0  0  0  0  0
    3.9152    6.4190    6.2083 N   0  0  0  0  0  0  0  0  0  0  0  0
    8.9224    7.3597    3.1937 C   0  0  0  0  0  0  0  0  0  0  0  0
   13.8296    7.3463    6.7812 C   0  0  2  0  0  0  0  0  0  0  0  0
   14.0825    6.0356    6.3026 O   0  0  0  0  0  0  0  0  0  0  0  0
    5.0038    6.3152    8.4217 C   0  0  1  0  0  0  0  0  0  0  0  0
    3.7205    6.1365    9.0430 O   0  0  0  0  0  0  0  0  0  0  0  0
    7.6983    7.0250    4.1115 C   0  0  2  0  0  0  0  0  0  0  0  0
    6.4447    7.4519    3.4572 N   0  0  0  0  0  0  0  0  0  0  0  0
   13.3207    7.3160    8.2744 C   0  0  1  0  0  0  0  0  0  0  0  0
   14.3220    6.6520    9.1620 N   0  0  0  0  0  0  0  0  0  0  0  0
    6.1239    5.5995    9.2133 C   0  0  2  0  0  0  0  0  0  0  0  0
    6.1763    6.1256   10.5509 O   0  0  0  0  0  0  0  0  0  0  0  0
    7.8191    7.7415    5.4807 C   0  0  2  0  0  0  0  0  0  0  0  0
   13.0576    8.7849    8.7525 C   0  0  1  0  0  0  0  0  0  0  0  0
   14.2733    9.5274    8.7068 O   0  0  0  0  0  0  0  0  0  0  0  0
    7.5049    5.8107    8.4832 C   0  0  2  0  0  0  0  0  0  0  0  0
    7.4308    5.2847    7.1063 O   0  0  0  0  0  0  0  0  0  0  0  0
    9.1357    7.3081    6.1727 C   0  0  2  0  0  0  0  0  0  0  0  0
    9.2338    7.9916    7.4180 O   0  0  0  0  0  0  0  0  0  0  0  0
   12.0127    9.4415    7.7963 C   0  0  0  0  0  0  0  0  0  0  0  0
   12.4835    9.3960    6.3911 O   0  0  0  0  0  0  0  0  0  0  0  0
    8.6654    5.0918    9.2196 C   0  0  2  0  0  0  0  0  0  0  0  0
    8.8084    5.6393   10.5277 O   0  0  0  0  0  0  0  0  0  0  0  0
   10.3677    7.6735    5.3125 C   0  0  1  0  0  0  0  0  0  0  0  0
   11.5373    7.2250    6.0372 O   0  0  0  0  0  0  0  0  0  0  0  0
    9.9862    5.2690    8.4890 C   0  0  0  0  0  0  0  0  0  0  0  0
   12.5387    8.8365   10.1842 C   0  0  0  0  0  0  0  0  0  0  0  0
   13.8024    5.3213    9.5310 C   0  0  0  0  0  0  0  0  0  0  0  0
  1  2  1  1  0  0  0
  1  6  1  0  0  0  0
  1 23  1  0  0  0  0
  3  4  1  6  0  0  0
  3  8  1  0  0  0  0
  3 30  1  0  0  0  0
  5  9  1  0  0  0  0
  5 27  1  0  0  0  0
  5 31  1  1  0  0  0
  6  7  1  6  0  0  0
  6 11  1  0  0  0  0
  8 13  1  0  0  0  0
  9 10  1  6  0  0  0
  9 15  1  0  0  0  0
 11 12  1  1  0  0  0
 11 17  1  0  0  0  0
 13 14  1  6  0  0  0
 13 19  1  0  0  0  0
 15 16  1  1  0  0  0
 15 20  1  0  0  0  0
 16 34  1  0  0  0  0
 17 18  1  1  0  0  0
 17 22  1  0  0  0  0
 19  2  1  1  0  0  0
 19 24  1  0  0  0  0
 20 21  1  6  0  0  0
 20 26  1  0  0  0  0
 20 33  1  0  0  0  0
 22 23  1  6  0  0  0
 22 28  1  0  0  0  0
 24 25  1  1  0  0  0
 24 30  1  0  0  0  0
 26 27  1  0  0  0  0
 28 29  1  1  0  0  0
 28 32  1  0  0  0  0
 30 31  1  1  0  0  0
M  END
>  <CHROM.1>
-169.95392942,48.59631372,-106.78723723,-62.04563262,97.63910085,179.32640085
9.56249015,6.97964016,7.18892825,-3.13935340,0.20173886,1.76650979

>  <Name>
ligand

>  <RI>
0

>  <Rbt.Current_Directory>
/home/itssahil/PROJECTS/Mol_Feturizer/New_Systems/rnas/3TD1

>  <Rbt.Executable>
rbdock ($Id: //depot/dev/client3/rdock/2013.1/src/exe/rbdock.cxx#4 $)

>  <Rbt.Library>
libRbt.so (2013.1, Build901 2013/11/27)

>  <Rbt.Parameter_File>
/export/apps/rDock/src/rDock_2013.1_src/data/scripts/dock_solv.prm

>  <Rbt.Receptor>
prm/pocket_docking_3.prm

>  <SCORE>
-12.5159

>  <SCORE.INTER>
-6.11385

>  <SCORE.INTER.CONST>
1

>  <SCORE.INTER.POLAR>
0

>  <SCORE.INTER.ROT>
6

>  <SCORE.INTER.SOLV>
16.8249

>  <SCORE.INTER.VDW>
-17.2842

>  <SCORE.INTER.norm>
-0.179819

>  <SCORE.INTRA>
-6.40201

>  <SCORE.INTRA.DIHEDRAL>
-12.3997

>  <SCORE.INTRA.DIHEDRAL.0>
19.5869

>  <SCORE.INTRA.POLAR>
0

>  <SCORE.INTRA.POLAR.0>
0

>  <SCORE.INTRA.REPUL>
0

>  <SCORE.INTRA.REPUL.0>
0

>  <SCORE.INTRA.SOLV>
-0.706779

>  <SCORE.INTRA.SOLV.lig_0>
-70.101

>  <SCORE.INTRA.VDW>
0.151214

>  <SCORE.INTRA.VDW.0>
-3.39718

>  <SCORE.INTRA.norm>
-0.188294

>  <SCORE.RESTR>
0

>  <SCORE.RESTR.CAVITY>
0

>  <SCORE.RESTR.norm>
0

>  <SCORE.SYSTEM>
0

>  <SCORE.SYSTEM.CONST>
0

>  <SCORE.SYSTEM.DIHEDRAL>
0

>  <SCORE.SYSTEM.SOLV>
0

>  <SCORE.SYSTEM.norm>
0

>  <SCORE.heavy>
34

>  <SCORE.norm>
-0.368114

>  <RMSD>
3.374

$$$$
ligand
 OpenBabel11021811483D
libRbt.so/2013.1/901 2013/11/27
 34 36  0  0  0  0  0  0  0  0999 V2000
    6.3423    5.9378    6.3070 C   0  0  2  0  0  0  0  0  0  0  0  0
    6.6490    7.3392    6.2412 O   0  0  0  0  0  0  0  0  0  0  0  0
   10.2221    6.7878    3.9629 C   0  0  2  0  0  0  0  0  0  0  0  0
   11.3694    7.0453    3.0995 N   0  0  0  0  0  0  0  0  0  0  0  0
   12.7339    7.9835    5.8922 C   0  0  2  0  0  0  0  0  0  0  0  0
    4.9319    5.7812    6.9801 C   0  0  2  0  0  0  0  0  0  0  0  0
    3.8900    6.4593    6.1934 N   0  0  0  0  0  0  0  0  0  0  0  0
    8.9408    7.2389    3.1854 C   0  0  0  0  0  0  0  0  0  0  0  0
   13.8224    7.3028    6.7971 C   0  0  2  0  0  0  0  0  0  0  0  0
   14.0647    5.9801    6.3468 O   0  0  0  0  0  0  0  0  0  0  0  0
    4.9789    6.3687    8.4073 C   0  0  1  0  0  0  0  0  0  0  0  0
    3.6933    6.2216    9.0322 O   0  0  0  0  0  0  0  0  0  0  0  0
    7.7065    6.9412    4.1024 C   0  0  2  0  0  0  0  0  0  0  0  0
    6.4614    7.3530    3.4230 N   0  0  0  0  0  0  0  0  0  0  0  0
   13.3135    7.3086    8.2905 C   0  0  1  0  0  0  0  0  0  0  0  0
   14.3095    6.6558    9.1922 N   0  0  0  0  0  0  0  0  0  0  0  0
    6.0871    5.6451    9.2085 C   0  0  2  0  0  0  0  0  0  0  0  0
    6.1500    6.1896   10.5382 O   0  0  0  0  0  0  0  0  0  0  0  0
    7.8191    7.7018    5.4484 C   0  0  2  0  0  0  0  0  0  0  0  0
   13.0623    8.7896    8.7370 C   0  0  1  0  0  0  0  0  0  0  0  0
   14.2839    9.5211    8.6754 O   0  0  0  0  0  0  0  0  0  0  0  0
    7.4708    5.8214    8.4743 C   0  0  2  0  0  0  0  0  0  0  0  0
    7.3861    5.2767    7.1052 O   0  0  0  0  0  0  0  0  0  0  0  0
    9.1269    7.2844    6.1663 C   0  0  2  0  0  0  0  0  0  0  0  0
    9.2177    8.0081    7.3892 O   0  0  0  0  0  0  0  0  0  0  0  0
   12.0225    9.4338    7.7668 C   0  0  0  0  0  0  0  0  0  0  0  0
   12.4928    9.3544    6.3629 O   0  0  0  0  0  0  0  0  0  0  0  0
    8.6193    5.0931    9.2202 C   0  0  2  0  0  0  0  0  0  0  0  0
    8.7770    5.6608   10.5180 O   0  0  0  0  0  0  0  0  0  0  0  0
   10.3687    7.6146    5.3059 C   0  0  1  0  0  0  0  0  0  0  0  0
   11.5292    7.1839    6.0557 O   0  0  0  0  0  0  0  0  0  0  0  0
    9.9410    5.2313    8.4829 C   0  0  0  0  0  0  0  0  0  0  0  0
   12.5439    8.8760   10.1672 C   0  0  0  0  0  0  0  0  0  0  0  0
   13.8351    5.2919    9.4950 C   0  0  0  0  0  0  0  0  0  0  0  0
  1  2  1  1  0  0  0
  1  6  1  0  0  0  0
  1 23  1  0  0  0  0
  3  4  1  6  0  0  0
  3  8  1  0  0  0  0
  3 30  1  0  0  0  0
  5  9  1  0  0  0  0
  5 27  1  0  0  0  0
  5 31  1  1  0  0  0
  6  7  1  6  0  0  0
  6 11  1  0  0  0  0
  8 13  1  0  0  0  0
  9 10  1  6  0  0  0
  9 15  1  0  0  0  0
 11 12  1  1  0  0  0
 11 17  1  0  0  0  0
 13 14  1  6  0  0  0
 13 19  1  0  0  0  0
 15 16  1  1  0  0  0
 15 20  1  0  0  0  0
 16 34  1  0  0  0  0
 17 18  1  1  0  0  0
 17 22  1  0  0  0  0
 19  2  1  1  0  0  0
 19 24  1  0  0  0  0
 20 21  1  6  0  0  0
 20 26  1  0  0  0  0
 20 33  1  0  0  0  0
 22 23  1  6  0  0  0
 22 28  1  0  0  0  0
 24 25  1  1  0  0  0
 24 30  1  0  0  0  0
 26 27  1  0  0  0  0
 28 29  1  1  0  0  0
 28 32  1  0  0  0  0
 30 31  1  1  0  0  0
M  END
>  <CHROM.1>
-170.20763040,47.34559669,-101.91761883,-62.29130924,97.54178984,-179.78239675
9.55191184,6.96323020,7.18141095,-3.13116649,0.19578753,1.74358836

>  <Name>
ligand

>  <RI>
0

>  <Rbt.Current_Directory>
/home/itssahil/PROJECTS/Mol_Feturizer/New_Systems/rnas/3TD1

>  <Rbt.Executable>
rbdock ($Id: //depot/dev/client3/rdock/2013.1/src/exe/rbdock.cxx#4 $)

>  <Rbt.Library>
libRbt.so (2013.1, Build901 2013/11/27)

>  <Rbt.Parameter_File>
/export/apps/rDock/src/rDock_2013.1_src/data/scripts/dock_solv.prm

>  <Rbt.Receptor>
prm/pocket_docking_3.prm

>  <SCORE>
-12.5288

>  <SCORE.INTER>
-6.16172

>  <SCORE.INTER.CONST>
1

>  <SCORE.INTER.POLAR>
0

>  <SCORE.INTER.ROT>
6

>  <SCORE.INTER.SOLV>
16.8238

>  <SCORE.INTER.VDW>
-17.3157

>  <SCORE.INTER.norm>
-0.181227

>  <SCORE.INTRA>
-6.36703

>  <SCORE.INTRA.DIHEDRAL>
-12.411

>  <SCORE.INTRA.DIHEDRAL.0>
19.5869

>  <SCORE.INTRA.POLAR>
0

>  <SCORE.INTRA.POLAR.0>
0

>  <SCORE.INTRA.REPUL>
0

>  <SCORE.INTRA.REPUL.0>
0

>  <SCORE.INTRA.SOLV>
-0.727749

>  <SCORE.INTRA.SOLV.lig_0>
-70.101

>  <SCORE.INTRA.VDW>
0.202358

>  <SCORE.INTRA.VDW.0>
-3.39718

>  <SCORE.INTRA.norm>
-0.187266

>  <SCORE.RESTR>
0

>  <SCORE.RESTR.CAVITY>
0

>  <SCORE.RESTR.norm>
0

>  <SCORE.SYSTEM>
0

>  <SCORE.SYSTEM.CONST>
0

>  <SCORE.SYSTEM.DIHEDRAL>
0

>  <SCORE.SYSTEM.SOLV>
0

>  <SCORE.SYSTEM.norm>
0

>  <SCORE.heavy>
34

>  <SCORE.norm>
-0.368493

>  <RMSD>
3.378

$$$$
ligand
 OpenBabel11021811483D
libRbt.so/2013.1/901 2013/11/27
 34 36  0  0  0  0  0  0  0  0999 V2000
    6.3440    5.9501    6.3075 C   0  0  2  0  0  0  0  0  0  0  0  0
    6.6470    7.3532    6.2603 O   0  0  0  0  0  0  0  0  0  0  0  0
   10.2009    6.8427    3.9426 C   0  0  2  0  0  0  0  0  0  0  0  0
   11.3419    7.1161    3.0757 N   0  0  0  0  0  0  0  0  0  0  0  0
   12.7279    7.9974    5.8838 C   0  0  2  0  0  0  0  0  0  0  0  0
    4.9362    5.7807    6.9826 C   0  0  2  0  0  0  0  0  0  0  0  0
    3.8901    6.4670    6.2086 N   0  0  0  0  0  0  0  0  0  0  0  0
    8.9145    7.3128    3.1849 C   0  0  0  0  0  0  0  0  0  0  0  0
   13.8144    7.3109    6.7867 C   0  0  2  0  0  0  0  0  0  0  0  0
   14.0636    5.9939    6.3237 O   0  0  0  0  0  0  0  0  0  0  0  0
    4.9860    6.3484    8.4177 C   0  0  1  0  0  0  0  0  0  0  0  0
    3.7027    6.1894    9.0444 O   0  0  0  0  0  0  0  0  0  0  0  0
    7.6868    6.9983    4.1052 C   0  0  2  0  0  0  0  0  0  0  0  0
    6.4373    7.4269    3.4445 N   0  0  0  0  0  0  0  0  0  0  0  0
   13.2982    7.2992    8.2776 C   0  0  1  0  0  0  0  0  0  0  0  0
   14.2921    6.6403    9.1773 N   0  0  0  0  0  0  0  0  0  0  0  0
    6.0985    5.6166    9.2054 C   0  0  2  0  0  0  0  0  0  0  0  0
    6.1641    6.1427   10.5423 O   0  0  0  0  0  0  0  0  0  0  0  0
    7.8117    7.7300    5.4660 C   0  0  2  0  0  0  0  0  0  0  0  0
   13.0396    8.7745    8.7385 C   0  0  1  0  0  0  0  0  0  0  0  0
   14.2589    9.5108    8.6906 O   0  0  0  0  0  0  0  0  0  0  0  0
    7.4795    5.8065    8.4695 C   0  0  2  0  0  0  0  0  0  0  0  0
    7.3919    5.2807    7.0933 O   0  0  0  0  0  0  0  0  0  0  0  0
    9.1242    7.2949    6.1646 C   0  0  2  0  0  0  0  0  0  0  0  0
    9.2262    7.9924    7.4018 O   0  0  0  0  0  0  0  0  0  0  0  0
   12.0023    9.4253    7.7700 C   0  0  0  0  0  0  0  0  0  0  0  0
   12.4797    9.3624    6.3677 O   0  0  0  0  0  0  0  0  0  0  0  0
    8.6321    5.0708    9.2018 C   0  0  2  0  0  0  0  0  0  0  0  0
    8.8007    5.6293   10.5022 O   0  0  0  0  0  0  0  0  0  0  0  0
   10.3599    7.6407    5.3015 C   0  0  1  0  0  0  0  0  0  0  0  0
   11.5253    7.1919    6.0328 O   0  0  0  0  0  0  0  0  0  0  0  0
    9.9485    5.2114    8.4555 C   0  0  0  0  0  0  0  0  0  0  0  0
   12.5140    8.8440   10.1670 C   0  0  0  0  0  0  0  0  0  0  0  0
   13.7197    5.3621    9.6415 C   0  0  0  0  0  0  0  0  0  0  0  0
  1  2  1  1  0  0  0
  1  6  1  0  0  0  0
  1 23  1  0  0  0  0
  3  4  1  6  0  0  0
  3  8  1  0  0  0  0
  3 30  1  0  0  0  0
  5  9  1  0  0  0  0
  5 27  1  0  0  0  0
  5 31  1  1  0  0  0
  6  7  1  6  0  0  0
  6 11  1  0  0  0  0
  8 13  1  0  0  0  0
  9 10  1  6  0  0  0
  9 15  1  0  0  0  0
 11 12  1  1  0  0  0
 11 17  1  0  0  0  0
 13 14  1  6  0  0  0
 13 19  1  0  0  0  0
 15 16  1  1  0  0  0
 15 20  1  0  0  0  0
 16 34  1  0  0  0  0
 17 18  1  1  0  0  0
 17 22  1  0  0  0  0
 19  2  1  1  0  0  0
 19 24  1  0  0  0  0
 20 21  1  6  0  0  0
 20 26  1  0  0  0  0
 20 33  1  0  0  0  0
 22 23  1  6  0  0  0
 22 28  1  0  0  0  0
 24 25  1  1  0  0  0
 24 30  1  0  0  0  0
 26 27  1  0  0  0  0
 28 29  1  1  0  0  0
 28 32  1  0  0  0  0
 30 31  1  1  0  0  0
M  END
>  <CHROM.1>
-170.04588482,47.82025626,-111.09184535,-62.83656994,97.93603860,179.10359012
9.54309528,6.96945618,7.18360733,-3.13483777,0.19784668,1.75927059

>  <Name>
ligand

>  <RI>
0

>  <Rbt.Current_Directory>
/home/itssahil/PROJECTS/Mol_Feturizer/New_Systems/rnas/3TD1

>  <Rbt.Executable>
rbdock ($Id: //depot/dev/client3/rdock/2013.1/src/exe/rbdock.cxx#4 $)

>  <Rbt.Library>
libRbt.so (2013.1, Build901 2013/11/27)

>  <Rbt.Parameter_File>
/export/apps/rDock/src/rDock_2013.1_src/data/scripts/dock_solv.prm

>  <Rbt.Receptor>
prm/pocket_docking_4.prm

>  <SCORE>
-12.5017

>  <SCORE.INTER>
-6.15962

>  <SCORE.INTER.CONST>
1

>  <SCORE.INTER.POLAR>
0

>  <SCORE.INTER.ROT>
6

>  <SCORE.INTER.SOLV>
16.8107

>  <SCORE.INTER.VDW>
-17.31

>  <SCORE.INTER.norm>
-0.181165

>  <SCORE.INTRA>
-6.34211

>  <SCORE.INTRA.DIHEDRAL>
-12.1841

>  <SCORE.INTRA.DIHEDRAL.0>
19.5869

>  <SCORE.INTRA.POLAR>
0

>  <SCORE.INTRA.POLAR.0>
0

>  <SCORE.INTRA.REPUL>
0

>  <SCORE.INTRA.REPUL.0>
0

>  <SCORE.INTRA.SOLV>
-0.737244

>  <SCORE.INTRA.SOLV.lig_0>
-70.101

>  <SCORE.INTRA.VDW>
0.118561

>  <SCORE.INTRA.VDW.0>
-3.39718

>  <SCORE.INTRA.norm>
-0.186533

>  <SCORE.RESTR>
0

>  <SCORE.RESTR.CAVITY>
0

>  <SCORE.RESTR.norm>
0

>  <SCORE.SYSTEM>
0

>  <SCORE.SYSTEM.CONST>
0

>  <SCORE.SYSTEM.DIHEDRAL>
0

>  <SCORE.SYSTEM.SOLV>
0

>  <SCORE.SYSTEM.norm>
0

>  <SCORE.heavy>
34

>  <SCORE.norm>
-0.367698

>  <RMSD>
3.380

$$$$
ligand
 OpenBabel11021811483D
libRbt.so/2013.1/901 2013/11/27
 34 36  0  0  0  0  0  0  0  0999 V2000
    6.9339    4.1484    7.5776 C   0  0  2  0  0  0  0  0  0  0  0  0
    6.6698    5.4940    8.0045 O   0  0  0  0  0  0  0  0  0  0  0  0
    8.6291    7.2742    4.6499 C   0  0  2  0  0  0  0  0  0  0  0  0
    9.0904    8.2555    3.6740 N   0  0  0  0  0  0  0  0  0  0  0  0
   11.4101    8.7572    5.9174 C   0  0  2  0  0  0  0  0  0  0  0  0
    5.8727    3.2083    8.2532 C   0  0  2  0  0  0  0  0  0  0  0  0
    4.5060    3.5749    7.8508 N   0  0  0  0  0  0  0  0  0  0  0  0
    7.0665    7.3529    4.6898 C   0  0  0  0  0  0  0  0  0  0  0  0
   12.9187    8.3476    5.7649 C   0  0  2  0  0  0  0  0  0  0  0  0
   13.0877    7.5563    4.6003 O   0  0  0  0  0  0  0  0  0  0  0  0
    6.0114    3.3013    9.7883 C   0  0  1  0  0  0  0  0  0  0  0  0
    5.0482    2.4372   10.4131 O   0  0  0  0  0  0  0  0  0  0  0  0
    6.5691    6.2835    5.7203 C   0  0  2  0  0  0  0  0  0  0  0  0
    5.0949    6.3135    5.8077 N   0  0  0  0  0  0  0  0  0  0  0  0
   13.3604    7.5564    7.0566 C   0  0  1  0  0  0  0  0  0  0  0  0
   14.7881    7.1293    6.9539 N   0  0  0  0  0  0  0  0  0  0  0  0
    7.4581    2.9200   10.1825 C   0  0  2  0  0  0  0  0  0  0  0  0
    7.6057    3.0125   11.6102 O   0  0  0  0  0  0  0  0  0  0  0  0
    7.1610    6.5518    7.1275 C   0  0  2  0  0  0  0  0  0  0  0  0
   13.1544    8.4734    8.3105 C   0  0  1  0  0  0  0  0  0  0  0  0
   13.9722    9.6347    8.1930 O   0  0  0  0  0  0  0  0  0  0  0  0
    8.4744    3.8838    9.4594 C   0  0  2  0  0  0  0  0  0  0  0  0
    8.2985    3.7937    7.9968 O   0  0  0  0  0  0  0  0  0  0  0  0
    8.7079    6.5317    7.0464 C   0  0  2  0  0  0  0  0  0  0  0  0
    9.2285    6.7981    8.3446 O   0  0  0  0  0  0  0  0  0  0  0  0
   11.6541    8.9002    8.3758 C   0  0  0  0  0  0  0  0  0  0  0  0
   11.2453    9.5804    7.1233 O   0  0  0  0  0  0  0  0  0  0  0  0
    9.9468    3.5324    9.7976 C   0  0  2  0  0  0  0  0  0  0  0  0
   10.8134    4.4906    9.1959 O   0  0  0  0  0  0  0  0  0  0  0  0
    9.2324    7.6141    6.0744 C   0  0  1  0  0  0  0  0  0  0  0  0
   10.6758    7.5096    6.0643 O   0  0  0  0  0  0  0  0  0  0  0  0
   10.3285    2.1583    9.2724 C   0  0  0  0  0  0  0  0  0  0  0  0
   13.5384    7.7674    9.6051 C   0  0  0  0  0  0  0  0  0  0  0  0
   14.8256    5.7811    6.3556 C   0  0  0  0  0  0  0  0  0  0  0  0
  1  2  1  1  0  0  0
  1  6  1  0  0  0  0
  1 23  1  0  0  0  0
  3  4  1  6  0  0  0
  3  8  1  0  0  0  0
  3 30  1  0  0  0  0
  5  9  1  0  0  0  0
  5 27  1  0  0  0  0
  5 31  1  1  0  0  0
  6  7  1  1  0  0  0
  6 11  1  0  0  0  0
  8 13  1  0  0  0  0
  9 10  1  6  0  0  0
  9 15  1  0  0  0  0
 11 12  1  1  0  0  0
 11 17  1  0  0  0  0
 13 14  1  1  0  0  0
 13 19  1  0  0  0  0
 15 16  1  6  0  0  0
 15 20  1  0  0  0  0
 16 34  1  0  0  0  0
 17 18  1  1  0  0  0
 17 22  1  0  0  0  0
 19  2  1  1  0  0  0
 19 24  1  0  0  0  0
 20 21  1  6  0  0  0
 20 26  1  0  0  0  0
 20 33  1  0  0  0  0
 22 23  1  6  0  0  0
 22 28  1  0  0  0  0
 24 25  1  1  0  0  0
 24 30  1  0  0  0  0
 26 27  1  0  0  0  0
 28 29  1  6  0  0  0
 28 32  1  0  0  0  0
 30 31  1  6  0  0  0
M  END
>  <CHROM.1>
-156.61062448,55.27467518,-91.42784782,-175.88935278,98.72590328,-173.40154038
9.54538220,6.05046737,7.58438293,2.54302898,0.28385636,2.30746733

>  <Name>
ligand

>  <RI>
0

>  <Rbt.Current_Directory>
/home/itssahil/PROJECTS/Mol_Feturizer/New_Systems/rnas/3TD1

>  <Rbt.Executable>
rbdock ($Id: //depot/dev/client3/rdock/2013.1/src/exe/rbdock.cxx#4 $)

>  <Rbt.Library>
libRbt.so (2013.1, Build901 2013/11/27)

>  <Rbt.Parameter_File>
/export/apps/rDock/src/rDock_2013.1_src/data/scripts/dock_solv.prm

>  <Rbt.Receptor>
prm/pocket_docking_5.prm

>  <SCORE>
-12.8768

>  <SCORE.INTER>
-7.88993

>  <SCORE.INTER.CONST>
1

>  <SCORE.INTER.POLAR>
0

>  <SCORE.INTER.ROT>
6

>  <SCORE.INTER.SOLV>
18.4663

>  <SCORE.INTER.VDW>
-19.0154

>  <SCORE.INTER.norm>
-0.232057

>  <SCORE.INTRA>
-4.98683

>  <SCORE.INTRA.DIHEDRAL>
-10.9918

>  <SCORE.INTRA.DIHEDRAL.0>
19.5869

>  <SCORE.INTRA.POLAR>
0

>  <SCORE.INTRA.POLAR.0>
0

>  <SCORE.INTRA.REPUL>
0.016035

>  <SCORE.INTRA.REPUL.0>
0

>  <SCORE.INTRA.SOLV>
-0.107559

>  <SCORE.INTRA.SOLV.lig_0>
-70.101

>  <SCORE.INTRA.VDW>
0.482684

>  <SCORE.INTRA.VDW.0>
-3.39718

>  <SCORE.INTRA.norm>
-0.146671

>  <SCORE.RESTR>
0

>  <SCORE.RESTR.CAVITY>
0

>  <SCORE.RESTR.norm>
0

>  <SCORE.SYSTEM>
0

>  <SCORE.SYSTEM.CONST>
0

>  <SCORE.SYSTEM.DIHEDRAL>
0

>  <SCORE.SYSTEM.SOLV>
0

>  <SCORE.SYSTEM.norm>
0

>  <SCORE.heavy>
34

>  <SCORE.norm>
-0.378728

>  <RMSD>
3.427

$$$$
ligand
 OpenBabel11021811483D
libRbt.so/2013.1/901 2013/11/27
 34 36  0  0  0  0  0  0  0  0999 V2000
    7.1631    5.4657    8.9627 C   0  0  2  0  0  0  0  0  0  0  0  0
    7.2192    4.9535    7.6221 O   0  0  0  0  0  0  0  0  0  0  0  0
    7.7971    6.4987    3.6800 C   0  0  2  0  0  0  0  0  0  0  0  0
    8.0424    7.4162    2.5727 N   0  0  0  0  0  0  0  0  0  0  0  0
   10.8320    6.7183    2.8777 C   0  0  2  0  0  0  0  0  0  0  0  0
    7.6463    4.3314    9.9356 C   0  0  2  0  0  0  0  0  0  0  0  0
    9.0299    3.9301    9.6376 N   0  0  0  0  0  0  0  0  0  0  0  0
    6.5934    7.0688    4.5021 C   0  0  0  0  0  0  0  0  0  0  0  0
   11.9246    5.8425    2.1661 C   0  0  2  0  0  0  0  0  0  0  0  0
   11.3097    4.7504    1.5029 O   0  0  0  0  0  0  0  0  0  0  0  0
    6.7063    3.1131    9.8068 C   0  0  1  0  0  0  0  0  0  0  0  0
    7.1381    2.0740   10.7004 O   0  0  0  0  0  0  0  0  0  0  0  0
    6.3143    6.0722    5.6776 C   0  0  2  0  0  0  0  0  0  0  0  0
    5.1872    6.5610    6.4975 N   0  0  0  0  0  0  0  0  0  0  0  0
   12.9543    5.3399    3.2508 C   0  0  1  0  0  0  0  0  0  0  0  0
   14.0086    4.4865    2.6251 N   0  0  0  0  0  0  0  0  0  0  0  0
    5.2592    3.5646   10.1160 C   0  0  2  0  0  0  0  0  0  0  0  0
    4.3697    2.4415    9.9895 O   0  0  0  0  0  0  0  0  0  0  0  0
    7.5634    5.9178    6.5824 C   0  0  2  0  0  0  0  0  0  0  0  0
   13.6033    6.5825    3.9510 C   0  0  1  0  0  0  0  0  0  0  0  0
   14.3090    7.3599    2.9873 O   0  0  0  0  0  0  0  0  0  0  0  0
    4.8406    4.7144    9.1224 C   0  0  2  0  0  0  0  0  0  0  0  0
    5.7728    5.8516    9.2485 O   0  0  0  0  0  0  0  0  0  0  0  0
    8.7554    5.4139    5.7308 C   0  0  2  0  0  0  0  0  0  0  0  0
    9.8940    5.2975    6.5778 O   0  0  0  0  0  0  0  0  0  0  0  0
   12.4685    7.4475    4.5847 C   0  0  0  0  0  0  0  0  0  0  0  0
   11.4774    7.8497    3.5579 O   0  0  0  0  0  0  0  0  0  0  0  0
    3.4034    5.2267    9.4017 C   0  0  2  0  0  0  0  0  0  0  0  0
    2.4750    4.1623    9.2110 O   0  0  0  0  0  0  0  0  0  0  0  0
    9.0890    6.4050    4.5916 C   0  0  1  0  0  0  0  0  0  0  0  0
   10.2026    5.8448    3.8564 O   0  0  0  0  0  0  0  0  0  0  0  0
    3.0206    6.3583    8.4622 C   0  0  0  0  0  0  0  0  0  0  0  0
   14.5962    6.1759    5.0330 C   0  0  0  0  0  0  0  0  0  0  0  0
   13.5923    3.0759    2.7433 C   0  0  0  0  0  0  0  0  0  0  0  0
  1  2  1  6  0  0  0
  1  6  1  0  0  0  0
  1 23  1  0  0  0  0
  3  4  1  6  0  0  0
  3  8  1  0  0  0  0
  3 30  1  0  0  0  0
  5  9  1  0  0  0  0
  5 27  1  0  0  0  0
  5 31  1  1  0  0  0
  6  7  1  6  0  0  0
  6 11  1  0  0  0  0
  8 13  1  0  0  0  0
  9 10  1  1  0  0  0
  9 15  1  0  0  0  0
 11 12  1  1  0  0  0
 11 17  1  0  0  0  0
 13 14  1  1  0  0  0
 13 19  1  0  0  0  0
 15 16  1  6  0  0  0
 15 20  1  0  0  0  0
 16 34  1  0  0  0  0
 17 18  1  6  0  0  0
 17 22  1  0  0  0  0
 19  2  1  1  0  0  0
 19 24  1  0  0  0  0
 20 21  1  6  0  0  0
 20 26  1  0  0  0  0
 20 33  1  0  0  0  0
 22 23  1  1  0  0  0
 22 28  1  0  0  0  0
 24 25  1  1  0  0  0
 24 30  1  0  0  0  0
 26 27  1  0  0  0  0
 28 29  1  6  0  0  0
 28 32  1  0  0  0  0
 30 31  1  6  0  0  0
M  END
>  <CHROM.1>
-146.24399807,-114.02513681,-94.15323635,-61.92357632,74.19237364,-176.14996817
8.66666371,5.40255692,6.11918934,-2.49071021,0.25881462,-0.99333264

>  <Name>
ligand

>  <RI>
0

>  <Rbt.Current_Directory>
/home/itssahil/PROJECTS/Mol_Feturizer/New_Systems/rnas/3TD1

>  <Rbt.Executable>
rbdock ($Id: //depot/dev/client3/rdock/2013.1/src/exe/rbdock.cxx#4 $)

>  <Rbt.Library>
libRbt.so (2013.1, Build901 2013/11/27)

>  <Rbt.Parameter_File>
/export/apps/rDock/src/rDock_2013.1_src/data/scripts/dock_solv.prm

>  <Rbt.Receptor>
prm/pocket_docking_6.prm

>  <SCORE>
-13.7398

>  <SCORE.INTER>
-11.5602

>  <SCORE.INTER.CONST>
1

>  <SCORE.INTER.POLAR>
0

>  <SCORE.INTER.ROT>
6

>  <SCORE.INTER.SOLV>
13.6841

>  <SCORE.INTER.VDW>
-19.8682

>  <SCORE.INTER.norm>
-0.340005

>  <SCORE.INTRA>
-2.17961

>  <SCORE.INTRA.DIHEDRAL>
-6.44001

>  <SCORE.INTRA.DIHEDRAL.0>
19.5869

>  <SCORE.INTRA.POLAR>
0

>  <SCORE.INTRA.POLAR.0>
0

>  <SCORE.INTRA.REPUL>
0

>  <SCORE.INTRA.REPUL.0>
0

>  <SCORE.INTRA.SOLV>
1.88283

>  <SCORE.INTRA.SOLV.lig_0>
-70.101

>  <SCORE.INTRA.VDW>
0.0989795

>  <SCORE.INTRA.VDW.0>
-3.39718

>  <SCORE.INTRA.norm>
-0.0641061

>  <SCORE.RESTR>
0

>  <SCORE.RESTR.CAVITY>
0

>  <SCORE.RESTR.norm>
0

>  <SCORE.SYSTEM>
0

>  <SCORE.SYSTEM.CONST>
0

>  <SCORE.SYSTEM.DIHEDRAL>
0

>  <SCORE.SYSTEM.SOLV>
0

>  <SCORE.SYSTEM.norm>
0

>  <SCORE.heavy>
34

>  <SCORE.norm>
-0.404112

>  <RMSD>
3.470

$$$$
ligand
 OpenBabel11021811483D
libRbt.so/2013.1/901 2013/11/27
 34 36  0  0  0  0  0  0  0  0999 V2000
    6.7301    4.7256   10.6948 C   0  0  2  0  0  0  0  0  0  0  0  0
    7.3717    5.6864    9.8417 O   0  0  0  0  0  0  0  0  0  0  0  0
   10.6391    8.3412   10.5746 C   0  0  2  0  0  0  0  0  0  0  0  0
   11.9210    8.8701   11.0277 N   0  0  0  0  0  0  0  0  0  0  0  0
   12.9001    8.1932    8.4620 C   0  0  2  0  0  0  0  0  0  0  0  0
    7.4419    3.3411   10.4871 C   0  0  2  0  0  0  0  0  0  0  0  0
    8.8668    3.4177   10.8448 N   0  0  0  0  0  0  0  0  0  0  0  0
    9.9143    7.7376   11.8236 C   0  0  0  0  0  0  0  0  0  0  0  0
   13.3237    8.7811    7.0684 C   0  0  2  0  0  0  0  0  0  0  0  0
   12.5140    9.9014    6.7520 O   0  0  0  0  0  0  0  0  0  0  0  0
    7.2927    2.9060    9.0130 C   0  0  1  0  0  0  0  0  0  0  0  0
    7.9351    1.6357    8.8175 O   0  0  0  0  0  0  0  0  0  0  0  0
    8.5280    7.1904   11.3424 C   0  0  2  0  0  0  0  0  0  0  0  0
    7.7954    6.5996   12.4807 N   0  0  0  0  0  0  0  0  0  0  0  0
   13.1778    7.6504    5.9777 C   0  0  1  0  0  0  0  0  0  0  0  0
   13.5550    8.1652    4.6272 N   0  0  0  0  0  0  0  0  0  0  0  0
    5.7874    2.8425    8.6615 C   0  0  2  0  0  0  0  0  0  0  0  0
    5.6327    2.4485    7.2870 O   0  0  0  0  0  0  0  0  0  0  0  0
    8.7084    6.1096   10.2460 C   0  0  2  0  0  0  0  0  0  0  0  0
   14.0906    6.4399    6.3742 C   0  0  1  0  0  0  0  0  0  0  0  0
   15.4524    6.8590    6.4080 O   0  0  0  0  0  0  0  0  0  0  0  0
    5.1269    4.2522    8.9088 C   0  0  2  0  0  0  0  0  0  0  0  0
    5.3103    4.6529   10.3174 O   0  0  0  0  0  0  0  0  0  0  0  0
    9.4841    6.7158    9.0499 C   0  0  2  0  0  0  0  0  0  0  0  0
    9.6536    5.7015    8.0650 O   0  0  0  0  0  0  0  0  0  0  0  0
   13.6671    5.9383    7.7906 C   0  0  0  0  0  0  0  0  0  0  0  0
   13.7471    7.0364    8.7837 O   0  0  0  0  0  0  0  0  0  0  0  0
    3.6076    4.2430    8.5968 C   0  0  2  0  0  0  0  0  0  0  0  0
    3.0641    5.5366    8.8465 O   0  0  0  0  0  0  0  0  0  0  0  0
   10.8807    7.2182    9.4842 C   0  0  1  0  0  0  0  0  0  0  0  0
   11.5174    7.7676    8.3065 O   0  0  0  0  0  0  0  0  0  0  0  0
    2.8638    3.2444    9.4682 C   0  0  0  0  0  0  0  0  0  0  0  0
   13.9852    5.2928    5.3766 C   0  0  0  0  0  0  0  0  0  0  0  0
   12.3275    8.2800    3.8166 C   0  0  0  0  0  0  0  0  0  0  0  0
  1  2  1  6  0  0  0
  1  6  1  0  0  0  0
  1 23  1  0  0  0  0
  3  4  1  1  0  0  0
  3  8  1  0  0  0  0
  3 30  1  0  0  0  0
  5  9  1  0  0  0  0
  5 27  1  0  0  0  0
  5 31  1  6  0  0  0
  6  7  1  6  0  0  0
  6 11  1  0  0  0  0
  8 13  1  0  0  0  0
  9 10  1  6  0  0  0
  9 15  1  0  0  0  0
 11 12  1  1  0  0  0
 11 17  1  0  0  0  0
 13 14  1  1  0  0  0
 13 19  1  0  0  0  0
 15 16  1  6  0  0  0
 15 20  1  0  0  0  0
 16 34  1  0  0  0  0
 17 18  1  6  0  0  0
 17 22  1  0  0  0  0
 19  2  1  6  0  0  0
 19 24  1  0  0  0  0
 20 21  1  1  0  0  0
 20 26  1  0  0  0  0
 20 33  1  0  0  0  0
 22 23  1  1  0  0  0
 22 28  1  0  0  0  0
 24 25  1  6  0  0  0
 24 30  1  0  0  0  0
 26 27  1  0  0  0  0
 28 29  1  1  0  0  0
 28 32  1  0  0  0  0
 30 31  1  6  0  0  0
M  END
>  <CHROM.1>
-72.41859270,-81.05790758,-109.04698894,179.59240834,69.41703797,-178.27200081
9.54281411,5.97929056,8.66017347,-3.10144227,-0.51620013,-2.11210989

>  <Name>
ligand

>  <RI>
0

>  <Rbt.Current_Directory>
/home/itssahil/PROJECTS/Mol_Feturizer/New_Systems/rnas/3TD1

>  <Rbt.Executable>
rbdock ($Id: //depot/dev/client3/rdock/2013.1/src/exe/rbdock.cxx#4 $)

>  <Rbt.Library>
libRbt.so (2013.1, Build901 2013/11/27)

>  <Rbt.Parameter_File>
/export/apps/rDock/src/rDock_2013.1_src/data/scripts/dock_solv.prm

>  <Rbt.Receptor>
prm/pocket_docking_4.prm

>  <SCORE>
-13.9134

>  <SCORE.INTER>
-8.58821

>  <SCORE.INTER.CONST>
1

>  <SCORE.INTER.POLAR>
0

>  <SCORE.INTER.ROT>
6

>  <SCORE.INTER.SOLV>
13.3872

>  <SCORE.INTER.VDW>
-17.7879

>  <SCORE.INTER.norm>
-0.252594

>  <SCORE.INTRA>
-5.3252

>  <SCORE.INTRA.DIHEDRAL>
-15.2632

>  <SCORE.INTRA.DIHEDRAL.0>
19.5869

>  <SCORE.INTRA.POLAR>
0

>  <SCORE.INTRA.POLAR.0>
0

>  <SCORE.INTRA.REPUL>
0

>  <SCORE.INTRA.REPUL.0>
0

>  <SCORE.INTRA.SOLV>
1.7124

>  <SCORE.INTRA.SOLV.lig_0>
-70.101

>  <SCORE.INTRA.VDW>
1.45022

>  <SCORE.INTRA.VDW.0>
-3.39718

>  <SCORE.INTRA.norm>
-0.156623

>  <SCORE.RESTR>
0

>  <SCORE.RESTR.CAVITY>
0

>  <SCORE.RESTR.norm>
0

>  <SCORE.SYSTEM>
0

>  <SCORE.SYSTEM.CONST>
0

>  <SCORE.SYSTEM.DIHEDRAL>
0

>  <SCORE.SYSTEM.SOLV>
0

>  <SCORE.SYSTEM.norm>
0

>  <SCORE.heavy>
34

>  <SCORE.norm>
-0.409218

>  <RMSD>
3.719

$$$$
ligand
 OpenBabel11021811483D
libRbt.so/2013.1/901 2013/11/27
 34 36  0  0  0  0  0  0  0  0999 V2000
    6.0827    5.7660    6.5984 C   0  0  2  0  0  0  0  0  0  0  0  0
    6.6622    7.0737    6.4691 O   0  0  0  0  0  0  0  0  0  0  0  0
    9.6040    5.8451    3.6234 C   0  0  2  0  0  0  0  0  0  0  0  0
   10.6247    5.8797    2.5817 N   0  0  0  0  0  0  0  0  0  0  0  0
   12.5205    5.9366    4.7018 C   0  0  2  0  0  0  0  0  0  0  0  0
    4.7969    5.8917    7.4915 C   0  0  2  0  0  0  0  0  0  0  0  0
    3.8086    6.7907    6.8757 N   0  0  0  0  0  0  0  0  0  0  0  0
    8.3479    6.5994    3.0729 C   0  0  0  0  0  0  0  0  0  0  0  0
   13.5514    5.0208    5.4539 C   0  0  2  0  0  0  0  0  0  0  0  0
   13.0860    3.6814    5.4669 O   0  0  0  0  0  0  0  0  0  0  0  0
    5.1934    6.4228    8.8861 C   0  0  1  0  0  0  0  0  0  0  0  0
    4.0223    6.5328    9.7114 O   0  0  0  0  0  0  0  0  0  0  0  0
    7.2434    6.5426    4.1818 C   0  0  2  0  0  0  0  0  0  0  0  0
    6.0291    7.2464    3.7218 N   0  0  0  0  0  0  0  0  0  0  0  0
   13.7384    5.5700    6.9212 C   0  0  1  0  0  0  0  0  0  0  0  0
   14.7009    4.7213    7.6858 N   0  0  0  0  0  0  0  0  0  0  0  0
    6.2385    5.4651    9.5060 C   0  0  2  0  0  0  0  0  0  0  0  0
    6.6258    5.9532   10.8023 O   0  0  0  0  0  0  0  0  0  0  0  0
    7.7397    7.2027    5.4936 C   0  0  2  0  0  0  0  0  0  0  0  0
   14.2528    7.0485    6.8497 C   0  0  1  0  0  0  0  0  0  0  0  0
   15.5166    7.0836    6.1920 O   0  0  0  0  0  0  0  0  0  0  0  0
    7.4929    5.3657    8.5568 C   0  0  2  0  0  0  0  0  0  0  0  0
    7.0783    4.8831    7.2251 O   0  0  0  0  0  0  0  0  0  0  0  0
    9.0192    6.4779    5.9811 C   0  0  2  0  0  0  0  0  0  0  0  0
    9.4664    7.1120    7.1750 O   0  0  0  0  0  0  0  0  0  0  0  0
   13.2227    7.8967    6.0393 C   0  0  0  0  0  0  0  0  0  0  0  0
   13.0130    7.3209    4.6891 O   0  0  0  0  0  0  0  0  0  0  0  0
    8.5671    4.3964    9.1158 C   0  0  2  0  0  0  0  0  0  0  0  0
    9.0732    4.9077   10.3461 O   0  0  0  0  0  0  0  0  0  0  0  0
   10.1475    6.5624    4.9269 C   0  0  1  0  0  0  0  0  0  0  0  0
   11.2875    5.8558    5.4702 O   0  0  0  0  0  0  0  0  0  0  0  0
    9.7347    4.2415    8.1553 C   0  0  0  0  0  0  0  0  0  0  0  0
   14.4356    7.6584    8.2340 C   0  0  0  0  0  0  0  0  0  0  0  0
   13.9383    3.9280    8.6688 C   0  0  0  0  0  0  0  0  0  0  0  0
  1  2  1  1  0  0  0
  1  6  1  0  0  0  0
  1 23  1  0  0  0  0
  3  4  1  6  0  0  0
  3  8  1  0  0  0  0
  3 30  1  0  0  0  0
  5  9  1  0  0  0  0
  5 27  1  0  0  0  0
  5 31  1  1  0  0  0
  6  7  1  6  0  0  0
  6 11  1  0  0  0  0
  8 13  1  0  0  0  0
  9 10  1  1  0  0  0
  9 15  1  0  0  0  0
 11 12  1  1  0  0  0
 11 17  1  0  0  0  0
 13 14  1  6  0  0  0
 13 19  1  0  0  0  0
 15 16  1  1  0  0  0
 15 20  1  0  0  0  0
 16 34  1  0  0  0  0
 17 18  1  1  0  0  0
 17 22  1  0  0  0  0
 19  2  1  1  0  0  0
 19 24  1  0  0  0  0
 20 21  1  6  0  0  0
 20 26  1  0  0  0  0
 20 33  1  0  0  0  0
 22 23  1  6  0  0  0
 22 28  1  0  0  0  0
 24 25  1  1  0  0  0
 24 30  1  0  0  0  0
 26 27  1  0  0  0  0
 28 29  1  1  0  0  0
 28 32  1  0  0  0  0
 30 31  1  1  0  0  0
M  END
>  <CHROM.1>
-170.16569441,48.58667221,-107.02298427,-63.94739377,70.67935098,-176.44766638
9.63885100,6.02147170,6.71463079,2.95227314,-0.06404683,1.80060630

>  <Name>
ligand

>  <RI>
0

>  <Rbt.Current_Directory>
/home/itssahil/PROJECTS/Mol_Feturizer/New_Systems/rnas/3TD1

>  <Rbt.Executable>
rbdock ($Id: //depot/dev/client3/rdock/2013.1/src/exe/rbdock.cxx#4 $)

>  <Rbt.Library>
libRbt.so (2013.1, Build901 2013/11/27)

>  <Rbt.Parameter_File>
/export/apps/rDock/src/rDock_2013.1_src/data/scripts/dock_solv.prm

>  <Rbt.Receptor>
prm/pocket_docking_4.prm

>  <SCORE>
-11.8453

>  <SCORE.INTER>
-4.3142

>  <SCORE.INTER.CONST>
1

>  <SCORE.INTER.POLAR>
0

>  <SCORE.INTER.ROT>
6

>  <SCORE.INTER.SOLV>
17.1493

>  <SCORE.INTER.VDW>
-16.1926

>  <SCORE.INTER.norm>
-0.126888

>  <SCORE.INTRA>
-7.53106

>  <SCORE.INTRA.DIHEDRAL>
-16.7008

>  <SCORE.INTRA.DIHEDRAL.0>
19.5869

>  <SCORE.INTRA.POLAR>
0

>  <SCORE.INTRA.POLAR.0>
0

>  <SCORE.INTRA.REPUL>
0

>  <SCORE.INTRA.REPUL.0>
0

>  <SCORE.INTRA.SOLV>
-0.156672

>  <SCORE.INTRA.SOLV.lig_0>
-70.101

>  <SCORE.INTRA.VDW>
0.897667

>  <SCORE.INTRA.VDW.0>
-3.39718

>  <SCORE.INTRA.norm>
-0.221502

>  <SCORE.RESTR>
0

>  <SCORE.RESTR.CAVITY>
0

>  <SCORE.RESTR.norm>
0

>  <SCORE.SYSTEM>
0

>  <SCORE.SYSTEM.CONST>
0

>  <SCORE.SYSTEM.DIHEDRAL>
0

>  <SCORE.SYSTEM.SOLV>
0

>  <SCORE.SYSTEM.norm>
0

>  <SCORE.heavy>
34

>  <SCORE.norm>
-0.34839

>  <RMSD>
3.770

$$$$
ligand
 OpenBabel11021811483D
libRbt.so/2013.1/901 2013/11/27
 34 36  0  0  0  0  0  0  0  0999 V2000
    5.5159    6.4048    8.1645 C   0  0  2  0  0  0  0  0  0  0  0  0
    6.0251    5.8710    6.9323 O   0  0  0  0  0  0  0  0  0  0  0  0
    7.0969    7.3147    3.0556 C   0  0  2  0  0  0  0  0  0  0  0  0
    7.2625    8.1866    1.8979 N   0  0  0  0  0  0  0  0  0  0  0  0
    9.7833    8.6629    2.8296 C   0  0  2  0  0  0  0  0  0  0  0  0
    5.6085    5.2790    9.2556 C   0  0  2  0  0  0  0  0  0  0  0  0
    7.0014    4.8529    9.4619 N   0  0  0  0  0  0  0  0  0  0  0  0
    5.5745    7.3026    3.4184 C   0  0  0  0  0  0  0  0  0  0  0  0
   10.2440    7.6405    1.7298 C   0  0  2  0  0  0  0  0  0  0  0  0
    9.1532    6.8182    1.3493 O   0  0  0  0  0  0  0  0  0  0  0  0
    4.7489    4.0727    8.8193 C   0  0  1  0  0  0  0  0  0  0  0  0
    4.8228    3.0415    9.8173 O   0  0  0  0  0  0  0  0  0  0  0  0
    5.3925    6.3484    4.6469 C   0  0  2  0  0  0  0  0  0  0  0  0
    3.9702    6.2997    5.0424 N   0  0  0  0  0  0  0  0  0  0  0  0
   11.4303    6.7763    2.3087 C   0  0  1  0  0  0  0  0  0  0  0  0
   11.8957    5.7744    1.3033 N   0  0  0  0  0  0  0  0  0  0  0  0
    3.2936    4.5501    8.6010 C   0  0  2  0  0  0  0  0  0  0  0  0
    2.4824    3.4383    8.1835 O   0  0  0  0  0  0  0  0  0  0  0  0
    6.2333    6.8333    5.8554 C   0  0  2  0  0  0  0  0  0  0  0  0
   12.6060    7.7307    2.7119 C   0  0  1  0  0  0  0  0  0  0  0  0
   13.0758    8.4239    1.5587 O   0  0  0  0  0  0  0  0  0  0  0  0
    3.2690    5.6902    7.5128 C   0  0  2  0  0  0  0  0  0  0  0  0
    4.1206    6.8154    7.9446 O   0  0  0  0  0  0  0  0  0  0  0  0
    7.7270    6.8971    5.4493 C   0  0  2  0  0  0  0  0  0  0  0  0
    8.4762    7.3617    6.5674 O   0  0  0  0  0  0  0  0  0  0  0  0
   12.0755    8.7622    3.7568 C   0  0  0  0  0  0  0  0  0  0  0  0
   10.9181    9.5135    3.2141 O   0  0  0  0  0  0  0  0  0  0  0  0
    1.8345    6.2278    7.2693 C   0  0  2  0  0  0  0  0  0  0  0  0
    1.0040    5.1683    6.8013 O   0  0  0  0  0  0  0  0  0  0  0  0
    7.9462    7.8735    4.2702 C   0  0  1  0  0  0  0  0  0  0  0  0
    9.3607    7.8568    3.9649 O   0  0  0  0  0  0  0  0  0  0  0  0
    1.8209    7.3321    6.2253 C   0  0  0  0  0  0  0  0  0  0  0  0
   13.7847    6.9681    3.3043 C   0  0  0  0  0  0  0  0  0  0  0  0
   12.2396    4.5291    2.0161 C   0  0  0  0  0  0  0  0  0  0  0  0
  1  2  1  6  0  0  0
  1  6  1  0  0  0  0
  1 23  1  0  0  0  0
  3  4  1  6  0  0  0
  3  8  1  0  0  0  0
  3 30  1  0  0  0  0
  5  9  1  0  0  0  0
  5 27  1  0  0  0  0
  5 31  1  1  0  0  0
  6  7  1  6  0  0  0
  6 11  1  0  0  0  0
  8 13  1  0  0  0  0
  9 10  1  1  0  0  0
  9 15  1  0  0  0  0
 11 12  1  1  0  0  0
 11 17  1  0  0  0  0
 13 14  1  1  0  0  0
 13 19  1  0  0  0  0
 15 16  1  6  0  0  0
 15 20  1  0  0  0  0
 16 34  1  0  0  0  0
 17 18  1  6  0  0  0
 17 22  1  0  0  0  0
 19  2  1  1  0  0  0
 19 24  1  0  0  0  0
 20 21  1  6  0  0  0
 20 26  1  0  0  0  0
 20 33  1  0  0  0  0
 22 23  1  1  0  0  0
 22 28  1  0  0  0  0
 24 25  1  1  0  0  0
 24 30  1  0  0  0  0
 26 27  1  0  0  0  0
 28 29  1  6  0  0  0
 28 32  1  0  0  0  0
 30 31  1  6  0  0  0
M  END
>  <CHROM.1>
-169.95660697,-122.74400905,-142.41717529,-60.84882800,61.04126787,-111.90816112
7.28909441,6.53851991,5.15994179,-2.50883902,0.08411798,-1.06089469

>  <Name>
ligand

>  <RI>
0

>  <Rbt.Current_Directory>
/home/itssahil/PROJECTS/Mol_Feturizer/New_Systems/rnas/3TD1

>  <Rbt.Executable>
rbdock ($Id: //depot/dev/client3/rdock/2013.1/src/exe/rbdock.cxx#4 $)

>  <Rbt.Library>
libRbt.so (2013.1, Build901 2013/11/27)

>  <Rbt.Parameter_File>
/export/apps/rDock/src/rDock_2013.1_src/data/scripts/dock_solv.prm

>  <Rbt.Receptor>
prm/blind_docking_100.prm

>  <SCORE>
32.228

>  <SCORE.INTER>
9.57409

>  <SCORE.INTER.CONST>
1

>  <SCORE.INTER.POLAR>
0

>  <SCORE.INTER.ROT>
6

>  <SCORE.INTER.SOLV>
18.6773

>  <SCORE.INTER.VDW>
-7.44304

>  <SCORE.INTER.norm>
0.281591

>  <SCORE.INTRA>
5.86821

>  <SCORE.INTRA.DIHEDRAL>
-4.17042

>  <SCORE.INTRA.DIHEDRAL.0>
19.5869

>  <SCORE.INTRA.POLAR>
0

>  <SCORE.INTRA.POLAR.0>
0

>  <SCORE.INTRA.REPUL>
0

>  <SCORE.INTRA.REPUL.0>
0

>  <SCORE.INTRA.SOLV>
4.43703

>  <SCORE.INTRA.SOLV.lig_0>
-70.101

>  <SCORE.INTRA.VDW>
5.73491

>  <SCORE.INTRA.VDW.0>
-3.39718

>  <SCORE.INTRA.norm>
0.172595

>  <SCORE.RESTR>
16.7857

>  <SCORE.RESTR.CAVITY>
16.7857

>  <SCORE.RESTR.norm>
0.493696

>  <SCORE.SYSTEM>
0

>  <SCORE.SYSTEM.CONST>
0

>  <SCORE.SYSTEM.DIHEDRAL>
0

>  <SCORE.SYSTEM.SOLV>
0

>  <SCORE.SYSTEM.norm>
0

>  <SCORE.heavy>
34

>  <SCORE.norm>
0.947881

>  <RMSD>
3.772

$$$$
ligand
 OpenBabel11021811483D
libRbt.so/2013.1/901 2013/11/27
 34 36  0  0  0  0  0  0  0  0999 V2000
    6.8381    5.5954   10.0112 C   0  0  2  0  0  0  0  0  0  0  0  0
    7.2102    5.5753    8.6242 O   0  0  0  0  0  0  0  0  0  0  0  0
   10.4268    7.6210    6.6928 C   0  0  2  0  0  0  0  0  0  0  0  0
   11.7592    8.1242    6.3775 N   0  0  0  0  0  0  0  0  0  0  0  0
   11.2217    4.3465    4.9425 C   0  0  2  0  0  0  0  0  0  0  0  0
    7.2608    4.2227   10.6465 C   0  0  2  0  0  0  0  0  0  0  0  0
    8.7140    4.0167   10.5471 N   0  0  0  0  0  0  0  0  0  0  0  0
   10.1169    8.0146    8.1757 C   0  0  0  0  0  0  0  0  0  0  0  0
   12.7115    4.4503    5.4291 C   0  0  2  0  0  0  0  0  0  0  0  0
   12.7460    4.7713    6.8099 O   0  0  0  0  0  0  0  0  0  0  0  0
    6.5170    3.0764    9.9273 C   0  0  1  0  0  0  0  0  0  0  0  0
    6.8932    1.8175   10.5091 O   0  0  0  0  0  0  0  0  0  0  0  0
    8.6772    7.4951    8.5078 C   0  0  2  0  0  0  0  0  0  0  0  0
    8.3277    7.8324    9.9027 N   0  0  0  0  0  0  0  0  0  0  0  0
   13.4471    5.5524    4.5725 C   0  0  1  0  0  0  0  0  0  0  0  0
   14.8680    5.7012    5.0084 N   0  0  0  0  0  0  0  0  0  0  0  0
    4.9937    3.3225   10.0393 C   0  0  2  0  0  0  0  0  0  0  0  0
    4.2872    2.2673    9.3641 O   0  0  0  0  0  0  0  0  0  0  0  0
    8.5860    5.9585    8.3249 C   0  0  2  0  0  0  0  0  0  0  0  0
   13.3802    5.1499    3.0595 C   0  0  1  0  0  0  0  0  0  0  0  0
   14.0511    3.9076    2.8653 O   0  0  0  0  0  0  0  0  0  0  0  0
    4.6360    4.7201    9.4042 C   0  0  2  0  0  0  0  0  0  0  0  0
    5.3825    5.7908   10.0929 O   0  0  0  0  0  0  0  0  0  0  0  0
    8.9595    5.5917    6.8669 C   0  0  2  0  0  0  0  0  0  0  0  0
    8.8867    4.1766    6.7277 O   0  0  0  0  0  0  0  0  0  0  0  0
   11.8815    4.9998    2.6487 C   0  0  0  0  0  0  0  0  0  0  0  0
   11.1956    4.0091    3.5126 O   0  0  0  0  0  0  0  0  0  0  0  0
    3.1207    5.0340    9.5105 C   0  0  2  0  0  0  0  0  0  0  0  0
    2.3841    4.0788    8.7513 O   0  0  0  0  0  0  0  0  0  0  0  0
   10.3977    6.0463    6.5254 C   0  0  1  0  0  0  0  0  0  0  0  0
   10.6460    5.6665    5.1512 O   0  0  0  0  0  0  0  0  0  0  0  0
    2.7966    6.4163    8.9683 C   0  0  0  0  0  0  0  0  0  0  0  0
   14.0517    6.1824    2.1624 C   0  0  0  0  0  0  0  0  0  0  0  0
   14.9292    6.7628    6.0313 C   0  0  0  0  0  0  0  0  0  0  0  0
  1  2  1  6  0  0  0
  1  6  1  0  0  0  0
  1 23  1  0  0  0  0
  3  4  1  1  0  0  0
  3  8  1  0  0  0  0
  3 30  1  0  0  0  0
  5  9  1  0  0  0  0
  5 27  1  0  0  0  0
  5 31  1  6  0  0  0
  6  7  1  6  0  0  0
  6 11  1  0  0  0  0
  8 13  1  0  0  0  0
  9 10  1  1  0  0  0
  9 15  1  0  0  0  0
 11 12  1  1  0  0  0
 11 17  1  0  0  0  0
 13 14  1  1  0  0  0
 13 19  1  0  0  0  0
 15 16  1  1  0  0  0
 15 20  1  0  0  0  0
 16 34  1  0  0  0  0
 17 18  1  6  0  0  0
 17 22  1  0  0  0  0
 19  2  1  6  0  0  0
 19 24  1  0  0  0  0
 20 21  1  6  0  0  0
 20 26  1  0  0  0  0
 20 33  1  0  0  0  0
 22 23  1  1  0  0  0
 22 28  1  0  0  0  0
 24 25  1  1  0  0  0
 24 30  1  0  0  0  0
 26 27  1  0  0  0  0
 28 29  1  6  0  0  0
 28 32  1  0  0  0  0
 30 31  1  6  0  0  0
M  END
>  <CHROM.1>
-84.85806674,-73.75177562,-92.21322769,-63.77295841,153.80522848,-71.87723951
9.16553372,5.21014538,7.24230745,-2.91189611,-0.54556238,-2.53175274

>  <Name>
ligand

>  <RI>
0

>  <Rbt.Current_Directory>
/home/itssahil/PROJECTS/Mol_Feturizer/New_Systems/rnas/3TD1

>  <Rbt.Executable>
rbdock ($Id: //depot/dev/client3/rdock/2013.1/src/exe/rbdock.cxx#4 $)

>  <Rbt.Library>
libRbt.so (2013.1, Build901 2013/11/27)

>  <Rbt.Parameter_File>
/export/apps/rDock/src/rDock_2013.1_src/data/scripts/dock_solv.prm

>  <Rbt.Receptor>
prm/pocket_docking_7.prm

>  <SCORE>
-14.7851

>  <SCORE.INTER>
-11.9806

>  <SCORE.INTER.CONST>
1

>  <SCORE.INTER.POLAR>
0

>  <SCORE.INTER.ROT>
6

>  <SCORE.INTER.SOLV>
13.2819

>  <SCORE.INTER.VDW>
-20.0143

>  <SCORE.INTER.norm>
-0.352369

>  <SCORE.INTRA>
-2.80453

>  <SCORE.INTRA.DIHEDRAL>
-11.7439

>  <SCORE.INTRA.DIHEDRAL.0>
19.5869

>  <SCORE.INTRA.POLAR>
0

>  <SCORE.INTRA.POLAR.0>
0

>  <SCORE.INTRA.REPUL>
0

>  <SCORE.INTRA.REPUL.0>
0

>  <SCORE.INTRA.SOLV>
2.93093

>  <SCORE.INTRA.SOLV.lig_0>
-70.101

>  <SCORE.INTRA.VDW>
1.60194

>  <SCORE.INTRA.VDW.0>
-3.39718

>  <SCORE.INTRA.norm>
-0.0824863

>  <SCORE.RESTR>
0

>  <SCORE.RESTR.CAVITY>
0

>  <SCORE.RESTR.norm>
0

>  <SCORE.SYSTEM>
0

>  <SCORE.SYSTEM.CONST>
0

>  <SCORE.SYSTEM.DIHEDRAL>
0

>  <SCORE.SYSTEM.SOLV>
0

>  <SCORE.SYSTEM.norm>
0

>  <SCORE.heavy>
34

>  <SCORE.norm>
-0.434855

>  <RMSD>
3.875

$$$$
ligand
 OpenBabel11021811483D
libRbt.so/2013.1/901 2013/11/27
 34 36  0  0  0  0  0  0  0  0999 V2000
    6.0889    5.4910    7.8246 C   0  0  2  0  0  0  0  0  0  0  0  0
    6.2318    5.2410    6.4176 O   0  0  0  0  0  0  0  0  0  0  0  0
    7.1533    7.4795    2.8959 C   0  0  2  0  0  0  0  0  0  0  0  0
    7.3248    8.5877    1.9629 N   0  0  0  0  0  0  0  0  0  0  0  0
    9.8929    8.4549    2.5673 C   0  0  2  0  0  0  0  0  0  0  0  0
    5.7371    4.1302    8.5254 C   0  0  2  0  0  0  0  0  0  0  0  0
    6.8048    3.1381    8.3249 N   0  0  0  0  0  0  0  0  0  0  0  0
    5.6720    7.5173    3.4000 C   0  0  0  0  0  0  0  0  0  0  0  0
   10.4202    7.5101    1.4287 C   0  0  2  0  0  0  0  0  0  0  0  0
    9.3871    6.6313    1.0149 O   0  0  0  0  0  0  0  0  0  0  0  0
    4.4060    3.5920    7.9572 C   0  0  1  0  0  0  0  0  0  0  0  0
    4.0739    2.3505    8.6000 O   0  0  0  0  0  0  0  0  0  0  0  0
    5.4805    6.3140    4.3839 C   0  0  2  0  0  0  0  0  0  0  0  0
    4.0970    6.2994    4.9009 N   0  0  0  0  0  0  0  0  0  0  0  0
   11.6632    6.7061    1.9746 C   0  0  1  0  0  0  0  0  0  0  0  0
   12.1939    5.7784    0.9311 N   0  0  0  0  0  0  0  0  0  0  0  0
    3.3047    4.6569    8.1729 C   0  0  2  0  0  0  0  0  0  0  0  0
    2.0599    4.1737    7.6384 O   0  0  0  0  0  0  0  0  0  0  0  0
    6.4621    6.4131    5.5795 C   0  0  2  0  0  0  0  0  0  0  0  0
   12.7721    7.7214    2.4164 C   0  0  1  0  0  0  0  0  0  0  0  0
   13.1922    8.4897    1.2919 O   0  0  0  0  0  0  0  0  0  0  0  0
    3.7237    6.0016    7.4651 C   0  0  2  0  0  0  0  0  0  0  0  0
    5.0115    6.4753    8.0086 O   0  0  0  0  0  0  0  0  0  0  0  0
    7.9172    6.4384    5.0485 C   0  0  2  0  0  0  0  0  0  0  0  0
    8.7988    6.5481    6.1613 O   0  0  0  0  0  0  0  0  0  0  0  0
   12.1744    8.6728    3.5004 C   0  0  0  0  0  0  0  0  0  0  0  0
   10.9680    9.3646    2.9863 O   0  0  0  0  0  0  0  0  0  0  0  0
    2.6663    7.1178    7.6693 C   0  0  2  0  0  0  0  0  0  0  0  0
    2.2711    7.1520    9.0382 O   0  0  0  0  0  0  0  0  0  0  0  0
    8.1520    7.6478    4.1137 C   0  0  1  0  0  0  0  0  0  0  0  0
    9.5275    7.5780    3.6695 O   0  0  0  0  0  0  0  0  0  0  0  0
    1.4249    6.8729    6.8276 C   0  0  0  0  0  0  0  0  0  0  0  0
   14.0006    7.0178    2.9798 C   0  0  0  0  0  0  0  0  0  0  0  0
   12.5171    4.4919    1.5772 C   0  0  0  0  0  0  0  0  0  0  0  0
  1  2  1  6  0  0  0
  1  6  1  0  0  0  0
  1 23  1  0  0  0  0
  3  4  1  6  0  0  0
  3  8  1  0  0  0  0
  3 30  1  0  0  0  0
  5  9  1  0  0  0  0
  5 27  1  0  0  0  0
  5 31  1  1  0  0  0
  6  7  1  6  0  0  0
  6 11  1  0  0  0  0
  8 13  1  0  0  0  0
  9 10  1  1  0  0  0
  9 15  1  0  0  0  0
 11 12  1  1  0  0  0
 11 17  1  0  0  0  0
 13 14  1  1  0  0  0
 13 19  1  0  0  0  0
 15 16  1  6  0  0  0
 15 20  1  0  0  0  0
 16 34  1  0  0  0  0
 17 18  1  6  0  0  0
 17 22  1  0  0  0  0
 19  2  1  1  0  0  0
 19 24  1  0  0  0  0
 20 21  1  6  0  0  0
 20 26  1  0  0  0  0
 20 33  1  0  0  0  0
 22 23  1  1  0  0  0
 22 28  1  0  0  0  0
 24 25  1  1  0  0  0
 24 30  1  0  0  0  0
 26 27  1  0  0  0  0
 28 29  1  1  0  0  0
 28 32  1  0  0  0  0
 30 31  1  6  0  0  0
M  END
>  <CHROM.1>
175.55248879,-132.05832066,-137.74715497,45.88863337,51.75522604,-121.47681048
7.45858904,6.40952256,4.93174796,-2.57452281,0.33048616,-0.73305078

>  <Name>
ligand

>  <RI>
0

>  <Rbt.Current_Directory>
/home/itssahil/PROJECTS/Mol_Feturizer/New_Systems/rnas/3TD1

>  <Rbt.Executable>
rbdock ($Id: //depot/dev/client3/rdock/2013.1/src/exe/rbdock.cxx#4 $)

>  <Rbt.Library>
libRbt.so (2013.1, Build901 2013/11/27)

>  <Rbt.Parameter_File>
/export/apps/rDock/src/rDock_2013.1_src/data/scripts/dock_solv.prm

>  <Rbt.Receptor>
prm/blind_docking_40.prm

>  <SCORE>
28.1629

>  <SCORE.INTER>
12.1309

>  <SCORE.INTER.CONST>
1

>  <SCORE.INTER.POLAR>
0

>  <SCORE.INTER.ROT>
6

>  <SCORE.INTER.SOLV>
21.0163

>  <SCORE.INTER.VDW>
-6.51815

>  <SCORE.INTER.norm>
0.356792

>  <SCORE.INTRA>
2.626

>  <SCORE.INTRA.DIHEDRAL>
-3.77436

>  <SCORE.INTRA.DIHEDRAL.0>
19.5869

>  <SCORE.INTRA.POLAR>
0

>  <SCORE.INTRA.POLAR.0>
0

>  <SCORE.INTRA.REPUL>
0

>  <SCORE.INTRA.REPUL.0>
0

>  <SCORE.INTRA.SOLV>
3.40268

>  <SCORE.INTRA.SOLV.lig_0>
-70.101

>  <SCORE.INTRA.VDW>
2.81184

>  <SCORE.INTRA.VDW.0>
-3.39718

>  <SCORE.INTRA.norm>
0.0772353

>  <SCORE.RESTR>
13.406

>  <SCORE.RESTR.CAVITY>
13.406

>  <SCORE.RESTR.norm>
0.394293

>  <SCORE.SYSTEM>
0

>  <SCORE.SYSTEM.CONST>
0

>  <SCORE.SYSTEM.DIHEDRAL>
0

>  <SCORE.SYSTEM.SOLV>
0

>  <SCORE.SYSTEM.norm>
0

>  <SCORE.heavy>
34

>  <SCORE.norm>
0.828321

>  <RMSD>
3.931

$$$$
ligand
 OpenBabel11021811483D
libRbt.so/2013.1/901 2013/11/27
 34 36  0  0  0  0  0  0  0  0999 V2000
    7.5782    5.2683   10.0909 C   0  0  2  0  0  0  0  0  0  0  0  0
    7.9726    5.9732    8.9034 O   0  0  0  0  0  0  0  0  0  0  0  0
   11.3618    8.4382    8.0672 C   0  0  2  0  0  0  0  0  0  0  0  0
   12.7272    8.9500    8.0250 N   0  0  0  0  0  0  0  0  0  0  0  0
   12.9536    7.6432    5.5613 C   0  0  2  0  0  0  0  0  0  0  0  0
    8.0242    3.7704    9.9363 C   0  0  2  0  0  0  0  0  0  0  0  0
    9.4835    3.6641    9.7831 N   0  0  0  0  0  0  0  0  0  0  0  0
   10.9903    8.2199    9.5719 C   0  0  0  0  0  0  0  0  0  0  0  0
   12.9927    7.8404    4.0035 C   0  0  2  0  0  0  0  0  0  0  0  0
   12.1071    8.8821    3.6274 O   0  0  0  0  0  0  0  0  0  0  0  0
    7.3204    3.1519    8.7089 C   0  0  1  0  0  0  0  0  0  0  0  0
    7.7180    1.7785    8.5661 O   0  0  0  0  0  0  0  0  0  0  0  0
    9.5164    7.6924    9.6194 C   0  0  2  0  0  0  0  0  0  0  0  0
    9.1078    7.4602   11.0196 N   0  0  0  0  0  0  0  0  0  0  0  0
   12.5933    6.4796    3.3119 C   0  0  1  0  0  0  0  0  0  0  0  0
   12.6002    6.6192    1.8247 N   0  0  0  0  0  0  0  0  0  0  0  0
    5.7899    3.2851    8.8918 C   0  0  2  0  0  0  0  0  0  0  0  0
    5.1203    2.7223    7.7500 O   0  0  0  0  0  0  0  0  0  0  0  0
    9.3759    6.3664    8.8289 C   0  0  2  0  0  0  0  0  0  0  0  0
   13.6009    5.3661    3.7597 C   0  0  1  0  0  0  0  0  0  0  0  0
   14.9170    5.7150    3.3387 O   0  0  0  0  0  0  0  0  0  0  0  0
    5.4082    4.8051    9.0611 C   0  0  2  0  0  0  0  0  0  0  0  0
    6.1171    5.3747   10.2235 O   0  0  0  0  0  0  0  0  0  0  0  0
    9.8107    6.5957    7.3598 C   0  0  2  0  0  0  0  0  0  0  0  0
    9.6909    5.3621    6.6589 O   0  0  0  0  0  0  0  0  0  0  0  0
   13.5659    5.2581    5.3167 C   0  0  0  0  0  0  0  0  0  0  0  0
   13.8772    6.5658    5.9423 O   0  0  0  0  0  0  0  0  0  0  0  0
    3.8841    4.9993    9.2743 C   0  0  2  0  0  0  0  0  0  0  0  0
    3.3828    3.9498   10.0980 O   0  0  0  0  0  0  0  0  0  0  0  0
   11.2811    7.0676    7.2774 C   0  0  1  0  0  0  0  0  0  0  0  0
   11.5860    7.2584    5.8757 O   0  0  0  0  0  0  0  0  0  0  0  0
    3.1264    4.9660    7.9573 C   0  0  0  0  0  0  0  0  0  0  0  0
   13.2648    4.0111    3.1489 C   0  0  0  0  0  0  0  0  0  0  0  0
   11.2012    6.6592    1.3575 C   0  0  0  0  0  0  0  0  0  0  0  0
  1  2  1  6  0  0  0
  1  6  1  0  0  0  0
  1 23  1  0  0  0  0
  3  4  1  1  0  0  0
  3  8  1  0  0  0  0
  3 30  1  0  0  0  0
  5  9  1  0  0  0  0
  5 27  1  0  0  0  0
  5 31  1  6  0  0  0
  6  7  1  6  0  0  0
  6 11  1  0  0  0  0
  8 13  1  0  0  0  0
  9 10  1  1  0  0  0
  9 15  1  0  0  0  0
 11 12  1  1  0  0  0
 11 17  1  0  0  0  0
 13 14  1  1  0  0  0
 13 19  1  0  0  0  0
 15 16  1  6  0  0  0
 15 20  1  0  0  0  0
 16 34  1  0  0  0  0
 17 18  1  6  0  0  0
 17 22  1  0  0  0  0
 19  2  1  6  0  0  0
 19 24  1  0  0  0  0
 20 21  1  6  0  0  0
 20 26  1  0  0  0  0
 20 33  1  0  0  0  0
 22 23  1  1  0  0  0
 22 28  1  0  0  0  0
 24 25  1  6  0  0  0
 24 30  1  0  0  0  0
 26 27  1  0  0  0  0
 28 29  1  1  0  0  0
 28 32  1  0  0  0  0
 30 31  1  6  0  0  0
M  END
>  <CHROM.1>
-79.45029712,-82.99582093,-105.96954362,38.23145952,66.98513058,-177.65653843
9.68564549,5.80319763,7.11217327,-2.77506328,-0.57126568,-2.10014911

>  <Name>
ligand

>  <RI>
0

>  <Rbt.Current_Directory>
/home/itssahil/PROJECTS/Mol_Feturizer/New_Systems/rnas/3TD1

>  <Rbt.Executable>
rbdock ($Id: //depot/dev/client3/rdock/2013.1/src/exe/rbdock.cxx#4 $)

>  <Rbt.Library>
libRbt.so (2013.1, Build901 2013/11/27)

>  <Rbt.Parameter_File>
/export/apps/rDock/src/rDock_2013.1_src/data/scripts/dock_solv.prm

>  <Rbt.Receptor>
prm/pocket_docking_5.prm

>  <SCORE>
-10.9962

>  <SCORE.INTER>
-6.35104

>  <SCORE.INTER.CONST>
1

>  <SCORE.INTER.POLAR>
0

>  <SCORE.INTER.ROT>
6

>  <SCORE.INTER.SOLV>
10.4108

>  <SCORE.INTER.VDW>
-15.3043

>  <SCORE.INTER.norm>
-0.186795

>  <SCORE.INTRA>
-4.64516

>  <SCORE.INTRA.DIHEDRAL>
-12.6359

>  <SCORE.INTRA.DIHEDRAL.0>
19.5869

>  <SCORE.INTRA.POLAR>
0

>  <SCORE.INTRA.POLAR.0>
0

>  <SCORE.INTRA.REPUL>
0

>  <SCORE.INTRA.REPUL.0>
0

>  <SCORE.INTRA.SOLV>
1.62026

>  <SCORE.INTRA.SOLV.lig_0>
-70.101

>  <SCORE.INTRA.VDW>
0.862648

>  <SCORE.INTRA.VDW.0>
-3.39718

>  <SCORE.INTRA.norm>
-0.136622

>  <SCORE.RESTR>
0

>  <SCORE.RESTR.CAVITY>
0

>  <SCORE.RESTR.norm>
0

>  <SCORE.SYSTEM>
0

>  <SCORE.SYSTEM.CONST>
0

>  <SCORE.SYSTEM.DIHEDRAL>
0

>  <SCORE.SYSTEM.SOLV>
0

>  <SCORE.SYSTEM.norm>
0

>  <SCORE.heavy>
34

>  <SCORE.norm>
-0.323418

>  <RMSD>
4.027

$$$$
ligand
 OpenBabel11021811483D
libRbt.so/2013.1/901 2013/11/27
 34 36  0  0  0  0  0  0  0  0999 V2000
    6.3665    3.1322    8.7004 C   0  0  2  0  0  0  0  0  0  0  0  0
    6.3959    3.6533    7.3624 O   0  0  0  0  0  0  0  0  0  0  0  0
   10.3743    2.2983    6.5889 C   0  0  2  0  0  0  0  0  0  0  0  0
   11.6111    1.9523    5.8971 N   0  0  0  0  0  0  0  0  0  0  0  0
   12.4711    4.6646    6.5191 C   0  0  2  0  0  0  0  0  0  0  0  0
    4.8643    3.0250    9.1460 C   0  0  2  0  0  0  0  0  0  0  0  0
    4.1128    2.1170    8.2656 N   0  0  0  0  0  0  0  0  0  0  0  0
    9.2085    1.5406    5.8703 C   0  0  0  0  0  0  0  0  0  0  0  0
   13.4342    5.4155    7.5069 C   0  0  2  0  0  0  0  0  0  0  0  0
   13.5843    4.6624    8.6991 O   0  0  0  0  0  0  0  0  0  0  0  0
    4.2231    4.4295    9.1230 C   0  0  1  0  0  0  0  0  0  0  0  0
    2.8502    4.3400    9.5375 O   0  0  0  0  0  0  0  0  0  0  0  0
    7.8832    1.8932    6.6268 C   0  0  2  0  0  0  0  0  0  0  0  0
    6.7400    1.2095    5.9886 N   0  0  0  0  0  0  0  0  0  0  0  0
   12.8342    6.8429    7.8100 C   0  0  1  0  0  0  0  0  0  0  0  0
   13.7080    7.5940    8.7606 N   0  0  0  0  0  0  0  0  0  0  0  0
    5.0371    5.3647   10.0485 C   0  0  2  0  0  0  0  0  0  0  0  0
    4.4575    6.6808   10.0290 O   0  0  0  0  0  0  0  0  0  0  0  0
    7.6259    3.4217    6.6122 C   0  0  2  0  0  0  0  0  0  0  0  0
   12.6899    7.6310    6.4633 C   0  0  1  0  0  0  0  0  0  0  0  0
   13.9738    7.8001    5.8684 O   0  0  0  0  0  0  0  0  0  0  0  0
    6.5359    5.4149    9.5631 C   0  0  2  0  0  0  0  0  0  0  0  0
    7.1118    4.0561    9.5690 O   0  0  0  0  0  0  0  0  0  0  0  0
    8.8235    4.1505    7.2714 C   0  0  2  0  0  0  0  0  0  0  0  0
    8.5737    5.5516    7.2302 O   0  0  0  0  0  0  0  0  0  0  0  0
   11.7761    6.8097    5.4999 C   0  0  0  0  0  0  0  0  0  0  0  0
   12.3254    5.4493    5.2855 O   0  0  0  0  0  0  0  0  0  0  0  0
    7.4089    6.3201   10.4712 C   0  0  2  0  0  0  0  0  0  0  0  0
    8.5923    6.6944    9.7706 O   0  0  0  0  0  0  0  0  0  0  0  0
   10.1406    3.8631    6.5137 C   0  0  1  0  0  0  0  0  0  0  0  0
   11.1913    4.5780    7.2060 O   0  0  0  0  0  0  0  0  0  0  0  0
    7.8239    5.6011   11.7441 C   0  0  0  0  0  0  0  0  0  0  0  0
   12.0917    9.0167    6.6724 C   0  0  0  0  0  0  0  0  0  0  0  0
   13.0802    7.5553   10.0952 C   0  0  0  0  0  0  0  0  0  0  0  0
  1  2  1  6  0  0  0
  1  6  1  0  0  0  0
  1 23  1  0  0  0  0
  3  4  1  6  0  0  0
  3  8  1  0  0  0  0
  3 30  1  0  0  0  0
  5  9  1  0  0  0  0
  5 27  1  0  0  0  0
  5 31  1  1  0  0  0
  6  7  1  6  0  0  0
  6 11  1  0  0  0  0
  8 13  1  0  0  0  0
  9 10  1  1  0  0  0
  9 15  1  0  0  0  0
 11 12  1  1  0  0  0
 11 17  1  0  0  0  0
 13 14  1  6  0  0  0
 13 19  1  0  0  0  0
 15 16  1  1  0  0  0
 15 20  1  0  0  0  0
 16 34  1  0  0  0  0
 17 18  1  6  0  0  0
 17 22  1  0  0  0  0
 19  2  1  1  0  0  0
 19 24  1  0  0  0  0
 20 21  1  6  0  0  0
 20 26  1  0  0  0  0
 20 33  1  0  0  0  0
 22 23  1  1  0  0  0
 22 28  1  0  0  0  0
 24 25  1  6  0  0  0
 24 30  1  0  0  0  0
 26 27  1  0  0  0  0
 28 29  1  6  0  0  0
 28 32  1  0  0  0  0
 30 31  1  1  0  0  0
M  END
>  <CHROM.1>
-160.52200024,55.15920786,-103.06360791,-160.56999425,75.69759609,-177.24469631
9.12365640,4.88586380,7.91028693,-3.03633613,0.36817148,0.63027986

>  <Name>
ligand

>  <RI>
0

>  <Rbt.Current_Directory>
/home/itssahil/PROJECTS/Mol_Feturizer/New_Systems/rnas/3TD1

>  <Rbt.Executable>
rbdock ($Id: //depot/dev/client3/rdock/2013.1/src/exe/rbdock.cxx#4 $)

>  <Rbt.Library>
libRbt.so (2013.1, Build901 2013/11/27)

>  <Rbt.Parameter_File>
/export/apps/rDock/src/rDock_2013.1_src/data/scripts/dock_solv.prm

>  <Rbt.Receptor>
prm/pocket_docking_7.prm

>  <SCORE>
-11.8084

>  <SCORE.INTER>
-6.12858

>  <SCORE.INTER.CONST>
1

>  <SCORE.INTER.POLAR>
0

>  <SCORE.INTER.ROT>
6

>  <SCORE.INTER.SOLV>
19.1341

>  <SCORE.INTER.VDW>
-18.0638

>  <SCORE.INTER.norm>
-0.180252

>  <SCORE.INTRA>
-5.67987

>  <SCORE.INTRA.DIHEDRAL>
-14.2405

>  <SCORE.INTRA.DIHEDRAL.0>
19.5869

>  <SCORE.INTRA.POLAR>
0

>  <SCORE.INTRA.POLAR.0>
0

>  <SCORE.INTRA.REPUL>
0.0823998

>  <SCORE.INTRA.REPUL.0>
0

>  <SCORE.INTRA.SOLV>
0.0194721

>  <SCORE.INTRA.SOLV.lig_0>
-70.101

>  <SCORE.INTRA.VDW>
1.01863

>  <SCORE.INTRA.VDW.0>
-3.39718

>  <SCORE.INTRA.norm>
-0.167055

>  <SCORE.RESTR>
0

>  <SCORE.RESTR.CAVITY>
0

>  <SCORE.RESTR.norm>
0

>  <SCORE.SYSTEM>
0

>  <SCORE.SYSTEM.CONST>
0

>  <SCORE.SYSTEM.DIHEDRAL>
0

>  <SCORE.SYSTEM.SOLV>
0

>  <SCORE.SYSTEM.norm>
0

>  <SCORE.heavy>
34

>  <SCORE.norm>
-0.347307

>  <RMSD>
4.187

$$$$
ligand
 OpenBabel11021811483D
libRbt.so/2013.1/901 2013/11/27
 34 36  0  0  0  0  0  0  0  0999 V2000
    5.0592    7.1670    6.8508 C   0  0  2  0  0  0  0  0  0  0  0  0
    5.8138    6.3238    5.9665 O   0  0  0  0  0  0  0  0  0  0  0  0
    7.4932    6.5433    2.0431 C   0  0  2  0  0  0  0  0  0  0  0  0
    7.8113    7.0005    0.6948 N   0  0  0  0  0  0  0  0  0  0  0  0
   10.0575    8.4560    1.9688 C   0  0  2  0  0  0  0  0  0  0  0  0
    5.1364    6.5496    8.2928 C   0  0  2  0  0  0  0  0  0  0  0  0
    6.5269    6.4851    8.7690 N   0  0  0  0  0  0  0  0  0  0  0  0
    5.9346    6.4483    2.1493 C   0  0  0  0  0  0  0  0  0  0  0  0
   10.9331    7.4730    1.1120 C   0  0  2  0  0  0  0  0  0  0  0  0
   10.1154    6.4520    0.5647 O   0  0  0  0  0  0  0  0  0  0  0  0
    4.5204    5.1337    8.2760 C   0  0  1  0  0  0  0  0  0  0  0  0
    4.5806    4.5657    9.5946 O   0  0  0  0  0  0  0  0  0  0  0  0
    5.5930    5.9353    3.5892 C   0  0  2  0  0  0  0  0  0  0  0  0
    4.1290    5.8302    3.7539 N   0  0  0  0  0  0  0  0  0  0  0  0
   12.0586    6.8640    2.0349 C   0  0  1  0  0  0  0  0  0  0  0  0
   12.9120    5.9071    1.2685 N   0  0  0  0  0  0  0  0  0  0  0  0
    3.0637    5.2295    7.7637 C   0  0  2  0  0  0  0  0  0  0  0  0
    2.4797    3.9155    7.7323 O   0  0  0  0  0  0  0  0  0  0  0  0
    6.1518    6.8977    4.6682 C   0  0  2  0  0  0  0  0  0  0  0  0
   12.9310    8.0311    2.6117 C   0  0  1  0  0  0  0  0  0  0  0  0
   13.5581    8.7330    1.5416 O   0  0  0  0  0  0  0  0  0  0  0  0
    3.0508    5.8732    6.3249 C   0  0  2  0  0  0  0  0  0  0  0  0
    3.6705    7.2120    6.3679 O   0  0  0  0  0  0  0  0  0  0  0  0
    7.6866    7.0230    4.4994 C   0  0  2  0  0  0  0  0  0  0  0  0
    8.1743    7.9245    5.4877 O   0  0  0  0  0  0  0  0  0  0  0  0
   12.0009    9.0078    3.3980 C   0  0  0  0  0  0  0  0  0  0  0  0
   10.9118    9.5128    2.5278 O   0  0  0  0  0  0  0  0  0  0  0  0
    1.6103    6.0187    5.7683 C   0  0  2  0  0  0  0  0  0  0  0  0
    1.6654    6.5162    4.4339 O   0  0  0  0  0  0  0  0  0  0  0  0
    8.0537    7.5779    3.1034 C   0  0  1  0  0  0  0  0  0  0  0  0
    9.4978    7.6505    3.0436 O   0  0  0  0  0  0  0  0  0  0  0  0
    0.7855    6.9888    6.5979 C   0  0  0  0  0  0  0  0  0  0  0  0
   14.0297    7.5213    3.5361 C   0  0  0  0  0  0  0  0  0  0  0  0
   13.3177    6.5569    0.0075 C   0  0  0  0  0  0  0  0  0  0  0  0
  1  2  1  6  0  0  0
  1  6  1  0  0  0  0
  1 23  1  0  0  0  0
  3  4  1  6  0  0  0
  3  8  1  0  0  0  0
  3 30  1  0  0  0  0
  5  9  1  0  0  0  0
  5 27  1  0  0  0  0
  5 31  1  1  0  0  0
  6  7  1  6  0  0  0
  6 11  1  0  0  0  0
  8 13  1  0  0  0  0
  9 10  1  1  0  0  0
  9 15  1  0  0  0  0
 11 12  1  1  0  0  0
 11 17  1  0  0  0  0
 13 14  1  6  0  0  0
 13 19  1  0  0  0  0
 15 16  1  6  0  0  0
 15 20  1  0  0  0  0
 16 34  1  0  0  0  0
 17 18  1  6  0  0  0
 17 22  1  0  0  0  0
 19  2  1  1  0  0  0
 19 24  1  0  0  0  0
 20 21  1  6  0  0  0
 20 26  1  0  0  0  0
 20 33  1  0  0  0  0
 22 23  1  1  0  0  0
 22 28  1  0  0  0  0
 24 25  1  1  0  0  0
 24 30  1  0  0  0  0
 26 27  1  0  0  0  0
 28 29  1  6  0  0  0
 28 32  1  0  0  0  0
 30 31  1  1  0  0  0
M  END
>  <CHROM.1>
-164.77309986,-123.61063964,48.78786870,-175.94241383,79.32943600,-119.69226926
7.39390149,6.80838327,4.31021757,-2.60461744,-0.15577868,-1.49480297

>  <Name>
ligand

>  <RI>
0

>  <Rbt.Current_Directory>
/home/itssahil/PROJECTS/Mol_Feturizer/New_Systems/rnas/3TD1

>  <Rbt.Executable>
rbdock ($Id: //depot/dev/client3/rdock/2013.1/src/exe/rbdock.cxx#4 $)

>  <Rbt.Library>
libRbt.so (2013.1, Build901 2013/11/27)

>  <Rbt.Parameter_File>
/export/apps/rDock/src/rDock_2013.1_src/data/scripts/dock_solv.prm

>  <Rbt.Receptor>
prm/blind_docking_20.prm

>  <SCORE>
51.5532

>  <SCORE.INTER>
36.3619

>  <SCORE.INTER.CONST>
1

>  <SCORE.INTER.POLAR>
0

>  <SCORE.INTER.ROT>
6

>  <SCORE.INTER.SOLV>
25.1144

>  <SCORE.INTER.VDW>
8.26982

>  <SCORE.INTER.norm>
1.06947

>  <SCORE.INTRA>
7.79244

>  <SCORE.INTRA.DIHEDRAL>
-2.28977

>  <SCORE.INTRA.DIHEDRAL.0>
19.5869

>  <SCORE.INTRA.POLAR>
0

>  <SCORE.INTRA.POLAR.0>
0

>  <SCORE.INTRA.REPUL>
0

>  <SCORE.INTRA.REPUL.0>
0

>  <SCORE.INTRA.SOLV>
3.55323

>  <SCORE.INTRA.SOLV.lig_0>
-70.101

>  <SCORE.INTRA.VDW>
7.1607

>  <SCORE.INTRA.VDW.0>
-3.39718

>  <SCORE.INTRA.norm>
0.229189

>  <SCORE.RESTR>
7.39889

>  <SCORE.RESTR.CAVITY>
7.39889

>  <SCORE.RESTR.norm>
0.217614

>  <SCORE.SYSTEM>
0

>  <SCORE.SYSTEM.CONST>
0

>  <SCORE.SYSTEM.DIHEDRAL>
0

>  <SCORE.SYSTEM.SOLV>
0

>  <SCORE.SYSTEM.norm>
0

>  <SCORE.heavy>
34

>  <SCORE.norm>
1.51627

>  <RMSD>
4.236

$$$$
ligand
 OpenBabel11021811483D
libRbt.so/2013.1/901 2013/11/27
 34 36  0  0  0  0  0  0  0  0999 V2000
    6.1768    5.3507    7.6494 C   0  0  2  0  0  0  0  0  0  0  0  0
    6.2765    5.1877    6.2260 O   0  0  0  0  0  0  0  0  0  0  0  0
    7.3736    7.5743    2.8552 C   0  0  2  0  0  0  0  0  0  0  0  0
    7.6284    8.7246    1.9950 N   0  0  0  0  0  0  0  0  0  0  0  0
    9.9404    6.7806    2.3609 C   0  0  2  0  0  0  0  0  0  0  0  0
    5.7731    3.9652    8.2690 C   0  0  2  0  0  0  0  0  0  0  0  0
    6.7856    2.9383    7.9780 N   0  0  0  0  0  0  0  0  0  0  0  0
    5.8960    7.6852    3.3593 C   0  0  0  0  0  0  0  0  0  0  0  0
   11.4636    6.4009    2.3099 C   0  0  2  0  0  0  0  0  0  0  0  0
   11.7743    5.5121    3.3702 O   0  0  0  0  0  0  0  0  0  0  0  0
    4.4050    3.5303    7.7003 C   0  0  1  0  0  0  0  0  0  0  0  0
    4.0256    2.2665    8.2693 O   0  0  0  0  0  0  0  0  0  0  0  0
    5.6142    6.4384    4.2643 C   0  0  2  0  0  0  0  0  0  0  0  0
    4.2304    6.4894    4.7780 N   0  0  0  0  0  0  0  0  0  0  0  0
   12.3176    7.7238    2.4107 C   0  0  1  0  0  0  0  0  0  0  0  0
   13.7787    7.4146    2.3823 N   0  0  0  0  0  0  0  0  0  0  0  0
    3.3628    4.6304    8.0120 C   0  0  2  0  0  0  0  0  0  0  0  0
    2.0843    4.2440    7.4785 O   0  0  0  0  0  0  0  0  0  0  0  0
    6.5939    6.3914    5.4646 C   0  0  2  0  0  0  0  0  0  0  0  0
   11.9369    8.6676    1.2190 C   0  0  1  0  0  0  0  0  0  0  0  0
   12.2452    8.0264   -0.0159 O   0  0  0  0  0  0  0  0  0  0  0  0
    3.8326    5.9972    7.3828 C   0  0  2  0  0  0  0  0  0  0  0  0
    5.1538    6.3715    7.9237 O   0  0  0  0  0  0  0  0  0  0  0  0
    8.0500    6.3468    4.9377 C   0  0  2  0  0  0  0  0  0  0  0  0
    8.9311    6.3226    6.0560 O   0  0  0  0  0  0  0  0  0  0  0  0
   10.4046    8.9595    1.2835 C   0  0  0  0  0  0  0  0  0  0  0  0
    9.6267    7.6975    1.2564 O   0  0  0  0  0  0  0  0  0  0  0  0
    2.8365    7.1470    7.6853 C   0  0  2  0  0  0  0  0  0  0  0  0
    2.4971    7.1287    9.0694 O   0  0  0  0  0  0  0  0  0  0  0  0
    8.3750    7.5934    4.0822 C   0  0  1  0  0  0  0  0  0  0  0  0
    9.7446    7.4544    3.6356 O   0  0  0  0  0  0  0  0  0  0  0  0
    1.5532    7.0004    6.8847 C   0  0  0  0  0  0  0  0  0  0  0  0
   12.7065    9.9820    1.2616 C   0  0  0  0  0  0  0  0  0  0  0  0
   14.0295    6.4658    1.2805 C   0  0  0  0  0  0  0  0  0  0  0  0
  1  2  1  6  0  0  0
  1  6  1  0  0  0  0
  1 23  1  0  0  0  0
  3  4  1  6  0  0  0
  3  8  1  0  0  0  0
  3 30  1  0  0  0  0
  5  9  1  0  0  0  0
  5 27  1  0  0  0  0
  5 31  1  1  0  0  0
  6  7  1  6  0  0  0
  6 11  1  0  0  0  0
  8 13  1  0  0  0  0
  9 10  1  1  0  0  0
  9 15  1  0  0  0  0
 11 12  1  1  0  0  0
 11 17  1  0  0  0  0
 13 14  1  1  0  0  0
 13 19  1  0  0  0  0
 15 16  1  6  0  0  0
 15 20  1  0  0  0  0
 16 34  1  0  0  0  0
 17 18  1  6  0  0  0
 17 22  1  0  0  0  0
 19  2  1  6  0  0  0
 19 24  1  0  0  0  0
 20 21  1  6  0  0  0
 20 26  1  0  0  0  0
 20 33  1  0  0  0  0
 22 23  1  1  0  0  0
 22 28  1  0  0  0  0
 24 25  1  1  0  0  0
 24 30  1  0  0  0  0
 26 27  1  0  0  0  0
 28 29  1  1  0  0  0
 28 32  1  0  0  0  0
 30 31  1  6  0  0  0
M  END
>  <CHROM.1>
177.66886196,-133.54682249,46.95781286,47.21721423,-25.23596851,-164.30793520
7.57154364,6.47321543,4.74744909,-2.53321231,0.32303429,-0.73210759

>  <Name>
ligand

>  <RI>
0

>  <Rbt.Current_Directory>
/home/itssahil/PROJECTS/Mol_Feturizer/New_Systems/rnas/3TD1

>  <Rbt.Executable>
rbdock ($Id: //depot/dev/client3/rdock/2013.1/src/exe/rbdock.cxx#4 $)

>  <Rbt.Library>
libRbt.so (2013.1, Build901 2013/11/27)

>  <Rbt.Parameter_File>
/export/apps/rDock/src/rDock_2013.1_src/data/scripts/dock_solv.prm

>  <Rbt.Receptor>
prm/blind_docking_40.prm

>  <SCORE>
31.2726

>  <SCORE.INTER>
8.84646

>  <SCORE.INTER.CONST>
1

>  <SCORE.INTER.POLAR>
0

>  <SCORE.INTER.ROT>
6

>  <SCORE.INTER.SOLV>
20.5224

>  <SCORE.INTER.VDW>
-8.54317

>  <SCORE.INTER.norm>
0.26019

>  <SCORE.INTRA>
8.33698

>  <SCORE.INTRA.DIHEDRAL>
-6.88777

>  <SCORE.INTRA.DIHEDRAL.0>
19.5869

>  <SCORE.INTRA.POLAR>
0

>  <SCORE.INTRA.POLAR.0>
0

>  <SCORE.INTRA.REPUL>
0

>  <SCORE.INTRA.REPUL.0>
0

>  <SCORE.INTRA.SOLV>
3.70008

>  <SCORE.INTRA.SOLV.lig_0>
-70.101

>  <SCORE.INTRA.VDW>
9.93082

>  <SCORE.INTRA.VDW.0>
-3.39718

>  <SCORE.INTRA.norm>
0.245205

>  <SCORE.RESTR>
14.0891

>  <SCORE.RESTR.CAVITY>
14.0891

>  <SCORE.RESTR.norm>
0.414387

>  <SCORE.SYSTEM>
0

>  <SCORE.SYSTEM.CONST>
0

>  <SCORE.SYSTEM.DIHEDRAL>
0

>  <SCORE.SYSTEM.SOLV>
0

>  <SCORE.SYSTEM.norm>
0

>  <SCORE.heavy>
34

>  <SCORE.norm>
0.919782

>  <RMSD>
4.239

$$$$
ligand
 OpenBabel11021811483D
libRbt.so/2013.1/901 2013/11/27
 34 36  0  0  0  0  0  0  0  0999 V2000
    7.2018    6.0096   10.7670 C   0  0  2  0  0  0  0  0  0  0  0  0
    8.0559    6.1617    9.6225 O   0  0  0  0  0  0  0  0  0  0  0  0
   12.0272    7.7199    9.3728 C   0  0  2  0  0  0  0  0  0  0  0  0
   13.4387    7.9684    9.6452 N   0  0  0  0  0  0  0  0  0  0  0  0
   13.6842    5.1107    7.7099 C   0  0  2  0  0  0  0  0  0  0  0  0
    7.3139    4.5232   11.2615 C   0  0  2  0  0  0  0  0  0  0  0  0
    8.6941    4.1961   11.6518 N   0  0  0  0  0  0  0  0  0  0  0  0
   11.2426    7.9720   10.7035 C   0  0  0  0  0  0  0  0  0  0  0  0
   14.3843    5.2318    6.3091 C   0  0  2  0  0  0  0  0  0  0  0  0
   14.8035    6.5693    6.0940 O   0  0  0  0  0  0  0  0  0  0  0  0
    6.8467    3.5739   10.1368 C   0  0  1  0  0  0  0  0  0  0  0  0
    6.9392    2.2120   10.5854 O   0  0  0  0  0  0  0  0  0  0  0  0
    9.7244    7.7281   10.4062 C   0  0  2  0  0  0  0  0  0  0  0  0
    8.9284    7.9455   11.6312 N   0  0  0  0  0  0  0  0  0  0  0  0
   13.3671    4.7705    5.1945 C   0  0  1  0  0  0  0  0  0  0  0  0
   13.9816    4.8821    3.8376 N   0  0  0  0  0  0  0  0  0  0  0  0
    5.3981    3.9452    9.7402 C   0  0  2  0  0  0  0  0  0  0  0  0
    4.9526    3.0755    8.6849 O   0  0  0  0  0  0  0  0  0  0  0  0
    9.4833    6.2827    9.9007 C   0  0  2  0  0  0  0  0  0  0  0  0
   12.9375    3.2905    5.4784 C   0  0  1  0  0  0  0  0  0  0  0  0
   14.0810    2.4417    5.4226 O   0  0  0  0  0  0  0  0  0  0  0  0
    5.3472    5.4499    9.2732 C   0  0  2  0  0  0  0  0  0  0  0  0
    5.8255    6.3290   10.3579 O   0  0  0  0  0  0  0  0  0  0  0  0
   10.3207    6.0400    8.6202 C   0  0  2  0  0  0  0  0  0  0  0  0
   10.0978    4.7026    8.1854 O   0  0  0  0  0  0  0  0  0  0  0  0
   12.3074    3.2186    6.9050 C   0  0  0  0  0  0  0  0  0  0  0  0
   13.2576    3.7214    7.9262 O   0  0  0  0  0  0  0  0  0  0  0  0
    3.9105    5.8880    8.8861 C   0  0  2  0  0  0  0  0  0  0  0  0
    2.9803    5.3379    9.8152 O   0  0  0  0  0  0  0  0  0  0  0  0
   11.8315    6.2224    8.8954 C   0  0  1  0  0  0  0  0  0  0  0  0
   12.5209    5.9825    7.6458 O   0  0  0  0  0  0  0  0  0  0  0  0
    3.5322    5.4001    7.4974 C   0  0  0  0  0  0  0  0  0  0  0  0
   11.9328    2.7796    4.4531 C   0  0  0  0  0  0  0  0  0  0  0  0
   13.6167    6.1948    3.2712 C   0  0  0  0  0  0  0  0  0  0  0  0
  1  2  1  6  0  0  0
  1  6  1  0  0  0  0
  1 23  1  0  0  0  0
  3  4  1  1  0  0  0
  3  8  1  0  0  0  0
  3 30  1  0  0  0  0
  5  9  1  0  0  0  0
  5 27  1  0  0  0  0
  5 31  1  6  0  0  0
  6  7  1  6  0  0  0
  6 11  1  0  0  0  0
  8 13  1  0  0  0  0
  9 10  1  6  0  0  0
  9 15  1  0  0  0  0
 11 12  1  1  0  0  0
 11 17  1  0  0  0  0
 13 14  1  1  0  0  0
 13 19  1  0  0  0  0
 15 16  1  6  0  0  0
 15 20  1  0  0  0  0
 16 34  1  0  0  0  0
 17 18  1  6  0  0  0
 17 22  1  0  0  0  0
 19  2  1  6  0  0  0
 19 24  1  0  0  0  0
 20 21  1  6  0  0  0
 20 26  1  0  0  0  0
 20 33  1  0  0  0  0
 22 23  1  1  0  0  0
 22 28  1  0  0  0  0
 24 25  1  1  0  0  0
 24 30  1  0  0  0  0
 26 27  1  0  0  0  0
 28 29  1  1  0  0  0
 28 32  1  0  0  0  0
 30 31  1  6  0  0  0
M  END
>  <CHROM.1>
-77.37847320,-76.78437924,-93.83088269,40.53646944,110.69714181,-169.83695597
9.83223905,5.23131590,8.38249059,-2.79703877,-0.29466607,-2.27921550

>  <Name>
ligand

>  <RI>
0

>  <Rbt.Current_Directory>
/home/itssahil/PROJECTS/Mol_Feturizer/New_Systems/rnas/3TD1

>  <Rbt.Executable>
rbdock ($Id: //depot/dev/client3/rdock/2013.1/src/exe/rbdock.cxx#4 $)

>  <Rbt.Library>
libRbt.so (2013.1, Build901 2013/11/27)

>  <Rbt.Parameter_File>
/export/apps/rDock/src/rDock_2013.1_src/data/scripts/dock_solv.prm

>  <Rbt.Receptor>
prm/pocket_docking_6.prm

>  <SCORE>
-9.60558

>  <SCORE.INTER>
-7.44227

>  <SCORE.INTER.CONST>
1

>  <SCORE.INTER.POLAR>
0

>  <SCORE.INTER.ROT>
6

>  <SCORE.INTER.SOLV>
9.30662

>  <SCORE.INTER.VDW>
-15.6637

>  <SCORE.INTER.norm>
-0.21889

>  <SCORE.INTRA>
-2.16331

>  <SCORE.INTRA.DIHEDRAL>
-7.65909

>  <SCORE.INTRA.DIHEDRAL.0>
19.5869

>  <SCORE.INTRA.POLAR>
0

>  <SCORE.INTRA.POLAR.0>
0

>  <SCORE.INTRA.REPUL>
0

>  <SCORE.INTRA.REPUL.0>
0

>  <SCORE.INTRA.SOLV>
1.37457

>  <SCORE.INTRA.SOLV.lig_0>
-70.101

>  <SCORE.INTRA.VDW>
0.978947

>  <SCORE.INTRA.VDW.0>
-3.39718

>  <SCORE.INTRA.norm>
-0.0636269

>  <SCORE.RESTR>
0

>  <SCORE.RESTR.CAVITY>
0

>  <SCORE.RESTR.norm>
0

>  <SCORE.SYSTEM>
0

>  <SCORE.SYSTEM.CONST>
0

>  <SCORE.SYSTEM.DIHEDRAL>
0

>  <SCORE.SYSTEM.SOLV>
0

>  <SCORE.SYSTEM.norm>
0

>  <SCORE.heavy>
34

>  <SCORE.norm>
-0.282517

>  <RMSD>
4.240

$$$$
ligand
 OpenBabel11021811483D
libRbt.so/2013.1/901 2013/11/27
 34 36  0  0  0  0  0  0  0  0999 V2000
    4.0370    6.1393    7.2773 C   0  0  2  0  0  0  0  0  0  0  0  0
    4.0702    4.7041    7.3186 O   0  0  0  0  0  0  0  0  0  0  0  0
    7.5536    4.3011    9.7610 C   0  0  2  0  0  0  0  0  0  0  0  0
    8.7389    3.7451   10.4044 N   0  0  0  0  0  0  0  0  0  0  0  0
    9.3531    5.3950    6.5485 C   0  0  2  0  0  0  0  0  0  0  0  0
    3.2305    6.6418    8.5277 C   0  0  2  0  0  0  0  0  0  0  0  0
    3.8744    6.2172    9.7805 N   0  0  0  0  0  0  0  0  0  0  0  0
    6.3656    3.3218   10.0428 C   0  0  0  0  0  0  0  0  0  0  0  0
   10.9201    5.3417    6.6423 C   0  0  2  0  0  0  0  0  0  0  0  0
   11.3251    4.1288    7.2551 O   0  0  0  0  0  0  0  0  0  0  0  0
    1.7904    6.0884    8.4630 C   0  0  1  0  0  0  0  0  0  0  0  0
    1.0442    6.5509    9.6005 O   0  0  0  0  0  0  0  0  0  0  0  0
    5.0875    3.9297    9.3721 C   0  0  2  0  0  0  0  0  0  0  0  0
    3.9279    3.0435    9.5990 N   0  0  0  0  0  0  0  0  0  0  0  0
   11.4193    6.5890    7.4697 C   0  0  1  0  0  0  0  0  0  0  0  0
   12.9072    6.5763    7.6014 N   0  0  0  0  0  0  0  0  0  0  0  0
    1.1410    6.5415    7.1339 C   0  0  2  0  0  0  0  0  0  0  0  0
   -0.1985    6.0240    7.0544 O   0  0  0  0  0  0  0  0  0  0  0  0
    5.2928    4.1071    7.8460 C   0  0  2  0  0  0  0  0  0  0  0  0
   10.9468    7.8989    6.7510 C   0  0  1  0  0  0  0  0  0  0  0  0
   11.5221    7.9639    5.4488 O   0  0  0  0  0  0  0  0  0  0  0  0
    2.0046    6.0250    5.9206 C   0  0  2  0  0  0  0  0  0  0  0  0
    3.3811    6.5471    6.0254 O   0  0  0  0  0  0  0  0  0  0  0  0
    6.5129    5.0283    7.5956 C   0  0  2  0  0  0  0  0  0  0  0  0
    6.6930    5.1616    6.1894 O   0  0  0  0  0  0  0  0  0  0  0  0
    9.3906    7.8680    6.6296 C   0  0  0  0  0  0  0  0  0  0  0  0
    8.9429    6.6523    5.9083 O   0  0  0  0  0  0  0  0  0  0  0  0
    1.4144    6.4720    4.5576 C   0  0  2  0  0  0  0  0  0  0  0  0
    0.9847    7.8279    4.6485 O   0  0  0  0  0  0  0  0  0  0  0  0
    7.8026    4.4277    8.2020 C   0  0  1  0  0  0  0  0  0  0  0  0
    8.8746    5.3587    7.9222 O   0  0  0  0  0  0  0  0  0  0  0  0
    0.2163    5.6247    4.1621 C   0  0  0  0  0  0  0  0  0  0  0  0
   11.3724    9.1517    7.5068 C   0  0  0  0  0  0  0  0  0  0  0  0
   13.2471    6.1197    8.9627 C   0  0  0  0  0  0  0  0  0  0  0  0
  1  2  1  1  0  0  0
  1  6  1  0  0  0  0
  1 23  1  0  0  0  0
  3  4  1  1  0  0  0
  3  8  1  0  0  0  0
  3 30  1  0  0  0  0
  5  9  1  0  0  0  0
  5 27  1  0  0  0  0
  5 31  1  1  0  0  0
  6  7  1  1  0  0  0
  6 11  1  0  0  0  0
  8 13  1  0  0  0  0
  9 10  1  1  0  0  0
  9 15  1  0  0  0  0
 11 12  1  1  0  0  0
 11 17  1  0  0  0  0
 13 14  1  6  0  0  0
 13 19  1  0  0  0  0
 15 16  1  6  0  0  0
 15 20  1  0  0  0  0
 16 34  1  0  0  0  0
 17 18  1  6  0  0  0
 17 22  1  0  0  0  0
 19  2  1  1  0  0  0
 19 24  1  0  0  0  0
 20 21  1  6  0  0  0
 20 26  1  0  0  0  0
 20 33  1  0  0  0  0
 22 23  1  1  0  0  0
 22 28  1  0  0  0  0
 24 25  1  6  0  0  0
 24 30  1  0  0  0  0
 26 27  1  0  0  0  0
 28 29  1  1  0  0  0
 28 32  1  0  0  0  0
 30 31  1  1  0  0  0
M  END
>  <CHROM.1>
-99.29376759,90.78242182,-103.08115584,41.97725558,169.94677869,-132.73444924
6.31767752,5.82840487,7.44185410,-3.11297096,0.05964468,2.24068660

>  <Name>
ligand

>  <RI>
0

>  <Rbt.Current_Directory>
/home/itssahil/PROJECTS/Mol_Feturizer/New_Systems/rnas/3TD1

>  <Rbt.Executable>
rbdock ($Id: //depot/dev/client3/rdock/2013.1/src/exe/rbdock.cxx#4 $)

>  <Rbt.Library>
libRbt.so (2013.1, Build901 2013/11/27)

>  <Rbt.Parameter_File>
/export/apps/rDock/src/rDock_2013.1_src/data/scripts/dock_solv.prm

>  <Rbt.Receptor>
prm/pocket_docking_5.prm

>  <SCORE>
-4.6594

>  <SCORE.INTER>
-8.20546

>  <SCORE.INTER.CONST>
1

>  <SCORE.INTER.POLAR>
0

>  <SCORE.INTER.ROT>
6

>  <SCORE.INTER.SOLV>
17.8117

>  <SCORE.INTER.VDW>
-19.0075

>  <SCORE.INTER.norm>
-0.241337

>  <SCORE.INTRA>
3.54606

>  <SCORE.INTRA.DIHEDRAL>
-1.51987

>  <SCORE.INTRA.DIHEDRAL.0>
19.5869

>  <SCORE.INTRA.POLAR>
0

>  <SCORE.INTRA.POLAR.0>
0

>  <SCORE.INTRA.REPUL>
0

>  <SCORE.INTRA.REPUL.0>
0

>  <SCORE.INTRA.SOLV>
1.99069

>  <SCORE.INTRA.SOLV.lig_0>
-70.101

>  <SCORE.INTRA.VDW>
3.31065

>  <SCORE.INTRA.VDW.0>
-3.39718

>  <SCORE.INTRA.norm>
0.104296

>  <SCORE.RESTR>
0

>  <SCORE.RESTR.CAVITY>
0

>  <SCORE.RESTR.norm>
0

>  <SCORE.SYSTEM>
0

>  <SCORE.SYSTEM.CONST>
0

>  <SCORE.SYSTEM.DIHEDRAL>
0

>  <SCORE.SYSTEM.SOLV>
0

>  <SCORE.SYSTEM.norm>
0

>  <SCORE.heavy>
34

>  <SCORE.norm>
-0.137041

>  <RMSD>
4.247

$$$$
ligand
 OpenBabel11021811483D
libRbt.so/2013.1/901 2013/11/27
 34 36  0  0  0  0  0  0  0  0999 V2000
    7.2837    5.9592   10.8590 C   0  0  2  0  0  0  0  0  0  0  0  0
    8.1556    6.1619    9.7359 O   0  0  0  0  0  0  0  0  0  0  0  0
   12.1886    7.5725    9.6567 C   0  0  2  0  0  0  0  0  0  0  0  0
   13.6062    7.7365    9.9595 N   0  0  0  0  0  0  0  0  0  0  0  0
   13.8192    5.1477    7.7924 C   0  0  2  0  0  0  0  0  0  0  0  0
    7.3761    4.4484   11.2780 C   0  0  2  0  0  0  0  0  0  0  0  0
    8.7478    4.0892   11.6703 N   0  0  0  0  0  0  0  0  0  0  0  0
   11.4018    7.7317   11.0002 C   0  0  0  0  0  0  0  0  0  0  0  0
   14.4417    5.2687    6.3554 C   0  0  2  0  0  0  0  0  0  0  0  0
   14.8094    6.6145    6.1015 O   0  0  0  0  0  0  0  0  0  0  0  0
    6.9174    3.5623   10.0995 C   0  0  1  0  0  0  0  0  0  0  0  0
    6.9919    2.1784   10.4789 O   0  0  0  0  0  0  0  0  0  0  0  0
    9.8779    7.5789   10.6723 C   0  0  2  0  0  0  0  0  0  0  0  0
    9.0794    7.7139   11.9075 N   0  0  0  0  0  0  0  0  0  0  0  0
   13.3822    4.7622    5.3017 C   0  0  1  0  0  0  0  0  0  0  0  0
   13.9219    4.8720    3.9131 N   0  0  0  0  0  0  0  0  0  0  0  0
    5.4779    3.9667    9.7022 C   0  0  2  0  0  0  0  0  0  0  0  0
    5.0404    3.1563    8.5975 O   0  0  0  0  0  0  0  0  0  0  0  0
    9.5838    6.1979   10.0328 C   0  0  2  0  0  0  0  0  0  0  0  0
   13.0120    3.2746    5.6267 C   0  0  1  0  0  0  0  0  0  0  0  0
   14.1757    2.4585    5.5221 O   0  0  0  0  0  0  0  0  0  0  0  0
    5.4463    5.4937    9.3125 C   0  0  2  0  0  0  0  0  0  0  0  0
    5.9161    6.3117   10.4475 O   0  0  0  0  0  0  0  0  0  0  0  0
   10.4233    6.0412    8.7402 C   0  0  2  0  0  0  0  0  0  0  0  0
   10.1511    4.7603    8.1812 O   0  0  0  0  0  0  0  0  0  0  0  0
   12.4592    3.2051    7.0851 C   0  0  0  0  0  0  0  0  0  0  0  0
   13.4458    3.7499    8.0486 O   0  0  0  0  0  0  0  0  0  0  0  0
    4.0191    5.9642    8.9283 C   0  0  2  0  0  0  0  0  0  0  0  0
    3.0790    5.4387    9.8618 O   0  0  0  0  0  0  0  0  0  0  0  0
   11.9375    6.1352    9.0404 C   0  0  1  0  0  0  0  0  0  0  0  0
   12.6289    5.9844    7.7781 O   0  0  0  0  0  0  0  0  0  0  0  0
    3.6253    5.4812    7.5421 C   0  0  0  0  0  0  0  0  0  0  0  0
   11.9709    2.7201    4.6621 C   0  0  0  0  0  0  0  0  0  0  0  0
   13.3704    6.0944    3.2979 C   0  0  0  0  0  0  0  0  0  0  0  0
  1  2  1  6  0  0  0
  1  6  1  0  0  0  0
  1 23  1  0  0  0  0
  3  4  1  1  0  0  0
  3  8  1  0  0  0  0
  3 30  1  0  0  0  0
  5  9  1  0  0  0  0
  5 27  1  0  0  0  0
  5 31  1  6  0  0  0
  6  7  1  6  0  0  0
  6 11  1  0  0  0  0
  8 13  1  0  0  0  0
  9 10  1  6  0  0  0
  9 15  1  0  0  0  0
 11 12  1  1  0  0  0
 11 17  1  0  0  0  0
 13 14  1  1  0  0  0
 13 19  1  0  0  0  0
 15 16  1  6  0  0  0
 15 20  1  0  0  0  0
 16 34  1  0  0  0  0
 17 18  1  6  0  0  0
 17 22  1  0  0  0  0
 19  2  1  6  0  0  0
 19 24  1  0  0  0  0
 20 21  1  6  0  0  0
 20 26  1  0  0  0  0
 20 33  1  0  0  0  0
 22 23  1  1  0  0  0
 22 28  1  0  0  0  0
 24 25  1  1  0  0  0
 24 30  1  0  0  0  0
 26 27  1  0  0  0  0
 28 29  1  1  0  0  0
 28 32  1  0  0  0  0
 30 31  1  6  0  0  0
M  END
>  <CHROM.1>
-74.83714178,-75.88752011,-99.87654827,43.90747491,105.93393035,-174.60442469
9.91361107,5.20289165,8.47718188,-2.78062309,-0.25875450,-2.20854000

>  <Name>
ligand

>  <RI>
0

>  <Rbt.Current_Directory>
/home/itssahil/PROJECTS/Mol_Feturizer/New_Systems/rnas/3TD1

>  <Rbt.Executable>
rbdock ($Id: //depot/dev/client3/rdock/2013.1/src/exe/rbdock.cxx#4 $)

>  <Rbt.Library>
libRbt.so (2013.1, Build901 2013/11/27)

>  <Rbt.Parameter_File>
/export/apps/rDock/src/rDock_2013.1_src/data/scripts/dock_solv.prm

>  <Rbt.Receptor>
prm/pocket_docking_6.prm

>  <SCORE>
-9.485

>  <SCORE.INTER>
-6.72735

>  <SCORE.INTER.CONST>
1

>  <SCORE.INTER.POLAR>
0

>  <SCORE.INTER.ROT>
6

>  <SCORE.INTER.SOLV>
8.61521

>  <SCORE.INTER.VDW>
-14.9566

>  <SCORE.INTER.norm>
-0.197863

>  <SCORE.INTRA>
-2.75765

>  <SCORE.INTRA.DIHEDRAL>
-9.20665

>  <SCORE.INTRA.DIHEDRAL.0>
19.5869

>  <SCORE.INTRA.POLAR>
0

>  <SCORE.INTRA.POLAR.0>
0

>  <SCORE.INTRA.REPUL>
0

>  <SCORE.INTRA.REPUL.0>
0

>  <SCORE.INTRA.SOLV>
1.52368

>  <SCORE.INTRA.SOLV.lig_0>
-70.101

>  <SCORE.INTRA.VDW>
1.08384

>  <SCORE.INTRA.VDW.0>
-3.39718

>  <SCORE.INTRA.norm>
-0.0811074

>  <SCORE.RESTR>
0

>  <SCORE.RESTR.CAVITY>
0

>  <SCORE.RESTR.norm>
0

>  <SCORE.SYSTEM>
0

>  <SCORE.SYSTEM.CONST>
0

>  <SCORE.SYSTEM.DIHEDRAL>
0

>  <SCORE.SYSTEM.SOLV>
0

>  <SCORE.SYSTEM.norm>
0

>  <SCORE.heavy>
34

>  <SCORE.norm>
-0.278971

>  <RMSD>
4.325

$$$$
ligand
 OpenBabel11021811483D
libRbt.so/2013.1/901 2013/11/27
 34 36  0  0  0  0  0  0  0  0999 V2000
    6.6667    2.9302    8.2451 C   0  0  2  0  0  0  0  0  0  0  0  0
    6.8816    3.1465    6.8417 O   0  0  0  0  0  0  0  0  0  0  0  0
   10.9677    1.9001    6.9488 C   0  0  2  0  0  0  0  0  0  0  0  0
   12.2925    1.4542    6.5315 N   0  0  0  0  0  0  0  0  0  0  0  0
   13.0388    4.0102    6.7802 C   0  0  2  0  0  0  0  0  0  0  0  0
    5.1403    3.1513    8.5416 C   0  0  2  0  0  0  0  0  0  0  0  0
    4.3093    2.2044    7.7820 N   0  0  0  0  0  0  0  0  0  0  0  0
    9.9272    0.8897    6.3604 C   0  0  0  0  0  0  0  0  0  0  0  0
   13.8113    5.1197    7.5797 C   0  0  2  0  0  0  0  0  0  0  0  0
   13.4745    5.0449    8.9552 O   0  0  0  0  0  0  0  0  0  0  0  0
    4.7535    4.6007    8.1758 C   0  0  1  0  0  0  0  0  0  0  0  0
    3.3594    4.8125    8.4521 O   0  0  0  0  0  0  0  0  0  0  0  0
    8.5063    1.3545    6.8273 C   0  0  2  0  0  0  0  0  0  0  0  0
    7.4756    0.4396    6.2960 N   0  0  0  0  0  0  0  0  0  0  0  0
   13.4343    6.5295    6.9798 C   0  0  1  0  0  0  0  0  0  0  0  0
   14.1333    7.6236    7.7184 N   0  0  0  0  0  0  0  0  0  0  0  0
    5.6473    5.5738    8.9806 C   0  0  2  0  0  0  0  0  0  0  0  0
    5.3056    6.9293    8.6421 O   0  0  0  0  0  0  0  0  0  0  0  0
    8.2033    2.7926    6.3346 C   0  0  2  0  0  0  0  0  0  0  0  0
   13.8265    6.5586    5.4629 C   0  0  1  0  0  0  0  0  0  0  0  0
   15.2335    6.3748    5.3293 O   0  0  0  0  0  0  0  0  0  0  0  0
    7.1635    5.2899    8.6562 C   0  0  2  0  0  0  0  0  0  0  0  0
    7.4952    3.8909    8.9895 O   0  0  0  0  0  0  0  0  0  0  0  0
    9.2838    3.7603    6.8786 C   0  0  2  0  0  0  0  0  0  0  0  0
    8.9957    5.0696    6.3989 O   0  0  0  0  0  0  0  0  0  0  0  0
   13.0802    5.3983    4.7321 C   0  0  0  0  0  0  0  0  0  0  0  0
   13.3973    4.0920    5.3576 O   0  0  0  0  0  0  0  0  0  0  0  0
    8.1114    6.2212    9.4562 C   0  0  2  0  0  0  0  0  0  0  0  0
    7.5744    6.4393   10.7583 O   0  0  0  0  0  0  0  0  0  0  0  0
   10.6946    3.3569    6.3904 C   0  0  1  0  0  0  0  0  0  0  0  0
   11.6257    4.3109    6.9537 O   0  0  0  0  0  0  0  0  0  0  0  0
    8.2686    7.5732    8.7802 C   0  0  0  0  0  0  0  0  0  0  0  0
   13.4698    7.8859    4.8050 C   0  0  0  0  0  0  0  0  0  0  0  0
   13.1119    8.5226    8.2888 C   0  0  0  0  0  0  0  0  0  0  0  0
  1  2  1  6  0  0  0
  1  6  1  0  0  0  0
  1 23  1  0  0  0  0
  3  4  1  6  0  0  0
  3  8  1  0  0  0  0
  3 30  1  0  0  0  0
  5  9  1  0  0  0  0
  5 27  1  0  0  0  0
  5 31  1  6  0  0  0
  6  7  1  6  0  0  0
  6 11  1  0  0  0  0
  8 13  1  0  0  0  0
  9 10  1  1  0  0  0
  9 15  1  0  0  0  0
 11 12  1  1  0  0  0
 11 17  1  0  0  0  0
 13 14  1  6  0  0  0
 13 19  1  0  0  0  0
 15 16  1  1  0  0  0
 15 20  1  0  0  0  0
 16 34  1  0  0  0  0
 17 18  1  6  0  0  0
 17 22  1  0  0  0  0
 19  2  1  1  0  0  0
 19 24  1  0  0  0  0
 20 21  1  6  0  0  0
 20 26  1  0  0  0  0
 20 33  1  0  0  0  0
 22 23  1  1  0  0  0
 22 28  1  0  0  0  0
 24 25  1  6  0  0  0
 24 30  1  0  0  0  0
 26 27  1  0  0  0  0
 28 29  1  1  0  0  0
 28 32  1  0  0  0  0
 30 31  1  1  0  0  0
M  END
>  <CHROM.1>
-171.16278585,50.30446927,-120.57772346,36.59822237,55.53745310,-175.25112673
9.66846231,4.61307687,7.37143455,-3.01498609,0.29241102,0.35948010

>  <Name>
ligand

>  <RI>
0

>  <Rbt.Current_Directory>
/home/itssahil/PROJECTS/Mol_Feturizer/New_Systems/rnas/3TD1

>  <Rbt.Executable>
rbdock ($Id: //depot/dev/client3/rdock/2013.1/src/exe/rbdock.cxx#4 $)

>  <Rbt.Library>
libRbt.so (2013.1, Build901 2013/11/27)

>  <Rbt.Parameter_File>
/export/apps/rDock/src/rDock_2013.1_src/data/scripts/dock_solv.prm

>  <Rbt.Receptor>
prm/pocket_docking_6.prm

>  <SCORE>
-10.842

>  <SCORE.INTER>
-5.30732

>  <SCORE.INTER.CONST>
1

>  <SCORE.INTER.POLAR>
0

>  <SCORE.INTER.ROT>
6

>  <SCORE.INTER.SOLV>
17.8748

>  <SCORE.INTER.VDW>
-17.0965

>  <SCORE.INTER.norm>
-0.156098

>  <SCORE.INTRA>
-5.54498

>  <SCORE.INTRA.DIHEDRAL>
-15.5101

>  <SCORE.INTRA.DIHEDRAL.0>
19.5869

>  <SCORE.INTRA.POLAR>
0

>  <SCORE.INTRA.POLAR.0>
0

>  <SCORE.INTRA.REPUL>
0

>  <SCORE.INTRA.REPUL.0>
0

>  <SCORE.INTRA.SOLV>
0.255629

>  <SCORE.INTRA.SOLV.lig_0>
-70.101

>  <SCORE.INTRA.VDW>
2.08226

>  <SCORE.INTRA.VDW.0>
-3.39718

>  <SCORE.INTRA.norm>
-0.163088

>  <SCORE.RESTR>
0.0102571

>  <SCORE.RESTR.CAVITY>
0.0102571

>  <SCORE.RESTR.norm>
0.000301678

>  <SCORE.SYSTEM>
0

>  <SCORE.SYSTEM.CONST>
0

>  <SCORE.SYSTEM.DIHEDRAL>
0

>  <SCORE.SYSTEM.SOLV>
0

>  <SCORE.SYSTEM.norm>
0

>  <SCORE.heavy>
34

>  <SCORE.norm>
-0.318884

>  <RMSD>
4.592

$$$$
ligand
 OpenBabel11021811483D
libRbt.so/2013.1/901 2013/11/27
 34 36  0  0  0  0  0  0  0  0999 V2000
    6.1035    5.7571    6.7822 C   0  0  2  0  0  0  0  0  0  0  0  0
    6.7151    6.4694    7.8690 O   0  0  0  0  0  0  0  0  0  0  0  0
   10.6142    8.2138    7.7437 C   0  0  2  0  0  0  0  0  0  0  0  0
   12.0626    8.3770    7.8042 N   0  0  0  0  0  0  0  0  0  0  0  0
   12.0427    8.0462    5.0581 C   0  0  2  0  0  0  0  0  0  0  0  0
    4.5666    5.6398    7.0833 C   0  0  2  0  0  0  0  0  0  0  0  0
    3.9438    6.9683    7.1911 N   0  0  0  0  0  0  0  0  0  0  0  0
   10.1577    7.5801    9.1000 C   0  0  0  0  0  0  0  0  0  0  0  0
   12.2082    8.3278    3.5218 C   0  0  2  0  0  0  0  0  0  0  0  0
   11.5068    9.5091    3.1703 O   0  0  0  0  0  0  0  0  0  0  0  0
    4.3618    4.8551    8.3973 C   0  0  1  0  0  0  0  0  0  0  0  0
    2.9568    4.7372    8.6749 O   0  0  0  0  0  0  0  0  0  0  0  0
    8.6001    7.4259    9.0451 C   0  0  2  0  0  0  0  0  0  0  0  0
    8.1074    6.8244   10.3008 N   0  0  0  0  0  0  0  0  0  0  0  0
   11.6621    7.0843    2.7186 C   0  0  1  0  0  0  0  0  0  0  0  0
   11.7829    7.3096    1.2469 N   0  0  0  0  0  0  0  0  0  0  0  0
    5.0330    3.4680    8.2599 C   0  0  2  0  0  0  0  0  0  0  0  0
    4.8596    2.7289    9.4814 O   0  0  0  0  0  0  0  0  0  0  0  0
    8.1731    6.5273    7.8564 C   0  0  2  0  0  0  0  0  0  0  0  0
   12.4690    5.8098    3.1431 C   0  0  1  0  0  0  0  0  0  0  0  0
   13.8455    5.9855    2.8184 O   0  0  0  0  0  0  0  0  0  0  0  0
    6.5654    3.6519    7.9393 C   0  0  2  0  0  0  0  0  0  0  0  0
    6.7288    4.4285    6.6950 O   0  0  0  0  0  0  0  0  0  0  0  0
    8.6926    7.1440    6.5337 C   0  0  2  0  0  0  0  0  0  0  0  0
    8.3049    6.2935    5.4596 O   0  0  0  0  0  0  0  0  0  0  0  0
   12.3205    5.6157    4.6851 C   0  0  0  0  0  0  0  0  0  0  0  0
   12.7762    6.8238    5.4140 O   0  0  0  0  0  0  0  0  0  0  0  0
    7.2881    2.2906    7.7647 C   0  0  2  0  0  0  0  0  0  0  0  0
    8.6926    2.5091    7.6606 O   0  0  0  0  0  0  0  0  0  0  0  0
   10.2346    7.2605    6.5371 C   0  0  1  0  0  0  0  0  0  0  0  0
   10.6169    7.8490    5.2714 O   0  0  0  0  0  0  0  0  0  0  0  0
    6.8298    1.5714    6.5068 C   0  0  0  0  0  0  0  0  0  0  0  0
   11.9811    4.5580    2.4243 C   0  0  0  0  0  0  0  0  0  0  0  0
   10.4313    7.5407    0.7019 C   0  0  0  0  0  0  0  0  0  0  0  0
  1  2  1  1  0  0  0
  1  6  1  0  0  0  0
  1 23  1  0  0  0  0
  3  4  1  1  0  0  0
  3  8  1  0  0  0  0
  3 30  1  0  0  0  0
  5  9  1  0  0  0  0
  5 27  1  0  0  0  0
  5 31  1  6  0  0  0
  6  7  1  1  0  0  0
  6 11  1  0  0  0  0
  8 13  1  0  0  0  0
  9 10  1  6  0  0  0
  9 15  1  0  0  0  0
 11 12  1  6  0  0  0
 11 17  1  0  0  0  0
 13 14  1  1  0  0  0
 13 19  1  0  0  0  0
 15 16  1  6  0  0  0
 15 20  1  0  0  0  0
 16 34  1  0  0  0  0
 17 18  1  1  0  0  0
 17 22  1  0  0  0  0
 19  2  1  6  0  0  0
 19 24  1  0  0  0  0
 20 21  1  6  0  0  0
 20 26  1  0  0  0  0
 20 33  1  0  0  0  0
 22 23  1  6  0  0  0
 22 28  1  0  0  0  0
 24 25  1  6  0  0  0
 24 30  1  0  0  0  0
 26 27  1  0  0  0  0
 28 29  1  6  0  0  0
 28 32  1  0  0  0  0
 30 31  1  6  0  0  0
M  END
>  <CHROM.1>
172.27160346,175.73259748,-107.73543248,-172.09973100,64.30715213,165.63264838
8.91831305,6.01140371,6.18022783,2.94506574,0.67166365,0.83753974

>  <Name>
ligand

>  <RI>
0

>  <Rbt.Current_Directory>
/home/itssahil/PROJECTS/Mol_Feturizer/New_Systems/rnas/3TD1

>  <Rbt.Executable>
rbdock ($Id: //depot/dev/client3/rdock/2013.1/src/exe/rbdock.cxx#4 $)

>  <Rbt.Library>
libRbt.so (2013.1, Build901 2013/11/27)

>  <Rbt.Parameter_File>
/export/apps/rDock/src/rDock_2013.1_src/data/scripts/dock_solv.prm

>  <Rbt.Receptor>
prm/pocket_docking_5.prm

>  <SCORE>
-11.4537

>  <SCORE.INTER>
-4.82872

>  <SCORE.INTER.CONST>
1

>  <SCORE.INTER.POLAR>
0

>  <SCORE.INTER.ROT>
6

>  <SCORE.INTER.SOLV>
15.2604

>  <SCORE.INTER.VDW>
-15.906

>  <SCORE.INTER.norm>
-0.142021

>  <SCORE.INTRA>
-6.62501

>  <SCORE.INTRA.DIHEDRAL>
-16.7599

>  <SCORE.INTRA.DIHEDRAL.0>
19.5869

>  <SCORE.INTRA.POLAR>
0

>  <SCORE.INTRA.POLAR.0>
0

>  <SCORE.INTRA.REPUL>
0

>  <SCORE.INTRA.REPUL.0>
0

>  <SCORE.INTRA.SOLV>
-1.74387

>  <SCORE.INTRA.SOLV.lig_0>
-70.101

>  <SCORE.INTRA.VDW>
2.62686

>  <SCORE.INTRA.VDW.0>
-3.39718

>  <SCORE.INTRA.norm>
-0.194853

>  <SCORE.RESTR>
0

>  <SCORE.RESTR.CAVITY>
0

>  <SCORE.RESTR.norm>
0

>  <SCORE.SYSTEM>
0

>  <SCORE.SYSTEM.CONST>
0

>  <SCORE.SYSTEM.DIHEDRAL>
0

>  <SCORE.SYSTEM.SOLV>
0

>  <SCORE.SYSTEM.norm>
0

>  <SCORE.heavy>
34

>  <SCORE.norm>
-0.336874

>  <RMSD>
4.627

$$$$
ligand
 OpenBabel11021811483D
libRbt.so/2013.1/901 2013/11/27
 34 36  0  0  0  0  0  0  0  0999 V2000
    4.9488    7.1837    6.8810 C   0  0  2  0  0  0  0  0  0  0  0  0
    5.6129    6.2608    6.0036 O   0  0  0  0  0  0  0  0  0  0  0  0
    7.6522    6.3769    2.2500 C   0  0  2  0  0  0  0  0  0  0  0  0
    8.1224    6.8158    0.9407 N   0  0  0  0  0  0  0  0  0  0  0  0
   10.3119    8.6004    3.2088 C   0  0  2  0  0  0  0  0  0  0  0  0
    4.9677    6.5753    8.3288 C   0  0  2  0  0  0  0  0  0  0  0  0
    6.3460    6.3766    8.8031 N   0  0  0  0  0  0  0  0  0  0  0  0
    6.0876    6.3919    2.2144 C   0  0  0  0  0  0  0  0  0  0  0  0
   10.2830    8.8232    1.6543 C   0  0  2  0  0  0  0  0  0  0  0  0
    8.9409    8.9177    1.2061 O   0  0  0  0  0  0  0  0  0  0  0  0
    4.2132    5.2281    8.3268 C   0  0  1  0  0  0  0  0  0  0  0  0
    4.2198    4.6694    9.6507 O   0  0  0  0  0  0  0  0  0  0  0  0
    5.5818    5.8985    3.6121 C   0  0  2  0  0  0  0  0  0  0  0  0
    4.1051    5.8965    3.6431 N   0  0  0  0  0  0  0  0  0  0  0  0
   11.0297    7.6205    0.9576 C   0  0  1  0  0  0  0  0  0  0  0  0
   11.0161    7.7775   -0.5278 N   0  0  0  0  0  0  0  0  0  0  0  0
    2.7720    5.4642    7.8161 C   0  0  2  0  0  0  0  0  0  0  0  0
    2.0594    4.2150    7.7985 O   0  0  0  0  0  0  0  0  0  0  0  0
    6.1065    6.8147    4.7470 C   0  0  2  0  0  0  0  0  0  0  0  0
   12.5037    7.5616    1.4862 C   0  0  1  0  0  0  0  0  0  0  0  0
   13.1816    8.7685    1.1474 O   0  0  0  0  0  0  0  0  0  0  0  0
    2.8196    6.0924    6.3711 C   0  0  2  0  0  0  0  0  0  0  0  0
    3.5702    7.3627    6.4000 O   0  0  0  0  0  0  0  0  0  0  0  0
    7.6553    6.8318    4.7186 C   0  0  2  0  0  0  0  0  0  0  0  0
    8.1134    7.6926    5.7562 O   0  0  0  0  0  0  0  0  0  0  0  0
   12.4711    7.4035    3.0391 C   0  0  0  0  0  0  0  0  0  0  0  0
   11.7057    8.5085    3.6648 O   0  0  0  0  0  0  0  0  0  0  0  0
    1.3994    6.3759    5.8156 C   0  0  2  0  0  0  0  0  0  0  0  0
    0.5804    5.2237    5.9968 O   0  0  0  0  0  0  0  0  0  0  0  0
    8.1854    7.3650    3.3672 C   0  0  1  0  0  0  0  0  0  0  0  0
    9.6305    7.3354    3.4385 O   0  0  0  0  0  0  0  0  0  0  0  0
    1.4339    6.6994    4.3311 C   0  0  0  0  0  0  0  0  0  0  0  0
   13.2854    6.4056    0.8743 C   0  0  0  0  0  0  0  0  0  0  0  0
   10.5784    6.5007   -1.1239 C   0  0  0  0  0  0  0  0  0  0  0  0
  1  2  1  6  0  0  0
  1  6  1  0  0  0  0
  1 23  1  0  0  0  0
  3  4  1  6  0  0  0
  3  8  1  0  0  0  0
  3 30  1  0  0  0  0
  5  9  1  0  0  0  0
  5 27  1  0  0  0  0
  5 31  1  6  0  0  0
  6  7  1  6  0  0  0
  6 11  1  0  0  0  0
  8 13  1  0  0  0  0
  9 10  1  6  0  0  0
  9 15  1  0  0  0  0
 11 12  1  1  0  0  0
 11 17  1  0  0  0  0
 13 14  1  6  0  0  0
 13 19  1  0  0  0  0
 15 16  1  6  0  0  0
 15 20  1  0  0  0  0
 16 34  1  0  0  0  0
 17 18  1  6  0  0  0
 17 22  1  0  0  0  0
 19  2  1  1  0  0  0
 19 24  1  0  0  0  0
 20 21  1  6  0  0  0
 20 26  1  0  0  0  0
 20 33  1  0  0  0  0
 22 23  1  1  0  0  0
 22 28  1  0  0  0  0
 24 25  1  1  0  0  0
 24 30  1  0  0  0  0
 26 27  1  0  0  0  0
 28 29  1  6  0  0  0
 28 32  1  0  0  0  0
 30 31  1  1  0  0  0
M  END
>  <CHROM.1>
-159.63341263,-129.14273520,-131.33398170,-48.43565296,120.91580857,-77.29411474
7.09851079,6.82316220,4.21133973,-2.53928907,-0.18997507,-1.50544422

>  <Name>
ligand

>  <RI>
0

>  <Rbt.Current_Directory>
/home/itssahil/PROJECTS/Mol_Feturizer/New_Systems/rnas/3TD1

>  <Rbt.Executable>
rbdock ($Id: //depot/dev/client3/rdock/2013.1/src/exe/rbdock.cxx#4 $)

>  <Rbt.Library>
libRbt.so (2013.1, Build901 2013/11/27)

>  <Rbt.Parameter_File>
/export/apps/rDock/src/rDock_2013.1_src/data/scripts/dock_solv.prm

>  <Rbt.Receptor>
prm/blind_docking_20.prm

>  <SCORE>
41.5725

>  <SCORE.INTER>
27.1817

>  <SCORE.INTER.CONST>
1

>  <SCORE.INTER.POLAR>
0

>  <SCORE.INTER.ROT>
6

>  <SCORE.INTER.SOLV>
22.3713

>  <SCORE.INTER.VDW>
3.06401

>  <SCORE.INTER.norm>
0.799461

>  <SCORE.INTRA>
5.37825

>  <SCORE.INTRA.DIHEDRAL>
-0.813646

>  <SCORE.INTRA.DIHEDRAL.0>
19.5869

>  <SCORE.INTRA.POLAR>
0

>  <SCORE.INTRA.POLAR.0>
0

>  <SCORE.INTRA.REPUL>
0

>  <SCORE.INTRA.REPUL.0>
0

>  <SCORE.INTRA.SOLV>
5.5825

>  <SCORE.INTRA.SOLV.lig_0>
-70.101

>  <SCORE.INTRA.VDW>
2.99382

>  <SCORE.INTRA.VDW.0>
-3.39718

>  <SCORE.INTRA.norm>
0.158184

>  <SCORE.RESTR>
9.01254

>  <SCORE.RESTR.CAVITY>
9.01254

>  <SCORE.RESTR.norm>
0.265075

>  <SCORE.SYSTEM>
0

>  <SCORE.SYSTEM.CONST>
0

>  <SCORE.SYSTEM.DIHEDRAL>
0

>  <SCORE.SYSTEM.SOLV>
0

>  <SCORE.SYSTEM.norm>
0

>  <SCORE.heavy>
34

>  <SCORE.norm>
1.22272

>  <RMSD>
4.629

$$$$
ligand
 OpenBabel11021811483D
libRbt.so/2013.1/901 2013/11/27
 34 36  0  0  0  0  0  0  0  0999 V2000
    6.4658    5.4130    8.7197 C   0  0  2  0  0  0  0  0  0  0  0  0
    6.7822    4.1219    8.1763 O   0  0  0  0  0  0  0  0  0  0  0  0
   10.3273    3.6365   10.5127 C   0  0  2  0  0  0  0  0  0  0  0  0
   11.5454    3.0715   11.0828 N   0  0  0  0  0  0  0  0  0  0  0  0
   12.9441    4.4478    8.8936 C   0  0  2  0  0  0  0  0  0  0  0  0
    4.9029    5.5244    8.8264 C   0  0  2  0  0  0  0  0  0  0  0  0
    4.3562    4.4876    9.7154 N   0  0  0  0  0  0  0  0  0  0  0  0
    9.1826    2.5903   10.7244 C   0  0  0  0  0  0  0  0  0  0  0  0
   13.8156    5.7480    9.0244 C   0  0  2  0  0  0  0  0  0  0  0  0
   13.4356    6.4678   10.1855 O   0  0  0  0  0  0  0  0  0  0  0  0
    4.2837    5.3892    7.4183 C   0  0  1  0  0  0  0  0  0  0  0  0
    2.8537    5.4981    7.5075 O   0  0  0  0  0  0  0  0  0  0  0  0
    7.8693    3.2058   10.1334 C   0  0  2  0  0  0  0  0  0  0  0  0
    6.7485    2.2581   10.2984 N   0  0  0  0  0  0  0  0  0  0  0  0
   13.6173    6.6217    7.7257 C   0  0  1  0  0  0  0  0  0  0  0  0
   14.4158    7.8815    7.8077 N   0  0  0  0  0  0  0  0  0  0  0  0
    4.8818    6.4839    6.5031 C   0  0  2  0  0  0  0  0  0  0  0  0
    4.3219    6.3638    5.1838 O   0  0  0  0  0  0  0  0  0  0  0  0
    8.0368    3.5279    8.6264 C   0  0  2  0  0  0  0  0  0  0  0  0
   14.0511    5.7818    6.4758 C   0  0  1  0  0  0  0  0  0  0  0  0
   15.4312    5.4428    6.5833 O   0  0  0  0  0  0  0  0  0  0  0  0
    6.4499    6.3320    6.4527 C   0  0  2  0  0  0  0  0  0  0  0  0
    7.0090    6.4374    7.8145 O   0  0  0  0  0  0  0  0  0  0  0  0
    9.2163    4.5148    8.4402 C   0  0  2  0  0  0  0  0  0  0  0  0
    9.3626    4.7813    7.0491 O   0  0  0  0  0  0  0  0  0  0  0  0
   13.1979    4.4750    6.4322 C   0  0  0  0  0  0  0  0  0  0  0  0
   13.3478    3.7061    7.6911 O   0  0  0  0  0  0  0  0  0  0  0  0
    7.1094    7.4218    5.5676 C   0  0  2  0  0  0  0  0  0  0  0  0
    6.6755    7.2643    4.2192 O   0  0  0  0  0  0  0  0  0  0  0  0
   10.5395    3.9129    8.9676 C   0  0  1  0  0  0  0  0  0  0  0  0
   11.5701    4.9064    8.7555 O   0  0  0  0  0  0  0  0  0  0  0  0
    8.6254    7.3175    5.5887 C   0  0  0  0  0  0  0  0  0  0  0  0
   13.8650    6.5534    5.1752 C   0  0  0  0  0  0  0  0  0  0  0  0
   13.5672    8.9286    8.4080 C   0  0  0  0  0  0  0  0  0  0  0  0
  1  2  1  6  0  0  0
  1  6  1  0  0  0  0
  1 23  1  0  0  0  0
  3  4  1  6  0  0  0
  3  8  1  0  0  0  0
  3 30  1  0  0  0  0
  5  9  1  0  0  0  0
  5 27  1  0  0  0  0
  5 31  1  6  0  0  0
  6  7  1  1  0  0  0
  6 11  1  0  0  0  0
  8 13  1  0  0  0  0
  9 10  1  1  0  0  0
  9 15  1  0  0  0  0
 11 12  1  1  0  0  0
 11 17  1  0  0  0  0
 13 14  1  6  0  0  0
 13 19  1  0  0  0  0
 15 16  1  1  0  0  0
 15 20  1  0  0  0  0
 16 34  1  0  0  0  0
 17 18  1  6  0  0  0
 17 22  1  0  0  0  0
 19  2  1  1  0  0  0
 19 24  1  0  0  0  0
 20 21  1  1  0  0  0
 20 26  1  0  0  0  0
 20 33  1  0  0  0  0
 22 23  1  1  0  0  0
 22 28  1  0  0  0  0
 24 25  1  6  0  0  0
 24 30  1  0  0  0  0
 26 27  1  0  0  0  0
 28 29  1  6  0  0  0
 28 32  1  0  0  0  0
 30 31  1  1  0  0  0
M  END
>  <CHROM.1>
-148.40667838,67.22666272,-91.24073648,-63.79635302,77.63187074,-164.36693100
9.44208716,5.33399224,7.92203511,3.13000419,-0.06226542,-0.86741834

>  <Name>
ligand

>  <RI>
0

>  <Rbt.Current_Directory>
/home/itssahil/PROJECTS/Mol_Feturizer/New_Systems/rnas/3TD1

>  <Rbt.Executable>
rbdock ($Id: //depot/dev/client3/rdock/2013.1/src/exe/rbdock.cxx#4 $)

>  <Rbt.Library>
libRbt.so (2013.1, Build901 2013/11/27)

>  <Rbt.Parameter_File>
/export/apps/rDock/src/rDock_2013.1_src/data/scripts/dock_solv.prm

>  <Rbt.Receptor>
prm/pocket_docking_5.prm

>  <SCORE>
-9.40773

>  <SCORE.INTER>
-4.33235

>  <SCORE.INTER.CONST>
1

>  <SCORE.INTER.POLAR>
0

>  <SCORE.INTER.ROT>
6

>  <SCORE.INTER.SOLV>
14.6157

>  <SCORE.INTER.VDW>
-15.3601

>  <SCORE.INTER.norm>
-0.127422

>  <SCORE.INTRA>
-5.07538

>  <SCORE.INTRA.DIHEDRAL>
-12.1275

>  <SCORE.INTRA.DIHEDRAL.0>
19.5869

>  <SCORE.INTRA.POLAR>
0

>  <SCORE.INTRA.POLAR.0>
0

>  <SCORE.INTRA.REPUL>
0

>  <SCORE.INTRA.REPUL.0>
0

>  <SCORE.INTRA.SOLV>
0.608157

>  <SCORE.INTRA.SOLV.lig_0>
-70.101

>  <SCORE.INTRA.VDW>
0.684308

>  <SCORE.INTRA.VDW.0>
-3.39718

>  <SCORE.INTRA.norm>
-0.149276

>  <SCORE.RESTR>
0

>  <SCORE.RESTR.CAVITY>
0

>  <SCORE.RESTR.norm>
0

>  <SCORE.SYSTEM>
0

>  <SCORE.SYSTEM.CONST>
0

>  <SCORE.SYSTEM.DIHEDRAL>
0

>  <SCORE.SYSTEM.SOLV>
0

>  <SCORE.SYSTEM.norm>
0

>  <SCORE.heavy>
34

>  <SCORE.norm>
-0.276698

>  <RMSD>
4.643

$$$$
ligand
 OpenBabel11021811483D
libRbt.so/2013.1/901 2013/11/27
 34 36  0  0  0  0  0  0  0  0999 V2000
    7.7207    3.0483    9.4808 C   0  0  2  0  0  0  0  0  0  0  0  0
    8.9555    3.6900    9.8355 O   0  0  0  0  0  0  0  0  0  0  0  0
    8.6210    6.8593    6.9885 C   0  0  2  0  0  0  0  0  0  0  0  0
    8.7396    8.1632    6.3450 N   0  0  0  0  0  0  0  0  0  0  0  0
   10.9851    7.1301    5.0587 C   0  0  2  0  0  0  0  0  0  0  0  0
    7.6330    1.6946   10.2723 C   0  0  2  0  0  0  0  0  0  0  0  0
    7.6478    1.9270   11.7249 N   0  0  0  0  0  0  0  0  0  0  0  0
    7.9698    7.0884    8.3932 C   0  0  0  0  0  0  0  0  0  0  0  0
   11.8240    6.5967    3.8425 C   0  0  2  0  0  0  0  0  0  0  0  0
   11.0398    5.7006    3.0725 O   0  0  0  0  0  0  0  0  0  0  0  0
    8.8198    0.7912    9.8724 C   0  0  1  0  0  0  0  0  0  0  0  0
    8.7414   -0.4528   10.5873 O   0  0  0  0  0  0  0  0  0  0  0  0
    7.8207    5.6864    9.0753 C   0  0  2  0  0  0  0  0  0  0  0  0
    7.2145    5.8377   10.4136 N   0  0  0  0  0  0  0  0  0  0  0  0
   13.1190    5.8851    4.3956 C   0  0  1  0  0  0  0  0  0  0  0  0
   13.9459    5.3446    3.2751 N   0  0  0  0  0  0  0  0  0  0  0  0
    8.7853    0.5708    8.3415 C   0  0  2  0  0  0  0  0  0  0  0  0
    9.8921   -0.2610    7.9522 O   0  0  0  0  0  0  0  0  0  0  0  0
    9.1987    4.9924    9.2238 C   0  0  2  0  0  0  0  0  0  0  0  0
   13.9471    6.9164    5.2360 C   0  0  1  0  0  0  0  0  0  0  0  0
   14.3506    7.9988    4.4015 O   0  0  0  0  0  0  0  0  0  0  0  0
    8.8560    1.9629    7.6054 C   0  0  2  0  0  0  0  0  0  0  0  0
    7.7264    2.8131    8.0288 O   0  0  0  0  0  0  0  0  0  0  0  0
    9.8486    4.8364    7.8262 C   0  0  2  0  0  0  0  0  0  0  0  0
   11.1189    4.2143    7.9892 O   0  0  0  0  0  0  0  0  0  0  0  0
   13.0454    7.4588    6.3894 C   0  0  0  0  0  0  0  0  0  0  0  0
   11.8035    8.0611    5.8478 O   0  0  0  0  0  0  0  0  0  0  0  0
    8.7992    1.8064    6.0633 C   0  0  2  0  0  0  0  0  0  0  0  0
    9.9658    1.1229    5.6126 O   0  0  0  0  0  0  0  0  0  0  0  0
   10.0571    6.2107    7.1484 C   0  0  1  0  0  0  0  0  0  0  0  0
   10.6585    5.9580    5.8566 O   0  0  0  0  0  0  0  0  0  0  0  0
    8.7460    3.1556    5.3658 C   0  0  0  0  0  0  0  0  0  0  0  0
   15.2065    6.2938    5.8260 C   0  0  0  0  0  0  0  0  0  0  0  0
   13.5236    3.9545    3.0174 C   0  0  0  0  0  0  0  0  0  0  0  0
  1  2  1  1  0  0  0
  1  6  1  0  0  0  0
  1 23  1  0  0  0  0
  3  4  1  1  0  0  0
  3  8  1  0  0  0  0
  3 30  1  0  0  0  0
  5  9  1  0  0  0  0
  5 27  1  0  0  0  0
  5 31  1  1  0  0  0
  6  7  1  1  0  0  0
  6 11  1  0  0  0  0
  8 13  1  0  0  0  0
  9 10  1  1  0  0  0
  9 15  1  0  0  0  0
 11 12  1  1  0  0  0
 11 17  1  0  0  0  0
 13 14  1  1  0  0  0
 13 19  1  0  0  0  0
 15 16  1  6  0  0  0
 15 20  1  0  0  0  0
 16 34  1  0  0  0  0
 17 18  1  6  0  0  0
 17 22  1  0  0  0  0
 19  2  1  6  0  0  0
 19 24  1  0  0  0  0
 20 21  1  6  0  0  0
 20 26  1  0  0  0  0
 20 33  1  0  0  0  0
 22 23  1  1  0  0  0
 22 28  1  0  0  0  0
 24 25  1  1  0  0  0
 24 30  1  0  0  0  0
 26 27  1  0  0  0  0
 28 29  1  6  0  0  0
 28 32  1  0  0  0  0
 30 31  1  6  0  0  0
M  END
>  <CHROM.1>
-178.26759661,33.61108493,-91.13668529,-65.45100414,66.03620254,170.92077208
10.21665461,4.47638120,7.04333372,2.51698893,-0.81152923,3.13804409

>  <Name>
ligand

>  <RI>
0

>  <Rbt.Current_Directory>
/home/itssahil/PROJECTS/Mol_Feturizer/New_Systems/rnas/3TD1

>  <Rbt.Executable>
rbdock ($Id: //depot/dev/client3/rdock/2013.1/src/exe/rbdock.cxx#4 $)

>  <Rbt.Library>
libRbt.so (2013.1, Build901 2013/11/27)

>  <Rbt.Parameter_File>
/export/apps/rDock/src/rDock_2013.1_src/data/scripts/dock_solv.prm

>  <Rbt.Receptor>
prm/pocket_docking_8.prm

>  <SCORE>
-9.38388

>  <SCORE.INTER>
-4.41328

>  <SCORE.INTER.CONST>
1

>  <SCORE.INTER.POLAR>
0

>  <SCORE.INTER.ROT>
6

>  <SCORE.INTER.SOLV>
14.2623

>  <SCORE.INTER.VDW>
-15.2963

>  <SCORE.INTER.norm>
-0.129802

>  <SCORE.INTRA>
-4.97061

>  <SCORE.INTRA.DIHEDRAL>
-15.2636

>  <SCORE.INTRA.DIHEDRAL.0>
19.5869

>  <SCORE.INTRA.POLAR>
0

>  <SCORE.INTRA.POLAR.0>
0

>  <SCORE.INTRA.REPUL>
0

>  <SCORE.INTRA.REPUL.0>
0

>  <SCORE.INTRA.SOLV>
0.193855

>  <SCORE.INTRA.SOLV.lig_0>
-70.101

>  <SCORE.INTRA.VDW>
2.56428

>  <SCORE.INTRA.VDW.0>
-3.39718

>  <SCORE.INTRA.norm>
-0.146194

>  <SCORE.RESTR>
0

>  <SCORE.RESTR.CAVITY>
0

>  <SCORE.RESTR.norm>
0

>  <SCORE.SYSTEM>
0

>  <SCORE.SYSTEM.CONST>
0

>  <SCORE.SYSTEM.DIHEDRAL>
0

>  <SCORE.SYSTEM.SOLV>
0

>  <SCORE.SYSTEM.norm>
0

>  <SCORE.heavy>
34

>  <SCORE.norm>
-0.275997

>  <RMSD>
4.770

$$$$
ligand
 OpenBabel11021811483D
libRbt.so/2013.1/901 2013/11/27
 34 36  0  0  0  0  0  0  0  0999 V2000
    9.7725    2.1013    8.8462 C   0  0  2  0  0  0  0  0  0  0  0  0
    8.6951    2.4283    7.9545 O   0  0  0  0  0  0  0  0  0  0  0  0
    8.1977    5.6433    5.1837 C   0  0  2  0  0  0  0  0  0  0  0  0
    8.0629    6.9846    4.6260 N   0  0  0  0  0  0  0  0  0  0  0  0
   11.0065    6.9076    4.3295 C   0  0  2  0  0  0  0  0  0  0  0  0
    9.7175    0.5572    9.1273 C   0  0  2  0  0  0  0  0  0  0  0  0
    9.8776   -0.2147    7.8852 N   0  0  0  0  0  0  0  0  0  0  0  0
    7.1163    5.4921    6.3050 C   0  0  0  0  0  0  0  0  0  0  0  0
   12.1138    6.7291    3.2299 C   0  0  2  0  0  0  0  0  0  0  0  0
   11.5905    5.9976    2.1336 O   0  0  0  0  0  0  0  0  0  0  0  0
    8.3692    0.2069    9.7937 C   0  0  1  0  0  0  0  0  0  0  0  0
    8.3153   -1.2039   10.0611 O   0  0  0  0  0  0  0  0  0  0  0  0
    7.2449    4.0443    6.8884 C   0  0  2  0  0  0  0  0  0  0  0  0
    6.2496    3.8415    7.9608 N   0  0  0  0  0  0  0  0  0  0  0  0
   13.3473    5.9834    3.8717 C   0  0  1  0  0  0  0  0  0  0  0  0
   14.4254    5.7745    2.8591 N   0  0  0  0  0  0  0  0  0  0  0  0
    8.2229    1.0379   11.0905 C   0  0  2  0  0  0  0  0  0  0  0  0
    6.9656    0.7300   11.7174 O   0  0  0  0  0  0  0  0  0  0  0  0
    8.6626    3.8033    7.4672 C   0  0  2  0  0  0  0  0  0  0  0  0
   13.8857    6.8318    5.0742 C   0  0  1  0  0  0  0  0  0  0  0  0
   14.3242    8.1035    4.6036 O   0  0  0  0  0  0  0  0  0  0  0  0
    8.3059    2.5738   10.7462 C   0  0  2  0  0  0  0  0  0  0  0  0
    9.5918    2.8720   10.0860 O   0  0  0  0  0  0  0  0  0  0  0  0
    9.7162    4.0222    6.3528 C   0  0  2  0  0  0  0  0  0  0  0  0
   11.0094    3.8137    6.9112 O   0  0  0  0  0  0  0  0  0  0  0  0
   12.7281    7.0304    6.1027 C   0  0  0  0  0  0  0  0  0  0  0  0
   11.5558    7.6704    5.4589 O   0  0  0  0  0  0  0  0  0  0  0  0
    8.1907    3.4590   12.0147 C   0  0  2  0  0  0  0  0  0  0  0  0
    8.2439    4.8332   11.6407 O   0  0  0  0  0  0  0  0  0  0  0  0
    9.6487    5.4619    5.7924 C   0  0  1  0  0  0  0  0  0  0  0  0
   10.6594    5.5622    4.7616 O   0  0  0  0  0  0  0  0  0  0  0  0
    9.3272    3.1923   12.9878 C   0  0  0  0  0  0  0  0  0  0  0  0
   15.0680    6.1617    5.7634 C   0  0  0  0  0  0  0  0  0  0  0  0
   14.1815    4.4861    2.1829 C   0  0  0  0  0  0  0  0  0  0  0  0
  1  2  1  6  0  0  0
  1  6  1  0  0  0  0
  1 23  1  0  0  0  0
  3  4  1  1  0  0  0
  3  8  1  0  0  0  0
  3 30  1  0  0  0  0
  5  9  1  0  0  0  0
  5 27  1  0  0  0  0
  5 31  1  1  0  0  0
  6  7  1  6  0  0  0
  6 11  1  0  0  0  0
  8 13  1  0  0  0  0
  9 10  1  6  0  0  0
  9 15  1  0  0  0  0
 11 12  1  1  0  0  0
 11 17  1  0  0  0  0
 13 14  1  1  0  0  0
 13 19  1  0  0  0  0
 15 16  1  6  0  0  0
 15 20  1  0  0  0  0
 16 34  1  0  0  0  0
 17 18  1  6  0  0  0
 17 22  1  0  0  0  0
 19  2  1  6  0  0  0
 19 24  1  0  0  0  0
 20 21  1  6  0  0  0
 20 26  1  0  0  0  0
 20 33  1  0  0  0  0
 22 23  1  1  0  0  0
 22 28  1  0  0  0  0
 24 25  1  1  0  0  0
 24 30  1  0  0  0  0
 26 27  1  0  0  0  0
 28 29  1  6  0  0  0
 28 32  1  0  0  0  0
 30 31  1  6  0  0  0
M  END
>  <CHROM.1>
-174.00791988,-163.76803424,-89.08547562,-178.79702767,78.99083410,179.66922787
10.14857280,4.20326329,7.12632484,-2.10402475,0.28487672,-0.77546318

>  <Name>
ligand

>  <RI>
0

>  <Rbt.Current_Directory>
/home/itssahil/PROJECTS/Mol_Feturizer/New_Systems/rnas/3TD1

>  <Rbt.Executable>
rbdock ($Id: //depot/dev/client3/rdock/2013.1/src/exe/rbdock.cxx#4 $)

>  <Rbt.Library>
libRbt.so (2013.1, Build901 2013/11/27)

>  <Rbt.Parameter_File>
/export/apps/rDock/src/rDock_2013.1_src/data/scripts/dock_solv.prm

>  <Rbt.Receptor>
prm/pocket_docking_6.prm

>  <SCORE>
-12.8936

>  <SCORE.INTER>
-4.77746

>  <SCORE.INTER.CONST>
1

>  <SCORE.INTER.POLAR>
0

>  <SCORE.INTER.ROT>
6

>  <SCORE.INTER.SOLV>
11.4889

>  <SCORE.INTER.VDW>
-14.6146

>  <SCORE.INTER.norm>
-0.140514

>  <SCORE.INTRA>
-8.11969

>  <SCORE.INTRA.DIHEDRAL>
-15.9226

>  <SCORE.INTRA.DIHEDRAL.0>
19.5869

>  <SCORE.INTRA.POLAR>
0

>  <SCORE.INTRA.POLAR.0>
0

>  <SCORE.INTRA.REPUL>
0

>  <SCORE.INTRA.REPUL.0>
0

>  <SCORE.INTRA.SOLV>
-2.0271

>  <SCORE.INTRA.SOLV.lig_0>
-70.101

>  <SCORE.INTRA.VDW>
0.855169

>  <SCORE.INTRA.VDW.0>
-3.39718

>  <SCORE.INTRA.norm>
-0.238814

>  <SCORE.RESTR>
0.00350568

>  <SCORE.RESTR.CAVITY>
0.00350568

>  <SCORE.RESTR.norm>
0.000103108

>  <SCORE.SYSTEM>
0

>  <SCORE.SYSTEM.CONST>
0

>  <SCORE.SYSTEM.DIHEDRAL>
0

>  <SCORE.SYSTEM.SOLV>
0

>  <SCORE.SYSTEM.norm>
0

>  <SCORE.heavy>
34

>  <SCORE.norm>
-0.379225

>  <RMSD>
4.846

$$$$
ligand
 OpenBabel11021811483D
libRbt.so/2013.1/901 2013/11/27
 34 36  0  0  0  0  0  0  0  0999 V2000
    9.8236    1.8367    8.7998 C   0  0  2  0  0  0  0  0  0  0  0  0
    8.7809    2.1125    7.8516 O   0  0  0  0  0  0  0  0  0  0  0  0
    8.2988    5.3250    5.0751 C   0  0  2  0  0  0  0  0  0  0  0  0
    8.1217    6.6620    4.5190 N   0  0  0  0  0  0  0  0  0  0  0  0
   11.0750    6.7792    4.4584 C   0  0  2  0  0  0  0  0  0  0  0  0
    9.7480    0.3133    9.1742 C   0  0  2  0  0  0  0  0  0  0  0  0
    9.9468   -0.5352    7.9890 N   0  0  0  0  0  0  0  0  0  0  0  0
    7.1427    5.0892    6.1035 C   0  0  0  0  0  0  0  0  0  0  0  0
   12.1854    6.6780    3.3521 C   0  0  2  0  0  0  0  0  0  0  0  0
   11.6900    5.9553    2.2371 O   0  0  0  0  0  0  0  0  0  0  0  0
    8.3746    0.0116    9.8123 C   0  0  1  0  0  0  0  0  0  0  0  0
    8.3014   -1.3796   10.1647 O   0  0  0  0  0  0  0  0  0  0  0  0
    7.3185    3.6453    6.6840 C   0  0  2  0  0  0  0  0  0  0  0  0
    6.2554    3.3643    7.6701 N   0  0  0  0  0  0  0  0  0  0  0  0
   13.4514    5.9679    3.9707 C   0  0  1  0  0  0  0  0  0  0  0  0
   14.5342    5.8327    2.9506 N   0  0  0  0  0  0  0  0  0  0  0  0
    8.1881    0.9224   11.0489 C   0  0  2  0  0  0  0  0  0  0  0  0
    6.9073    0.6600   11.6482 O   0  0  0  0  0  0  0  0  0  0  0  0
    8.6976    3.4888    7.3742 C   0  0  2  0  0  0  0  0  0  0  0  0
   13.9572    6.8050    5.1950 C   0  0  1  0  0  0  0  0  0  0  0  0
   14.3401    8.1066    4.7587 O   0  0  0  0  0  0  0  0  0  0  0  0
    8.2939    2.4335   10.6131 C   0  0  2  0  0  0  0  0  0  0  0  0
    9.6044    2.6839    9.9821 O   0  0  0  0  0  0  0  0  0  0  0  0
    9.8211    3.7902    6.3510 C   0  0  2  0  0  0  0  0  0  0  0  0
   11.0759    3.6585    7.0110 O   0  0  0  0  0  0  0  0  0  0  0  0
   12.7955    6.9261    6.2310 C   0  0  0  0  0  0  0  0  0  0  0  0
   11.5952    7.5333    5.6073 O   0  0  0  0  0  0  0  0  0  0  0  0
    8.1398    3.3965   11.8193 C   0  0  2  0  0  0  0  0  0  0  0  0
    8.2208    4.7444   11.3634 O   0  0  0  0  0  0  0  0  0  0  0  0
    9.7047    5.2298    5.7983 C   0  0  1  0  0  0  0  0  0  0  0  0
   10.7866    5.4090    4.8540 O   0  0  0  0  0  0  0  0  0  0  0  0
    9.2362    3.1821   12.8496 C   0  0  0  0  0  0  0  0  0  0  0  0
   15.1689    6.1669    5.8631 C   0  0  0  0  0  0  0  0  0  0  0  0
   14.3291    4.5652    2.2236 C   0  0  0  0  0  0  0  0  0  0  0  0
  1  2  1  6  0  0  0
  1  6  1  0  0  0  0
  1 23  1  0  0  0  0
  3  4  1  1  0  0  0
  3  8  1  0  0  0  0
  3 30  1  0  0  0  0
  5  9  1  0  0  0  0
  5 27  1  0  0  0  0
  5 31  1  1  0  0  0
  6  7  1  6  0  0  0
  6 11  1  0  0  0  0
  8 13  1  0  0  0  0
  9 10  1  6  0  0  0
  9 15  1  0  0  0  0
 11 12  1  1  0  0  0
 11 17  1  0  0  0  0
 13 14  1  1  0  0  0
 13 19  1  0  0  0  0
 15 16  1  6  0  0  0
 15 20  1  0  0  0  0
 16 34  1  0  0  0  0
 17 18  1  6  0  0  0
 17 22  1  0  0  0  0
 19  2  1  6  0  0  0
 19 24  1  0  0  0  0
 20 21  1  6  0  0  0
 20 26  1  0  0  0  0
 20 33  1  0  0  0  0
 22 23  1  1  0  0  0
 22 28  1  0  0  0  0
 24 25  1  1  0  0  0
 24 30  1  0  0  0  0
 26 27  1  0  0  0  0
 28 29  1  6  0  0  0
 28 32  1  0  0  0  0
 30 31  1  6  0  0  0
M  END
>  <CHROM.1>
-179.57922714,-165.28894777,-88.11070649,-179.01113467,78.76730470,-175.16952481
10.19290583,4.04256914,7.11551460,-2.09910738,0.10508489,-0.84516616

>  <Name>
ligand

>  <RI>
0

>  <Rbt.Current_Directory>
/home/itssahil/PROJECTS/Mol_Feturizer/New_Systems/rnas/3TD1

>  <Rbt.Executable>
rbdock ($Id: //depot/dev/client3/rdock/2013.1/src/exe/rbdock.cxx#4 $)

>  <Rbt.Library>
libRbt.so (2013.1, Build901 2013/11/27)

>  <Rbt.Parameter_File>
/export/apps/rDock/src/rDock_2013.1_src/data/scripts/dock_solv.prm

>  <Rbt.Receptor>
prm/pocket_docking_6.prm

>  <SCORE>
-13.5163

>  <SCORE.INTER>
-5.30332

>  <SCORE.INTER.CONST>
1

>  <SCORE.INTER.POLAR>
0

>  <SCORE.INTER.ROT>
6

>  <SCORE.INTER.SOLV>
12.2454

>  <SCORE.INTER.VDW>
-15.2173

>  <SCORE.INTER.norm>
-0.15598

>  <SCORE.INTRA>
-8.21955

>  <SCORE.INTRA.DIHEDRAL>
-16.2585

>  <SCORE.INTRA.DIHEDRAL.0>
19.5869

>  <SCORE.INTRA.POLAR>
0

>  <SCORE.INTRA.POLAR.0>
0

>  <SCORE.INTRA.REPUL>
0

>  <SCORE.INTRA.REPUL.0>
0

>  <SCORE.INTRA.SOLV>
-2.11548

>  <SCORE.INTRA.SOLV.lig_0>
-70.101

>  <SCORE.INTRA.VDW>
0.967424

>  <SCORE.INTRA.VDW.0>
-3.39718

>  <SCORE.INTRA.norm>
-0.241752

>  <SCORE.RESTR>
0.00656628

>  <SCORE.RESTR.CAVITY>
0.00656628

>  <SCORE.RESTR.norm>
0.000193126

>  <SCORE.SYSTEM>
0

>  <SCORE.SYSTEM.CONST>
0

>  <SCORE.SYSTEM.DIHEDRAL>
0

>  <SCORE.SYSTEM.SOLV>
0

>  <SCORE.SYSTEM.norm>
0

>  <SCORE.heavy>
34

>  <SCORE.norm>
-0.397539

>  <RMSD>
4.873

$$$$
ligand
 OpenBabel11021811483D
libRbt.so/2013.1/901 2013/11/27
 34 36  0  0  0  0  0  0  0  0999 V2000
    6.8162    3.4800    7.3615 C   0  0  2  0  0  0  0  0  0  0  0  0
    7.4041    4.7101    7.8131 O   0  0  0  0  0  0  0  0  0  0  0  0
    7.7148    6.3751    3.8897 C   0  0  2  0  0  0  0  0  0  0  0  0
    7.8775    7.3274    2.7967 N   0  0  0  0  0  0  0  0  0  0  0  0
   10.7318    6.6875    2.9523 C   0  0  2  0  0  0  0  0  0  0  0  0
    6.0521    2.8347    8.5724 C   0  0  2  0  0  0  0  0  0  0  0  0
    4.9839    3.7214    9.0595 N   0  0  0  0  0  0  0  0  0  0  0  0
    6.5553    6.9012    4.7999 C   0  0  0  0  0  0  0  0  0  0  0  0
   11.8445    5.8736    2.1995 C   0  0  2  0  0  0  0  0  0  0  0  0
   11.2573    4.7902    1.4978 O   0  0  0  0  0  0  0  0  0  0  0  0
    7.0531    2.5429    9.7113 C   0  0  1  0  0  0  0  0  0  0  0  0
    6.3617    1.9448   10.8200 O   0  0  0  0  0  0  0  0  0  0  0  0
    6.3644    5.8674    5.9608 C   0  0  2  0  0  0  0  0  0  0  0  0
    5.2824    6.3136    6.8618 N   0  0  0  0  0  0  0  0  0  0  0  0
   12.8971    5.3601    3.2567 C   0  0  1  0  0  0  0  0  0  0  0  0
   13.9715    4.5641    2.5909 N   0  0  0  0  0  0  0  0  0  0  0  0
    8.1686    1.6175    9.1702 C   0  0  2  0  0  0  0  0  0  0  0  0
    9.1154    1.3453   10.2180 O   0  0  0  0  0  0  0  0  0  0  0  0
    7.6689    5.7090    6.7828 C   0  0  2  0  0  0  0  0  0  0  0  0
   13.5141    6.5933    4.0011 C   0  0  1  0  0  0  0  0  0  0  0  0
   14.1888    7.4288    3.0642 O   0  0  0  0  0  0  0  0  0  0  0  0
    8.8830    2.3099    7.9476 C   0  0  2  0  0  0  0  0  0  0  0  0
    7.8970    2.6014    6.8887 O   0  0  0  0  0  0  0  0  0  0  0  0
    8.8139    5.2496    5.8458 C   0  0  2  0  0  0  0  0  0  0  0  0
   10.0041    5.1289    6.6180 O   0  0  0  0  0  0  0  0  0  0  0  0
   12.3590    7.3981    4.6759 C   0  0  0  0  0  0  0  0  0  0  0  0
   11.3483    7.8102    3.6722 O   0  0  0  0  0  0  0  0  0  0  0  0
    9.9976    1.4151    7.3451 C   0  0  2  0  0  0  0  0  0  0  0  0
   10.6343    2.1071    6.2741 O   0  0  0  0  0  0  0  0  0  0  0  0
    9.0616    6.2779    4.7176 C   0  0  1  0  0  0  0  0  0  0  0  0
   10.1363    5.7576    3.8999 O   0  0  0  0  0  0  0  0  0  0  0  0
    9.4348    0.1146    6.7957 C   0  0  0  0  0  0  0  0  0  0  0  0
   14.5271    6.1747    5.0596 C   0  0  0  0  0  0  0  0  0  0  0  0
   13.6492    3.1325    2.7446 C   0  0  0  0  0  0  0  0  0  0  0  0
  1  2  1  1  0  0  0
  1  6  1  0  0  0  0
  1 23  1  0  0  0  0
  3  4  1  6  0  0  0
  3  8  1  0  0  0  0
  3 30  1  0  0  0  0
  5  9  1  0  0  0  0
  5 27  1  0  0  0  0
  5 31  1  1  0  0  0
  6  7  1  1  0  0  0
  6 11  1  0  0  0  0
  8 13  1  0  0  0  0
  9 10  1  1  0  0  0
  9 15  1  0  0  0  0
 11 12  1  1  0  0  0
 11 17  1  0  0  0  0
 13 14  1  1  0  0  0
 13 19  1  0  0  0  0
 15 16  1  6  0  0  0
 15 20  1  0  0  0  0
 16 34  1  0  0  0  0
 17 18  1  1  0  0  0
 17 22  1  0  0  0  0
 19  2  1  1  0  0  0
 19 24  1  0  0  0  0
 20 21  1  6  0  0  0
 20 26  1  0  0  0  0
 20 33  1  0  0  0  0
 22 23  1  6  0  0  0
 22 28  1  0  0  0  0
 24 25  1  1  0  0  0
 24 30  1  0  0  0  0
 26 27  1  0  0  0  0
 28 29  1  6  0  0  0
 28 32  1  0  0  0  0
 30 31  1  6  0  0  0
M  END
>  <CHROM.1>
-155.61274072,50.07721843,-98.33437340,-178.19065062,76.88394347,-179.52829644
9.52648231,4.60947440,5.76488249,2.33249243,-0.38179650,2.45616628

>  <Name>
ligand

>  <RI>
0

>  <Rbt.Current_Directory>
/home/itssahil/PROJECTS/Mol_Feturizer/New_Systems/rnas/3TD1

>  <Rbt.Executable>
rbdock ($Id: //depot/dev/client3/rdock/2013.1/src/exe/rbdock.cxx#4 $)

>  <Rbt.Library>
libRbt.so (2013.1, Build901 2013/11/27)

>  <Rbt.Parameter_File>
/export/apps/rDock/src/rDock_2013.1_src/data/scripts/dock_solv.prm

>  <Rbt.Receptor>
prm/pocket_docking_7.prm

>  <SCORE>
-12.9615

>  <SCORE.INTER>
-6.98868

>  <SCORE.INTER.CONST>
1

>  <SCORE.INTER.POLAR>
0

>  <SCORE.INTER.ROT>
6

>  <SCORE.INTER.SOLV>
11.5196

>  <SCORE.INTER.VDW>
-16.099

>  <SCORE.INTER.norm>
-0.205549

>  <SCORE.INTRA>
-5.97284

>  <SCORE.INTRA.DIHEDRAL>
-14.3152

>  <SCORE.INTRA.DIHEDRAL.0>
19.5869

>  <SCORE.INTRA.POLAR>
0

>  <SCORE.INTRA.POLAR.0>
0

>  <SCORE.INTRA.REPUL>
0.0129263

>  <SCORE.INTRA.REPUL.0>
0

>  <SCORE.INTRA.SOLV>
0.294028

>  <SCORE.INTRA.SOLV.lig_0>
-70.101

>  <SCORE.INTRA.VDW>
0.973111

>  <SCORE.INTRA.VDW.0>
-3.39718

>  <SCORE.INTRA.norm>
-0.175672

>  <SCORE.RESTR>
0

>  <SCORE.RESTR.CAVITY>
0

>  <SCORE.RESTR.norm>
0

>  <SCORE.SYSTEM>
0

>  <SCORE.SYSTEM.CONST>
0

>  <SCORE.SYSTEM.DIHEDRAL>
0

>  <SCORE.SYSTEM.SOLV>
0

>  <SCORE.SYSTEM.norm>
0

>  <SCORE.heavy>
34

>  <SCORE.norm>
-0.381221

>  <RMSD>
4.891

$$$$
ligand
 OpenBabel11021811483D
libRbt.so/2013.1/901 2013/11/27
 34 36  0  0  0  0  0  0  0  0999 V2000
    9.7165    2.1370    8.6824 C   0  0  2  0  0  0  0  0  0  0  0  0
    8.5101    2.5926    8.0503 O   0  0  0  0  0  0  0  0  0  0  0  0
    8.0171    5.8354    5.3112 C   0  0  2  0  0  0  0  0  0  0  0  0
    7.9214    7.1831    4.7610 N   0  0  0  0  0  0  0  0  0  0  0  0
   10.7719    6.9427    4.2283 C   0  0  2  0  0  0  0  0  0  0  0  0
    9.5208    0.6275    9.0695 C   0  0  2  0  0  0  0  0  0  0  0  0
    9.2676   -0.1976    7.8781 N   0  0  0  0  0  0  0  0  0  0  0  0
    7.0015    5.7416    6.4984 C   0  0  0  0  0  0  0  0  0  0  0  0
   11.8455    6.7102    3.1056 C   0  0  2  0  0  0  0  0  0  0  0  0
   11.2898    5.9267    2.0624 O   0  0  0  0  0  0  0  0  0  0  0  0
    8.3398    0.5021   10.0563 C   0  0  1  0  0  0  0  0  0  0  0  0
    8.1600   -0.8761   10.4210 O   0  0  0  0  0  0  0  0  0  0  0  0
    7.0867    4.2879    7.0748 C   0  0  2  0  0  0  0  0  0  0  0  0
    6.1510    4.1380    8.2078 N   0  0  0  0  0  0  0  0  0  0  0  0
   13.0985    5.9958    3.7450 C   0  0  1  0  0  0  0  0  0  0  0  0
   14.1456    5.7373    2.7115 N   0  0  0  0  0  0  0  0  0  0  0  0
    8.6276    1.3853   11.2936 C   0  0  2  0  0  0  0  0  0  0  0  0
    7.5301    1.2870   12.2179 O   0  0  0  0  0  0  0  0  0  0  0  0
    8.5225    3.9683    7.5638 C   0  0  2  0  0  0  0  0  0  0  0  0
   13.6725    6.9012    4.8880 C   0  0  1  0  0  0  0  0  0  0  0  0
   14.0955    8.1483    4.3432 O   0  0  0  0  0  0  0  0  0  0  0  0
    8.8337    2.8805   10.8392 C   0  0  2  0  0  0  0  0  0  0  0  0
    9.9492    2.9638    9.8765 O   0  0  0  0  0  0  0  0  0  0  0  0
    9.5147    4.1311    6.3852 C   0  0  2  0  0  0  0  0  0  0  0  0
   10.8269    3.8508    6.8616 O   0  0  0  0  0  0  0  0  0  0  0  0
   12.5465    7.1502    5.9404 C   0  0  0  0  0  0  0  0  0  0  0  0
   11.3547    7.7590    5.3021 O   0  0  0  0  0  0  0  0  0  0  0  0
    9.1519    3.8117   12.0382 C   0  0  2  0  0  0  0  0  0  0  0  0
    8.0929    3.7390   12.9893 O   0  0  0  0  0  0  0  0  0  0  0  0
    9.4912    5.5734    5.8279 C   0  0  1  0  0  0  0  0  0  0  0  0
   10.4393    5.6200    4.7355 O   0  0  0  0  0  0  0  0  0  0  0  0
    9.2913    5.2601   11.5998 C   0  0  0  0  0  0  0  0  0  0  0  0
   14.8757    6.2645    5.5727 C   0  0  0  0  0  0  0  0  0  0  0  0
   14.0153    4.3383    2.2610 C   0  0  0  0  0  0  0  0  0  0  0  0
  1  2  1  1  0  0  0
  1  6  1  0  0  0  0
  1 23  1  0  0  0  0
  3  4  1  1  0  0  0
  3  8  1  0  0  0  0
  3 30  1  0  0  0  0
  5  9  1  0  0  0  0
  5 27  1  0  0  0  0
  5 31  1  1  0  0  0
  6  7  1  6  0  0  0
  6 11  1  0  0  0  0
  8 13  1  0  0  0  0
  9 10  1  6  0  0  0
  9 15  1  0  0  0  0
 11 12  1  1  0  0  0
 11 17  1  0  0  0  0
 13 14  1  1  0  0  0
 13 19  1  0  0  0  0
 15 16  1  6  0  0  0
 15 20  1  0  0  0  0
 16 34  1  0  0  0  0
 17 18  1  1  0  0  0
 17 22  1  0  0  0  0
 19  2  1  6  0  0  0
 19 24  1  0  0  0  0
 20 21  1  6  0  0  0
 20 26  1  0  0  0  0
 20 33  1  0  0  0  0
 22 23  1  6  0  0  0
 22 28  1  0  0  0  0
 24 25  1  1  0  0  0
 24 30  1  0  0  0  0
 26 27  1  0  0  0  0
 28 29  1  1  0  0  0
 28 32  1  0  0  0  0
 30 31  1  6  0  0  0
M  END
>  <CHROM.1>
-177.42526460,-173.70712101,-98.04501360,-58.10753661,75.49970798,177.83535104
10.06701881,4.35992983,7.14630266,-2.08690316,0.38309221,-0.77235587

>  <Name>
ligand

>  <RI>
0

>  <Rbt.Current_Directory>
/home/itssahil/PROJECTS/Mol_Feturizer/New_Systems/rnas/3TD1

>  <Rbt.Executable>
rbdock ($Id: //depot/dev/client3/rdock/2013.1/src/exe/rbdock.cxx#4 $)

>  <Rbt.Library>
libRbt.so (2013.1, Build901 2013/11/27)

>  <Rbt.Parameter_File>
/export/apps/rDock/src/rDock_2013.1_src/data/scripts/dock_solv.prm

>  <Rbt.Receptor>
prm/pocket_docking_6.prm

>  <SCORE>
-12.1299

>  <SCORE.INTER>
-3.05415

>  <SCORE.INTER.CONST>
1

>  <SCORE.INTER.POLAR>
0

>  <SCORE.INTER.ROT>
6

>  <SCORE.INTER.SOLV>
10.9593

>  <SCORE.INTER.VDW>
-13.2892

>  <SCORE.INTER.norm>
-0.089828

>  <SCORE.INTRA>
-9.07755

>  <SCORE.INTRA.DIHEDRAL>
-17.2985

>  <SCORE.INTRA.DIHEDRAL.0>
19.5869

>  <SCORE.INTRA.POLAR>
0

>  <SCORE.INTRA.POLAR.0>
0

>  <SCORE.INTRA.REPUL>
0

>  <SCORE.INTRA.REPUL.0>
0

>  <SCORE.INTRA.SOLV>
-2.15427

>  <SCORE.INTRA.SOLV.lig_0>
-70.101

>  <SCORE.INTRA.VDW>
0.648845

>  <SCORE.INTRA.VDW.0>
-3.39718

>  <SCORE.INTRA.norm>
-0.266987

>  <SCORE.RESTR>
0.00176329

>  <SCORE.RESTR.CAVITY>
0.00176329

>  <SCORE.RESTR.norm>
5.18616e-05

>  <SCORE.SYSTEM>
0

>  <SCORE.SYSTEM.CONST>
0

>  <SCORE.SYSTEM.DIHEDRAL>
0

>  <SCORE.SYSTEM.SOLV>
0

>  <SCORE.SYSTEM.norm>
0

>  <SCORE.heavy>
34

>  <SCORE.norm>
-0.356763

>  <RMSD>
4.893

$$$$
ligand
 OpenBabel11021811483D
libRbt.so/2013.1/901 2013/11/27
 34 36  0  0  0  0  0  0  0  0999 V2000
    4.2976    5.2362    9.0667 C   0  0  2  0  0  0  0  0  0  0  0  0
    4.9511    4.9144    7.8289 O   0  0  0  0  0  0  0  0  0  0  0  0
    4.7346    6.5323    3.8796 C   0  0  2  0  0  0  0  0  0  0  0  0
    4.5815    7.4686    2.7715 N   0  0  0  0  0  0  0  0  0  0  0  0
    7.1941    7.3906    2.6050 C   0  0  2  0  0  0  0  0  0  0  0  0
    4.7874    4.2138   10.1536 C   0  0  2  0  0  0  0  0  0  0  0  0
    6.2430    4.3020   10.3478 N   0  0  0  0  0  0  0  0  0  0  0  0
    3.4539    6.6497    4.7716 C   0  0  0  0  0  0  0  0  0  0  0  0
    8.0336    6.4492    1.6690 C   0  0  2  0  0  0  0  0  0  0  0  0
    7.4252    5.1701    1.6015 O   0  0  0  0  0  0  0  0  0  0  0  0
    4.4007    2.7830    9.7204 C   0  0  1  0  0  0  0  0  0  0  0  0
    4.8390    1.8428   10.7147 O   0  0  0  0  0  0  0  0  0  0  0  0
    3.6069    5.6281    5.9488 C   0  0  2  0  0  0  0  0  0  0  0  0
    2.4261    5.6962    6.8335 N   0  0  0  0  0  0  0  0  0  0  0  0
    9.5015    6.3492    2.2387 C   0  0  1  0  0  0  0  0  0  0  0  0
   10.3390    5.4494    1.3899 N   0  0  0  0  0  0  0  0  0  0  0  0
    2.8686    2.7210    9.5148 C   0  0  2  0  0  0  0  0  0  0  0  0
    2.4942    1.3957    9.1003 O   0  0  0  0  0  0  0  0  0  0  0  0
    4.8777    5.9298    6.7835 C   0  0  2  0  0  0  0  0  0  0  0  0
   10.1260    7.7855    2.2917 C   0  0  1  0  0  0  0  0  0  0  0  0
   10.1905    8.3276    0.9753 O   0  0  0  0  0  0  0  0  0  0  0  0
    2.4374    3.7805    8.4303 C   0  0  2  0  0  0  0  0  0  0  0  0
    2.8451    5.1326    8.8589 O   0  0  0  0  0  0  0  0  0  0  0  0
    6.1227    5.8700    5.8635 C   0  0  2  0  0  0  0  0  0  0  0  0
    7.2738    6.1679    6.6468 O   0  0  0  0  0  0  0  0  0  0  0  0
    9.2184    8.6917    3.1818 C   0  0  0  0  0  0  0  0  0  0  0  0
    7.8288    8.7144    2.6652 O   0  0  0  0  0  0  0  0  0  0  0  0
    0.9036    3.7822    8.1996 C   0  0  2  0  0  0  0  0  0  0  0  0
    0.2359    3.9193    9.4512 O   0  0  0  0  0  0  0  0  0  0  0  0
    6.0245    6.9059    4.7195 C   0  0  1  0  0  0  0  0  0  0  0  0
    7.2223    6.7668    3.9193 O   0  0  0  0  0  0  0  0  0  0  0  0
    0.4336    2.4884    7.5554 C   0  0  0  0  0  0  0  0  0  0  0  0
   11.5413    7.7737    2.8561 C   0  0  0  0  0  0  0  0  0  0  0  0
   11.3329    4.7885    2.2572 C   0  0  0  0  0  0  0  0  0  0  0  0
  1  2  1  6  0  0  0
  1  6  1  0  0  0  0
  1 23  1  0  0  0  0
  3  4  1  6  0  0  0
  3  8  1  0  0  0  0
  3 30  1  0  0  0  0
  5  9  1  0  0  0  0
  5 27  1  0  0  0  0
  5 31  1  1  0  0  0
  6  7  1  6  0  0  0
  6 11  1  0  0  0  0
  8 13  1  0  0  0  0
  9 10  1  1  0  0  0
  9 15  1  0  0  0  0
 11 12  1  1  0  0  0
 11 17  1  0  0  0  0
 13 14  1  1  0  0  0
 13 19  1  0  0  0  0
 15 16  1  6  0  0  0
 15 20  1  0  0  0  0
 16 34  1  0  0  0  0
 17 18  1  6  0  0  0
 17 22  1  0  0  0  0
 19  2  1  1  0  0  0
 19 24  1  0  0  0  0
 20 21  1  6  0  0  0
 20 26  1  0  0  0  0
 20 33  1  0  0  0  0
 22 23  1  1  0  0  0
 22 28  1  0  0  0  0
 24 25  1  1  0  0  0
 24 30  1  0  0  0  0
 26 27  1  0  0  0  0
 28 29  1  1  0  0  0
 28 32  1  0  0  0  0
 30 31  1  6  0  0  0
M  END
>  <CHROM.1>
-165.91682874,-90.44699524,-148.39446114,52.23250286,48.76491696,-145.28223219
5.73720878,5.48424735,5.73506927,-2.27696604,0.06418299,-1.02991844

>  <Name>
ligand

>  <RI>
0

>  <Rbt.Current_Directory>
/home/itssahil/PROJECTS/Mol_Feturizer/New_Systems/rnas/3TD1

>  <Rbt.Executable>
rbdock ($Id: //depot/dev/client3/rdock/2013.1/src/exe/rbdock.cxx#4 $)

>  <Rbt.Library>
libRbt.so (2013.1, Build901 2013/11/27)

>  <Rbt.Parameter_File>
/export/apps/rDock/src/rDock_2013.1_src/data/scripts/dock_solv.prm

>  <Rbt.Receptor>
prm/blind_docking_100.prm

>  <SCORE>
87.5005

>  <SCORE.INTER>
63.5005

>  <SCORE.INTER.CONST>
1

>  <SCORE.INTER.POLAR>
0

>  <SCORE.INTER.ROT>
6

>  <SCORE.INTER.SOLV>
30.9156

>  <SCORE.INTER.VDW>
24.4284

>  <SCORE.INTER.norm>
1.86766

>  <SCORE.INTRA>
9.85163

>  <SCORE.INTRA.DIHEDRAL>
-8.97186

>  <SCORE.INTRA.DIHEDRAL.0>
19.5869

>  <SCORE.INTRA.POLAR>
0

>  <SCORE.INTRA.POLAR.0>
0

>  <SCORE.INTRA.REPUL>
0

>  <SCORE.INTRA.REPUL.0>
0

>  <SCORE.INTRA.SOLV>
3.42977

>  <SCORE.INTRA.SOLV.lig_0>
-70.101

>  <SCORE.INTRA.VDW>
12.6227

>  <SCORE.INTRA.VDW.0>
-3.39718

>  <SCORE.INTRA.norm>
0.289754

>  <SCORE.RESTR>
14.1484

>  <SCORE.RESTR.CAVITY>
14.1484

>  <SCORE.RESTR.norm>
0.416129

>  <SCORE.SYSTEM>
0

>  <SCORE.SYSTEM.CONST>
0

>  <SCORE.SYSTEM.DIHEDRAL>
0

>  <SCORE.SYSTEM.SOLV>
0

>  <SCORE.SYSTEM.norm>
0

>  <SCORE.heavy>
34

>  <SCORE.norm>
2.57354

>  <RMSD>
4.900

$$$$
ligand
 OpenBabel11021811483D
libRbt.so/2013.1/901 2013/11/27
 34 36  0  0  0  0  0  0  0  0999 V2000
    3.4877    6.2401    8.4340 C   0  0  2  0  0  0  0  0  0  0  0  0
    3.5644    5.5804    7.1606 O   0  0  0  0  0  0  0  0  0  0  0  0
    5.5116    6.3390    3.4330 C   0  0  2  0  0  0  0  0  0  0  0  0
    6.0490    7.0273    2.2645 N   0  0  0  0  0  0  0  0  0  0  0  0
    8.6325    7.5348    4.8689 C   0  0  2  0  0  0  0  0  0  0  0  0
    3.1652    5.1556    9.5232 C   0  0  2  0  0  0  0  0  0  0  0  0
    4.2197    4.1315    9.5813 N   0  0  0  0  0  0  0  0  0  0  0  0
    3.9930    6.7044    3.5339 C   0  0  0  0  0  0  0  0  0  0  0  0
    8.5052    8.4503    3.5990 C   0  0  2  0  0  0  0  0  0  0  0  0
    7.1935    8.9828    3.5185 O   0  0  0  0  0  0  0  0  0  0  0  0
    1.8077    4.4946    9.1997 C   0  0  1  0  0  0  0  0  0  0  0  0
    1.5024    3.5063   10.1972 O   0  0  0  0  0  0  0  0  0  0  0  0
    3.4098    5.9474    4.7747 C   0  0  2  0  0  0  0  0  0  0  0  0
    1.9739    6.2583    4.9271 N   0  0  0  0  0  0  0  0  0  0  0  0
    8.8475    7.5912    2.3206 C   0  0  1  0  0  0  0  0  0  0  0  0
    8.7252    8.4149    1.0805 N   0  0  0  0  0  0  0  0  0  0  0  0
    0.7204    5.5933    9.1359 C   0  0  2  0  0  0  0  0  0  0  0  0
   -0.5491    4.9933    8.8244 O   0  0  0  0  0  0  0  0  0  0  0  0
    4.1523    6.3552    6.0728 C   0  0  2  0  0  0  0  0  0  0  0  0
   10.3034    7.0286    2.4601 C   0  0  1  0  0  0  0  0  0  0  0  0
   11.2285    8.1100    2.5359 O   0  0  0  0  0  0  0  0  0  0  0  0
    1.1098    6.6593    8.0419 C   0  0  2  0  0  0  0  0  0  0  0  0
    2.4226    7.2521    8.3629 O   0  0  0  0  0  0  0  0  0  0  0  0
    5.6619    6.0419    5.9210 C   0  0  2  0  0  0  0  0  0  0  0  0
    6.3250    6.4411    7.1161 O   0  0  0  0  0  0  0  0  0  0  0  0
   10.3877    6.1812    3.7686 C   0  0  0  0  0  0  0  0  0  0  0  0
    9.9955    6.9915    4.9467 O   0  0  0  0  0  0  0  0  0  0  0  0
    0.0659    7.8029    7.9500 C   0  0  2  0  0  0  0  0  0  0  0  0
   -0.2894    8.2275    9.2632 O   0  0  0  0  0  0  0  0  0  0  0  0
    6.2787    6.8172    4.7336 C   0  0  1  0  0  0  0  0  0  0  0  0
    7.6782    6.4540    4.6729 O   0  0  0  0  0  0  0  0  0  0  0  0
   -1.2009    7.3484    7.2441 C   0  0  0  0  0  0  0  0  0  0  0  0
   10.6996    6.1646    1.2691 C   0  0  0  0  0  0  0  0  0  0  0  0
    8.0068    7.6199    0.0661 C   0  0  0  0  0  0  0  0  0  0  0  0
  1  2  1  6  0  0  0
  1  6  1  0  0  0  0
  1 23  1  0  0  0  0
  3  4  1  6  0  0  0
  3  8  1  0  0  0  0
  3 30  1  0  0  0  0
  5  9  1  0  0  0  0
  5 27  1  0  0  0  0
  5 31  1  6  0  0  0
  6  7  1  6  0  0  0
  6 11  1  0  0  0  0
  8 13  1  0  0  0  0
  9 10  1  6  0  0  0
  9 15  1  0  0  0  0
 11 12  1  1  0  0  0
 11 17  1  0  0  0  0
 13 14  1  1  0  0  0
 13 19  1  0  0  0  0
 15 16  1  6  0  0  0
 15 20  1  0  0  0  0
 16 34  1  0  0  0  0
 17 18  1  6  0  0  0
 17 22  1  0  0  0  0
 19  2  1  1  0  0  0
 19 24  1  0  0  0  0
 20 21  1  1  0  0  0
 20 26  1  0  0  0  0
 20 33  1  0  0  0  0
 22 23  1  1  0  0  0
 22 28  1  0  0  0  0
 24 25  1  1  0  0  0
 24 30  1  0  0  0  0
 26 27  1  0  0  0  0
 28 29  1  1  0  0  0
 28 32  1  0  0  0  0
 30 31  1  6  0  0  0
M  END
>  <CHROM.1>
-166.45796767,-145.66985617,-135.52945836,44.49841673,126.16032153,-68.92029179
5.10132976,6.60727792,5.63103028,-2.50941790,0.16535301,-1.11646468

>  <Name>
ligand

>  <RI>
0

>  <Rbt.Current_Directory>
/home/itssahil/PROJECTS/Mol_Feturizer/New_Systems/rnas/3TD1

>  <Rbt.Executable>
rbdock ($Id: //depot/dev/client3/rdock/2013.1/src/exe/rbdock.cxx#4 $)

>  <Rbt.Library>
libRbt.so (2013.1, Build901 2013/11/27)

>  <Rbt.Parameter_File>
/export/apps/rDock/src/rDock_2013.1_src/data/scripts/dock_solv.prm

>  <Rbt.Receptor>
prm/blind_docking_100.prm

>  <SCORE>
54.4322

>  <SCORE.INTER>
38.7692

>  <SCORE.INTER.CONST>
1

>  <SCORE.INTER.POLAR>
0

>  <SCORE.INTER.ROT>
6

>  <SCORE.INTER.SOLV>
26.8507

>  <SCORE.INTER.VDW>
9.29586

>  <SCORE.INTER.norm>
1.14027

>  <SCORE.INTRA>
0.971575

>  <SCORE.INTRA.DIHEDRAL>
-5.10684

>  <SCORE.INTRA.DIHEDRAL.0>
19.5869

>  <SCORE.INTRA.POLAR>
0

>  <SCORE.INTRA.POLAR.0>
0

>  <SCORE.INTRA.REPUL>
0

>  <SCORE.INTRA.REPUL.0>
0

>  <SCORE.INTRA.SOLV>
4.27505

>  <SCORE.INTRA.SOLV.lig_0>
-70.101

>  <SCORE.INTRA.VDW>
1.38747

>  <SCORE.INTRA.VDW.0>
-3.39718

>  <SCORE.INTRA.norm>
0.0285757

>  <SCORE.RESTR>
14.6914

>  <SCORE.RESTR.CAVITY>
14.6914

>  <SCORE.RESTR.norm>
0.432101

>  <SCORE.SYSTEM>
0

>  <SCORE.SYSTEM.CONST>
0

>  <SCORE.SYSTEM.DIHEDRAL>
0

>  <SCORE.SYSTEM.SOLV>
0

>  <SCORE.SYSTEM.norm>
0

>  <SCORE.heavy>
34

>  <SCORE.norm>
1.60095

>  <RMSD>
4.912

$$$$
ligand
 OpenBabel11021811483D
libRbt.so/2013.1/901 2013/11/27
 34 36  0  0  0  0  0  0  0  0999 V2000
    3.5250    5.0886    9.3474 C   0  0  2  0  0  0  0  0  0  0  0  0
    3.6388    4.6705    7.9782 O   0  0  0  0  0  0  0  0  0  0  0  0
    4.4592    6.4656    4.1879 C   0  0  2  0  0  0  0  0  0  0  0  0
    4.6091    7.4538    3.1253 N   0  0  0  0  0  0  0  0  0  0  0  0
    7.7350    7.7659    5.0656 C   0  0  2  0  0  0  0  0  0  0  0  0
    2.9571    3.8822   10.1771 C   0  0  2  0  0  0  0  0  0  0  0  0
    3.8567    2.7202   10.1083 N   0  0  0  0  0  0  0  0  0  0  0  0
    2.9969    6.5834    4.7333 C   0  0  0  0  0  0  0  0  0  0  0  0
    7.6993    8.5710    3.7174 C   0  0  2  0  0  0  0  0  0  0  0  0
    6.3794    9.0208    3.4598 O   0  0  0  0  0  0  0  0  0  0  0  0
    1.5628    3.5002    9.6345 C   0  0  1  0  0  0  0  0  0  0  0  0
    1.0336    2.4016   10.3946 O   0  0  0  0  0  0  0  0  0  0  0  0
    2.8277    5.5071    5.8583 C   0  0  2  0  0  0  0  0  0  0  0  0
    1.4630    5.5729    6.4195 N   0  0  0  0  0  0  0  0  0  0  0  0
    8.2159    7.6355    2.5566 C   0  0  1  0  0  0  0  0  0  0  0  0
    8.1865    8.3519    1.2462 N   0  0  0  0  0  0  0  0  0  0  0  0
    0.6412    4.7406    9.7100 C   0  0  2  0  0  0  0  0  0  0  0  0
   -0.6595    4.4027    9.1975 O   0  0  0  0  0  0  0  0  0  0  0  0
    3.8515    5.7324    7.0002 C   0  0  2  0  0  0  0  0  0  0  0  0
    9.6741    7.1685    2.8900 C   0  0  1  0  0  0  0  0  0  0  0  0
   10.5331    8.3029    2.9691 O   0  0  0  0  0  0  0  0  0  0  0  0
    1.2730    5.9200    8.8767 C   0  0  2  0  0  0  0  0  0  0  0  0
    2.6146    6.2427    9.4004 O   0  0  0  0  0  0  0  0  0  0  0  0
    5.2874    5.6745    6.4215 C   0  0  2  0  0  0  0  0  0  0  0  0
    6.2083    5.9020    7.4833 O   0  0  0  0  0  0  0  0  0  0  0  0
    9.6599    6.4318    4.2664 C   0  0  0  0  0  0  0  0  0  0  0  0
    9.1066    7.3080    5.3268 O   0  0  0  0  0  0  0  0  0  0  0  0
    0.4029    7.2027    8.9367 C   0  0  2  0  0  0  0  0  0  0  0  0
   -0.8143    6.9186    9.6214 O   0  0  0  0  0  0  0  0  0  0  0  0
    5.5015    6.7620    5.3431 C   0  0  1  0  0  0  0  0  0  0  0  0
    6.8598    6.6210    4.8643 O   0  0  0  0  0  0  0  0  0  0  0  0
    0.0534    7.7068    7.5462 C   0  0  0  0  0  0  0  0  0  0  0  0
   10.2353    6.2381    1.8217 C   0  0  0  0  0  0  0  0  0  0  0  0
    7.8932    7.3672    0.1872 C   0  0  0  0  0  0  0  0  0  0  0  0
  1  2  1  6  0  0  0
  1  6  1  0  0  0  0
  1 23  1  0  0  0  0
  3  4  1  6  0  0  0
  3  8  1  0  0  0  0
  3 30  1  0  0  0  0
  5  9  1  0  0  0  0
  5 27  1  0  0  0  0
  5 31  1  6  0  0  0
  6  7  1  6  0  0  0
  6 11  1  0  0  0  0
  8 13  1  0  0  0  0
  9 10  1  6  0  0  0
  9 15  1  0  0  0  0
 11 12  1  1  0  0  0
 11 17  1  0  0  0  0
 13 14  1  1  0  0  0
 13 19  1  0  0  0  0
 15 16  1  6  0  0  0
 15 20  1  0  0  0  0
 16 34  1  0  0  0  0
 17 18  1  6  0  0  0
 17 22  1  0  0  0  0
 19  2  1  1  0  0  0
 19 24  1  0  0  0  0
 20 21  1  1  0  0  0
 20 26  1  0  0  0  0
 20 33  1  0  0  0  0
 22 23  1  1  0  0  0
 22 28  1  0  0  0  0
 24 25  1  1  0  0  0
 24 30  1  0  0  0  0
 26 27  1  0  0  0  0
 28 29  1  1  0  0  0
 28 32  1  0  0  0  0
 30 31  1  6  0  0  0
M  END
>  <CHROM.1>
166.28826130,-131.03573134,-147.33596412,-6.11406258,125.43723819,-96.17500643
4.69015730,6.23568378,6.18275447,-2.42197421,0.22464097,-0.93781376

>  <Name>
ligand

>  <RI>
0

>  <Rbt.Current_Directory>
/home/itssahil/PROJECTS/Mol_Feturizer/New_Systems/rnas/3TD1

>  <Rbt.Executable>
rbdock ($Id: //depot/dev/client3/rdock/2013.1/src/exe/rbdock.cxx#4 $)

>  <Rbt.Library>
libRbt.so (2013.1, Build901 2013/11/27)

>  <Rbt.Parameter_File>
/export/apps/rDock/src/rDock_2013.1_src/data/scripts/dock_solv.prm

>  <Rbt.Receptor>
prm/blind_docking_100.prm

>  <SCORE>
67.4315

>  <SCORE.INTER>
43.3742

>  <SCORE.INTER.CONST>
1

>  <SCORE.INTER.POLAR>
0

>  <SCORE.INTER.ROT>
6

>  <SCORE.INTER.SOLV>
31.9542

>  <SCORE.INTER.VDW>
10.6648

>  <SCORE.INTER.norm>
1.27571

>  <SCORE.INTRA>
11.1743

>  <SCORE.INTRA.DIHEDRAL>
5.60618

>  <SCORE.INTRA.DIHEDRAL.0>
19.5869

>  <SCORE.INTRA.POLAR>
0

>  <SCORE.INTRA.POLAR.0>
0

>  <SCORE.INTRA.REPUL>
0

>  <SCORE.INTRA.REPUL.0>
0

>  <SCORE.INTRA.SOLV>
4.94748

>  <SCORE.INTRA.SOLV.lig_0>
-70.101

>  <SCORE.INTRA.VDW>
5.89744

>  <SCORE.INTRA.VDW.0>
-3.39718

>  <SCORE.INTRA.norm>
0.328655

>  <SCORE.RESTR>
12.883

>  <SCORE.RESTR.CAVITY>
12.883

>  <SCORE.RESTR.norm>
0.378911

>  <SCORE.SYSTEM>
0

>  <SCORE.SYSTEM.CONST>
0

>  <SCORE.SYSTEM.DIHEDRAL>
0

>  <SCORE.SYSTEM.SOLV>
0

>  <SCORE.SYSTEM.norm>
0

>  <SCORE.heavy>
34

>  <SCORE.norm>
1.98328

>  <RMSD>
5.103

$$$$
ligand
 OpenBabel11021811483D
libRbt.so/2013.1/901 2013/11/27
 34 36  0  0  0  0  0  0  0  0999 V2000
    4.1075    5.9487    7.9541 C   0  0  2  0  0  0  0  0  0  0  0  0
    4.5982    5.6982    6.6279 O   0  0  0  0  0  0  0  0  0  0  0  0
    8.2811    7.4592    5.3643 C   0  0  2  0  0  0  0  0  0  0  0  0
    9.7059    7.7251    5.1991 N   0  0  0  0  0  0  0  0  0  0  0  0
    7.3667    6.9873    2.5185 C   0  0  2  0  0  0  0  0  0  0  0  0
    4.2781    4.6308    8.7912 C   0  0  2  0  0  0  0  0  0  0  0  0
    5.6923    4.2342    8.8747 N   0  0  0  0  0  0  0  0  0  0  0  0
    7.9814    7.4533    6.9005 C   0  0  0  0  0  0  0  0  0  0  0  0
    7.7522    6.7203    1.0195 C   0  0  2  0  0  0  0  0  0  0  0  0
    7.4103    5.3909    0.6636 O   0  0  0  0  0  0  0  0  0  0  0  0
    3.4529    3.5006    8.1385 C   0  0  1  0  0  0  0  0  0  0  0  0
    3.5982    2.2933    8.9041 O   0  0  0  0  0  0  0  0  0  0  0  0
    6.4476    7.1910    7.0781 C   0  0  2  0  0  0  0  0  0  0  0  0
    6.1020    7.1676    8.5139 N   0  0  0  0  0  0  0  0  0  0  0  0
    9.2994    6.9741    0.8430 C   0  0  1  0  0  0  0  0  0  0  0  0
    9.7209    6.7175   -0.5670 N   0  0  0  0  0  0  0  0  0  0  0  0
    1.9739    3.9470    8.0552 C   0  0  2  0  0  0  0  0  0  0  0  0
    1.1939    2.9076    7.4390 O   0  0  0  0  0  0  0  0  0  0  0  0
    6.0386    5.8382    6.4412 C   0  0  2  0  0  0  0  0  0  0  0  0
    9.6222    8.4531    1.2479 C   0  0  1  0  0  0  0  0  0  0  0  0
    8.9191    9.3479    0.3900 O   0  0  0  0  0  0  0  0  0  0  0  0
    1.8708    5.2813    7.2223 C   0  0  2  0  0  0  0  0  0  0  0  0
    2.6911    6.3328    7.8543 O   0  0  0  0  0  0  0  0  0  0  0  0
    6.4048    5.8476    4.9360 C   0  0  2  0  0  0  0  0  0  0  0  0
    6.0375    4.5906    4.3772 O   0  0  0  0  0  0  0  0  0  0  0  0
    9.1614    8.6787    2.7224 C   0  0  0  0  0  0  0  0  0  0  0  0
    7.7200    8.3678    2.8770 O   0  0  0  0  0  0  0  0  0  0  0  0
    0.4095    5.7927    7.1260 C   0  0  2  0  0  0  0  0  0  0  0  0
    0.3867    7.0348    6.4275 O   0  0  0  0  0  0  0  0  0  0  0  0
    7.9237    6.0527    4.7298 C   0  0  1  0  0  0  0  0  0  0  0  0
    8.1604    6.0528    3.3022 O   0  0  0  0  0  0  0  0  0  0  0  0
   -0.1966    6.0158    8.5017 C   0  0  0  0  0  0  0  0  0  0  0  0
   11.1079    8.7685    1.1262 C   0  0  0  0  0  0  0  0  0  0  0  0
   10.6639    5.5827   -0.5686 C   0  0  0  0  0  0  0  0  0  0  0  0
  1  2  1  6  0  0  0
  1  6  1  0  0  0  0
  1 23  1  0  0  0  0
  3  4  1  1  0  0  0
  3  8  1  0  0  0  0
  3 30  1  0  0  0  0
  5  9  1  0  0  0  0
  5 27  1  0  0  0  0
  5 31  1  1  0  0  0
  6  7  1  6  0  0  0
  6 11  1  0  0  0  0
  8 13  1  0  0  0  0
  9 10  1  1  0  0  0
  9 15  1  0  0  0  0
 11 12  1  1  0  0  0
 11 17  1  0  0  0  0
 13 14  1  1  0  0  0
 13 19  1  0  0  0  0
 15 16  1  6  0  0  0
 15 20  1  0  0  0  0
 16 34  1  0  0  0  0
 17 18  1  6  0  0  0
 17 22  1  0  0  0  0
 19  2  1  6  0  0  0
 19 24  1  0  0  0  0
 20 21  1  6  0  0  0
 20 26  1  0  0  0  0
 20 33  1  0  0  0  0
 22 23  1  1  0  0  0
 22 28  1  0  0  0  0
 24 25  1  1  0  0  0
 24 30  1  0  0  0  0
 26 27  1  0  0  0  0
 28 29  1  6  0  0  0
 28 32  1  0  0  0  0
 30 31  1  6  0  0  0
M  END
>  <CHROM.1>
-83.69149988,-48.51191625,-116.19680534,176.84915506,-62.25085163,-176.59642283
6.02630700,6.19300729,5.00715458,-2.39811365,-0.32566806,-1.53926663

>  <Name>
ligand

>  <RI>
0

>  <Rbt.Current_Directory>
/home/itssahil/PROJECTS/Mol_Feturizer/New_Systems/rnas/3TD1

>  <Rbt.Executable>
rbdock ($Id: //depot/dev/client3/rdock/2013.1/src/exe/rbdock.cxx#4 $)

>  <Rbt.Library>
libRbt.so (2013.1, Build901 2013/11/27)

>  <Rbt.Parameter_File>
/export/apps/rDock/src/rDock_2013.1_src/data/scripts/dock_solv.prm

>  <Rbt.Receptor>
prm/blind_docking_40.prm

>  <SCORE>
38.1095

>  <SCORE.INTER>
21.5073

>  <SCORE.INTER.CONST>
1

>  <SCORE.INTER.POLAR>
0

>  <SCORE.INTER.ROT>
6

>  <SCORE.INTER.SOLV>
16.9823

>  <SCORE.INTER.VDW>
1.07742

>  <SCORE.INTER.norm>
0.632566

>  <SCORE.INTRA>
3.05086

>  <SCORE.INTRA.DIHEDRAL>
-15.1466

>  <SCORE.INTRA.DIHEDRAL.0>
19.5869

>  <SCORE.INTRA.POLAR>
0

>  <SCORE.INTRA.POLAR.0>
0

>  <SCORE.INTRA.REPUL>
0

>  <SCORE.INTRA.REPUL.0>
0

>  <SCORE.INTRA.SOLV>
4.18591

>  <SCORE.INTRA.SOLV.lig_0>
-70.101

>  <SCORE.INTRA.VDW>
8.53121

>  <SCORE.INTRA.VDW.0>
-3.39718

>  <SCORE.INTRA.norm>
0.089731

>  <SCORE.RESTR>
13.5514

>  <SCORE.RESTR.CAVITY>
13.5514

>  <SCORE.RESTR.norm>
0.39857

>  <SCORE.SYSTEM>
0

>  <SCORE.SYSTEM.CONST>
0

>  <SCORE.SYSTEM.DIHEDRAL>
0

>  <SCORE.SYSTEM.SOLV>
0

>  <SCORE.SYSTEM.norm>
0

>  <SCORE.heavy>
34

>  <SCORE.norm>
1.12087

>  <RMSD>
5.174

$$$$
ligand
 OpenBabel11021811483D
libRbt.so/2013.1/901 2013/11/27
 34 36  0  0  0  0  0  0  0  0999 V2000
    9.0799    2.7824    8.9477 C   0  0  2  0  0  0  0  0  0  0  0  0
    9.8475    3.5340    7.9946 O   0  0  0  0  0  0  0  0  0  0  0  0
   11.1253    7.5977    8.3338 C   0  0  2  0  0  0  0  0  0  0  0  0
   11.1183    9.0564    8.3507 N   0  0  0  0  0  0  0  0  0  0  0  0
   10.6659    8.8355   11.1508 C   0  0  2  0  0  0  0  0  0  0  0  0
    9.1701    1.2647    8.5540 C   0  0  2  0  0  0  0  0  0  0  0  0
   10.5622    0.7900    8.5846 N   0  0  0  0  0  0  0  0  0  0  0  0
   10.5466    7.1431    6.9524 C   0  0  0  0  0  0  0  0  0  0  0  0
   11.2999    8.9653   12.5819 C   0  0  2  0  0  0  0  0  0  0  0  0
   12.6646    8.5825   12.5408 O   0  0  0  0  0  0  0  0  0  0  0  0
    8.5785    1.0673    7.1414 C   0  0  1  0  0  0  0  0  0  0  0  0
    8.6506   -0.3210    6.7777 O   0  0  0  0  0  0  0  0  0  0  0  0
   10.5753    5.5775    6.9242 C   0  0  2  0  0  0  0  0  0  0  0  0
   10.0330    5.0853    5.6415 N   0  0  0  0  0  0  0  0  0  0  0  0
   10.4855    8.0540   13.5797 C   0  0  1  0  0  0  0  0  0  0  0  0
   11.0604    8.1303   14.9563 N   0  0  0  0  0  0  0  0  0  0  0  0
    7.1195    1.5821    7.1351 C   0  0  2  0  0  0  0  0  0  0  0  0
    6.5581    1.4145    5.8216 O   0  0  0  0  0  0  0  0  0  0  0  0
    9.7348    4.9861    8.0846 C   0  0  2  0  0  0  0  0  0  0  0  0
    8.9888    8.5183   13.5874 C   0  0  1  0  0  0  0  0  0  0  0  0
    8.9090    9.8664   14.0427 O   0  0  0  0  0  0  0  0  0  0  0  0
    7.0931    3.1008    7.5564 C   0  0  2  0  0  0  0  0  0  0  0  0
    7.6899    3.2608    8.8968 O   0  0  0  0  0  0  0  0  0  0  0  0
   10.2893    5.5030    9.4357 C   0  0  2  0  0  0  0  0  0  0  0  0
    9.4917    4.9623   10.4840 O   0  0  0  0  0  0  0  0  0  0  0  0
    8.4309    8.4285   12.1321 C   0  0  0  0  0  0  0  0  0  0  0  0
    9.2538    9.2385   11.2019 O   0  0  0  0  0  0  0  0  0  0  0  0
    5.6495    3.6669    7.5930 C   0  0  2  0  0  0  0  0  0  0  0  0
    5.6949    5.0646    7.8677 O   0  0  0  0  0  0  0  0  0  0  0  0
   10.2250    7.0461    9.5145 C   0  0  1  0  0  0  0  0  0  0  0  0
   10.7673    7.4267   10.8011 O   0  0  0  0  0  0  0  0  0  0  0  0
    4.8153    3.0019    8.6754 C   0  0  0  0  0  0  0  0  0  0  0  0
    8.1301    7.6664   14.5140 C   0  0  0  0  0  0  0  0  0  0  0  0
   11.8526    6.9086   15.1951 C   0  0  0  0  0  0  0  0  0  0  0  0
  1  2  1  6  0  0  0
  1  6  1  0  0  0  0
  1 23  1  0  0  0  0
  3  4  1  6  0  0  0
  3  8  1  0  0  0  0
  3 30  1  0  0  0  0
  5  9  1  0  0  0  0
  5 27  1  0  0  0  0
  5 31  1  1  0  0  0
  6  7  1  6  0  0  0
  6 11  1  0  0  0  0
  8 13  1  0  0  0  0
  9 10  1  6  0  0  0
  9 15  1  0  0  0  0
 11 12  1  1  0  0  0
 11 17  1  0  0  0  0
 13 14  1  6  0  0  0
 13 19  1  0  0  0  0
 15 16  1  1  0  0  0
 15 20  1  0  0  0  0
 16 34  1  0  0  0  0
 17 18  1  6  0  0  0
 17 22  1  0  0  0  0
 19  2  1  1  0  0  0
 19 24  1  0  0  0  0
 20 21  1  1  0  0  0
 20 26  1  0  0  0  0
 20 33  1  0  0  0  0
 22 23  1  1  0  0  0
 22 28  1  0  0  0  0
 24 25  1  1  0  0  0
 24 30  1  0  0  0  0
 26 27  1  0  0  0  0
 28 29  1  1  0  0  0
 28 32  1  0  0  0  0
 30 31  1  1  0  0  0
M  END
>  <CHROM.1>
171.83961237,-176.94223841,-102.50717420,-175.12828260,70.69570732,179.15500300
9.27731679,5.51894939,9.77100325,1.97198842,-0.75643622,-2.12853863

>  <Name>
ligand

>  <RI>
0

>  <Rbt.Current_Directory>
/home/itssahil/PROJECTS/Mol_Feturizer/New_Systems/rnas/3TD1

>  <Rbt.Executable>
rbdock ($Id: //depot/dev/client3/rdock/2013.1/src/exe/rbdock.cxx#4 $)

>  <Rbt.Library>
libRbt.so (2013.1, Build901 2013/11/27)

>  <Rbt.Parameter_File>
/export/apps/rDock/src/rDock_2013.1_src/data/scripts/dock_solv.prm

>  <Rbt.Receptor>
prm/pocket_docking_8.prm

>  <SCORE>
-9.23985

>  <SCORE.INTER>
-0.898296

>  <SCORE.INTER.CONST>
1

>  <SCORE.INTER.POLAR>
0

>  <SCORE.INTER.ROT>
6

>  <SCORE.INTER.SOLV>
9.35668

>  <SCORE.INTER.VDW>
-11.3178

>  <SCORE.INTER.norm>
-0.0264205

>  <SCORE.INTRA>
-8.34156

>  <SCORE.INTRA.DIHEDRAL>
-17.5411

>  <SCORE.INTRA.DIHEDRAL.0>
19.5869

>  <SCORE.INTRA.POLAR>
0

>  <SCORE.INTRA.POLAR.0>
0

>  <SCORE.INTRA.REPUL>
0

>  <SCORE.INTRA.REPUL.0>
0

>  <SCORE.INTRA.SOLV>
-2.21306

>  <SCORE.INTRA.SOLV.lig_0>
-70.101

>  <SCORE.INTRA.VDW>
1.53551

>  <SCORE.INTRA.VDW.0>
-3.39718

>  <SCORE.INTRA.norm>
-0.24534

>  <SCORE.RESTR>
0

>  <SCORE.RESTR.CAVITY>
0

>  <SCORE.RESTR.norm>
0

>  <SCORE.SYSTEM>
0

>  <SCORE.SYSTEM.CONST>
0

>  <SCORE.SYSTEM.DIHEDRAL>
0

>  <SCORE.SYSTEM.SOLV>
0

>  <SCORE.SYSTEM.norm>
0

>  <SCORE.heavy>
34

>  <SCORE.norm>
-0.27176

>  <RMSD>
5.190

$$$$
ligand
 OpenBabel11021811483D
libRbt.so/2013.1/901 2013/11/27
 34 36  0  0  0  0  0  0  0  0999 V2000
   10.0082    1.8690    8.6001 C   0  0  2  0  0  0  0  0  0  0  0  0
   10.9635    1.8601    7.5278 O   0  0  0  0  0  0  0  0  0  0  0  0
   13.8577    4.9168    6.7920 C   0  0  2  0  0  0  0  0  0  0  0  0
   14.4812    6.1558    6.3401 N   0  0  0  0  0  0  0  0  0  0  0  0
   13.9530    7.1483    8.8945 C   0  0  2  0  0  0  0  0  0  0  0  0
    9.5186    0.3939    8.8257 C   0  0  2  0  0  0  0  0  0  0  0  0
   10.6382   -0.4866    9.1940 N   0  0  0  0  0  0  0  0  0  0  0  0
   13.1949    4.2443    5.5437 C   0  0  0  0  0  0  0  0  0  0  0  0
   14.3099    7.6452   10.3412 C   0  0  2  0  0  0  0  0  0  0  0  0
   15.2594    6.7720   10.9300 O   0  0  0  0  0  0  0  0  0  0  0  0
    8.8451   -0.1237    7.5362 C   0  0  1  0  0  0  0  0  0  0  0  0
    8.3875   -1.4708    7.7382 O   0  0  0  0  0  0  0  0  0  0  0  0
   12.5452    2.9025    6.0235 C   0  0  2  0  0  0  0  0  0  0  0  0
   11.8950    2.2209    4.8859 N   0  0  0  0  0  0  0  0  0  0  0  0
   12.9854    7.7022   11.1967 C   0  0  1  0  0  0  0  0  0  0  0  0
   13.2741    8.1557   12.5904 N   0  0  0  0  0  0  0  0  0  0  0  0
    7.6791    0.8240    7.1675 C   0  0  2  0  0  0  0  0  0  0  0  0
    7.0481    0.3602    5.9611 O   0  0  0  0  0  0  0  0  0  0  0  0
   11.4861    3.1616    7.1253 C   0  0  2  0  0  0  0  0  0  0  0  0
   11.9737    8.6783   10.5044 C   0  0  1  0  0  0  0  0  0  0  0  0
   12.5324    9.9884   10.4529 O   0  0  0  0  0  0  0  0  0  0  0  0
    8.2293    2.2884    6.9742 C   0  0  2  0  0  0  0  0  0  0  0  0
    8.8912    2.7440    8.2121 O   0  0  0  0  0  0  0  0  0  0  0  0
   12.1552    3.8848    8.3209 C   0  0  2  0  0  0  0  0  0  0  0  0
   11.1612    4.1284    9.3108 O   0  0  0  0  0  0  0  0  0  0  0  0
   11.7054    8.1715    9.0523 C   0  0  0  0  0  0  0  0  0  0  0  0
   12.9728    8.0612    8.2906 O   0  0  0  0  0  0  0  0  0  0  0  0
    7.0980    3.2912    6.6270 C   0  0  2  0  0  0  0  0  0  0  0  0
    7.6570    4.5872    6.4293 O   0  0  0  0  0  0  0  0  0  0  0  0
   12.7612    5.2402    7.8882 C   0  0  1  0  0  0  0  0  0  0  0  0
   13.3629    5.8292    9.0652 O   0  0  0  0  0  0  0  0  0  0  0  0
    6.0730    3.3870    7.7450 C   0  0  0  0  0  0  0  0  0  0  0  0
   10.6551    8.7682   11.2626 C   0  0  0  0  0  0  0  0  0  0  0  0
   13.3056    6.9685   13.4659 C   0  0  0  0  0  0  0  0  0  0  0  0
  1  2  1  6  0  0  0
  1  6  1  0  0  0  0
  1 23  1  0  0  0  0
  3  4  1  6  0  0  0
  3  8  1  0  0  0  0
  3 30  1  0  0  0  0
  5  9  1  0  0  0  0
  5 27  1  0  0  0  0
  5 31  1  1  0  0  0
  6  7  1  6  0  0  0
  6 11  1  0  0  0  0
  8 13  1  0  0  0  0
  9 10  1  1  0  0  0
  9 15  1  0  0  0  0
 11 12  1  1  0  0  0
 11 17  1  0  0  0  0
 13 14  1  6  0  0  0
 13 19  1  0  0  0  0
 15 16  1  1  0  0  0
 15 20  1  0  0  0  0
 16 34  1  0  0  0  0
 17 18  1  6  0  0  0
 17 22  1  0  0  0  0
 19  2  1  1  0  0  0
 19 24  1  0  0  0  0
 20 21  1  6  0  0  0
 20 26  1  0  0  0  0
 20 33  1  0  0  0  0
 22 23  1  1  0  0  0
 22 28  1  0  0  0  0
 24 25  1  1  0  0  0
 24 30  1  0  0  0  0
 26 27  1  0  0  0  0
 28 29  1  1  0  0  0
 28 32  1  0  0  0  0
 30 31  1  1  0  0  0
M  END
>  <CHROM.1>
177.06590147,176.87265683,-100.61642657,-178.46834709,66.40174306,170.90067493
11.17846026,4.43110295,8.45236153,2.16492804,-0.34539065,-2.47340869

>  <Name>
ligand

>  <RI>
0

>  <Rbt.Current_Directory>
/home/itssahil/PROJECTS/Mol_Feturizer/New_Systems/rnas/3TD1

>  <Rbt.Executable>
rbdock ($Id: //depot/dev/client3/rdock/2013.1/src/exe/rbdock.cxx#4 $)

>  <Rbt.Library>
libRbt.so (2013.1, Build901 2013/11/27)

>  <Rbt.Parameter_File>
/export/apps/rDock/src/rDock_2013.1_src/data/scripts/dock_solv.prm

>  <Rbt.Receptor>
prm/pocket_docking_7.prm

>  <SCORE>
-12.0486

>  <SCORE.INTER>
-4.41883

>  <SCORE.INTER.CONST>
1

>  <SCORE.INTER.POLAR>
0

>  <SCORE.INTER.ROT>
6

>  <SCORE.INTER.SOLV>
11.0103

>  <SCORE.INTER.VDW>
-14.216

>  <SCORE.INTER.norm>
-0.129965

>  <SCORE.INTRA>
-7.62978

>  <SCORE.INTRA.DIHEDRAL>
-17.899

>  <SCORE.INTRA.DIHEDRAL.0>
19.5869

>  <SCORE.INTRA.POLAR>
0

>  <SCORE.INTRA.POLAR.0>
0

>  <SCORE.INTRA.REPUL>
0

>  <SCORE.INTRA.REPUL.0>
0

>  <SCORE.INTRA.SOLV>
-1.9801

>  <SCORE.INTRA.SOLV.lig_0>
-70.101

>  <SCORE.INTRA.VDW>
2.30978

>  <SCORE.INTRA.VDW.0>
-3.39718

>  <SCORE.INTRA.norm>
-0.224405

>  <SCORE.RESTR>
0

>  <SCORE.RESTR.CAVITY>
0

>  <SCORE.RESTR.norm>
0

>  <SCORE.SYSTEM>
0

>  <SCORE.SYSTEM.CONST>
0

>  <SCORE.SYSTEM.DIHEDRAL>
0

>  <SCORE.SYSTEM.SOLV>
0

>  <SCORE.SYSTEM.norm>
0

>  <SCORE.heavy>
34

>  <SCORE.norm>
-0.354371

>  <RMSD>
5.205

$$$$
ligand
 OpenBabel11021811483D
libRbt.so/2013.1/901 2013/11/27
 34 36  0  0  0  0  0  0  0  0999 V2000
    7.8587    4.2016    8.1444 C   0  0  2  0  0  0  0  0  0  0  0  0
    8.1981    5.3282    8.9678 O   0  0  0  0  0  0  0  0  0  0  0  0
   11.4494    8.0270    8.3295 C   0  0  2  0  0  0  0  0  0  0  0  0
   12.7915    8.5978    8.2974 N   0  0  0  0  0  0  0  0  0  0  0  0
   12.9541    7.6046    5.6583 C   0  0  2  0  0  0  0  0  0  0  0  0
    6.3990    3.7542    8.5126 C   0  0  2  0  0  0  0  0  0  0  0  0
    5.4331    4.8349    8.2610 N   0  0  0  0  0  0  0  0  0  0  0  0
   11.1620    7.5900    9.8046 C   0  0  0  0  0  0  0  0  0  0  0  0
   12.9483    7.8706    4.1103 C   0  0  2  0  0  0  0  0  0  0  0  0
   12.0254    8.9021    3.8022 O   0  0  0  0  0  0  0  0  0  0  0  0
    6.3508    3.3419    9.9999 C   0  0  1  0  0  0  0  0  0  0  0  0
    5.0193    2.9237   10.3418 O   0  0  0  0  0  0  0  0  0  0  0  0
    9.7125    6.9983    9.8447 C   0  0  2  0  0  0  0  0  0  0  0  0
    9.3834    6.5601   11.2163 N   0  0  0  0  0  0  0  0  0  0  0  0
   12.5689    6.5305    3.3689 C   0  0  1  0  0  0  0  0  0  0  0  0
   12.5342    6.7351    1.8896 N   0  0  0  0  0  0  0  0  0  0  0  0
    7.3808    2.2123   10.2381 C   0  0  2  0  0  0  0  0  0  0  0  0
    7.3550    1.8248   11.6229 O   0  0  0  0  0  0  0  0  0  0  0  0
    9.5807    5.7877    8.8856 C   0  0  2  0  0  0  0  0  0  0  0  0
   13.6175    5.4276    3.7423 C   0  0  1  0  0  0  0  0  0  0  0  0
   14.9125    5.8317    3.3057 O   0  0  0  0  0  0  0  0  0  0  0  0
    8.8190    2.7143    9.8326 C   0  0  2  0  0  0  0  0  0  0  0  0
    8.8260    3.1271    8.4157 O   0  0  0  0  0  0  0  0  0  0  0  0
    9.9325    6.2335    7.4443 C   0  0  2  0  0  0  0  0  0  0  0  0
    9.8226    5.1029    6.5858 O   0  0  0  0  0  0  0  0  0  0  0  0
   13.6249    5.2508    5.2935 C   0  0  0  0  0  0  0  0  0  0  0  0
   13.9162    6.5383    5.9687 O   0  0  0  0  0  0  0  0  0  0  0  0
    9.8932    1.6123   10.0264 C   0  0  2  0  0  0  0  0  0  0  0  0
   11.1833    2.1551    9.7580 O   0  0  0  0  0  0  0  0  0  0  0  0
   11.3789    6.7747    7.3623 C   0  0  1  0  0  0  0  0  0  0  0  0
   11.6059    7.1677    5.9881 O   0  0  0  0  0  0  0  0  0  0  0  0
    9.6701    0.4418    9.0830 C   0  0  0  0  0  0  0  0  0  0  0  0
   13.3032    4.0916    3.0804 C   0  0  0  0  0  0  0  0  0  0  0  0
   11.1400    6.5770    1.4334 C   0  0  0  0  0  0  0  0  0  0  0  0
  1  2  1  1  0  0  0
  1  6  1  0  0  0  0
  1 23  1  0  0  0  0
  3  4  1  1  0  0  0
  3  8  1  0  0  0  0
  3 30  1  0  0  0  0
  5  9  1  0  0  0  0
  5 27  1  0  0  0  0
  5 31  1  6  0  0  0
  6  7  1  1  0  0  0
  6 11  1  0  0  0  0
  8 13  1  0  0  0  0
  9 10  1  1  0  0  0
  9 15  1  0  0  0  0
 11 12  1  6  0  0  0
 11 17  1  0  0  0  0
 13 14  1  1  0  0  0
 13 19  1  0  0  0  0
 15 16  1  6  0  0  0
 15 20  1  0  0  0  0
 16 34  1  0  0  0  0
 17 18  1  1  0  0  0
 17 22  1  0  0  0  0
 19  2  1  6  0  0  0
 19 24  1  0  0  0  0
 20 21  1  6  0  0  0
 20 26  1  0  0  0  0
 20 33  1  0  0  0  0
 22 23  1  6  0  0  0
 22 28  1  0  0  0  0
 24 25  1  6  0  0  0
 24 30  1  0  0  0  0
 26 27  1  0  0  0  0
 28 29  1  6  0  0  0
 28 32  1  0  0  0  0
 30 31  1  6  0  0  0
M  END
>  <CHROM.1>
172.84297574,179.88423285,-113.38146159,-174.94466472,69.11302876,176.16845491
10.38090055,5.22930807,7.29680154,-3.12403199,0.91527706,0.52561342

>  <Name>
ligand

>  <RI>
0

>  <Rbt.Current_Directory>
/home/itssahil/PROJECTS/Mol_Feturizer/New_Systems/rnas/3TD1

>  <Rbt.Executable>
rbdock ($Id: //depot/dev/client3/rdock/2013.1/src/exe/rbdock.cxx#4 $)

>  <Rbt.Library>
libRbt.so (2013.1, Build901 2013/11/27)

>  <Rbt.Parameter_File>
/export/apps/rDock/src/rDock_2013.1_src/data/scripts/dock_solv.prm

>  <Rbt.Receptor>
prm/pocket_docking_5.prm

>  <SCORE>
-11.0086

>  <SCORE.INTER>
-2.89777

>  <SCORE.INTER.CONST>
1

>  <SCORE.INTER.POLAR>
0

>  <SCORE.INTER.ROT>
6

>  <SCORE.INTER.SOLV>
6.94339

>  <SCORE.INTER.VDW>
-11.8463

>  <SCORE.INTER.norm>
-0.0852284

>  <SCORE.INTRA>
-8.11081

>  <SCORE.INTRA.DIHEDRAL>
-17.5324

>  <SCORE.INTRA.DIHEDRAL.0>
19.5869

>  <SCORE.INTRA.POLAR>
0

>  <SCORE.INTRA.POLAR.0>
0

>  <SCORE.INTRA.REPUL>
0

>  <SCORE.INTRA.REPUL.0>
0

>  <SCORE.INTRA.SOLV>
-2.19425

>  <SCORE.INTRA.SOLV.lig_0>
-70.101

>  <SCORE.INTRA.VDW>
1.75251

>  <SCORE.INTRA.VDW.0>
-3.39718

>  <SCORE.INTRA.norm>
-0.238553

>  <SCORE.RESTR>
0

>  <SCORE.RESTR.CAVITY>
0

>  <SCORE.RESTR.norm>
0

>  <SCORE.SYSTEM>
0

>  <SCORE.SYSTEM.CONST>
0

>  <SCORE.SYSTEM.DIHEDRAL>
0

>  <SCORE.SYSTEM.SOLV>
0

>  <SCORE.SYSTEM.norm>
0

>  <SCORE.heavy>
34

>  <SCORE.norm>
-0.323782

>  <RMSD>
5.225

$$$$
ligand
 OpenBabel11021811483D
libRbt.so/2013.1/901 2013/11/27
 34 36  0  0  0  0  0  0  0  0999 V2000
    6.2336    6.9458    5.5034 C   0  0  2  0  0  0  0  0  0  0  0  0
    6.5127    5.8592    4.6067 O   0  0  0  0  0  0  0  0  0  0  0  0
    8.6023    5.9873    0.8813 C   0  0  2  0  0  0  0  0  0  0  0  0
    8.9246    6.2353   -0.5197 N   0  0  0  0  0  0  0  0  0  0  0  0
   10.7671    7.5342    2.4648 C   0  0  2  0  0  0  0  0  0  0  0  0
    6.4434    6.4289    6.9715 C   0  0  2  0  0  0  0  0  0  0  0  0
    7.8286    5.9812    7.1839 N   0  0  0  0  0  0  0  0  0  0  0  0
    7.2536    5.1938    0.9177 C   0  0  0  0  0  0  0  0  0  0  0  0
   11.9740    8.5301    2.3279 C   0  0  2  0  0  0  0  0  0  0  0  0
   11.6090    9.8022    2.8371 O   0  0  0  0  0  0  0  0  0  0  0  0
    5.4667    5.2653    7.2480 C   0  0  1  0  0  0  0  0  0  0  0  0
    5.6479    4.7925    8.5928 O   0  0  0  0  0  0  0  0  0  0  0  0
    6.9187    4.9069    2.4205 C   0  0  2  0  0  0  0  0  0  0  0  0
    5.6472    4.1621    2.5214 N   0  0  0  0  0  0  0  0  0  0  0  0
   12.3811    8.6242    0.8064 C   0  0  1  0  0  0  0  0  0  0  0  0
   13.5185    9.5744    0.6202 N   0  0  0  0  0  0  0  0  0  0  0  0
    4.0206    5.7603    7.0088 C   0  0  2  0  0  0  0  0  0  0  0  0
    3.0992    4.6831    7.2523 O   0  0  0  0  0  0  0  0  0  0  0  0
    6.7921    6.2273    3.2226 C   0  0  2  0  0  0  0  0  0  0  0  0
   12.7745    7.1960    0.2954 C   0  0  1  0  0  0  0  0  0  0  0  0
   13.8964    6.7169    1.0321 O   0  0  0  0  0  0  0  0  0  0  0  0
    3.8790    6.2831    5.5286 C   0  0  2  0  0  0  0  0  0  0  0  0
    4.8432    7.3740    5.2866 O   0  0  0  0  0  0  0  0  0  0  0  0
    8.1178    7.0218    3.1165 C   0  0  2  0  0  0  0  0  0  0  0  0
    7.9718    8.2369    3.8443 O   0  0  0  0  0  0  0  0  0  0  0  0
   11.5625    6.2364    0.5137 C   0  0  0  0  0  0  0  0  0  0  0  0
   11.1556    6.2181    1.9394 O   0  0  0  0  0  0  0  0  0  0  0  0
    2.4524    6.8177    5.2370 C   0  0  2  0  0  0  0  0  0  0  0  0
    1.7719    7.0495    6.4676 O   0  0  0  0  0  0  0  0  0  0  0  0
    8.4488    7.3660    1.6456 C   0  0  1  0  0  0  0  0  0  0  0  0
    9.6981    8.0963    1.6532 O   0  0  0  0  0  0  0  0  0  0  0  0
    1.6364    5.8221    4.4290 C   0  0  0  0  0  0  0  0  0  0  0  0
   13.1587    7.2016   -1.1791 C   0  0  0  0  0  0  0  0  0  0  0  0
   12.9630   10.9240    0.4038 C   0  0  0  0  0  0  0  0  0  0  0  0
  1  2  1  6  0  0  0
  1  6  1  0  0  0  0
  1 23  1  0  0  0  0
  3  4  1  6  0  0  0
  3  8  1  0  0  0  0
  3 30  1  0  0  0  0
  5  9  1  0  0  0  0
  5 27  1  0  0  0  0
  5 31  1  6  0  0  0
  6  7  1  6  0  0  0
  6 11  1  0  0  0  0
  8 13  1  0  0  0  0
  9 10  1  6  0  0  0
  9 15  1  0  0  0  0
 11 12  1  1  0  0  0
 11 17  1  0  0  0  0
 13 14  1  6  0  0  0
 13 19  1  0  0  0  0
 15 16  1  1  0  0  0
 15 20  1  0  0  0  0
 16 34  1  0  0  0  0
 17 18  1  6  0  0  0
 17 22  1  0  0  0  0
 19  2  1  1  0  0  0
 19 24  1  0  0  0  0
 20 21  1  1  0  0  0
 20 26  1  0  0  0  0
 20 33  1  0  0  0  0
 22 23  1  1  0  0  0
 22 28  1  0  0  0  0
 24 25  1  1  0  0  0
 24 30  1  0  0  0  0
 26 27  1  0  0  0  0
 28 29  1  1  0  0  0
 28 32  1  0  0  0  0
 30 31  1  1  0  0  0
M  END
>  <CHROM.1>
-161.10266690,-174.38985674,-89.20709547,16.58294661,-69.24856169,-178.43067782
8.04927418,6.80808490,3.35105726,-2.66556365,-0.41045187,-1.85366725

>  <Name>
ligand

>  <RI>
0

>  <Rbt.Current_Directory>
/home/itssahil/PROJECTS/Mol_Feturizer/New_Systems/rnas/3TD1

>  <Rbt.Executable>
rbdock ($Id: //depot/dev/client3/rdock/2013.1/src/exe/rbdock.cxx#4 $)

>  <Rbt.Library>
libRbt.so (2013.1, Build901 2013/11/27)

>  <Rbt.Parameter_File>
/export/apps/rDock/src/rDock_2013.1_src/data/scripts/dock_solv.prm

>  <Rbt.Receptor>
prm/blind_docking_40.prm

>  <SCORE>
66.9765

>  <SCORE.INTER>
60.4629

>  <SCORE.INTER.CONST>
1

>  <SCORE.INTER.POLAR>
0

>  <SCORE.INTER.ROT>
6

>  <SCORE.INTER.SOLV>
25.2119

>  <SCORE.INTER.VDW>
24.3046

>  <SCORE.INTER.norm>
1.77832

>  <SCORE.INTRA>
-2.4815

>  <SCORE.INTRA.DIHEDRAL>
-12.3194

>  <SCORE.INTRA.DIHEDRAL.0>
19.5869

>  <SCORE.INTRA.POLAR>
0

>  <SCORE.INTRA.POLAR.0>
0

>  <SCORE.INTRA.REPUL>
0

>  <SCORE.INTRA.REPUL.0>
0

>  <SCORE.INTRA.SOLV>
-0.0649453

>  <SCORE.INTRA.SOLV.lig_0>
-70.101

>  <SCORE.INTRA.VDW>
3.71066

>  <SCORE.INTRA.VDW.0>
-3.39718

>  <SCORE.INTRA.norm>
-0.0729854

>  <SCORE.RESTR>
8.99515

>  <SCORE.RESTR.CAVITY>
8.99515

>  <SCORE.RESTR.norm>
0.264563

>  <SCORE.SYSTEM>
0

>  <SCORE.SYSTEM.CONST>
0

>  <SCORE.SYSTEM.DIHEDRAL>
0

>  <SCORE.SYSTEM.SOLV>
0

>  <SCORE.SYSTEM.norm>
0

>  <SCORE.heavy>
34

>  <SCORE.norm>
1.9699

>  <RMSD>
5.248

$$$$
ligand
 OpenBabel11021811483D
libRbt.so/2013.1/901 2013/11/27
 34 36  0  0  0  0  0  0  0  0999 V2000
    9.2701    3.6626    7.8972 C   0  0  2  0  0  0  0  0  0  0  0  0
    8.1825    4.1953    7.1252 O   0  0  0  0  0  0  0  0  0  0  0  0
    8.5103    6.4257    3.4948 C   0  0  2  0  0  0  0  0  0  0  0  0
    8.7273    7.5199    2.5548 N   0  0  0  0  0  0  0  0  0  0  0  0
   12.2130    5.4447    3.7797 C   0  0  2  0  0  0  0  0  0  0  0  0
    8.7331    2.4254    8.7018 C   0  0  2  0  0  0  0  0  0  0  0  0
    8.2356    1.3783    7.7961 N   0  0  0  0  0  0  0  0  0  0  0  0
    7.4467    6.9082    4.5369 C   0  0  0  0  0  0  0  0  0  0  0  0
   12.8336    6.8871    3.7433 C   0  0  2  0  0  0  0  0  0  0  0  0
   12.0996    7.7490    4.5972 O   0  0  0  0  0  0  0  0  0  0  0  0
    7.6018    2.8831    9.6479 C   0  0  1  0  0  0  0  0  0  0  0  0
    7.1110    1.7570   10.3933 O   0  0  0  0  0  0  0  0  0  0  0  0
    7.1959    5.7258    5.5328 C   0  0  2  0  0  0  0  0  0  0  0  0
    6.2009    6.1238    6.5492 N   0  0  0  0  0  0  0  0  0  0  0  0
   12.8103    7.4097    2.2547 C   0  0  1  0  0  0  0  0  0  0  0  0
   13.3775    8.7889    2.1685 N   0  0  0  0  0  0  0  0  0  0  0  0
    8.1490    3.9887   10.5815 C   0  0  2  0  0  0  0  0  0  0  0  0
    7.1024    4.4331   11.4623 O   0  0  0  0  0  0  0  0  0  0  0  0
    8.5082    5.3155    6.2487 C   0  0  2  0  0  0  0  0  0  0  0  0
   13.6336    6.4244    1.3564 C   0  0  1  0  0  0  0  0  0  0  0  0
   14.9875    6.3910    1.8000 O   0  0  0  0  0  0  0  0  0  0  0  0
    8.6897    5.1908    9.7170 C   0  0  2  0  0  0  0  0  0  0  0  0
    9.7484    4.7170    8.8044 O   0  0  0  0  0  0  0  0  0  0  0  0
    9.5631    4.9043    5.1913 C   0  0  2  0  0  0  0  0  0  0  0  0
   10.7636    4.5498    5.8699 O   0  0  0  0  0  0  0  0  0  0  0  0
   13.0118    4.9977    1.4806 C   0  0  0  0  0  0  0  0  0  0  0  0
   12.9823    4.5578    2.8962 O   0  0  0  0  0  0  0  0  0  0  0  0
    9.2762    6.3224   10.6010 C   0  0  2  0  0  0  0  0  0  0  0  0
   10.2355    5.7728   11.5003 O   0  0  0  0  0  0  0  0  0  0  0  0
    9.8710    6.0707    4.2236 C   0  0  1  0  0  0  0  0  0  0  0  0
   10.8545    5.5873    3.2783 O   0  0  0  0  0  0  0  0  0  0  0  0
    8.1967    7.0050   11.4246 C   0  0  0  0  0  0  0  0  0  0  0  0
   13.6374    6.8511   -0.1064 C   0  0  0  0  0  0  0  0  0  0  0  0
   12.4265    9.6341    1.4214 C   0  0  0  0  0  0  0  0  0  0  0  0
  1  2  1  1  0  0  0
  1  6  1  0  0  0  0
  1 23  1  0  0  0  0
  3  4  1  6  0  0  0
  3  8  1  0  0  0  0
  3 30  1  0  0  0  0
  5  9  1  0  0  0  0
  5 27  1  0  0  0  0
  5 31  1  6  0  0  0
  6  7  1  6  0  0  0
  6 11  1  0  0  0  0
  8 13  1  0  0  0  0
  9 10  1  1  0  0  0
  9 15  1  0  0  0  0
 11 12  1  1  0  0  0
 11 17  1  0  0  0  0
 13 14  1  1  0  0  0
 13 19  1  0  0  0  0
 15 16  1  1  0  0  0
 15 20  1  0  0  0  0
 16 34  1  0  0  0  0
 17 18  1  1  0  0  0
 17 22  1  0  0  0  0
 19  2  1  1  0  0  0
 19 24  1  0  0  0  0
 20 21  1  1  0  0  0
 20 26  1  0  0  0  0
 20 33  1  0  0  0  0
 22 23  1  6  0  0  0
 22 28  1  0  0  0  0
 24 25  1  1  0  0  0
 24 30  1  0  0  0  0
 26 27  1  0  0  0  0
 28 29  1  1  0  0  0
 28 32  1  0  0  0  0
 30 31  1  6  0  0  0
M  END
>  <CHROM.1>
-176.80494950,-179.58630091,-129.58603474,52.41075634,169.80934271,-80.47456213
10.08803983,5.52707127,5.86539893,-2.22289753,0.63537031,-0.81046047

>  <Name>
ligand

>  <RI>
0

>  <Rbt.Current_Directory>
/home/itssahil/PROJECTS/Mol_Feturizer/New_Systems/rnas/3TD1

>  <Rbt.Executable>
rbdock ($Id: //depot/dev/client3/rdock/2013.1/src/exe/rbdock.cxx#4 $)

>  <Rbt.Library>
libRbt.so (2013.1, Build901 2013/11/27)

>  <Rbt.Parameter_File>
/export/apps/rDock/src/rDock_2013.1_src/data/scripts/dock_solv.prm

>  <Rbt.Receptor>
prm/pocket_docking_7.prm

>  <SCORE>
-7.01547

>  <SCORE.INTER>
-1.06854

>  <SCORE.INTER.CONST>
1

>  <SCORE.INTER.POLAR>
0

>  <SCORE.INTER.ROT>
6

>  <SCORE.INTER.SOLV>
11.1683

>  <SCORE.INTER.VDW>
-12.0351

>  <SCORE.INTER.norm>
-0.0314277

>  <SCORE.INTRA>
-5.94692

>  <SCORE.INTRA.DIHEDRAL>
-15.769

>  <SCORE.INTRA.DIHEDRAL.0>
19.5869

>  <SCORE.INTRA.POLAR>
0

>  <SCORE.INTRA.POLAR.0>
0

>  <SCORE.INTRA.REPUL>
0

>  <SCORE.INTRA.REPUL.0>
0

>  <SCORE.INTRA.SOLV>
-2.16933

>  <SCORE.INTRA.SOLV.lig_0>
-70.101

>  <SCORE.INTRA.VDW>
3.02222

>  <SCORE.INTRA.VDW.0>
-3.39718

>  <SCORE.INTRA.norm>
-0.17491

>  <SCORE.RESTR>
0

>  <SCORE.RESTR.CAVITY>
0

>  <SCORE.RESTR.norm>
0

>  <SCORE.SYSTEM>
0

>  <SCORE.SYSTEM.CONST>
0

>  <SCORE.SYSTEM.DIHEDRAL>
0

>  <SCORE.SYSTEM.SOLV>
0

>  <SCORE.SYSTEM.norm>
0

>  <SCORE.heavy>
34

>  <SCORE.norm>
-0.206337

>  <RMSD>
5.257

$$$$
ligand
 OpenBabel11021811483D
libRbt.so/2013.1/901 2013/11/27
 34 36  0  0  0  0  0  0  0  0999 V2000
    6.4743    7.2723    5.6880 C   0  0  2  0  0  0  0  0  0  0  0  0
    6.9186    6.1688    4.8833 O   0  0  0  0  0  0  0  0  0  0  0  0
    8.3194    6.3641    0.8508 C   0  0  2  0  0  0  0  0  0  0  0  0
    8.3459    6.4632   -0.6044 N   0  0  0  0  0  0  0  0  0  0  0  0
    9.6025    9.1909    2.2077 C   0  0  2  0  0  0  0  0  0  0  0  0
    6.7689    6.9258    7.1912 C   0  0  2  0  0  0  0  0  0  0  0  0
    8.2083    6.7223    7.4169 N   0  0  0  0  0  0  0  0  0  0  0  0
    7.3711    5.1754    1.2215 C   0  0  0  0  0  0  0  0  0  0  0  0
   10.6497   10.1355    1.5160 C   0  0  2  0  0  0  0  0  0  0  0  0
   10.0009   11.2976    1.0268 O   0  0  0  0  0  0  0  0  0  0  0  0
    5.9900    5.6517    7.5840 C   0  0  1  0  0  0  0  0  0  0  0  0
    6.2488    5.3332    8.9610 O   0  0  0  0  0  0  0  0  0  0  0  0
    7.3604    5.0533    2.7829 C   0  0  2  0  0  0  0  0  0  0  0  0
    6.4737    3.9470    3.1971 N   0  0  0  0  0  0  0  0  0  0  0  0
   11.3498    9.3422    0.3455 C   0  0  1  0  0  0  0  0  0  0  0  0
   12.3470   10.2046   -0.3566 N   0  0  0  0  0  0  0  0  0  0  0  0
    4.4828    5.8898    7.3286 C   0  0  2  0  0  0  0  0  0  0  0  0
    3.7447    4.7065    7.6801 O   0  0  0  0  0  0  0  0  0  0  0  0
    6.8638    6.3671    3.4387 C   0  0  2  0  0  0  0  0  0  0  0  0
   12.0495    8.0718    0.9389 C   0  0  1  0  0  0  0  0  0  0  0  0
   13.0493    8.4693    1.8734 O   0  0  0  0  0  0  0  0  0  0  0  0
    4.2545    6.2518    5.8115 C   0  0  2  0  0  0  0  0  0  0  0  0
    5.0328    7.4554    5.4596 O   0  0  0  0  0  0  0  0  0  0  0  0
    7.7816    7.5370    3.0039 C   0  0  2  0  0  0  0  0  0  0  0  0
    7.2961    8.7342    3.6026 O   0  0  0  0  0  0  0  0  0  0  0  0
   10.9749    7.2041    1.6667 C   0  0  0  0  0  0  0  0  0  0  0  0
   10.2840    7.9923    2.7154 O   0  0  0  0  0  0  0  0  0  0  0  0
    2.7602    6.5273    5.5002 C   0  0  2  0  0  0  0  0  0  0  0  0
    1.9487    5.5882    6.2008 O   0  0  0  0  0  0  0  0  0  0  0  0
    7.7718    7.7161    1.4679 C   0  0  1  0  0  0  0  0  0  0  0  0
    8.6573    8.8200    1.1654 O   0  0  0  0  0  0  0  0  0  0  0  0
    2.4636    6.3897    4.0160 C   0  0  0  0  0  0  0  0  0  0  0  0
   12.7307    7.2376   -0.1391 C   0  0  0  0  0  0  0  0  0  0  0  0
   13.2273   10.8142    0.6584 C   0  0  0  0  0  0  0  0  0  0  0  0
  1  2  1  6  0  0  0
  1  6  1  0  0  0  0
  1 23  1  0  0  0  0
  3  4  1  6  0  0  0
  3  8  1  0  0  0  0
  3 30  1  0  0  0  0
  5  9  1  0  0  0  0
  5 27  1  0  0  0  0
  5 31  1  6  0  0  0
  6  7  1  6  0  0  0
  6 11  1  0  0  0  0
  8 13  1  0  0  0  0
  9 10  1  6  0  0  0
  9 15  1  0  0  0  0
 11 12  1  1  0  0  0
 11 17  1  0  0  0  0
 13 14  1  6  0  0  0
 13 19  1  0  0  0  0
 15 16  1  1  0  0  0
 15 20  1  0  0  0  0
 16 34  1  0  0  0  0
 17 18  1  6  0  0  0
 17 22  1  0  0  0  0
 19  2  1  1  0  0  0
 19 24  1  0  0  0  0
 20 21  1  1  0  0  0
 20 26  1  0  0  0  0
 20 33  1  0  0  0  0
 22 23  1  1  0  0  0
 22 28  1  0  0  0  0
 24 25  1  1  0  0  0
 24 30  1  0  0  0  0
 26 27  1  0  0  0  0
 28 29  1  1  0  0  0
 28 32  1  0  0  0  0
 30 31  1  1  0  0  0
M  END
>  <CHROM.1>
-173.46050233,-179.00362463,50.51988243,-40.38556291,-97.80527709,166.32737692
7.86671944,7.27844938,3.44315494,-2.51713252,-0.45383785,-1.61033419

>  <Name>
ligand

>  <RI>
0

>  <Rbt.Current_Directory>
/home/itssahil/PROJECTS/Mol_Feturizer/New_Systems/rnas/3TD1

>  <Rbt.Executable>
rbdock ($Id: //depot/dev/client3/rdock/2013.1/src/exe/rbdock.cxx#4 $)

>  <Rbt.Library>
libRbt.so (2013.1, Build901 2013/11/27)

>  <Rbt.Parameter_File>
/export/apps/rDock/src/rDock_2013.1_src/data/scripts/dock_solv.prm

>  <Rbt.Receptor>
prm/blind_docking_40.prm

>  <SCORE>
51.1987

>  <SCORE.INTER>
33.6542

>  <SCORE.INTER.CONST>
1

>  <SCORE.INTER.POLAR>
0

>  <SCORE.INTER.ROT>
6

>  <SCORE.INTER.SOLV>
22.9381

>  <SCORE.INTER.VDW>
7.1901

>  <SCORE.INTER.norm>
0.989829

>  <SCORE.INTRA>
6.80466

>  <SCORE.INTRA.DIHEDRAL>
-12.074

>  <SCORE.INTRA.DIHEDRAL.0>
19.5869

>  <SCORE.INTRA.POLAR>
0

>  <SCORE.INTRA.POLAR.0>
0

>  <SCORE.INTRA.REPUL>
0

>  <SCORE.INTRA.REPUL.0>
0

>  <SCORE.INTRA.SOLV>
-1.34815

>  <SCORE.INTRA.SOLV.lig_0>
-70.101

>  <SCORE.INTRA.VDW>
13.5157

>  <SCORE.INTRA.VDW.0>
-3.39718

>  <SCORE.INTRA.norm>
0.200137

>  <SCORE.RESTR>
10.7399

>  <SCORE.RESTR.CAVITY>
10.7399

>  <SCORE.RESTR.norm>
0.315879

>  <SCORE.SYSTEM>
0

>  <SCORE.SYSTEM.CONST>
0

>  <SCORE.SYSTEM.DIHEDRAL>
0

>  <SCORE.SYSTEM.SOLV>
0

>  <SCORE.SYSTEM.norm>
0

>  <SCORE.heavy>
34

>  <SCORE.norm>
1.50584

>  <RMSD>
5.291

$$$$
ligand
 OpenBabel11021811483D
libRbt.so/2013.1/901 2013/11/27
 34 36  0  0  0  0  0  0  0  0999 V2000
    9.0435    3.5624    7.5608 C   0  0  2  0  0  0  0  0  0  0  0  0
    8.8280    4.9713    7.7373 O   0  0  0  0  0  0  0  0  0  0  0  0
   11.2401    8.3896    6.8661 C   0  0  2  0  0  0  0  0  0  0  0  0
   12.3548    9.3303    6.8432 N   0  0  0  0  0  0  0  0  0  0  0  0
   13.3587    7.6018    4.4684 C   0  0  2  0  0  0  0  0  0  0  0  0
    7.6841    2.9164    7.1125 C   0  0  2  0  0  0  0  0  0  0  0  0
    7.2183    3.4890    5.8399 N   0  0  0  0  0  0  0  0  0  0  0  0
   10.8700    8.1391    8.3661 C   0  0  0  0  0  0  0  0  0  0  0  0
   13.4272    7.7258    2.9041 C   0  0  2  0  0  0  0  0  0  0  0  0
   12.5554    8.7539    2.4638 O   0  0  0  0  0  0  0  0  0  0  0  0
    6.6231    3.1445    8.2110 C   0  0  1  0  0  0  0  0  0  0  0  0
    5.3783    2.5488    7.8107 O   0  0  0  0  0  0  0  0  0  0  0  0
    9.6583    7.1472    8.3910 C   0  0  2  0  0  0  0  0  0  0  0  0
    9.2645    6.8656    9.7864 N   0  0  0  0  0  0  0  0  0  0  0  0
   13.0311    6.3366    2.2695 C   0  0  1  0  0  0  0  0  0  0  0  0
   13.0656    6.4065    0.7778 N   0  0  0  0  0  0  0  0  0  0  0  0
    7.1416    2.5416    9.5382 C   0  0  2  0  0  0  0  0  0  0  0  0
    6.1676    2.7561   10.5745 O   0  0  0  0  0  0  0  0  0  0  0  0
   10.0200    5.8117    7.6922 C   0  0  2  0  0  0  0  0  0  0  0  0
   14.0230    5.2392    2.7869 C   0  0  1  0  0  0  0  0  0  0  0  0
   15.3488    5.5604    2.3742 O   0  0  0  0  0  0  0  0  0  0  0  0
    8.5141    3.2142    9.9236 C   0  0  2  0  0  0  0  0  0  0  0  0
    9.4976    3.0036    8.8435 O   0  0  0  0  0  0  0  0  0  0  0  0
   10.4436    6.0958    6.2294 C   0  0  2  0  0  0  0  0  0  0  0  0
   10.7883    4.8589    5.6140 O   0  0  0  0  0  0  0  0  0  0  0  0
   13.9594    5.2043    4.3464 C   0  0  0  0  0  0  0  0  0  0  0  0
   14.2682    6.5380    4.9159 O   0  0  0  0  0  0  0  0  0  0  0  0
    9.0971    2.6297   11.2367 C   0  0  2  0  0  0  0  0  0  0  0  0
    8.1717    2.8378   12.3005 O   0  0  0  0  0  0  0  0  0  0  0  0
   11.6729    7.0325    6.1736 C   0  0  1  0  0  0  0  0  0  0  0  0
   11.9832    7.2400    4.7754 O   0  0  0  0  0  0  0  0  0  0  0  0
   10.4068    3.3015   11.6149 C   0  0  0  0  0  0  0  0  0  0  0  0
   13.6889    3.8592    2.2339 C   0  0  0  0  0  0  0  0  0  0  0  0
   11.7035    6.1511    0.2712 C   0  0  0  0  0  0  0  0  0  0  0  0
  1  2  1  1  0  0  0
  1  6  1  0  0  0  0
  1 23  1  0  0  0  0
  3  4  1  1  0  0  0
  3  8  1  0  0  0  0
  3 30  1  0  0  0  0
  5  9  1  0  0  0  0
  5 27  1  0  0  0  0
  5 31  1  6  0  0  0
  6  7  1  6  0  0  0
  6 11  1  0  0  0  0
  8 13  1  0  0  0  0
  9 10  1  6  0  0  0
  9 15  1  0  0  0  0
 11 12  1  6  0  0  0
 11 17  1  0  0  0  0
 13 14  1  1  0  0  0
 13 19  1  0  0  0  0
 15 16  1  6  0  0  0
 15 20  1  0  0  0  0
 16 34  1  0  0  0  0
 17 18  1  1  0  0  0
 17 22  1  0  0  0  0
 19  2  1  6  0  0  0
 19 24  1  0  0  0  0
 20 21  1  6  0  0  0
 20 26  1  0  0  0  0
 20 33  1  0  0  0  0
 22 23  1  6  0  0  0
 22 28  1  0  0  0  0
 24 25  1  1  0  0  0
 24 30  1  0  0  0  0
 26 27  1  0  0  0  0
 28 29  1  1  0  0  0
 28 32  1  0  0  0  0
 30 31  1  6  0  0  0
M  END
>  <CHROM.1>
-159.33982882,-159.98498421,-117.57519283,-59.43195978,88.57682544,178.50482342
10.60014618,5.30785947,6.43613861,2.60867258,0.82987571,1.12508285

>  <Name>
ligand

>  <RI>
0

>  <Rbt.Current_Directory>
/home/itssahil/PROJECTS/Mol_Feturizer/New_Systems/rnas/3TD1

>  <Rbt.Executable>
rbdock ($Id: //depot/dev/client3/rdock/2013.1/src/exe/rbdock.cxx#4 $)

>  <Rbt.Library>
libRbt.so (2013.1, Build901 2013/11/27)

>  <Rbt.Parameter_File>
/export/apps/rDock/src/rDock_2013.1_src/data/scripts/dock_solv.prm

>  <Rbt.Receptor>
prm/pocket_docking_7.prm

>  <SCORE>
-10.7407

>  <SCORE.INTER>
-4.1655

>  <SCORE.INTER.CONST>
1

>  <SCORE.INTER.POLAR>
0

>  <SCORE.INTER.ROT>
6

>  <SCORE.INTER.SOLV>
14.398

>  <SCORE.INTER.VDW>
-15.1763

>  <SCORE.INTER.norm>
-0.122515

>  <SCORE.INTRA>
-6.57516

>  <SCORE.INTRA.DIHEDRAL>
-11.3134

>  <SCORE.INTRA.DIHEDRAL.0>
19.5869

>  <SCORE.INTRA.POLAR>
0

>  <SCORE.INTRA.POLAR.0>
0

>  <SCORE.INTRA.REPUL>
0

>  <SCORE.INTRA.REPUL.0>
0

>  <SCORE.INTRA.SOLV>
-1.08852

>  <SCORE.INTRA.SOLV.lig_0>
-70.101

>  <SCORE.INTRA.VDW>
-0.374197

>  <SCORE.INTRA.VDW.0>
-3.39718

>  <SCORE.INTRA.norm>
-0.193387

>  <SCORE.RESTR>
0

>  <SCORE.RESTR.CAVITY>
0

>  <SCORE.RESTR.norm>
0

>  <SCORE.SYSTEM>
0

>  <SCORE.SYSTEM.CONST>
0

>  <SCORE.SYSTEM.DIHEDRAL>
0

>  <SCORE.SYSTEM.SOLV>
0

>  <SCORE.SYSTEM.norm>
0

>  <SCORE.heavy>
34

>  <SCORE.norm>
-0.315902

>  <RMSD>
5.293

$$$$
ligand
 OpenBabel11021811483D
libRbt.so/2013.1/901 2013/11/27
 34 36  0  0  0  0  0  0  0  0999 V2000
    9.1100    5.6171    9.4323 C   0  0  2  0  0  0  0  0  0  0  0  0
   10.4851    5.2525    9.6292 O   0  0  0  0  0  0  0  0  0  0  0  0
   12.0103    8.6550    7.5414 C   0  0  2  0  0  0  0  0  0  0  0  0
   12.9255    9.6530    6.9988 N   0  0  0  0  0  0  0  0  0  0  0  0
   13.0337    8.0085    4.6659 C   0  0  2  0  0  0  0  0  0  0  0  0
    8.2428    4.8150   10.4673 C   0  0  2  0  0  0  0  0  0  0  0  0
    8.6281    5.1418   11.8490 N   0  0  0  0  0  0  0  0  0  0  0  0
   12.2363    8.6055    9.0894 C   0  0  0  0  0  0  0  0  0  0  0  0
   12.5079    7.9207    3.1884 C   0  0  2  0  0  0  0  0  0  0  0  0
   11.2294    8.5269    3.0952 O   0  0  0  0  0  0  0  0  0  0  0  0
    8.4184    3.3015   10.2168 C   0  0  1  0  0  0  0  0  0  0  0  0
    7.6212    2.5613   11.1556 O   0  0  0  0  0  0  0  0  0  0  0  0
   11.2378    7.5509    9.6757 C   0  0  2  0  0  0  0  0  0  0  0  0
   11.4078    7.4537   11.1397 N   0  0  0  0  0  0  0  0  0  0  0  0
   12.4476    6.4025    2.7631 C   0  0  1  0  0  0  0  0  0  0  0  0
   11.9370    6.2635    1.3662 N   0  0  0  0  0  0  0  0  0  0  0  0
    8.0156    2.9876    8.7564 C   0  0  2  0  0  0  0  0  0  0  0  0
    8.1843    1.5816    8.5047 O   0  0  0  0  0  0  0  0  0  0  0  0
   11.4755    6.1534    9.0487 C   0  0  2  0  0  0  0  0  0  0  0  0
   13.8818    5.7826    2.8836 C   0  0  1  0  0  0  0  0  0  0  0  0
   14.7716    6.4616    2.0014 O   0  0  0  0  0  0  0  0  0  0  0  0
    8.9051    3.8352    7.7689 C   0  0  2  0  0  0  0  0  0  0  0  0
    8.7377    5.2741    8.0513 O   0  0  0  0  0  0  0  0  0  0  0  0
   11.3087    6.2450    7.5113 C   0  0  2  0  0  0  0  0  0  0  0  0
   11.5492    4.9560    6.9565 O   0  0  0  0  0  0  0  0  0  0  0  0
   14.3778    5.9543    4.3539 C   0  0  0  0  0  0  0  0  0  0  0  0
   14.3602    7.3825    4.7521 O   0  0  0  0  0  0  0  0  0  0  0  0
    8.5281    3.5806    6.2860 C   0  0  2  0  0  0  0  0  0  0  0  0
    7.1092    3.5712    6.1522 O   0  0  0  0  0  0  0  0  0  0  0  0
   12.3186    7.2417    6.8962 C   0  0  1  0  0  0  0  0  0  0  0  0
   12.0789    7.2599    5.4692 O   0  0  0  0  0  0  0  0  0  0  0  0
    9.0553    2.2417    5.7969 C   0  0  0  0  0  0  0  0  0  0  0  0
   13.8999    4.3053    2.5107 C   0  0  0  0  0  0  0  0  0  0  0  0
   10.5520    5.7586    1.4281 C   0  0  0  0  0  0  0  0  0  0  0  0
  1  2  1  6  0  0  0
  1  6  1  0  0  0  0
  1 23  1  0  0  0  0
  3  4  1  6  0  0  0
  3  8  1  0  0  0  0
  3 30  1  0  0  0  0
  5  9  1  0  0  0  0
  5 27  1  0  0  0  0
  5 31  1  1  0  0  0
  6  7  1  1  0  0  0
  6 11  1  0  0  0  0
  8 13  1  0  0  0  0
  9 10  1  1  0  0  0
  9 15  1  0  0  0  0
 11 12  1  1  0  0  0
 11 17  1  0  0  0  0
 13 14  1  1  0  0  0
 13 19  1  0  0  0  0
 15 16  1  6  0  0  0
 15 20  1  0  0  0  0
 16 34  1  0  0  0  0
 17 18  1  6  0  0  0
 17 22  1  0  0  0  0
 19  2  1  1  0  0  0
 19 24  1  0  0  0  0
 20 21  1  6  0  0  0
 20 26  1  0  0  0  0
 20 33  1  0  0  0  0
 22 23  1  1  0  0  0
 22 28  1  0  0  0  0
 24 25  1  6  0  0  0
 24 30  1  0  0  0  0
 26 27  1  0  0  0  0
 28 29  1  1  0  0  0
 28 32  1  0  0  0  0
 30 31  1  6  0  0  0
M  END
>  <CHROM.1>
-162.85239833,58.57669947,-105.86648136,43.85339829,71.56316653,-177.46008879
10.94567008,5.73975888,6.65582215,-2.49527689,-0.84170316,-1.94942048

>  <Name>
ligand

>  <RI>
0

>  <Rbt.Current_Directory>
/home/itssahil/PROJECTS/Mol_Feturizer/New_Systems/rnas/3TD1

>  <Rbt.Executable>
rbdock ($Id: //depot/dev/client3/rdock/2013.1/src/exe/rbdock.cxx#4 $)

>  <Rbt.Library>
libRbt.so (2013.1, Build901 2013/11/27)

>  <Rbt.Parameter_File>
/export/apps/rDock/src/rDock_2013.1_src/data/scripts/dock_solv.prm

>  <Rbt.Receptor>
prm/pocket_docking_6.prm

>  <SCORE>
-9.5257

>  <SCORE.INTER>
-2.83329

>  <SCORE.INTER.CONST>
1

>  <SCORE.INTER.POLAR>
0

>  <SCORE.INTER.ROT>
6

>  <SCORE.INTER.SOLV>
12.3077

>  <SCORE.INTER.VDW>
-13.5914

>  <SCORE.INTER.norm>
-0.0833322

>  <SCORE.INTRA>
-6.6924

>  <SCORE.INTRA.DIHEDRAL>
-15.5492

>  <SCORE.INTRA.DIHEDRAL.0>
19.5869

>  <SCORE.INTRA.POLAR>
0

>  <SCORE.INTRA.POLAR.0>
0

>  <SCORE.INTRA.REPUL>
0

>  <SCORE.INTRA.REPUL.0>
0

>  <SCORE.INTRA.SOLV>
0.0304874

>  <SCORE.INTRA.SOLV.lig_0>
-70.101

>  <SCORE.INTRA.VDW>
1.06696

>  <SCORE.INTRA.VDW.0>
-3.39718

>  <SCORE.INTRA.norm>
-0.196835

>  <SCORE.RESTR>
0

>  <SCORE.RESTR.CAVITY>
0

>  <SCORE.RESTR.norm>
0

>  <SCORE.SYSTEM>
0

>  <SCORE.SYSTEM.CONST>
0

>  <SCORE.SYSTEM.DIHEDRAL>
0

>  <SCORE.SYSTEM.SOLV>
0

>  <SCORE.SYSTEM.norm>
0

>  <SCORE.heavy>
34

>  <SCORE.norm>
-0.280168

>  <RMSD>
5.298

$$$$
ligand
 OpenBabel11021811483D
libRbt.so/2013.1/901 2013/11/27
 34 36  0  0  0  0  0  0  0  0999 V2000
    7.1185    6.8563    5.1125 C   0  0  2  0  0  0  0  0  0  0  0  0
    6.9713    8.2635    4.8661 O   0  0  0  0  0  0  0  0  0  0  0  0
    8.5518    8.4871    0.9021 C   0  0  2  0  0  0  0  0  0  0  0  0
    9.2095    8.9821   -0.3023 N   0  0  0  0  0  0  0  0  0  0  0  0
   11.6599    7.7993    0.8182 C   0  0  2  0  0  0  0  0  0  0  0  0
    6.2186    6.0867    4.0808 C   0  0  2  0  0  0  0  0  0  0  0  0
    6.6322    6.3730    2.6983 N   0  0  0  0  0  0  0  0  0  0  0  0
    7.4445    9.5230    1.2898 C   0  0  0  0  0  0  0  0  0  0  0  0
   12.3798    6.4850    0.3476 C   0  0  2  0  0  0  0  0  0  0  0  0
   11.4571    5.6454   -0.3267 O   0  0  0  0  0  0  0  0  0  0  0  0
    4.7437    6.4966    4.2838 C   0  0  1  0  0  0  0  0  0  0  0  0
    3.9134    5.7899    3.3478 O   0  0  0  0  0  0  0  0  0  0  0  0
    6.7224    8.9809    2.5695 C   0  0  2  0  0  0  0  0  0  0  0  0
    5.6652    9.9226    2.9902 N   0  0  0  0  0  0  0  0  0  0  0  0
   12.9860    5.7608    1.6115 C   0  0  1  0  0  0  0  0  0  0  0  0
   13.6702    4.4927    1.2181 N   0  0  0  0  0  0  0  0  0  0  0  0
    4.3384    6.1936    5.7458 C   0  0  2  0  0  0  0  0  0  0  0  0
    2.9688    6.5805    5.9531 O   0  0  0  0  0  0  0  0  0  0  0  0
    7.7254    8.7979    3.7370 C   0  0  2  0  0  0  0  0  0  0  0  0
   13.9960    6.7290    2.3173 C   0  0  1  0  0  0  0  0  0  0  0  0
   15.0617    7.0420    1.4243 O   0  0  0  0  0  0  0  0  0  0  0  0
    5.2878    6.9768    6.7306 C   0  0  2  0  0  0  0  0  0  0  0  0
    6.6909    6.5852    6.4936 O   0  0  0  0  0  0  0  0  0  0  0  0
    8.8447    7.8183    3.3038 C   0  0  2  0  0  0  0  0  0  0  0  0
    9.7625    7.6803    4.3836 O   0  0  0  0  0  0  0  0  0  0  0  0
   13.2425    8.0401    2.7053 C   0  0  0  0  0  0  0  0  0  0  0  0
   12.6240    8.6649    1.5113 O   0  0  0  0  0  0  0  0  0  0  0  0
    4.9445    6.6911    8.2160 C   0  0  2  0  0  0  0  0  0  0  0  0
    5.3833    5.3795    8.5605 O   0  0  0  0  0  0  0  0  0  0  0  0
    9.6114    8.3527    2.0717 C   0  0  1  0  0  0  0  0  0  0  0  0
   10.6228    7.3708    1.7445 O   0  0  0  0  0  0  0  0  0  0  0  0
    3.4479    6.7676    8.4688 C   0  0  0  0  0  0  0  0  0  0  0  0
   14.6079    6.1064    3.5662 C   0  0  0  0  0  0  0  0  0  0  0  0
   13.2716    3.4376    2.1693 C   0  0  0  0  0  0  0  0  0  0  0  0
  1  2  1  6  0  0  0
  1  6  1  0  0  0  0
  1 23  1  0  0  0  0
  3  4  1  6  0  0  0
  3  8  1  0  0  0  0
  3 30  1  0  0  0  0
  5  9  1  0  0  0  0
  5 27  1  0  0  0  0
  5 31  1  1  0  0  0
  6  7  1  6  0  0  0
  6 11  1  0  0  0  0
  8 13  1  0  0  0  0
  9 10  1  1  0  0  0
  9 15  1  0  0  0  0
 11 12  1  6  0  0  0
 11 17  1  0  0  0  0
 13 14  1  1  0  0  0
 13 19  1  0  0  0  0
 15 16  1  6  0  0  0
 15 20  1  0  0  0  0
 16 34  1  0  0  0  0
 17 18  1  6  0  0  0
 17 22  1  0  0  0  0
 19  2  1  1  0  0  0
 19 24  1  0  0  0  0
 20 21  1  6  0  0  0
 20 26  1  0  0  0  0
 20 33  1  0  0  0  0
 22 23  1  6  0  0  0
 22 28  1  0  0  0  0
 24 25  1  1  0  0  0
 24 30  1  0  0  0  0
 26 27  1  0  0  0  0
 28 29  1  6  0  0  0
 28 32  1  0  0  0  0
 30 31  1  6  0  0  0
M  END
>  <CHROM.1>
-78.65546012,102.31109064,-135.17079388,73.72616899,77.82254863,-165.54172619
8.76208041,7.07098418,3.39655096,-2.72292319,0.30466606,-1.01160249

>  <Name>
ligand

>  <RI>
0

>  <Rbt.Current_Directory>
/home/itssahil/PROJECTS/Mol_Feturizer/New_Systems/rnas/3TD1

>  <Rbt.Executable>
rbdock ($Id: //depot/dev/client3/rdock/2013.1/src/exe/rbdock.cxx#4 $)

>  <Rbt.Library>
libRbt.so (2013.1, Build901 2013/11/27)

>  <Rbt.Parameter_File>
/export/apps/rDock/src/rDock_2013.1_src/data/scripts/dock_solv.prm

>  <Rbt.Receptor>
prm/blind_docking_100.prm

>  <SCORE>
28.0172

>  <SCORE.INTER>
9.71046

>  <SCORE.INTER.CONST>
1

>  <SCORE.INTER.POLAR>
0

>  <SCORE.INTER.ROT>
6

>  <SCORE.INTER.SOLV>
29.032

>  <SCORE.INTER.VDW>
-10.8037

>  <SCORE.INTER.norm>
0.285602

>  <SCORE.INTRA>
6.87012

>  <SCORE.INTRA.DIHEDRAL>
-8.05393

>  <SCORE.INTRA.DIHEDRAL.0>
19.5869

>  <SCORE.INTRA.POLAR>
0

>  <SCORE.INTRA.POLAR.0>
0

>  <SCORE.INTRA.REPUL>
0

>  <SCORE.INTRA.REPUL.0>
0

>  <SCORE.INTRA.SOLV>
4.23994

>  <SCORE.INTRA.SOLV.lig_0>
-70.101

>  <SCORE.INTRA.VDW>
8.77711

>  <SCORE.INTRA.VDW.0>
-3.39718

>  <SCORE.INTRA.norm>
0.202062

>  <SCORE.RESTR>
11.4366

>  <SCORE.RESTR.CAVITY>
11.4366

>  <SCORE.RESTR.norm>
0.336372

>  <SCORE.SYSTEM>
0

>  <SCORE.SYSTEM.CONST>
0

>  <SCORE.SYSTEM.DIHEDRAL>
0

>  <SCORE.SYSTEM.SOLV>
0

>  <SCORE.SYSTEM.norm>
0

>  <SCORE.heavy>
34

>  <SCORE.norm>
0.824035

>  <RMSD>
5.338

$$$$
ligand
 OpenBabel11021811483D
libRbt.so/2013.1/901 2013/11/27
 34 36  0  0  0  0  0  0  0  0999 V2000
    6.7586    6.5254    5.6735 C   0  0  2  0  0  0  0  0  0  0  0  0
    6.7799    5.4931    4.6752 O   0  0  0  0  0  0  0  0  0  0  0  0
    8.2087    5.9867    0.6781 C   0  0  2  0  0  0  0  0  0  0  0  0
    8.2722    6.3240   -0.7397 N   0  0  0  0  0  0  0  0  0  0  0  0
    9.8061    8.2168    0.0569 C   0  0  2  0  0  0  0  0  0  0  0  0
    7.1087    5.8693    7.0568 C   0  0  2  0  0  0  0  0  0  0  0  0
    8.4474    5.2599    7.0318 N   0  0  0  0  0  0  0  0  0  0  0  0
    6.9641    5.0600    0.8832 C   0  0  0  0  0  0  0  0  0  0  0  0
   11.1317    7.3789    0.1460 C   0  0  2  0  0  0  0  0  0  0  0  0
   10.8299    6.0335    0.4771 O   0  0  0  0  0  0  0  0  0  0  0  0
    6.0498    4.7981    7.3968 C   0  0  1  0  0  0  0  0  0  0  0  0
    6.3597    4.1990    8.6656 O   0  0  0  0  0  0  0  0  0  0  0  0
    6.9085    4.6784    2.4012 C   0  0  2  0  0  0  0  0  0  0  0  0
    5.7458    3.8052    2.6604 N   0  0  0  0  0  0  0  0  0  0  0  0
   12.0706    8.0330    1.2324 C   0  0  1  0  0  0  0  0  0  0  0  0
   13.3425    7.2615    1.3671 N   0  0  0  0  0  0  0  0  0  0  0  0
    4.6529    5.4631    7.4075 C   0  0  2  0  0  0  0  0  0  0  0  0
    3.6540    4.4743    7.7125 O   0  0  0  0  0  0  0  0  0  0  0  0
    6.7929    5.9447    3.2877 C   0  0  2  0  0  0  0  0  0  0  0  0
   12.3724    9.5141    0.8192 C   0  0  1  0  0  0  0  0  0  0  0  0
   13.0532    9.5319   -0.4327 O   0  0  0  0  0  0  0  0  0  0  0  0
    4.3689    6.1187    6.0025 C   0  0  2  0  0  0  0  0  0  0  0  0
    5.4118    7.1164    5.6935 O   0  0  0  0  0  0  0  0  0  0  0  0
    8.0033    6.8731    3.0176 C   0  0  2  0  0  0  0  0  0  0  0  0
    7.8662    8.0358    3.8279 O   0  0  0  0  0  0  0  0  0  0  0  0
   11.0189   10.2805    0.6844 C   0  0  0  0  0  0  0  0  0  0  0  0
   10.1279    9.6076   -0.2911 O   0  0  0  0  0  0  0  0  0  0  0  0
    2.9887    6.8252    5.9612 C   0  0  2  0  0  0  0  0  0  0  0  0
    2.4086    6.8093    7.2629 O   0  0  0  0  0  0  0  0  0  0  0  0
    8.0549    7.3099    1.5350 C   0  0  1  0  0  0  0  0  0  0  0  0
    9.2151    8.1619    1.3854 O   0  0  0  0  0  0  0  0  0  0  0  0
    2.0306    6.1258    5.0111 C   0  0  0  0  0  0  0  0  0  0  0  0
   13.2582   10.2229    1.8365 C   0  0  0  0  0  0  0  0  0  0  0  0
   13.8845    7.0236    0.0155 C   0  0  0  0  0  0  0  0  0  0  0  0
  1  2  1  6  0  0  0
  1  6  1  0  0  0  0
  1 23  1  0  0  0  0
  3  4  1  6  0  0  0
  3  8  1  0  0  0  0
  3 30  1  0  0  0  0
  5  9  1  0  0  0  0
  5 27  1  0  0  0  0
  5 31  1  1  0  0  0
  6  7  1  6  0  0  0
  6 11  1  0  0  0  0
  8 13  1  0  0  0  0
  9 10  1  1  0  0  0
  9 15  1  0  0  0  0
 11 12  1  1  0  0  0
 11 17  1  0  0  0  0
 13 14  1  6  0  0  0
 13 19  1  0  0  0  0
 15 16  1  6  0  0  0
 15 20  1  0  0  0  0
 16 34  1  0  0  0  0
 17 18  1  6  0  0  0
 17 22  1  0  0  0  0
 19  2  1  1  0  0  0
 19 24  1  0  0  0  0
 20 21  1  6  0  0  0
 20 26  1  0  0  0  0
 20 33  1  0  0  0  0
 22 23  1  1  0  0  0
 22 28  1  0  0  0  0
 24 25  1  1  0  0  0
 24 30  1  0  0  0  0
 26 27  1  0  0  0  0
 28 29  1  1  0  0  0
 28 32  1  0  0  0  0
 30 31  1  1  0  0  0
M  END
>  <CHROM.1>
-166.00996533,176.37912206,48.34480502,6.14237835,37.96214504,-105.92076680
8.05033766,6.78749931,3.26448797,-2.43879897,-0.30804690,-1.48916546

>  <Name>
ligand

>  <RI>
0

>  <Rbt.Current_Directory>
/home/itssahil/PROJECTS/Mol_Feturizer/New_Systems/rnas/3TD1

>  <Rbt.Executable>
rbdock ($Id: //depot/dev/client3/rdock/2013.1/src/exe/rbdock.cxx#4 $)

>  <Rbt.Library>
libRbt.so (2013.1, Build901 2013/11/27)

>  <Rbt.Parameter_File>
/export/apps/rDock/src/rDock_2013.1_src/data/scripts/dock_solv.prm

>  <Rbt.Receptor>
prm/blind_docking_20.prm

>  <SCORE>
67.3578

>  <SCORE.INTER>
45.6806

>  <SCORE.INTER.CONST>
1

>  <SCORE.INTER.POLAR>
0

>  <SCORE.INTER.ROT>
6

>  <SCORE.INTER.SOLV>
22.9912

>  <SCORE.INTER.VDW>
15.19

>  <SCORE.INTER.norm>
1.34355

>  <SCORE.INTRA>
8.34922

>  <SCORE.INTRA.DIHEDRAL>
-4.81704

>  <SCORE.INTRA.DIHEDRAL.0>
19.5869

>  <SCORE.INTRA.POLAR>
0

>  <SCORE.INTRA.POLAR.0>
0

>  <SCORE.INTRA.REPUL>
0

>  <SCORE.INTRA.REPUL.0>
0

>  <SCORE.INTRA.SOLV>
0.149989

>  <SCORE.INTRA.SOLV.lig_0>
-70.101

>  <SCORE.INTRA.VDW>
10.6827

>  <SCORE.INTRA.VDW.0>
-3.39718

>  <SCORE.INTRA.norm>
0.245565

>  <SCORE.RESTR>
13.328

>  <SCORE.RESTR.CAVITY>
13.328

>  <SCORE.RESTR.norm>
0.391999

>  <SCORE.SYSTEM>
0

>  <SCORE.SYSTEM.CONST>
0

>  <SCORE.SYSTEM.DIHEDRAL>
0

>  <SCORE.SYSTEM.SOLV>
0

>  <SCORE.SYSTEM.norm>
0

>  <SCORE.heavy>
34

>  <SCORE.norm>
1.98111

>  <RMSD>
5.356

$$$$
ligand
 OpenBabel11021811483D
libRbt.so/2013.1/901 2013/11/27
 34 36  0  0  0  0  0  0  0  0999 V2000
    9.5378    6.5736    3.8165 C   0  0  2  0  0  0  0  0  0  0  0  0
    9.8370    7.8823    4.3267 O   0  0  0  0  0  0  0  0  0  0  0  0
   13.8304    6.8764    5.4680 C   0  0  2  0  0  0  0  0  0  0  0  0
   15.2283    6.9913    5.8691 N   0  0  0  0  0  0  0  0  0  0  0  0
   14.2490    6.8550    8.5874 C   0  0  2  0  0  0  0  0  0  0  0  0
    8.1194    6.6277    3.1446 C   0  0  2  0  0  0  0  0  0  0  0  0
    8.0958    7.5887    2.0309 N   0  0  0  0  0  0  0  0  0  0  0  0
   13.6504    7.7099    4.1555 C   0  0  0  0  0  0  0  0  0  0  0  0
   14.1961    5.7962    9.7464 C   0  0  2  0  0  0  0  0  0  0  0  0
   14.1730    4.4870    9.2020 O   0  0  0  0  0  0  0  0  0  0  0  0
    7.0673    7.0240    4.2031 C   0  0  1  0  0  0  0  0  0  0  0  0
    5.7654    7.0677    3.5967 O   0  0  0  0  0  0  0  0  0  0  0  0
   12.1552    7.5681    3.7112 C   0  0  2  0  0  0  0  0  0  0  0  0
   11.9200    8.3415    2.4751 N   0  0  0  0  0  0  0  0  0  0  0  0
   12.9119    6.0689   10.6215 C   0  0  1  0  0  0  0  0  0  0  0  0
   12.8068    5.0753   11.7319 N   0  0  0  0  0  0  0  0  0  0  0  0
    7.1199    6.0037    5.3650 C   0  0  2  0  0  0  0  0  0  0  0  0
    6.1517    6.3662    6.3649 O   0  0  0  0  0  0  0  0  0  0  0  0
   11.1971    8.0832    4.8156 C   0  0  2  0  0  0  0  0  0  0  0  0
   12.9879    7.5242   11.1974 C   0  0  1  0  0  0  0  0  0  0  0  0
   14.1359    7.6483   12.0328 O   0  0  0  0  0  0  0  0  0  0  0  0
    8.5695    5.9811    5.9835 C   0  0  2  0  0  0  0  0  0  0  0  0
    9.5544    5.6274    4.9427 O   0  0  0  0  0  0  0  0  0  0  0  0
   11.4412    7.2848    6.1206 C   0  0  2  0  0  0  0  0  0  0  0  0
   10.5645    7.7868    7.1240 O   0  0  0  0  0  0  0  0  0  0  0  0
   13.1024    8.5270   10.0063 C   0  0  0  0  0  0  0  0  0  0  0  0
   14.2776    8.2077    9.1605 O   0  0  0  0  0  0  0  0  0  0  0  0
    8.6901    4.9546    7.1400 C   0  0  2  0  0  0  0  0  0  0  0  0
    7.8842    5.3785    8.2364 O   0  0  0  0  0  0  0  0  0  0  0  0
   12.8979    7.4481    6.6135 C   0  0  1  0  0  0  0  0  0  0  0  0
   13.0248    6.6655    7.8241 O   0  0  0  0  0  0  0  0  0  0  0  0
   10.1232    4.8303    7.6304 C   0  0  0  0  0  0  0  0  0  0  0  0
   11.7654    7.8716   12.0380 C   0  0  0  0  0  0  0  0  0  0  0  0
   11.7316    4.1213   11.3987 C   0  0  0  0  0  0  0  0  0  0  0  0
  1  2  1  1  0  0  0
  1  6  1  0  0  0  0
  1 23  1  0  0  0  0
  3  4  1  1  0  0  0
  3  8  1  0  0  0  0
  3 30  1  0  0  0  0
  5  9  1  0  0  0  0
  5 27  1  0  0  0  0
  5 31  1  6  0  0  0
  6  7  1  6  0  0  0
  6 11  1  0  0  0  0
  8 13  1  0  0  0  0
  9 10  1  6  0  0  0
  9 15  1  0  0  0  0
 11 12  1  6  0  0  0
 11 17  1  0  0  0  0
 13 14  1  6  0  0  0
 13 19  1  0  0  0  0
 15 16  1  1  0  0  0
 15 20  1  0  0  0  0
 16 34  1  0  0  0  0
 17 18  1  1  0  0  0
 17 22  1  0  0  0  0
 19  2  1  6  0  0  0
 19 24  1  0  0  0  0
 20 21  1  1  0  0  0
 20 26  1  0  0  0  0
 20 33  1  0  0  0  0
 22 23  1  6  0  0  0
 22 28  1  0  0  0  0
 24 25  1  1  0  0  0
 24 30  1  0  0  0  0
 26 27  1  0  0  0  0
 28 29  1  1  0  0  0
 28 32  1  0  0  0  0
 30 31  1  1  0  0  0
M  END
>  <CHROM.1>
-171.35225030,49.78562337,-106.01364222,-66.64969547,74.25270017,-174.27914572
11.11633531,6.72181677,7.00334105,-2.28398677,0.23136673,1.81324009

>  <Name>
ligand

>  <RI>
0

>  <Rbt.Current_Directory>
/home/itssahil/PROJECTS/Mol_Feturizer/New_Systems/rnas/3TD1

>  <Rbt.Executable>
rbdock ($Id: //depot/dev/client3/rdock/2013.1/src/exe/rbdock.cxx#4 $)

>  <Rbt.Library>
libRbt.so (2013.1, Build901 2013/11/27)

>  <Rbt.Parameter_File>
/export/apps/rDock/src/rDock_2013.1_src/data/scripts/dock_solv.prm

>  <Rbt.Receptor>
prm/pocket_docking_5.prm

>  <SCORE>
-8.68741

>  <SCORE.INTER>
-1.28182

>  <SCORE.INTER.CONST>
1

>  <SCORE.INTER.POLAR>
0

>  <SCORE.INTER.ROT>
6

>  <SCORE.INTER.SOLV>
11.0042

>  <SCORE.INTER.VDW>
-12.1226

>  <SCORE.INTER.norm>
-0.0377007

>  <SCORE.INTRA>
-7.40558

>  <SCORE.INTRA.DIHEDRAL>
-16.3445

>  <SCORE.INTRA.DIHEDRAL.0>
19.5869

>  <SCORE.INTRA.POLAR>
0

>  <SCORE.INTRA.POLAR.0>
0

>  <SCORE.INTRA.REPUL>
0

>  <SCORE.INTRA.REPUL.0>
0

>  <SCORE.INTRA.SOLV>
-0.29618

>  <SCORE.INTRA.SOLV.lig_0>
-70.101

>  <SCORE.INTRA.VDW>
0.914743

>  <SCORE.INTRA.VDW.0>
-3.39718

>  <SCORE.INTRA.norm>
-0.217811

>  <SCORE.RESTR>
0

>  <SCORE.RESTR.CAVITY>
0

>  <SCORE.RESTR.norm>
0

>  <SCORE.SYSTEM>
0

>  <SCORE.SYSTEM.CONST>
0

>  <SCORE.SYSTEM.DIHEDRAL>
0

>  <SCORE.SYSTEM.SOLV>
0

>  <SCORE.SYSTEM.norm>
0

>  <SCORE.heavy>
34

>  <SCORE.norm>
-0.255512

>  <RMSD>
5.366

$$$$
ligand
 OpenBabel11021811483D
libRbt.so/2013.1/901 2013/11/27
 34 36  0  0  0  0  0  0  0  0999 V2000
    9.0481    3.4820    7.7329 C   0  0  2  0  0  0  0  0  0  0  0  0
    8.8869    4.8826    8.0061 O   0  0  0  0  0  0  0  0  0  0  0  0
   11.2644    8.2723    6.9481 C   0  0  2  0  0  0  0  0  0  0  0  0
   12.3874    9.1961    6.8317 N   0  0  0  0  0  0  0  0  0  0  0  0
   13.1045    7.6158    4.3765 C   0  0  2  0  0  0  0  0  0  0  0  0
    7.6685    2.9239    7.2312 C   0  0  2  0  0  0  0  0  0  0  0  0
    7.2379    3.6021    5.9987 N   0  0  0  0  0  0  0  0  0  0  0  0
   11.0286    8.0124    8.4734 C   0  0  0  0  0  0  0  0  0  0  0  0
   13.0447    7.7247    2.8107 C   0  0  2  0  0  0  0  0  0  0  0  0
   12.0508    8.6619    2.4306 O   0  0  0  0  0  0  0  0  0  0  0  0
    6.6070    3.1173    8.3358 C   0  0  1  0  0  0  0  0  0  0  0  0
    5.3434    2.6015    7.8863 O   0  0  0  0  0  0  0  0  0  0  0  0
    9.8083    7.0389    8.6002 C   0  0  2  0  0  0  0  0  0  0  0  0
    9.5389    6.7492   10.0233 N   0  0  0  0  0  0  0  0  0  0  0  0
   12.7337    6.2965    2.2167 C   0  0  1  0  0  0  0  0  0  0  0  0
   12.6506    6.3493    0.7261 N   0  0  0  0  0  0  0  0  0  0  0  0
    7.0885    2.4031    9.6210 C   0  0  2  0  0  0  0  0  0  0  0  0
    6.1139    2.5837   10.6631 O   0  0  0  0  0  0  0  0  0  0  0  0
   10.0832    5.7052    7.8597 C   0  0  2  0  0  0  0  0  0  0  0  0
   13.8590    5.3024    2.6651 C   0  0  1  0  0  0  0  0  0  0  0  0
   15.1148    5.7390    2.1519 O   0  0  0  0  0  0  0  0  0  0  0  0
    8.4828    2.9914   10.0618 C   0  0  2  0  0  0  0  0  0  0  0  0
    9.4674    2.8173    8.9763 O   0  0  0  0  0  0  0  0  0  0  0  0
   10.3763    5.9976    6.3668 C   0  0  2  0  0  0  0  0  0  0  0  0
   10.6434    4.7618    5.7119 O   0  0  0  0  0  0  0  0  0  0  0  0
   13.9149    5.2826    4.2252 C   0  0  0  0  0  0  0  0  0  0  0  0
   14.1397    6.6466    4.7612 O   0  0  0  0  0  0  0  0  0  0  0  0
    9.0296    2.2938   11.3347 C   0  0  2  0  0  0  0  0  0  0  0  0
    8.1235    2.5005   12.4153 O   0  0  0  0  0  0  0  0  0  0  0  0
   11.6103    6.9158    6.2072 C   0  0  1  0  0  0  0  0  0  0  0  0
   11.7951    7.1328    4.7884 O   0  0  0  0  0  0  0  0  0  0  0  0
   10.3824    2.8539   11.7420 C   0  0  0  0  0  0  0  0  0  0  0  0
   13.6146    3.8902    2.1476 C   0  0  0  0  0  0  0  0  0  0  0  0
   11.2624    6.0453    0.3292 C   0  0  0  0  0  0  0  0  0  0  0  0
  1  2  1  1  0  0  0
  1  6  1  0  0  0  0
  1 23  1  0  0  0  0
  3  4  1  1  0  0  0
  3  8  1  0  0  0  0
  3 30  1  0  0  0  0
  5  9  1  0  0  0  0
  5 27  1  0  0  0  0
  5 31  1  6  0  0  0
  6  7  1  6  0  0  0
  6 11  1  0  0  0  0
  8 13  1  0  0  0  0
  9 10  1  1  0  0  0
  9 15  1  0  0  0  0
 11 12  1  6  0  0  0
 11 17  1  0  0  0  0
 13 14  1  1  0  0  0
 13 19  1  0  0  0  0
 15 16  1  6  0  0  0
 15 20  1  0  0  0  0
 16 34  1  0  0  0  0
 17 18  1  1  0  0  0
 17 22  1  0  0  0  0
 19  2  1  6  0  0  0
 19 24  1  0  0  0  0
 20 21  1  6  0  0  0
 20 26  1  0  0  0  0
 20 33  1  0  0  0  0
 22 23  1  6  0  0  0
 22 28  1  0  0  0  0
 24 25  1  6  0  0  0
 24 30  1  0  0  0  0
 26 27  1  0  0  0  0
 28 29  1  1  0  0  0
 28 32  1  0  0  0  0
 30 31  1  6  0  0  0
M  END
>  <CHROM.1>
-151.76226632,-162.99769250,-114.06865248,-61.26917483,82.19383842,178.48757894
10.50964745,5.22467905,6.48837284,2.51737025,0.82804924,1.23285350

>  <Name>
ligand

>  <RI>
0

>  <Rbt.Current_Directory>
/home/itssahil/PROJECTS/Mol_Feturizer/New_Systems/rnas/3TD1

>  <Rbt.Executable>
rbdock ($Id: //depot/dev/client3/rdock/2013.1/src/exe/rbdock.cxx#4 $)

>  <Rbt.Library>
libRbt.so (2013.1, Build901 2013/11/27)

>  <Rbt.Parameter_File>
/export/apps/rDock/src/rDock_2013.1_src/data/scripts/dock_solv.prm

>  <Rbt.Receptor>
prm/pocket_docking_8.prm

>  <SCORE>
-10.3481

>  <SCORE.INTER>
-3.93778

>  <SCORE.INTER.CONST>
1

>  <SCORE.INTER.POLAR>
0

>  <SCORE.INTER.ROT>
6

>  <SCORE.INTER.SOLV>
12.9149

>  <SCORE.INTER.VDW>
-14.5302

>  <SCORE.INTER.norm>
-0.115817

>  <SCORE.INTRA>
-6.41027

>  <SCORE.INTRA.DIHEDRAL>
-11.5875

>  <SCORE.INTRA.DIHEDRAL.0>
19.5869

>  <SCORE.INTRA.POLAR>
0

>  <SCORE.INTRA.POLAR.0>
0

>  <SCORE.INTRA.REPUL>
0

>  <SCORE.INTRA.REPUL.0>
0

>  <SCORE.INTRA.SOLV>
-1.01682

>  <SCORE.INTRA.SOLV.lig_0>
-70.101

>  <SCORE.INTRA.VDW>
-0.108133

>  <SCORE.INTRA.VDW.0>
-3.39718

>  <SCORE.INTRA.norm>
-0.188537

>  <SCORE.RESTR>
0

>  <SCORE.RESTR.CAVITY>
0

>  <SCORE.RESTR.norm>
0

>  <SCORE.SYSTEM>
0

>  <SCORE.SYSTEM.CONST>
0

>  <SCORE.SYSTEM.DIHEDRAL>
0

>  <SCORE.SYSTEM.SOLV>
0

>  <SCORE.SYSTEM.norm>
0

>  <SCORE.heavy>
34

>  <SCORE.norm>
-0.304355

>  <RMSD>
5.371

$$$$
ligand
 OpenBabel11021811483D
libRbt.so/2013.1/901 2013/11/27
 34 36  0  0  0  0  0  0  0  0999 V2000
   10.6425    3.4876   10.1360 C   0  0  2  0  0  0  0  0  0  0  0  0
    9.7632    2.7607    9.2636 O   0  0  0  0  0  0  0  0  0  0  0  0
    8.2173    3.6833    5.3880 C   0  0  2  0  0  0  0  0  0  0  0  0
    7.5145    4.3530    4.2991 N   0  0  0  0  0  0  0  0  0  0  0  0
   10.0688    5.8316    3.8809 C   0  0  2  0  0  0  0  0  0  0  0  0
   11.2874    2.4638   11.1372 C   0  0  2  0  0  0  0  0  0  0  0  0
   12.0662    1.4407   10.4223 N   0  0  0  0  0  0  0  0  0  0  0  0
    7.1781    3.4323    6.5311 C   0  0  0  0  0  0  0  0  0  0  0  0
   11.2305    5.7694    2.8256 C   0  0  2  0  0  0  0  0  0  0  0  0
   11.2546    4.4921    2.2102 O   0  0  0  0  0  0  0  0  0  0  0  0
   10.1733    1.7909   11.9682 C   0  0  1  0  0  0  0  0  0  0  0  0
   10.7572    0.8583   12.8923 O   0  0  0  0  0  0  0  0  0  0  0  0
    7.9264    2.6925    7.6912 C   0  0  2  0  0  0  0  0  0  0  0  0
    6.9952    2.4319    8.8077 N   0  0  0  0  0  0  0  0  0  0  0  0
   12.5949    6.0714    3.5581 C   0  0  1  0  0  0  0  0  0  0  0  0
   13.7371    6.0087    2.5975 N   0  0  0  0  0  0  0  0  0  0  0  0
    9.3657    2.8883   12.7011 C   0  0  2  0  0  0  0  0  0  0  0  0
    8.3165    2.2768   13.4716 O   0  0  0  0  0  0  0  0  0  0  0  0
    9.1136    3.5403    8.2150 C   0  0  2  0  0  0  0  0  0  0  0  0
   12.5152    7.4903    4.2184 C   0  0  1  0  0  0  0  0  0  0  0  0
   12.3189    8.4770    3.2089 O   0  0  0  0  0  0  0  0  0  0  0  0
    8.7621    3.8931   11.6472 C   0  0  2  0  0  0  0  0  0  0  0  0
    9.8475    4.4979   10.8507 O   0  0  0  0  0  0  0  0  0  0  0  0
   10.0931    3.8278    7.0497 C   0  0  2  0  0  0  0  0  0  0  0  0
   11.1641    4.6218    7.5497 O   0  0  0  0  0  0  0  0  0  0  0  0
   11.3076    7.5133    5.2077 C   0  0  0  0  0  0  0  0  0  0  0  0
   10.0483    7.1594    4.5096 O   0  0  0  0  0  0  0  0  0  0  0  0
    7.9605    5.0337   12.3272 C   0  0  2  0  0  0  0  0  0  0  0  0
    7.4259    5.8985   11.3285 O   0  0  0  0  0  0  0  0  0  0  0  0
    9.3950    4.6050    5.9095 C   0  0  1  0  0  0  0  0  0  0  0  0
   10.3844    4.8169    4.8749 O   0  0  0  0  0  0  0  0  0  0  0  0
    8.8404    5.8645   13.2465 C   0  0  0  0  0  0  0  0  0  0  0  0
   13.7931    7.8451    4.9685 C   0  0  0  0  0  0  0  0  0  0  0  0
   14.2644    4.6306    2.5953 C   0  0  0  0  0  0  0  0  0  0  0  0
  1  2  1  6  0  0  0
  1  6  1  0  0  0  0
  1 23  1  0  0  0  0
  3  4  1  6  0  0  0
  3  8  1  0  0  0  0
  3 30  1  0  0  0  0
  5  9  1  0  0  0  0
  5 27  1  0  0  0  0
  5 31  1  1  0  0  0
  6  7  1  6  0  0  0
  6 11  1  0  0  0  0
  8 13  1  0  0  0  0
  9 10  1  1  0  0  0
  9 15  1  0  0  0  0
 11 12  1  1  0  0  0
 11 17  1  0  0  0  0
 13 14  1  1  0  0  0
 13 19  1  0  0  0  0
 15 16  1  6  0  0  0
 15 20  1  0  0  0  0
 16 34  1  0  0  0  0
 17 18  1  6  0  0  0
 17 22  1  0  0  0  0
 19  2  1  1  0  0  0
 19 24  1  0  0  0  0
 20 21  1  6  0  0  0
 20 26  1  0  0  0  0
 20 33  1  0  0  0  0
 22 23  1  1  0  0  0
 22 28  1  0  0  0  0
 24 25  1  1  0  0  0
 24 30  1  0  0  0  0
 26 27  1  0  0  0  0
 28 29  1  6  0  0  0
 28 32  1  0  0  0  0
 30 31  1  6  0  0  0
M  END
>  <CHROM.1>
-177.25532933,-163.25287756,-91.18626003,-179.26715157,80.45782048,-175.25172662
10.19918344,4.50076345,7.58391931,-1.87193130,-0.24518109,-1.29105054

>  <Name>
ligand

>  <RI>
0

>  <Rbt.Current_Directory>
/home/itssahil/PROJECTS/Mol_Feturizer/New_Systems/rnas/3TD1

>  <Rbt.Executable>
rbdock ($Id: //depot/dev/client3/rdock/2013.1/src/exe/rbdock.cxx#4 $)

>  <Rbt.Library>
libRbt.so (2013.1, Build901 2013/11/27)

>  <Rbt.Parameter_File>
/export/apps/rDock/src/rDock_2013.1_src/data/scripts/dock_solv.prm

>  <Rbt.Receptor>
prm/pocket_docking_7.prm

>  <SCORE>
-8.83671

>  <SCORE.INTER>
-0.702897

>  <SCORE.INTER.CONST>
1

>  <SCORE.INTER.POLAR>
0

>  <SCORE.INTER.ROT>
6

>  <SCORE.INTER.SOLV>
10.9604

>  <SCORE.INTER.VDW>
-11.7221

>  <SCORE.INTER.norm>
-0.0206734

>  <SCORE.INTRA>
-8.13381

>  <SCORE.INTRA.DIHEDRAL>
-15.5818

>  <SCORE.INTRA.DIHEDRAL.0>
19.5869

>  <SCORE.INTRA.POLAR>
0

>  <SCORE.INTRA.POLAR.0>
0

>  <SCORE.INTRA.REPUL>
0

>  <SCORE.INTRA.REPUL.0>
0

>  <SCORE.INTRA.SOLV>
-2.0369

>  <SCORE.INTRA.SOLV.lig_0>
-70.101

>  <SCORE.INTRA.VDW>
0.675517

>  <SCORE.INTRA.VDW.0>
-3.39718

>  <SCORE.INTRA.norm>
-0.23923

>  <SCORE.RESTR>
0

>  <SCORE.RESTR.CAVITY>
0

>  <SCORE.RESTR.norm>
0

>  <SCORE.SYSTEM>
0

>  <SCORE.SYSTEM.CONST>
0

>  <SCORE.SYSTEM.DIHEDRAL>
0

>  <SCORE.SYSTEM.SOLV>
0

>  <SCORE.SYSTEM.norm>
0

>  <SCORE.heavy>
34

>  <SCORE.norm>
-0.259903

>  <RMSD>
5.454

$$$$
ligand
 OpenBabel11021811483D
libRbt.so/2013.1/901 2013/11/27
 34 36  0  0  0  0  0  0  0  0999 V2000
    8.8756    4.9735    8.4820 C   0  0  2  0  0  0  0  0  0  0  0  0
   10.2429    4.8338    8.8987 O   0  0  0  0  0  0  0  0  0  0  0  0
   11.5284    8.4413    7.0028 C   0  0  2  0  0  0  0  0  0  0  0  0
   12.3630    9.5508    6.5549 N   0  0  0  0  0  0  0  0  0  0  0  0
   12.9866    7.7985    4.1955 C   0  0  2  0  0  0  0  0  0  0  0  0
    7.9725    4.2167    9.5204 C   0  0  2  0  0  0  0  0  0  0  0  0
    8.1195    4.7885   10.8679 N   0  0  0  0  0  0  0  0  0  0  0  0
   11.6334    8.3770    8.5631 C   0  0  0  0  0  0  0  0  0  0  0  0
   12.5806    7.7288    2.6798 C   0  0  2  0  0  0  0  0  0  0  0  0
   11.3546    8.4120    2.4775 O   0  0  0  0  0  0  0  0  0  0  0  0
    8.3582    2.7216    9.5390 C   0  0  1  0  0  0  0  0  0  0  0  0
    7.5301    2.0213   10.4816 O   0  0  0  0  0  0  0  0  0  0  0  0
   10.7193    7.2008    9.0466 C   0  0  2  0  0  0  0  0  0  0  0  0
   10.7811    7.0848   10.5178 N   0  0  0  0  0  0  0  0  0  0  0  0
   12.4611    6.2132    2.2580 C   0  0  1  0  0  0  0  0  0  0  0  0
   12.0603    6.0923    0.8241 N   0  0  0  0  0  0  0  0  0  0  0  0
    8.2036    2.1487    8.1102 C   0  0  2  0  0  0  0  0  0  0  0  0
    8.5700    0.7579    8.1095 O   0  0  0  0  0  0  0  0  0  0  0  0
   11.1662    5.8563    8.4178 C   0  0  2  0  0  0  0  0  0  0  0  0
   13.8389    5.5070    2.5004 C   0  0  1  0  0  0  0  0  0  0  0  0
   14.8394    6.1210    1.6923 O   0  0  0  0  0  0  0  0  0  0  0  0
    9.1165    2.9600    7.1137 C   0  0  2  0  0  0  0  0  0  0  0  0
    8.7432    4.3876    7.1393 O   0  0  0  0  0  0  0  0  0  0  0  0
   11.1140    5.9690    6.8736 C   0  0  2  0  0  0  0  0  0  0  0  0
   11.5454    4.7307    6.3188 O   0  0  0  0  0  0  0  0  0  0  0  0
   14.2211    5.6622    4.0061 C   0  0  0  0  0  0  0  0  0  0  0  0
   14.2598    7.0925    4.3948 O   0  0  0  0  0  0  0  0  0  0  0  0
    8.9834    2.4456    5.6565 C   0  0  2  0  0  0  0  0  0  0  0  0
    9.9035    3.1435    4.8212 O   0  0  0  0  0  0  0  0  0  0  0  0
   12.0484    7.0897    6.3614 C   0  0  1  0  0  0  0  0  0  0  0  0
   11.9237    7.1183    4.9199 O   0  0  0  0  0  0  0  0  0  0  0  0
    7.5845    2.6741    5.1084 C   0  0  0  0  0  0  0  0  0  0  0  0
   13.7955    4.0278    2.1372 C   0  0  0  0  0  0  0  0  0  0  0  0
   10.6329    5.7226    0.7724 C   0  0  0  0  0  0  0  0  0  0  0  0
  1  2  1  1  0  0  0
  1  6  1  0  0  0  0
  1 23  1  0  0  0  0
  3  4  1  6  0  0  0
  3  8  1  0  0  0  0
  3 30  1  0  0  0  0
  5  9  1  0  0  0  0
  5 27  1  0  0  0  0
  5 31  1  1  0  0  0
  6  7  1  1  0  0  0
  6 11  1  0  0  0  0
  8 13  1  0  0  0  0
  9 10  1  1  0  0  0
  9 15  1  0  0  0  0
 11 12  1  1  0  0  0
 11 17  1  0  0  0  0
 13 14  1  1  0  0  0
 13 19  1  0  0  0  0
 15 16  1  6  0  0  0
 15 20  1  0  0  0  0
 16 34  1  0  0  0  0
 17 18  1  1  0  0  0
 17 22  1  0  0  0  0
 19  2  1  1  0  0  0
 19 24  1  0  0  0  0
 20 21  1  6  0  0  0
 20 26  1  0  0  0  0
 20 33  1  0  0  0  0
 22 23  1  6  0  0  0
 22 28  1  0  0  0  0
 24 25  1  6  0  0  0
 24 30  1  0  0  0  0
 26 27  1  0  0  0  0
 28 29  1  6  0  0  0
 28 32  1  0  0  0  0
 30 31  1  6  0  0  0
M  END
>  <CHROM.1>
-156.52187051,64.57876372,-103.82665247,-175.55490511,82.04902247,-177.95353651
10.88374243,5.37695095,6.03562812,-2.67537017,-0.93604594,-2.12031084

>  <Name>
ligand

>  <RI>
0

>  <Rbt.Current_Directory>
/home/itssahil/PROJECTS/Mol_Feturizer/New_Systems/rnas/3TD1

>  <Rbt.Executable>
rbdock ($Id: //depot/dev/client3/rdock/2013.1/src/exe/rbdock.cxx#4 $)

>  <Rbt.Library>
libRbt.so (2013.1, Build901 2013/11/27)

>  <Rbt.Parameter_File>
/export/apps/rDock/src/rDock_2013.1_src/data/scripts/dock_solv.prm

>  <Rbt.Receptor>
prm/pocket_docking_8.prm

>  <SCORE>
-10.8896

>  <SCORE.INTER>
-4.4948

>  <SCORE.INTER.CONST>
1

>  <SCORE.INTER.POLAR>
0

>  <SCORE.INTER.ROT>
6

>  <SCORE.INTER.SOLV>
12.7441

>  <SCORE.INTER.VDW>
-14.8446

>  <SCORE.INTER.norm>
-0.1322

>  <SCORE.INTRA>
-6.39481

>  <SCORE.INTRA.DIHEDRAL>
-13.8092

>  <SCORE.INTRA.DIHEDRAL.0>
19.5869

>  <SCORE.INTRA.POLAR>
0

>  <SCORE.INTRA.POLAR.0>
0

>  <SCORE.INTRA.REPUL>
0

>  <SCORE.INTRA.REPUL.0>
0

>  <SCORE.INTRA.SOLV>
-0.0461958

>  <SCORE.INTRA.SOLV.lig_0>
-70.101

>  <SCORE.INTRA.VDW>
0.532896

>  <SCORE.INTRA.VDW.0>
-3.39718

>  <SCORE.INTRA.norm>
-0.188083

>  <SCORE.RESTR>
0

>  <SCORE.RESTR.CAVITY>
0

>  <SCORE.RESTR.norm>
0

>  <SCORE.SYSTEM>
0

>  <SCORE.SYSTEM.CONST>
0

>  <SCORE.SYSTEM.DIHEDRAL>
0

>  <SCORE.SYSTEM.SOLV>
0

>  <SCORE.SYSTEM.norm>
0

>  <SCORE.heavy>
34

>  <SCORE.norm>
-0.320282

>  <RMSD>
5.458

$$$$
ligand
 OpenBabel11021811483D
libRbt.so/2013.1/901 2013/11/27
 34 36  0  0  0  0  0  0  0  0999 V2000
    3.1407    5.7402    5.6257 C   0  0  2  0  0  0  0  0  0  0  0  0
    4.2045    6.7047    5.6491 O   0  0  0  0  0  0  0  0  0  0  0  0
    8.4660    6.4803    5.4227 C   0  0  2  0  0  0  0  0  0  0  0  0
    9.8157    6.0181    5.1182 N   0  0  0  0  0  0  0  0  0  0  0  0
    8.3169    7.9318    1.9503 C   0  0  2  0  0  0  0  0  0  0  0  0
    1.7966    6.5072    5.3583 C   0  0  2  0  0  0  0  0  0  0  0  0
    1.8327    7.2064    4.0644 N   0  0  0  0  0  0  0  0  0  0  0  0
    7.7266    5.3132    6.1581 C   0  0  0  0  0  0  0  0  0  0  0  0
    9.3919    6.8769    1.5047 C   0  0  2  0  0  0  0  0  0  0  0  0
    9.0477    5.5965    2.0076 O   0  0  0  0  0  0  0  0  0  0  0  0
    1.5516    7.5211    6.4969 C   0  0  1  0  0  0  0  0  0  0  0  0
    0.3188    8.2212    6.2626 O   0  0  0  0  0  0  0  0  0  0  0  0
    6.2850    5.8167    6.5061 C   0  0  2  0  0  0  0  0  0  0  0  0
    5.5317    4.7522    7.1997 N   0  0  0  0  0  0  0  0  0  0  0  0
   10.8028    7.3360    2.0412 C   0  0  1  0  0  0  0  0  0  0  0  0
   11.8610    6.3546    1.6560 N   0  0  0  0  0  0  0  0  0  0  0  0
    1.5273    6.7615    7.8445 C   0  0  2  0  0  0  0  0  0  0  0  0
    1.3104    7.6952    8.9168 O   0  0  0  0  0  0  0  0  0  0  0  0
    5.5146    6.2230    5.2239 C   0  0  2  0  0  0  0  0  0  0  0  0
   11.1337    8.7518    1.4568 C   0  0  1  0  0  0  0  0  0  0  0  0
   11.1952    8.6796    0.0348 O   0  0  0  0  0  0  0  0  0  0  0  0
    2.8916    5.9980    8.0456 C   0  0  2  0  0  0  0  0  0  0  0  0
    3.1109    5.0584    6.9288 O   0  0  0  0  0  0  0  0  0  0  0  0
    6.3004    7.3336    4.4828 C   0  0  2  0  0  0  0  0  0  0  0  0
    5.5844    7.6771    3.3010 O   0  0  0  0  0  0  0  0  0  0  0  0
   10.0024    9.7422    1.8773 C   0  0  0  0  0  0  0  0  0  0  0  0
    8.6788    9.2539    1.4210 O   0  0  0  0  0  0  0  0  0  0  0  0
    2.9160    5.1950    9.3724 C   0  0  2  0  0  0  0  0  0  0  0  0
    4.2373    4.7185    9.6142 O   0  0  0  0  0  0  0  0  0  0  0  0
    7.7119    6.8474    4.0791 C   0  0  1  0  0  0  0  0  0  0  0  0
    8.3620    7.9504    3.4045 O   0  0  0  0  0  0  0  0  0  0  0  0
    1.9862    3.9943    9.3166 C   0  0  0  0  0  0  0  0  0  0  0  0
   12.4766    9.2754    1.9510 C   0  0  0  0  0  0  0  0  0  0  0  0
   11.6591    5.9882    0.2411 C   0  0  0  0  0  0  0  0  0  0  0  0
  1  2  1  1  0  0  0
  1  6  1  0  0  0  0
  1 23  1  0  0  0  0
  3  4  1  6  0  0  0
  3  8  1  0  0  0  0
  3 30  1  0  0  0  0
  5  9  1  0  0  0  0
  5 27  1  0  0  0  0
  5 31  1  1  0  0  0
  6  7  1  6  0  0  0
  6 11  1  0  0  0  0
  8 13  1  0  0  0  0
  9 10  1  1  0  0  0
  9 15  1  0  0  0  0
 11 12  1  6  0  0  0
 11 17  1  0  0  0  0
 13 14  1  6  0  0  0
 13 19  1  0  0  0  0
 15 16  1  6  0  0  0
 15 20  1  0  0  0  0
 16 34  1  0  0  0  0
 17 18  1  1  0  0  0
 17 22  1  0  0  0  0
 19  2  1  1  0  0  0
 19 24  1  0  0  0  0
 20 21  1  6  0  0  0
 20 26  1  0  0  0  0
 20 33  1  0  0  0  0
 22 23  1  6  0  0  0
 22 28  1  0  0  0  0
 24 25  1  6  0  0  0
 24 30  1  0  0  0  0
 26 27  1  0  0  0  0
 28 29  1  6  0  0  0
 28 32  1  0  0  0  0
 30 31  1  1  0  0  0
M  END
>  <CHROM.1>
-150.58295064,-95.18318855,44.62979118,-170.07982374,146.86556721,-77.15173718
6.36274863,6.81889749,4.71464090,2.55214045,-0.27878416,2.22891732

>  <Name>
ligand

>  <RI>
0

>  <Rbt.Current_Directory>
/home/itssahil/PROJECTS/Mol_Feturizer/New_Systems/rnas/3TD1

>  <Rbt.Executable>
rbdock ($Id: //depot/dev/client3/rdock/2013.1/src/exe/rbdock.cxx#4 $)

>  <Rbt.Library>
libRbt.so (2013.1, Build901 2013/11/27)

>  <Rbt.Parameter_File>
/export/apps/rDock/src/rDock_2013.1_src/data/scripts/dock_solv.prm

>  <Rbt.Receptor>
prm/blind_docking_100.prm

>  <SCORE>
30.2806

>  <SCORE.INTER>
12.6667

>  <SCORE.INTER.CONST>
1

>  <SCORE.INTER.POLAR>
0

>  <SCORE.INTER.ROT>
6

>  <SCORE.INTER.SOLV>
21.6927

>  <SCORE.INTER.VDW>
-6.38641

>  <SCORE.INTER.norm>
0.372551

>  <SCORE.INTRA>
5.40236

>  <SCORE.INTRA.DIHEDRAL>
-5.4343

>  <SCORE.INTRA.DIHEDRAL.0>
19.5869

>  <SCORE.INTRA.POLAR>
0

>  <SCORE.INTRA.POLAR.0>
0

>  <SCORE.INTRA.REPUL>
0

>  <SCORE.INTRA.REPUL.0>
0

>  <SCORE.INTRA.SOLV>
3.55163

>  <SCORE.INTRA.SOLV.lig_0>
-70.101

>  <SCORE.INTRA.VDW>
6.34369

>  <SCORE.INTRA.VDW.0>
-3.39718

>  <SCORE.INTRA.norm>
0.158893

>  <SCORE.RESTR>
12.2115

>  <SCORE.RESTR.CAVITY>
12.2115

>  <SCORE.RESTR.norm>
0.359163

>  <SCORE.SYSTEM>
0

>  <SCORE.SYSTEM.CONST>
0

>  <SCORE.SYSTEM.DIHEDRAL>
0

>  <SCORE.SYSTEM.SOLV>
0

>  <SCORE.SYSTEM.norm>
0

>  <SCORE.heavy>
34

>  <SCORE.norm>
0.890607

>  <RMSD>
5.488

$$$$
ligand
 OpenBabel11021811483D
libRbt.so/2013.1/901 2013/11/27
 34 36  0  0  0  0  0  0  0  0999 V2000
    3.3168    5.6880    5.9342 C   0  0  2  0  0  0  0  0  0  0  0  0
    4.4022    6.6264    5.9953 O   0  0  0  0  0  0  0  0  0  0  0  0
    8.5892    6.6164    5.1406 C   0  0  2  0  0  0  0  0  0  0  0  0
    9.9066    6.2056    4.6676 N   0  0  0  0  0  0  0  0  0  0  0  0
    8.0366    7.6848    1.6286 C   0  0  2  0  0  0  0  0  0  0  0  0
    1.9935    6.4530    6.2950 C   0  0  2  0  0  0  0  0  0  0  0  0
    1.7336    7.5430    5.3418 N   0  0  0  0  0  0  0  0  0  0  0  0
    8.0443    5.4724    6.0592 C   0  0  0  0  0  0  0  0  0  0  0  0
    9.2829    6.7902    1.2920 C   0  0  2  0  0  0  0  0  0  0  0  0
    9.1863    5.5522    1.9767 O   0  0  0  0  0  0  0  0  0  0  0  0
    2.1063    7.0220    7.7261 C   0  0  1  0  0  0  0  0  0  0  0  0
    0.8953    7.7168    8.0659 O   0  0  0  0  0  0  0  0  0  0  0  0
    6.6399    5.9228    6.5862 C   0  0  2  0  0  0  0  0  0  0  0  0
    6.0683    4.8768    7.4585 N   0  0  0  0  0  0  0  0  0  0  0  0
   10.5906    7.5681    1.7095 C   0  0  1  0  0  0  0  0  0  0  0  0
   11.8075    6.7504    1.4234 N   0  0  0  0  0  0  0  0  0  0  0  0
    2.3882    5.8577    8.7051 C   0  0  2  0  0  0  0  0  0  0  0  0
    2.5066    6.3742   10.0422 O   0  0  0  0  0  0  0  0  0  0  0  0
    5.6640    6.1846    5.4106 C   0  0  2  0  0  0  0  0  0  0  0  0
   10.6483    8.9240    0.9261 C   0  0  1  0  0  0  0  0  0  0  0  0
   10.7069    8.6651   -0.4741 O   0  0  0  0  0  0  0  0  0  0  0  0
    3.7141    5.1188    8.2799 C   0  0  2  0  0  0  0  0  0  0  0  0
    3.5861    4.6116    6.8999 O   0  0  0  0  0  0  0  0  0  0  0  0
    6.2577    7.2744    4.4833 C   0  0  2  0  0  0  0  0  0  0  0  0
    5.3544    7.4845    3.4028 O   0  0  0  0  0  0  0  0  0  0  0  0
    9.3583    9.7421    1.2487 C   0  0  0  0  0  0  0  0  0  0  0  0
    8.1428    8.9629    0.9115 O   0  0  0  0  0  0  0  0  0  0  0  0
    4.0352    3.9221    9.2131 C   0  0  2  0  0  0  0  0  0  0  0  0
    2.8873    3.6121    9.9989 O   0  0  0  0  0  0  0  0  0  0  0  0
    7.6230    6.8353    3.9048 C   0  0  1  0  0  0  0  0  0  0  0  0
    8.0930    7.9154    3.0642 O   0  0  0  0  0  0  0  0  0  0  0  0
    5.1802    4.2426   10.1595 C   0  0  0  0  0  0  0  0  0  0  0  0
   11.8768    9.7464    1.2954 C   0  0  0  0  0  0  0  0  0  0  0  0
   12.8386    7.0903    2.4226 C   0  0  0  0  0  0  0  0  0  0  0  0
  1  2  1  1  0  0  0
  1  6  1  0  0  0  0
  1 23  1  0  0  0  0
  3  4  1  6  0  0  0
  3  8  1  0  0  0  0
  3 30  1  0  0  0  0
  5  9  1  0  0  0  0
  5 27  1  0  0  0  0
  5 31  1  1  0  0  0
  6  7  1  6  0  0  0
  6 11  1  0  0  0  0
  8 13  1  0  0  0  0
  9 10  1  1  0  0  0
  9 15  1  0  0  0  0
 11 12  1  1  0  0  0
 11 17  1  0  0  0  0
 13 14  1  1  0  0  0
 13 19  1  0  0  0  0
 15 16  1  6  0  0  0
 15 20  1  0  0  0  0
 16 34  1  0  0  0  0
 17 18  1  1  0  0  0
 17 22  1  0  0  0  0
 19  2  1  1  0  0  0
 19 24  1  0  0  0  0
 20 21  1  6  0  0  0
 20 26  1  0  0  0  0
 20 33  1  0  0  0  0
 22 23  1  6  0  0  0
 22 28  1  0  0  0  0
 24 25  1  6  0  0  0
 24 30  1  0  0  0  0
 26 27  1  0  0  0  0
 28 29  1  1  0  0  0
 28 32  1  0  0  0  0
 30 31  1  6  0  0  0
M  END
>  <CHROM.1>
-166.96516508,-108.28992720,-148.95966695,14.06910306,137.07169796,-79.13651445
6.56038909,6.68341688,4.91967202,2.40465721,-0.26984963,2.19211214

>  <Name>
ligand

>  <RI>
0

>  <Rbt.Current_Directory>
/home/itssahil/PROJECTS/Mol_Feturizer/New_Systems/rnas/3TD1

>  <Rbt.Executable>
rbdock ($Id: //depot/dev/client3/rdock/2013.1/src/exe/rbdock.cxx#4 $)

>  <Rbt.Library>
libRbt.so (2013.1, Build901 2013/11/27)

>  <Rbt.Parameter_File>
/export/apps/rDock/src/rDock_2013.1_src/data/scripts/dock_solv.prm

>  <Rbt.Receptor>
prm/blind_docking_100.prm

>  <SCORE>
34.5394

>  <SCORE.INTER>
13.9113

>  <SCORE.INTER.CONST>
1

>  <SCORE.INTER.POLAR>
0

>  <SCORE.INTER.ROT>
6

>  <SCORE.INTER.SOLV>
19.9951

>  <SCORE.INTER.VDW>
-4.99084

>  <SCORE.INTER.norm>
0.409155

>  <SCORE.INTRA>
7.26924

>  <SCORE.INTRA.DIHEDRAL>
0.567264

>  <SCORE.INTRA.DIHEDRAL.0>
19.5869

>  <SCORE.INTRA.POLAR>
0

>  <SCORE.INTRA.POLAR.0>
0

>  <SCORE.INTRA.REPUL>
0

>  <SCORE.INTRA.REPUL.0>
0

>  <SCORE.INTRA.SOLV>
5.07017

>  <SCORE.INTRA.SOLV.lig_0>
-70.101

>  <SCORE.INTRA.VDW>
4.45052

>  <SCORE.INTRA.VDW.0>
-3.39718

>  <SCORE.INTRA.norm>
0.213801

>  <SCORE.RESTR>
13.3589

>  <SCORE.RESTR.CAVITY>
13.3589

>  <SCORE.RESTR.norm>
0.392908

>  <SCORE.SYSTEM>
0

>  <SCORE.SYSTEM.CONST>
0

>  <SCORE.SYSTEM.DIHEDRAL>
0

>  <SCORE.SYSTEM.SOLV>
0

>  <SCORE.SYSTEM.norm>
0

>  <SCORE.heavy>
34

>  <SCORE.norm>
1.01586

>  <RMSD>
5.490

$$$$
ligand
 OpenBabel11021811483D
libRbt.so/2013.1/901 2013/11/27
 34 36  0  0  0  0  0  0  0  0999 V2000
    2.8912    5.0192    9.2023 C   0  0  2  0  0  0  0  0  0  0  0  0
    2.8551    4.6108    7.8259 O   0  0  0  0  0  0  0  0  0  0  0  0
    3.6325    6.3406    3.9964 C   0  0  2  0  0  0  0  0  0  0  0  0
    3.8417    7.3168    2.9328 N   0  0  0  0  0  0  0  0  0  0  0  0
    7.2484    6.6271    5.1903 C   0  0  2  0  0  0  0  0  0  0  0  0
    2.5627    3.7652   10.0889 C   0  0  2  0  0  0  0  0  0  0  0  0
    3.5526    2.6963    9.8843 N   0  0  0  0  0  0  0  0  0  0  0  0
    2.2490    6.6569    4.6563 C   0  0  0  0  0  0  0  0  0  0  0  0
    7.7509    7.8695    4.3712 C   0  0  2  0  0  0  0  0  0  0  0  0
    6.7500    8.8739    4.3568 O   0  0  0  0  0  0  0  0  0  0  0  0
    1.1505    3.2478    9.7390 C   0  0  1  0  0  0  0  0  0  0  0  0
    0.8402    2.1047   10.5525 O   0  0  0  0  0  0  0  0  0  0  0  0
    2.0130    5.5950    5.7830 C   0  0  2  0  0  0  0  0  0  0  0  0
    0.7194    5.8456    6.4505 N   0  0  0  0  0  0  0  0  0  0  0  0
    8.1037    7.4000    2.9068 C   0  0  1  0  0  0  0  0  0  0  0  0
    8.5734    8.5519    2.0799 N   0  0  0  0  0  0  0  0  0  0  0  0
    0.1323    4.3926    9.9541 C   0  0  2  0  0  0  0  0  0  0  0  0
   -1.1877    3.9283    9.6215 O   0  0  0  0  0  0  0  0  0  0  0  0
    3.1433    5.6494    6.8423 C   0  0  2  0  0  0  0  0  0  0  0  0
    9.2113    6.2938    2.9798 C   0  0  1  0  0  0  0  0  0  0  0  0
   10.3883    6.8344    3.5744 O   0  0  0  0  0  0  0  0  0  0  0  0
    0.5259    5.6259    9.0549 C   0  0  2  0  0  0  0  0  0  0  0  0
    1.8892    6.0792    9.3926 O   0  0  0  0  0  0  0  0  0  0  0  0
    4.5069    5.3967    6.1518 C   0  0  2  0  0  0  0  0  0  0  0  0
    5.5300    5.4696    7.1394 O   0  0  0  0  0  0  0  0  0  0  0  0
    8.6822    5.1148    3.8558 C   0  0  0  0  0  0  0  0  0  0  0  0
    8.2932    5.5940    5.2039 O   0  0  0  0  0  0  0  0  0  0  0  0
   -0.4477    6.8178    9.2479 C   0  0  2  0  0  0  0  0  0  0  0  0
   -1.7661    6.4171    8.8838 O   0  0  0  0  0  0  0  0  0  0  0  0
    4.7925    6.4624    5.0681 C   0  0  1  0  0  0  0  0  0  0  0  0
    6.0753    6.1368    4.4827 O   0  0  0  0  0  0  0  0  0  0  0  0
   -0.0599    8.0031    8.3792 C   0  0  0  0  0  0  0  0  0  0  0  0
    9.5897    5.7710    1.5995 C   0  0  0  0  0  0  0  0  0  0  0  0
    7.3931    9.1992    1.4758 C   0  0  0  0  0  0  0  0  0  0  0  0
  1  2  1  6  0  0  0
  1  6  1  0  0  0  0
  1 23  1  0  0  0  0
  3  4  1  6  0  0  0
  3  8  1  0  0  0  0
  3 30  1  0  0  0  0
  5  9  1  0  0  0  0
  5 27  1  0  0  0  0
  5 31  1  6  0  0  0
  6  7  1  6  0  0  0
  6 11  1  0  0  0  0
  8 13  1  0  0  0  0
  9 10  1  6  0  0  0
  9 15  1  0  0  0  0
 11 12  1  1  0  0  0
 11 17  1  0  0  0  0
 13 14  1  1  0  0  0
 13 19  1  0  0  0  0
 15 16  1  6  0  0  0
 15 20  1  0  0  0  0
 16 34  1  0  0  0  0
 17 18  1  6  0  0  0
 17 22  1  0  0  0  0
 19  2  1  1  0  0  0
 19 24  1  0  0  0  0
 20 21  1  1  0  0  0
 20 26  1  0  0  0  0
 20 33  1  0  0  0  0
 22 23  1  1  0  0  0
 22 28  1  0  0  0  0
 24 25  1  1  0  0  0
 24 30  1  0  0  0  0
 26 27  1  0  0  0  0
 28 29  1  6  0  0  0
 28 32  1  0  0  0  0
 30 31  1  6  0  0  0
M  END
>  <CHROM.1>
-179.76462792,-130.23950135,-87.37663581,-60.58958804,160.00832370,-103.17492340
4.16124570,5.93439027,6.27467645,-2.50711310,0.32450762,-0.80461995

>  <Name>
ligand

>  <RI>
0

>  <Rbt.Current_Directory>
/home/itssahil/PROJECTS/Mol_Feturizer/New_Systems/rnas/3TD1

>  <Rbt.Executable>
rbdock ($Id: //depot/dev/client3/rdock/2013.1/src/exe/rbdock.cxx#4 $)

>  <Rbt.Library>
libRbt.so (2013.1, Build901 2013/11/27)

>  <Rbt.Parameter_File>
/export/apps/rDock/src/rDock_2013.1_src/data/scripts/dock_solv.prm

>  <Rbt.Receptor>
prm/blind_docking_100.prm

>  <SCORE>
69.109

>  <SCORE.INTER>
56.9562

>  <SCORE.INTER.CONST>
1

>  <SCORE.INTER.POLAR>
0

>  <SCORE.INTER.ROT>
6

>  <SCORE.INTER.SOLV>
33.4773

>  <SCORE.INTER.VDW>
19.2117

>  <SCORE.INTER.norm>
1.67518

>  <SCORE.INTRA>
-0.0208027

>  <SCORE.INTRA.DIHEDRAL>
-4.66029

>  <SCORE.INTRA.DIHEDRAL.0>
19.5869

>  <SCORE.INTRA.POLAR>
0

>  <SCORE.INTRA.POLAR.0>
0

>  <SCORE.INTRA.REPUL>
0

>  <SCORE.INTRA.REPUL.0>
0

>  <SCORE.INTRA.SOLV>
2.4161

>  <SCORE.INTRA.SOLV.lig_0>
-70.101

>  <SCORE.INTRA.VDW>
1.10129

>  <SCORE.INTRA.VDW.0>
-3.39718

>  <SCORE.INTRA.norm>
-0.000611844

>  <SCORE.RESTR>
12.1736

>  <SCORE.RESTR.CAVITY>
12.1736

>  <SCORE.RESTR.norm>
0.358047

>  <SCORE.SYSTEM>
0

>  <SCORE.SYSTEM.CONST>
0

>  <SCORE.SYSTEM.DIHEDRAL>
0

>  <SCORE.SYSTEM.SOLV>
0

>  <SCORE.SYSTEM.norm>
0

>  <SCORE.heavy>
34

>  <SCORE.norm>
2.03262

>  <RMSD>
5.508

$$$$
ligand
 OpenBabel11021811483D
libRbt.so/2013.1/901 2013/11/27
 34 36  0  0  0  0  0  0  0  0999 V2000
    4.5937    5.4344    9.2137 C   0  0  2  0  0  0  0  0  0  0  0  0
    4.8386    4.9644    7.8789 O   0  0  0  0  0  0  0  0  0  0  0  0
    4.1082    6.4253    3.9300 C   0  0  2  0  0  0  0  0  0  0  0  0
    3.8189    7.3189    2.8138 N   0  0  0  0  0  0  0  0  0  0  0  0
    7.8369    7.2799    3.9243 C   0  0  2  0  0  0  0  0  0  0  0  0
    5.0755    4.3242   10.2147 C   0  0  2  0  0  0  0  0  0  0  0  0
    6.5143    4.0588   10.0608 N   0  0  0  0  0  0  0  0  0  0  0  0
    2.9632    6.6047    4.9819 C   0  0  0  0  0  0  0  0  0  0  0  0
    7.7717    8.6630    3.1827 C   0  0  2  0  0  0  0  0  0  0  0  0
    6.6903    9.4293    3.6868 O   0  0  0  0  0  0  0  0  0  0  0  0
    4.2726    3.0289    9.9662 C   0  0  1  0  0  0  0  0  0  0  0  0
    4.7030    2.0108   10.8843 O   0  0  0  0  0  0  0  0  0  0  0  0
    3.2607    5.6287    6.1701 C   0  0  2  0  0  0  0  0  0  0  0  0
    2.2130    5.7566    7.2033 N   0  0  0  0  0  0  0  0  0  0  0  0
    7.6069    8.3994    1.6359 C   0  0  1  0  0  0  0  0  0  0  0  0
    7.5238    9.6880    0.8848 N   0  0  0  0  0  0  0  0  0  0  0  0
    2.7651    3.3381   10.1253 C   0  0  2  0  0  0  0  0  0  0  0  0
    2.0029    2.1421    9.8859 O   0  0  0  0  0  0  0  0  0  0  0  0
    4.6379    5.9379    6.8106 C   0  0  2  0  0  0  0  0  0  0  0  0
    8.8246    7.5518    1.1313 C   0  0  1  0  0  0  0  0  0  0  0  0
   10.0321    8.2802    1.3372 O   0  0  0  0  0  0  0  0  0  0  0  0
    2.3478    4.4702    9.1109 C   0  0  2  0  0  0  0  0  0  0  0  0
    3.1510    5.6842    9.3546 O   0  0  0  0  0  0  0  0  0  0  0  0
    5.7445    5.8156    5.7333 C   0  0  2  0  0  0  0  0  0  0  0  0
    6.9961    6.1213    6.3393 O   0  0  0  0  0  0  0  0  0  0  0  0
    8.8771    6.2203    1.9447 C   0  0  0  0  0  0  0  0  0  0  0  0
    8.9626    6.4949    3.3992 O   0  0  0  0  0  0  0  0  0  0  0  0
    0.8476    4.8417    9.2423 C   0  0  2  0  0  0  0  0  0  0  0  0
    0.1268    4.3021    8.1375 O   0  0  0  0  0  0  0  0  0  0  0  0
    5.5061    6.8061    4.5699 C   0  0  1  0  0  0  0  0  0  0  0  0
    6.5811    6.6103    3.6210 O   0  0  0  0  0  0  0  0  0  0  0  0
    0.6427    6.3476    9.2468 C   0  0  0  0  0  0  0  0  0  0  0  0
    8.7243    7.2350   -0.3557 C   0  0  0  0  0  0  0  0  0  0  0  0
    8.7140   10.4943    1.2168 C   0  0  0  0  0  0  0  0  0  0  0  0
  1  2  1  6  0  0  0
  1  6  1  0  0  0  0
  1 23  1  0  0  0  0
  3  4  1  6  0  0  0
  3  8  1  0  0  0  0
  3 30  1  0  0  0  0
  5  9  1  0  0  0  0
  5 27  1  0  0  0  0
  5 31  1  6  0  0  0
  6  7  1  6  0  0  0
  6 11  1  0  0  0  0
  8 13  1  0  0  0  0
  9 10  1  1  0  0  0
  9 15  1  0  0  0  0
 11 12  1  1  0  0  0
 11 17  1  0  0  0  0
 13 14  1  1  0  0  0
 13 19  1  0  0  0  0
 15 16  1  6  0  0  0
 15 20  1  0  0  0  0
 16 34  1  0  0  0  0
 17 18  1  6  0  0  0
 17 22  1  0  0  0  0
 19  2  1  1  0  0  0
 19 24  1  0  0  0  0
 20 21  1  1  0  0  0
 20 26  1  0  0  0  0
 20 33  1  0  0  0  0
 22 23  1  1  0  0  0
 22 28  1  0  0  0  0
 24 25  1  1  0  0  0
 24 30  1  0  0  0  0
 26 27  1  0  0  0  0
 28 29  1  6  0  0  0
 28 32  1  0  0  0  0
 30 31  1  6  0  0  0
M  END
>  <CHROM.1>
-171.32145130,-101.39855274,55.15952725,-105.68687116,162.39047961,-92.64133758
5.28382673,6.10504869,5.81286378,-2.13426061,0.15935514,-0.98208996

>  <Name>
ligand

>  <RI>
0

>  <Rbt.Current_Directory>
/home/itssahil/PROJECTS/Mol_Feturizer/New_Systems/rnas/3TD1

>  <Rbt.Executable>
rbdock ($Id: //depot/dev/client3/rdock/2013.1/src/exe/rbdock.cxx#4 $)

>  <Rbt.Library>
libRbt.so (2013.1, Build901 2013/11/27)

>  <Rbt.Parameter_File>
/export/apps/rDock/src/rDock_2013.1_src/data/scripts/dock_solv.prm

>  <Rbt.Receptor>
prm/blind_docking_100.prm

>  <SCORE>
87.9971

>  <SCORE.INTER>
54.3628

>  <SCORE.INTER.CONST>
1

>  <SCORE.INTER.POLAR>
0

>  <SCORE.INTER.ROT>
6

>  <SCORE.INTER.SOLV>
30.8266

>  <SCORE.INTER.VDW>
18.3663

>  <SCORE.INTER.norm>
1.59891

>  <SCORE.INTRA>
20.6092

>  <SCORE.INTRA.DIHEDRAL>
-3.36743

>  <SCORE.INTRA.DIHEDRAL.0>
19.5869

>  <SCORE.INTRA.POLAR>
0

>  <SCORE.INTRA.POLAR.0>
0

>  <SCORE.INTRA.REPUL>
0

>  <SCORE.INTRA.REPUL.0>
0

>  <SCORE.INTRA.SOLV>
3.75237

>  <SCORE.INTRA.SOLV.lig_0>
-70.101

>  <SCORE.INTRA.VDW>
20.4167

>  <SCORE.INTRA.VDW.0>
-3.39718

>  <SCORE.INTRA.norm>
0.606152

>  <SCORE.RESTR>
13.0252

>  <SCORE.RESTR.CAVITY>
13.0252

>  <SCORE.RESTR.norm>
0.383093

>  <SCORE.SYSTEM>
0

>  <SCORE.SYSTEM.CONST>
0

>  <SCORE.SYSTEM.DIHEDRAL>
0

>  <SCORE.SYSTEM.SOLV>
0

>  <SCORE.SYSTEM.norm>
0

>  <SCORE.heavy>
34

>  <SCORE.norm>
2.58815

>  <RMSD>
5.512

$$$$
ligand
 OpenBabel11021811483D
libRbt.so/2013.1/901 2013/11/27
 34 36  0  0  0  0  0  0  0  0999 V2000
    2.9082    4.9998    9.1903 C   0  0  2  0  0  0  0  0  0  0  0  0
    2.8695    4.5963    7.8125 O   0  0  0  0  0  0  0  0  0  0  0  0
    3.6238    6.3445    3.9867 C   0  0  2  0  0  0  0  0  0  0  0  0
    3.8242    7.3258    2.9261 N   0  0  0  0  0  0  0  0  0  0  0  0
    7.2428    6.6456    5.1665 C   0  0  2  0  0  0  0  0  0  0  0  0
    2.5790    3.7431   10.0729 C   0  0  2  0  0  0  0  0  0  0  0  0
    3.5669    2.6734    9.8630 N   0  0  0  0  0  0  0  0  0  0  0  0
    2.2413    6.6516    4.6531 C   0  0  0  0  0  0  0  0  0  0  0  0
    7.7393    7.8882    4.3441 C   0  0  2  0  0  0  0  0  0  0  0  0
    6.7352    8.8894    4.3306 O   0  0  0  0  0  0  0  0  0  0  0  0
    1.1655    3.2292    9.7232 C   0  0  1  0  0  0  0  0  0  0  0  0
    0.8546    2.0837   10.5331 O   0  0  0  0  0  0  0  0  0  0  0  0
    2.0147    5.5842    5.7767 C   0  0  2  0  0  0  0  0  0  0  0  0
    0.7226    5.8261    6.4500 N   0  0  0  0  0  0  0  0  0  0  0  0
    8.0898    7.4174    2.8796 C   0  0  1  0  0  0  0  0  0  0  0  0
    8.5537    8.5693    2.0495 N   0  0  0  0  0  0  0  0  0  0  0  0
    0.1494    4.3748    9.9439 C   0  0  2  0  0  0  0  0  0  0  0  0
   -1.1718    3.9138    9.6116 O   0  0  0  0  0  0  0  0  0  0  0  0
    3.1489    5.6400    6.8318 C   0  0  2  0  0  0  0  0  0  0  0  0
    9.2010    6.3148    2.9515 C   0  0  1  0  0  0  0  0  0  0  0  0
   10.3778    6.8599    3.5422 O   0  0  0  0  0  0  0  0  0  0  0  0
    0.5437    5.6107    9.0485 C   0  0  2  0  0  0  0  0  0  0  0  0
    1.9082    6.0607    9.3858 O   0  0  0  0  0  0  0  0  0  0  0  0
    4.5110    5.3965    6.1351 C   0  0  2  0  0  0  0  0  0  0  0  0
    5.5375    5.4705    7.1190 O   0  0  0  0  0  0  0  0  0  0  0  0
    8.6778    5.1356    3.8309 C   0  0  0  0  0  0  0  0  0  0  0  0
    8.2908    5.6158    5.1792 O   0  0  0  0  0  0  0  0  0  0  0  0
   -0.4278    6.8035    9.2472 C   0  0  2  0  0  0  0  0  0  0  0  0
   -1.7385    6.4208    8.8388 O   0  0  0  0  0  0  0  0  0  0  0  0
    4.7873    6.4677    5.0544 C   0  0  1  0  0  0  0  0  0  0  0  0
    6.0693    6.1505    4.4628 O   0  0  0  0  0  0  0  0  0  0  0  0
   -0.0106    8.0083    8.4200 C   0  0  0  0  0  0  0  0  0  0  0  0
    9.5775    5.7908    1.5711 C   0  0  0  0  0  0  0  0  0  0  0  0
    7.3747    9.1808    1.4069 C   0  0  0  0  0  0  0  0  0  0  0  0
  1  2  1  6  0  0  0
  1  6  1  0  0  0  0
  1 23  1  0  0  0  0
  3  4  1  6  0  0  0
  3  8  1  0  0  0  0
  3 30  1  0  0  0  0
  5  9  1  0  0  0  0
  5 27  1  0  0  0  0
  5 31  1  6  0  0  0
  6  7  1  6  0  0  0
  6 11  1  0  0  0  0
  8 13  1  0  0  0  0
  9 10  1  6  0  0  0
  9 15  1  0  0  0  0
 11 12  1  1  0  0  0
 11 17  1  0  0  0  0
 13 14  1  1  0  0  0
 13 19  1  0  0  0  0
 15 16  1  6  0  0  0
 15 20  1  0  0  0  0
 16 34  1  0  0  0  0
 17 18  1  6  0  0  0
 17 22  1  0  0  0  0
 19  2  1  1  0  0  0
 19 24  1  0  0  0  0
 20 21  1  1  0  0  0
 20 26  1  0  0  0  0
 20 33  1  0  0  0  0
 22 23  1  1  0  0  0
 22 28  1  0  0  0  0
 24 25  1  1  0  0  0
 24 30  1  0  0  0  0
 26 27  1  0  0  0  0
 28 29  1  6  0  0  0
 28 32  1  0  0  0  0
 30 31  1  6  0  0  0
M  END
>  <CHROM.1>
179.83251450,-130.20801799,-89.47895913,-62.63664018,159.90814816,-103.45636138
4.16467547,5.93379103,6.25719579,-2.50209307,0.32518313,-0.80385610

>  <Name>
ligand

>  <RI>
0

>  <Rbt.Current_Directory>
/home/itssahil/PROJECTS/Mol_Feturizer/New_Systems/rnas/3TD1

>  <Rbt.Executable>
rbdock ($Id: //depot/dev/client3/rdock/2013.1/src/exe/rbdock.cxx#4 $)

>  <Rbt.Library>
libRbt.so (2013.1, Build901 2013/11/27)

>  <Rbt.Parameter_File>
/export/apps/rDock/src/rDock_2013.1_src/data/scripts/dock_solv.prm

>  <Rbt.Receptor>
prm/blind_docking_100.prm

>  <SCORE>
69.8713

>  <SCORE.INTER>
57.9575

>  <SCORE.INTER.CONST>
1

>  <SCORE.INTER.POLAR>
0

>  <SCORE.INTER.ROT>
6

>  <SCORE.INTER.SOLV>
33.5275

>  <SCORE.INTER.VDW>
19.8625

>  <SCORE.INTER.norm>
1.70463

>  <SCORE.INTRA>
-0.07648

>  <SCORE.INTRA.DIHEDRAL>
-4.51263

>  <SCORE.INTRA.DIHEDRAL.0>
19.5869

>  <SCORE.INTRA.POLAR>
0

>  <SCORE.INTRA.POLAR.0>
0

>  <SCORE.INTRA.REPUL>
0

>  <SCORE.INTRA.REPUL.0>
0

>  <SCORE.INTRA.SOLV>
2.4258

>  <SCORE.INTRA.SOLV.lig_0>
-70.101

>  <SCORE.INTRA.VDW>
0.966932

>  <SCORE.INTRA.VDW.0>
-3.39718

>  <SCORE.INTRA.norm>
-0.00224941

>  <SCORE.RESTR>
11.9903

>  <SCORE.RESTR.CAVITY>
11.9903

>  <SCORE.RESTR.norm>
0.352656

>  <SCORE.SYSTEM>
0

>  <SCORE.SYSTEM.CONST>
0

>  <SCORE.SYSTEM.DIHEDRAL>
0

>  <SCORE.SYSTEM.SOLV>
0

>  <SCORE.SYSTEM.norm>
0

>  <SCORE.heavy>
34

>  <SCORE.norm>
2.05504

>  <RMSD>
5.516

$$$$
ligand
 OpenBabel11021811483D
libRbt.so/2013.1/901 2013/11/27
 34 36  0  0  0  0  0  0  0  0999 V2000
    6.6204    7.3251    5.3890 C   0  0  2  0  0  0  0  0  0  0  0  0
    7.0179    6.1927    4.6002 O   0  0  0  0  0  0  0  0  0  0  0  0
    8.5247    5.6001    0.6455 C   0  0  2  0  0  0  0  0  0  0  0  0
    8.7279    5.7241   -0.7938 N   0  0  0  0  0  0  0  0  0  0  0  0
   10.8059    7.4593   -0.1766 C   0  0  2  0  0  0  0  0  0  0  0  0
    7.0379    7.0496    6.8777 C   0  0  2  0  0  0  0  0  0  0  0  0
    8.4937    6.8746    6.9972 N   0  0  0  0  0  0  0  0  0  0  0  0
    7.0032    5.3181    0.8806 C   0  0  0  0  0  0  0  0  0  0  0  0
   12.3415    7.1296   -0.1947 C   0  0  2  0  0  0  0  0  0  0  0  0
   12.5445    5.7624    0.1223 O   0  0  0  0  0  0  0  0  0  0  0  0
    6.3129    5.7844    7.3858 C   0  0  1  0  0  0  0  0  0  0  0  0
    6.6844    5.5308    8.7505 O   0  0  0  0  0  0  0  0  0  0  0  0
    6.7882    5.1617    2.4241 C   0  0  2  0  0  0  0  0  0  0  0  0
    5.3635    4.8988    2.7116 N   0  0  0  0  0  0  0  0  0  0  0  0
   13.0716    8.0666    0.8438 C   0  0  1  0  0  0  0  0  0  0  0  0
   14.5373    7.7806    0.8763 N   0  0  0  0  0  0  0  0  0  0  0  0
    4.7867    5.9917    7.2406 C   0  0  2  0  0  0  0  0  0  0  0  0
    4.0977    4.8160    7.7005 O   0  0  0  0  0  0  0  0  0  0  0  0
    7.2242    6.4442    3.1777 C   0  0  2  0  0  0  0  0  0  0  0  0
   12.8163    9.5612    0.4482 C   0  0  1  0  0  0  0  0  0  0  0  0
   13.3605    9.8131   -0.8447 O   0  0  0  0  0  0  0  0  0  0  0  0
    4.4340    6.2830    5.7322 C   0  0  2  0  0  0  0  0  0  0  0  0
    5.1626    7.4796    5.2679 O   0  0  0  0  0  0  0  0  0  0  0  0
    8.7156    6.7351    2.8762 C   0  0  2  0  0  0  0  0  0  0  0  0
    9.0880    7.9255    3.5631 O   0  0  0  0  0  0  0  0  0  0  0  0
   11.2760    9.8142    0.4208 C   0  0  0  0  0  0  0  0  0  0  0  0
   10.6049    8.8759   -0.5107 O   0  0  0  0  0  0  0  0  0  0  0  0
    2.9155    6.5254    5.5286 C   0  0  2  0  0  0  0  0  0  0  0  0
    2.1770    5.6165    6.3409 O   0  0  0  0  0  0  0  0  0  0  0  0
    8.9506    6.9467    1.3624 C   0  0  1  0  0  0  0  0  0  0  0  0
   10.3638    7.2034    1.1858 O   0  0  0  0  0  0  0  0  0  0  0  0
    2.5030    6.3054    4.0826 C   0  0  0  0  0  0  0  0  0  0  0  0
   13.4731   10.5313    1.4226 C   0  0  0  0  0  0  0  0  0  0  0  0
   14.7566    6.5834    1.7102 C   0  0  0  0  0  0  0  0  0  0  0  0
  1  2  1  6  0  0  0
  1  6  1  0  0  0  0
  1 23  1  0  0  0  0
  3  4  1  6  0  0  0
  3  8  1  0  0  0  0
  3 30  1  0  0  0  0
  5  9  1  0  0  0  0
  5 27  1  0  0  0  0
  5 31  1  1  0  0  0
  6  7  1  6  0  0  0
  6 11  1  0  0  0  0
  8 13  1  0  0  0  0
  9 10  1  1  0  0  0
  9 15  1  0  0  0  0
 11 12  1  1  0  0  0
 11 17  1  0  0  0  0
 13 14  1  6  0  0  0
 13 19  1  0  0  0  0
 15 16  1  6  0  0  0
 15 20  1  0  0  0  0
 16 34  1  0  0  0  0
 17 18  1  6  0  0  0
 17 22  1  0  0  0  0
 19  2  1  1  0  0  0
 19 24  1  0  0  0  0
 20 21  1  6  0  0  0
 20 26  1  0  0  0  0
 20 33  1  0  0  0  0
 22 23  1  1  0  0  0
 22 28  1  0  0  0  0
 24 25  1  1  0  0  0
 24 30  1  0  0  0  0
 26 27  1  0  0  0  0
 28 29  1  1  0  0  0
 28 32  1  0  0  0  0
 30 31  1  1  0  0  0
M  END
>  <CHROM.1>
-156.07361666,-146.12167617,-80.12716968,-39.84697891,65.21732031,-157.74851658
8.48655779,6.91888887,3.07670197,-2.54309109,-0.32060497,-1.64707508

>  <Name>
ligand

>  <RI>
0

>  <Rbt.Current_Directory>
/home/itssahil/PROJECTS/Mol_Feturizer/New_Systems/rnas/3TD1

>  <Rbt.Executable>
rbdock ($Id: //depot/dev/client3/rdock/2013.1/src/exe/rbdock.cxx#4 $)

>  <Rbt.Library>
libRbt.so (2013.1, Build901 2013/11/27)

>  <Rbt.Parameter_File>
/export/apps/rDock/src/rDock_2013.1_src/data/scripts/dock_solv.prm

>  <Rbt.Receptor>
prm/blind_docking_40.prm

>  <SCORE>
66.0875

>  <SCORE.INTER>
57.22

>  <SCORE.INTER.CONST>
1

>  <SCORE.INTER.POLAR>
0

>  <SCORE.INTER.ROT>
6

>  <SCORE.INTER.SOLV>
25.4833

>  <SCORE.INTER.VDW>
22.0522

>  <SCORE.INTER.norm>
1.68294

>  <SCORE.INTRA>
-2.31411

>  <SCORE.INTRA.DIHEDRAL>
-8.72596

>  <SCORE.INTRA.DIHEDRAL.0>
19.5869

>  <SCORE.INTRA.POLAR>
0

>  <SCORE.INTRA.POLAR.0>
0

>  <SCORE.INTRA.REPUL>
0

>  <SCORE.INTRA.REPUL.0>
0

>  <SCORE.INTRA.SOLV>
1.0469

>  <SCORE.INTRA.SOLV.lig_0>
-70.101

>  <SCORE.INTRA.VDW>
1.52542

>  <SCORE.INTRA.VDW.0>
-3.39718

>  <SCORE.INTRA.norm>
-0.0680621

>  <SCORE.RESTR>
11.1816

>  <SCORE.RESTR.CAVITY>
11.1816

>  <SCORE.RESTR.norm>
0.328871

>  <SCORE.SYSTEM>
0

>  <SCORE.SYSTEM.CONST>
0

>  <SCORE.SYSTEM.DIHEDRAL>
0

>  <SCORE.SYSTEM.SOLV>
0

>  <SCORE.SYSTEM.norm>
0

>  <SCORE.heavy>
34

>  <SCORE.norm>
1.94375

>  <RMSD>
5.532

$$$$
ligand
 OpenBabel11021811483D
libRbt.so/2013.1/901 2013/11/27
 34 36  0  0  0  0  0  0  0  0999 V2000
    3.2493    5.6113    6.0608 C   0  0  2  0  0  0  0  0  0  0  0  0
    4.2942    6.5926    6.1486 O   0  0  0  0  0  0  0  0  0  0  0  0
    8.5035    6.7808    5.4357 C   0  0  2  0  0  0  0  0  0  0  0  0
    9.8631    6.4130    5.0558 N   0  0  0  0  0  0  0  0  0  0  0  0
    7.9376    7.4348    1.8016 C   0  0  2  0  0  0  0  0  0  0  0  0
    1.8718    6.3639    6.1123 C   0  0  2  0  0  0  0  0  0  0  0  0
    1.7376    7.3029    4.9879 N   0  0  0  0  0  0  0  0  0  0  0  0
    7.9993    5.7122    6.4621 C   0  0  0  0  0  0  0  0  0  0  0  0
    9.2676    6.6559    1.4988 C   0  0  2  0  0  0  0  0  0  0  0  0
    9.3296    5.4819    2.2918 O   0  0  0  0  0  0  0  0  0  0  0  0
    1.7557    7.1259    7.4503 C   0  0  1  0  0  0  0  0  0  0  0  0
    0.4937    7.8107    7.5075 O   0  0  0  0  0  0  0  0  0  0  0  0
    6.5482    6.1193    6.8882 C   0  0  2  0  0  0  0  0  0  0  0  0
    6.0127    5.1408    7.8564 N   0  0  0  0  0  0  0  0  0  0  0  0
   10.4898    7.6076    1.7990 C   0  0  1  0  0  0  0  0  0  0  0  0
   11.7832    6.9064    1.5409 N   0  0  0  0  0  0  0  0  0  0  0  0
    1.9092    6.1177    8.6136 C   0  0  2  0  0  0  0  0  0  0  0  0
    1.8138    6.8153    9.8678 O   0  0  0  0  0  0  0  0  0  0  0  0
    5.6049    6.1775    5.6596 C   0  0  2  0  0  0  0  0  0  0  0  0
   10.3732    8.8852    0.8990 C   0  0  1  0  0  0  0  0  0  0  0  0
   10.4234    8.5085   -0.4746 O   0  0  0  0  0  0  0  0  0  0  0  0
    3.2985    5.3824    8.4959 C   0  0  2  0  0  0  0  0  0  0  0  0
    3.3908    4.6878    7.1970 O   0  0  0  0  0  0  0  0  0  0  0  0
    6.1617    7.1948    4.6324 C   0  0  2  0  0  0  0  0  0  0  0  0
    5.2903    7.2177    3.5065 O   0  0  0  0  0  0  0  0  0  0  0  0
    9.0081    9.5821    1.1960 C   0  0  0  0  0  0  0  0  0  0  0  0
    7.8798    8.6465    0.9725 O   0  0  0  0  0  0  0  0  0  0  0  0
    3.4984    4.3374    9.6246 C   0  0  2  0  0  0  0  0  0  0  0  0
    4.7820    3.7330    9.4895 O   0  0  0  0  0  0  0  0  0  0  0  0
    7.5751    6.7904    4.1525 C   0  0  1  0  0  0  0  0  0  0  0  0
    8.0058    7.7992    3.2086 O   0  0  0  0  0  0  0  0  0  0  0  0
    2.4517    3.2375    9.5602 C   0  0  0  0  0  0  0  0  0  0  0  0
   11.5103    9.8678    1.1502 C   0  0  0  0  0  0  0  0  0  0  0  0
   12.7566    7.3412    2.5608 C   0  0  0  0  0  0  0  0  0  0  0  0
  1  2  1  1  0  0  0
  1  6  1  0  0  0  0
  1 23  1  0  0  0  0
  3  4  1  6  0  0  0
  3  8  1  0  0  0  0
  3 30  1  0  0  0  0
  5  9  1  0  0  0  0
  5 27  1  0  0  0  0
  5 31  1  1  0  0  0
  6  7  1  6  0  0  0
  6 11  1  0  0  0  0
  8 13  1  0  0  0  0
  9 10  1  1  0  0  0
  9 15  1  0  0  0  0
 11 12  1  6  0  0  0
 11 17  1  0  0  0  0
 13 14  1  1  0  0  0
 13 19  1  0  0  0  0
 15 16  1  6  0  0  0
 15 20  1  0  0  0  0
 16 34  1  0  0  0  0
 17 18  1  1  0  0  0
 17 22  1  0  0  0  0
 19  2  1  1  0  0  0
 19 24  1  0  0  0  0
 20 21  1  6  0  0  0
 20 26  1  0  0  0  0
 20 33  1  0  0  0  0
 22 23  1  6  0  0  0
 22 28  1  0  0  0  0
 24 25  1  6  0  0  0
 24 30  1  0  0  0  0
 26 27  1  0  0  0  0
 28 29  1  6  0  0  0
 28 32  1  0  0  0  0
 30 31  1  6  0  0  0
M  END
>  <CHROM.1>
-159.32080128,-113.12329890,-143.00412328,-178.40393092,141.01934822,-84.16931249
6.36879927,6.68926836,4.97227856,2.42789703,-0.24098522,2.17527637

>  <Name>
ligand

>  <RI>
0

>  <Rbt.Current_Directory>
/home/itssahil/PROJECTS/Mol_Feturizer/New_Systems/rnas/3TD1

>  <Rbt.Executable>
rbdock ($Id: //depot/dev/client3/rdock/2013.1/src/exe/rbdock.cxx#4 $)

>  <Rbt.Library>
libRbt.so (2013.1, Build901 2013/11/27)

>  <Rbt.Parameter_File>
/export/apps/rDock/src/rDock_2013.1_src/data/scripts/dock_solv.prm

>  <Rbt.Receptor>
prm/blind_docking_100.prm

>  <SCORE>
24.5752

>  <SCORE.INTER>
7.82064

>  <SCORE.INTER.CONST>
1

>  <SCORE.INTER.POLAR>
0

>  <SCORE.INTER.ROT>
6

>  <SCORE.INTER.SOLV>
17.9722

>  <SCORE.INTER.VDW>
-8.37697

>  <SCORE.INTER.norm>
0.230019

>  <SCORE.INTRA>
2.48664

>  <SCORE.INTRA.DIHEDRAL>
-2.14823

>  <SCORE.INTRA.DIHEDRAL.0>
19.5869

>  <SCORE.INTRA.POLAR>
0

>  <SCORE.INTRA.POLAR.0>
0

>  <SCORE.INTRA.REPUL>
0

>  <SCORE.INTRA.REPUL.0>
0

>  <SCORE.INTRA.SOLV>
4.07953

>  <SCORE.INTRA.SOLV.lig_0>
-70.101

>  <SCORE.INTRA.VDW>
1.521

>  <SCORE.INTRA.VDW.0>
-3.39718

>  <SCORE.INTRA.norm>
0.0731365

>  <SCORE.RESTR>
14.2679

>  <SCORE.RESTR.CAVITY>
14.2679

>  <SCORE.RESTR.norm>
0.419645

>  <SCORE.SYSTEM>
0

>  <SCORE.SYSTEM.CONST>
0

>  <SCORE.SYSTEM.DIHEDRAL>
0

>  <SCORE.SYSTEM.SOLV>
0

>  <SCORE.SYSTEM.norm>
0

>  <SCORE.heavy>
34

>  <SCORE.norm>
0.7228

>  <RMSD>
5.539

$$$$
ligand
 OpenBabel11021811483D
libRbt.so/2013.1/901 2013/11/27
 34 36  0  0  0  0  0  0  0  0999 V2000
    2.0196    4.6550    8.8575 C   0  0  2  0  0  0  0  0  0  0  0  0
    1.3043    4.8506    7.6276 O   0  0  0  0  0  0  0  0  0  0  0  0
    3.3003    6.2096    4.1018 C   0  0  2  0  0  0  0  0  0  0  0  0
    3.8455    7.0795    3.0655 N   0  0  0  0  0  0  0  0  0  0  0  0
    6.3768    7.2527    5.6121 C   0  0  2  0  0  0  0  0  0  0  0  0
    2.7546    3.2695    8.7757 C   0  0  2  0  0  0  0  0  0  0  0  0
    3.7123    3.2416    7.6593 N   0  0  0  0  0  0  0  0  0  0  0  0
    1.7743    6.5336    4.2295 C   0  0  0  0  0  0  0  0  0  0  0  0
    6.9541    7.6194    4.1981 C   0  0  2  0  0  0  0  0  0  0  0  0
    5.9063    8.0567    3.3486 O   0  0  0  0  0  0  0  0  0  0  0  0
    1.7096    2.1463    8.6001 C   0  0  1  0  0  0  0  0  0  0  0  0
    2.3750    0.8745    8.5325 O   0  0  0  0  0  0  0  0  0  0  0  0
    1.1832    5.5839    5.3256 C   0  0  2  0  0  0  0  0  0  0  0  0
   -0.2599    5.8471    5.4973 N   0  0  0  0  0  0  0  0  0  0  0  0
    7.6744    6.3487    3.6016 C   0  0  1  0  0  0  0  0  0  0  0  0
    8.2289    6.6417    2.2459 N   0  0  0  0  0  0  0  0  0  0  0  0
    0.7116    2.2044    9.7808 C   0  0  2  0  0  0  0  0  0  0  0  0
   -0.2752    1.1697    9.6252 O   0  0  0  0  0  0  0  0  0  0  0  0
    1.8971    5.7940    6.6854 C   0  0  2  0  0  0  0  0  0  0  0  0
    8.8201    5.9086    4.5758 C   0  0  1  0  0  0  0  0  0  0  0  0
    9.7791    6.9566    4.6903 O   0  0  0  0  0  0  0  0  0  0  0  0
    0.0229    3.6216    9.8216 C   0  0  2  0  0  0  0  0  0  0  0  0
    1.0478    4.6744    9.9614 O   0  0  0  0  0  0  0  0  0  0  0  0
    3.4140    5.5293    6.5154 C   0  0  2  0  0  0  0  0  0  0  0  0
    4.0505    5.7459    7.7706 O   0  0  0  0  0  0  0  0  0  0  0  0
    8.1987    5.6187    5.9784 C   0  0  0  0  0  0  0  0  0  0  0  0
    7.4696    6.8055    6.4866 O   0  0  0  0  0  0  0  0  0  0  0  0
   -0.9728    3.7481   11.0042 C   0  0  2  0  0  0  0  0  0  0  0  0
   -1.8445    2.6206   11.0130 O   0  0  0  0  0  0  0  0  0  0  0  0
    4.0376    6.4892    5.4755 C   0  0  1  0  0  0  0  0  0  0  0  0
    5.4438    6.1594    5.3855 O   0  0  0  0  0  0  0  0  0  0  0  0
   -1.8254    5.0006   10.8858 C   0  0  0  0  0  0  0  0  0  0  0  0
    9.5499    4.6674    4.0773 C   0  0  0  0  0  0  0  0  0  0  0  0
    8.9199    7.9442    2.3004 C   0  0  0  0  0  0  0  0  0  0  0  0
  1  2  1  6  0  0  0
  1  6  1  0  0  0  0
  1 23  1  0  0  0  0
  3  4  1  6  0  0  0
  3  8  1  0  0  0  0
  3 30  1  0  0  0  0
  5  9  1  0  0  0  0
  5 27  1  0  0  0  0
  5 31  1  6  0  0  0
  6  7  1  6  0  0  0
  6 11  1  0  0  0  0
  8 13  1  0  0  0  0
  9 10  1  6  0  0  0
  9 15  1  0  0  0  0
 11 12  1  1  0  0  0
 11 17  1  0  0  0  0
 13 14  1  1  0  0  0
 13 19  1  0  0  0  0
 15 16  1  6  0  0  0
 15 20  1  0  0  0  0
 16 34  1  0  0  0  0
 17 18  1  6  0  0  0
 17 22  1  0  0  0  0
 19  2  1  1  0  0  0
 19 24  1  0  0  0  0
 20 21  1  1  0  0  0
 20 26  1  0  0  0  0
 20 33  1  0  0  0  0
 22 23  1  1  0  0  0
 22 28  1  0  0  0  0
 24 25  1  1  0  0  0
 24 30  1  0  0  0  0
 26 27  1  0  0  0  0
 28 29  1  6  0  0  0
 28 32  1  0  0  0  0
 30 31  1  6  0  0  0
M  END
>  <CHROM.1>
-104.30648870,166.04563502,45.49762703,-49.49139486,119.14158381,-106.14744967
3.74903985,5.19133985,6.59394535,-2.44927762,0.15285717,-0.83606264

>  <Name>
ligand

>  <RI>
0

>  <Rbt.Current_Directory>
/home/itssahil/PROJECTS/Mol_Feturizer/New_Systems/rnas/3TD1

>  <Rbt.Executable>
rbdock ($Id: //depot/dev/client3/rdock/2013.1/src/exe/rbdock.cxx#4 $)

>  <Rbt.Library>
libRbt.so (2013.1, Build901 2013/11/27)

>  <Rbt.Parameter_File>
/export/apps/rDock/src/rDock_2013.1_src/data/scripts/dock_solv.prm

>  <Rbt.Receptor>
prm/blind_docking_100.prm

>  <SCORE>
41.9782

>  <SCORE.INTER>
12.1783

>  <SCORE.INTER.CONST>
1

>  <SCORE.INTER.POLAR>
0

>  <SCORE.INTER.ROT>
6

>  <SCORE.INTER.SOLV>
26.9697

>  <SCORE.INTER.VDW>
-8.47104

>  <SCORE.INTER.norm>
0.358186

>  <SCORE.INTRA>
13.8284

>  <SCORE.INTRA.DIHEDRAL>
1.38969

>  <SCORE.INTRA.DIHEDRAL.0>
19.5869

>  <SCORE.INTRA.POLAR>
0

>  <SCORE.INTRA.POLAR.0>
0

>  <SCORE.INTRA.REPUL>
0.000640948

>  <SCORE.INTRA.REPUL.0>
0

>  <SCORE.INTRA.SOLV>
2.7842

>  <SCORE.INTRA.SOLV.lig_0>
-70.101

>  <SCORE.INTRA.VDW>
11.7383

>  <SCORE.INTRA.VDW.0>
-3.39718

>  <SCORE.INTRA.norm>
0.406718

>  <SCORE.RESTR>
15.9715

>  <SCORE.RESTR.CAVITY>
15.9715

>  <SCORE.RESTR.norm>
0.46975

>  <SCORE.SYSTEM>
0

>  <SCORE.SYSTEM.CONST>
0

>  <SCORE.SYSTEM.DIHEDRAL>
0

>  <SCORE.SYSTEM.SOLV>
0

>  <SCORE.SYSTEM.norm>
0

>  <SCORE.heavy>
34

>  <SCORE.norm>
1.23465

>  <RMSD>
5.699

$$$$
ligand
 OpenBabel11021811483D
libRbt.so/2013.1/901 2013/11/27
 34 36  0  0  0  0  0  0  0  0999 V2000
    3.0782    5.7858    5.4293 C   0  0  2  0  0  0  0  0  0  0  0  0
    4.1320    6.7585    5.5056 O   0  0  0  0  0  0  0  0  0  0  0  0
    8.4013    6.5836    5.4403 C   0  0  2  0  0  0  0  0  0  0  0  0
    9.7668    6.1366    5.1882 N   0  0  0  0  0  0  0  0  0  0  0  0
    7.9929    8.2864    2.0267 C   0  0  2  0  0  0  0  0  0  0  0  0
    1.7708    6.5227    4.9664 C   0  0  2  0  0  0  0  0  0  0  0  0
    1.9480    7.1362    3.6411 N   0  0  0  0  0  0  0  0  0  0  0  0
    7.6484    5.4098    6.1509 C   0  0  0  0  0  0  0  0  0  0  0  0
    8.8279    7.2562    1.1849 C   0  0  2  0  0  0  0  0  0  0  0  0
    8.4695    5.9335    1.5492 O   0  0  0  0  0  0  0  0  0  0  0  0
    1.4012    7.6066    6.0022 C   0  0  1  0  0  0  0  0  0  0  0  0
    0.2009    8.2797    5.5888 O   0  0  0  0  0  0  0  0  0  0  0  0
    6.1889    5.8973    6.4429 C   0  0  2  0  0  0  0  0  0  0  0  0
    5.4225    4.8257    7.1108 N   0  0  0  0  0  0  0  0  0  0  0  0
   10.3621    7.5191    1.4426 C   0  0  1  0  0  0  0  0  0  0  0  0
   11.2017    6.5517    0.6741 N   0  0  0  0  0  0  0  0  0  0  0  0
    1.2299    6.9363    7.3861 C   0  0  2  0  0  0  0  0  0  0  0  0
    0.8956    7.9362    8.3644 O   0  0  0  0  0  0  0  0  0  0  0  0
    5.4627    6.2912    5.1313 C   0  0  2  0  0  0  0  0  0  0  0  0
   10.7040    8.9900    1.0241 C   0  0  1  0  0  0  0  0  0  0  0  0
   10.4455    9.1637   -0.3667 O   0  0  0  0  0  0  0  0  0  0  0  0
    2.5646    6.1989    7.7851 C   0  0  2  0  0  0  0  0  0  0  0  0
    2.9062    5.1903    6.7633 O   0  0  0  0  0  0  0  0  0  0  0  0
    6.2629    7.4090    4.4170 C   0  0  2  0  0  0  0  0  0  0  0  0
    5.5879    7.7410    3.2080 O   0  0  0  0  0  0  0  0  0  0  0  0
    9.8021    9.9649    1.8449 C   0  0  0  0  0  0  0  0  0  0  0  0
    8.3671    9.6535    1.6393 O   0  0  0  0  0  0  0  0  0  0  0  0
    2.4441    5.4844    9.1565 C   0  0  2  0  0  0  0  0  0  0  0  0
    2.1873    6.4496   10.1733 O   0  0  0  0  0  0  0  0  0  0  0  0
    7.6941    6.9384    4.0681 C   0  0  1  0  0  0  0  0  0  0  0  0
    8.3563    8.0473    3.4152 O   0  0  0  0  0  0  0  0  0  0  0  0
    3.7241    4.7494    9.5186 C   0  0  0  0  0  0  0  0  0  0  0  0
   12.1697    9.3282    1.2670 C   0  0  0  0  0  0  0  0  0  0  0  0
   11.6085    5.4659    1.5865 C   0  0  0  0  0  0  0  0  0  0  0  0
  1  2  1  1  0  0  0
  1  6  1  0  0  0  0
  1 23  1  0  0  0  0
  3  4  1  6  0  0  0
  3  8  1  0  0  0  0
  3 30  1  0  0  0  0
  5  9  1  0  0  0  0
  5 27  1  0  0  0  0
  5 31  1  1  0  0  0
  6  7  1  6  0  0  0
  6 11  1  0  0  0  0
  8 13  1  0  0  0  0
  9 10  1  1  0  0  0
  9 15  1  0  0  0  0
 11 12  1  6  0  0  0
 11 17  1  0  0  0  0
 13 14  1  6  0  0  0
 13 19  1  0  0  0  0
 15 16  1  6  0  0  0
 15 20  1  0  0  0  0
 16 34  1  0  0  0  0
 17 18  1  1  0  0  0
 17 22  1  0  0  0  0
 19  2  1  1  0  0  0
 19 24  1  0  0  0  0
 20 21  1  6  0  0  0
 20 26  1  0  0  0  0
 20 33  1  0  0  0  0
 22 23  1  6  0  0  0
 22 28  1  0  0  0  0
 24 25  1  6  0  0  0
 24 30  1  0  0  0  0
 26 27  1  0  0  0  0
 28 29  1  1  0  0  0
 28 32  1  0  0  0  0
 30 31  1  1  0  0  0
M  END
>  <CHROM.1>
-144.79517041,-95.91934524,-98.76559931,-61.81881831,167.20350880,-80.85263995
6.13865186,7.02908672,4.54928277,2.53075137,-0.25625012,2.16062415

>  <Name>
ligand

>  <RI>
0

>  <Rbt.Current_Directory>
/home/itssahil/PROJECTS/Mol_Feturizer/New_Systems/rnas/3TD1

>  <Rbt.Executable>
rbdock ($Id: //depot/dev/client3/rdock/2013.1/src/exe/rbdock.cxx#4 $)

>  <Rbt.Library>
libRbt.so (2013.1, Build901 2013/11/27)

>  <Rbt.Parameter_File>
/export/apps/rDock/src/rDock_2013.1_src/data/scripts/dock_solv.prm

>  <Rbt.Receptor>
prm/blind_docking_20.prm

>  <SCORE>
25.0225

>  <SCORE.INTER>
16.8447

>  <SCORE.INTER.CONST>
1

>  <SCORE.INTER.POLAR>
0

>  <SCORE.INTER.ROT>
6

>  <SCORE.INTER.SOLV>
24.2744

>  <SCORE.INTER.VDW>
-4.46167

>  <SCORE.INTER.norm>
0.495431

>  <SCORE.INTRA>
-1.26683

>  <SCORE.INTRA.DIHEDRAL>
-6.67204

>  <SCORE.INTRA.DIHEDRAL.0>
19.5869

>  <SCORE.INTRA.POLAR>
0

>  <SCORE.INTRA.POLAR.0>
0

>  <SCORE.INTRA.REPUL>
0

>  <SCORE.INTRA.REPUL.0>
0

>  <SCORE.INTRA.SOLV>
2.24627

>  <SCORE.INTRA.SOLV.lig_0>
-70.101

>  <SCORE.INTRA.VDW>
0.946052

>  <SCORE.INTRA.VDW.0>
-3.39718

>  <SCORE.INTRA.norm>
-0.0372598

>  <SCORE.RESTR>
9.44471

>  <SCORE.RESTR.CAVITY>
9.44471

>  <SCORE.RESTR.norm>
0.277786

>  <SCORE.SYSTEM>
0

>  <SCORE.SYSTEM.CONST>
0

>  <SCORE.SYSTEM.DIHEDRAL>
0

>  <SCORE.SYSTEM.SOLV>
0

>  <SCORE.SYSTEM.norm>
0

>  <SCORE.heavy>
34

>  <SCORE.norm>
0.735957

>  <RMSD>
5.710

$$$$
ligand
 OpenBabel11021811483D
libRbt.so/2013.1/901 2013/11/27
 34 36  0  0  0  0  0  0  0  0999 V2000
    2.0403    4.7083    8.9106 C   0  0  2  0  0  0  0  0  0  0  0  0
    1.3286    4.8894    7.6764 O   0  0  0  0  0  0  0  0  0  0  0  0
    3.3067    6.2023    4.1233 C   0  0  2  0  0  0  0  0  0  0  0  0
    3.8541    7.0593    3.0773 N   0  0  0  0  0  0  0  0  0  0  0  0
    6.4162    7.1969    5.6229 C   0  0  2  0  0  0  0  0  0  0  0  0
    2.7643    3.3158    8.8529 C   0  0  2  0  0  0  0  0  0  0  0  0
    3.7236    3.2619    7.7388 N   0  0  0  0  0  0  0  0  0  0  0  0
    1.7876    6.5508    4.2662 C   0  0  0  0  0  0  0  0  0  0  0  0
    7.0206    7.5506    4.2170 C   0  0  2  0  0  0  0  0  0  0  0  0
    5.9941    8.0099    3.3531 O   0  0  0  0  0  0  0  0  0  0  0  0
    1.7107    2.1983    8.6938 C   0  0  1  0  0  0  0  0  0  0  0  0
    2.3659    0.9203    8.6482 O   0  0  0  0  0  0  0  0  0  0  0  0
    1.1938    5.6150    5.3728 C   0  0  2  0  0  0  0  0  0  0  0  0
   -0.2431    5.9016    5.5591 N   0  0  0  0  0  0  0  0  0  0  0  0
    7.7216    6.2645    3.6305 C   0  0  1  0  0  0  0  0  0  0  0  0
    8.3009    6.5450    2.2825 N   0  0  0  0  0  0  0  0  0  0  0  0
    0.7112    2.2836    9.8717 C   0  0  2  0  0  0  0  0  0  0  0  0
   -0.2836    1.2544    9.7312 O   0  0  0  0  0  0  0  0  0  0  0  0
    1.9258    5.8195    6.7238 C   0  0  2  0  0  0  0  0  0  0  0  0
    8.8442    5.8004    4.6205 C   0  0  1  0  0  0  0  0  0  0  0  0
    9.8237    6.8277    4.7481 O   0  0  0  0  0  0  0  0  0  0  0  0
    0.0338    3.7068    9.8880 C   0  0  2  0  0  0  0  0  0  0  0  0
    1.0668    4.7535   10.0124 O   0  0  0  0  0  0  0  0  0  0  0  0
    3.4364    5.5302    6.5383 C   0  0  2  0  0  0  0  0  0  0  0  0
    4.0899    5.7420    7.7855 O   0  0  0  0  0  0  0  0  0  0  0  0
    8.1975    5.5245    6.0144 C   0  0  0  0  0  0  0  0  0  0  0  0
    7.4870    6.7268    6.5125 O   0  0  0  0  0  0  0  0  0  0  0  0
   -0.9628    3.8606   11.0665 C   0  0  2  0  0  0  0  0  0  0  0  0
   -1.7365    2.6703   11.1919 O   0  0  0  0  0  0  0  0  0  0  0  0
    4.0634    6.4759    5.4876 C   0  0  1  0  0  0  0  0  0  0  0  0
    5.4632    6.1237    5.3836 O   0  0  0  0  0  0  0  0  0  0  0  0
   -1.9184    5.0210   10.8430 C   0  0  0  0  0  0  0  0  0  0  0  0
    9.5541    4.5437    4.1323 C   0  0  0  0  0  0  0  0  0  0  0  0
    7.6031    5.7004    1.2943 C   0  0  0  0  0  0  0  0  0  0  0  0
  1  2  1  6  0  0  0
  1  6  1  0  0  0  0
  1 23  1  0  0  0  0
  3  4  1  6  0  0  0
  3  8  1  0  0  0  0
  3 30  1  0  0  0  0
  5  9  1  0  0  0  0
  5 27  1  0  0  0  0
  5 31  1  6  0  0  0
  6  7  1  6  0  0  0
  6 11  1  0  0  0  0
  8 13  1  0  0  0  0
  9 10  1  6  0  0  0
  9 15  1  0  0  0  0
 11 12  1  1  0  0  0
 11 17  1  0  0  0  0
 13 14  1  1  0  0  0
 13 19  1  0  0  0  0
 15 16  1  6  0  0  0
 15 20  1  0  0  0  0
 16 34  1  0  0  0  0
 17 18  1  6  0  0  0
 17 22  1  0  0  0  0
 19  2  1  1  0  0  0
 19 24  1  0  0  0  0
 20 21  1  1  0  0  0
 20 26  1  0  0  0  0
 20 33  1  0  0  0  0
 22 23  1  1  0  0  0
 22 28  1  0  0  0  0
 24 25  1  1  0  0  0
 24 30  1  0  0  0  0
 26 27  1  0  0  0  0
 28 29  1  6  0  0  0
 28 32  1  0  0  0  0
 30 31  1  6  0  0  0
M  END
>  <CHROM.1>
-104.71269326,167.26195979,-116.36244324,-42.57047509,120.38365618,-107.65795200
3.72881320,5.11924049,6.60901384,-2.44827943,0.16519469,-0.88704551

>  <Name>
ligand

>  <RI>
0

>  <Rbt.Current_Directory>
/home/itssahil/PROJECTS/Mol_Feturizer/New_Systems/rnas/3TD1

>  <Rbt.Executable>
rbdock ($Id: //depot/dev/client3/rdock/2013.1/src/exe/rbdock.cxx#4 $)

>  <Rbt.Library>
libRbt.so (2013.1, Build901 2013/11/27)

>  <Rbt.Parameter_File>
/export/apps/rDock/src/rDock_2013.1_src/data/scripts/dock_solv.prm

>  <Rbt.Receptor>
prm/blind_docking_60.prm

>  <SCORE>
35.1824

>  <SCORE.INTER>
11.6085

>  <SCORE.INTER.CONST>
1

>  <SCORE.INTER.POLAR>
0

>  <SCORE.INTER.ROT>
6

>  <SCORE.INTER.SOLV>
27.5227

>  <SCORE.INTER.VDW>
-9.03526

>  <SCORE.INTER.norm>
0.341425

>  <SCORE.INTRA>
8.34631

>  <SCORE.INTRA.DIHEDRAL>
3.15783

>  <SCORE.INTRA.DIHEDRAL.0>
19.5869

>  <SCORE.INTRA.POLAR>
0

>  <SCORE.INTRA.POLAR.0>
0

>  <SCORE.INTRA.REPUL>
0

>  <SCORE.INTRA.REPUL.0>
0

>  <SCORE.INTRA.SOLV>
2.67707

>  <SCORE.INTRA.SOLV.lig_0>
-70.101

>  <SCORE.INTRA.VDW>
5.42886

>  <SCORE.INTRA.VDW.0>
-3.39718

>  <SCORE.INTRA.norm>
0.24548

>  <SCORE.RESTR>
15.2276

>  <SCORE.RESTR.CAVITY>
15.2276

>  <SCORE.RESTR.norm>
0.447871

>  <SCORE.SYSTEM>
0

>  <SCORE.SYSTEM.CONST>
0

>  <SCORE.SYSTEM.DIHEDRAL>
0

>  <SCORE.SYSTEM.SOLV>
0

>  <SCORE.SYSTEM.norm>
0

>  <SCORE.heavy>
34

>  <SCORE.norm>
1.03478

>  <RMSD>
5.736

$$$$
ligand
 OpenBabel11021811483D
libRbt.so/2013.1/901 2013/11/27
 34 36  0  0  0  0  0  0  0  0999 V2000
    6.7578    6.5927    4.7064 C   0  0  2  0  0  0  0  0  0  0  0  0
    6.7374    8.0285    4.6804 O   0  0  0  0  0  0  0  0  0  0  0  0
    8.5343    8.6834    0.8588 C   0  0  2  0  0  0  0  0  0  0  0  0
    9.2801    9.2940   -0.2362 N   0  0  0  0  0  0  0  0  0  0  0  0
   11.6494    7.1731    2.5028 C   0  0  2  0  0  0  0  0  0  0  0  0
    5.5962    6.0747    3.7850 C   0  0  2  0  0  0  0  0  0  0  0  0
    5.7774    6.5275    2.3971 N   0  0  0  0  0  0  0  0  0  0  0  0
    7.4654    9.7233    1.3340 C   0  0  0  0  0  0  0  0  0  0  0  0
   12.5350    8.4521    2.2863 C   0  0  2  0  0  0  0  0  0  0  0  0
   11.8127    9.6094    2.6733 O   0  0  0  0  0  0  0  0  0  0  0  0
    4.2447    6.5835    4.3317 C   0  0  1  0  0  0  0  0  0  0  0  0
    3.1764    6.1065    3.4976 O   0  0  0  0  0  0  0  0  0  0  0  0
    6.6488    9.0599    2.4941 C   0  0  2  0  0  0  0  0  0  0  0  0
    5.6232    9.9992    2.9914 N   0  0  0  0  0  0  0  0  0  0  0  0
   12.9521    8.5264    0.7664 C   0  0  1  0  0  0  0  0  0  0  0  0
   13.7855    9.7380    0.5043 N   0  0  0  0  0  0  0  0  0  0  0  0
    4.0844    6.1015    5.7931 C   0  0  2  0  0  0  0  0  0  0  0  0
    2.8336    6.5773    6.3199 O   0  0  0  0  0  0  0  0  0  0  0  0
    7.5777    8.6623    3.6696 C   0  0  2  0  0  0  0  0  0  0  0  0
   13.7452    7.2277    0.3921 C   0  0  1  0  0  0  0  0  0  0  0  0
   14.9300    7.1474    1.1800 O   0  0  0  0  0  0  0  0  0  0  0  0
    5.2871    6.6355    6.6608 C   0  0  2  0  0  0  0  0  0  0  0  0
    6.5645    6.1564    6.0978 O   0  0  0  0  0  0  0  0  0  0  0  0
    8.6638    7.6834    3.1576 C   0  0  2  0  0  0  0  0  0  0  0  0
    9.5147    7.3472    4.2486 O   0  0  0  0  0  0  0  0  0  0  0  0
   12.8417    5.9889    0.6863 C   0  0  0  0  0  0  0  0  0  0  0  0
   12.4072    5.9791    2.1039 O   0  0  0  0  0  0  0  0  0  0  0  0
    5.1937    6.1612    8.1346 C   0  0  2  0  0  0  0  0  0  0  0  0
    4.1173    6.8344    8.7822 O   0  0  0  0  0  0  0  0  0  0  0  0
    9.5220    8.3302    2.0455 C   0  0  1  0  0  0  0  0  0  0  0  0
   10.4949    7.3413    1.6333 O   0  0  0  0  0  0  0  0  0  0  0  0
    6.4692    6.4668    8.9024 C   0  0  0  0  0  0  0  0  0  0  0  0
   14.1633    7.2148   -1.0731 C   0  0  0  0  0  0  0  0  0  0  0  0
   12.8858   10.9012    0.3846 C   0  0  0  0  0  0  0  0  0  0  0  0
  1  2  1  1  0  0  0
  1  6  1  0  0  0  0
  1 23  1  0  0  0  0
  3  4  1  6  0  0  0
  3  8  1  0  0  0  0
  3 30  1  0  0  0  0
  5  9  1  0  0  0  0
  5 27  1  0  0  0  0
  5 31  1  6  0  0  0
  6  7  1  6  0  0  0
  6 11  1  0  0  0  0
  8 13  1  0  0  0  0
  9 10  1  6  0  0  0
  9 15  1  0  0  0  0
 11 12  1  6  0  0  0
 11 17  1  0  0  0  0
 13 14  1  1  0  0  0
 13 19  1  0  0  0  0
 15 16  1  1  0  0  0
 15 20  1  0  0  0  0
 16 34  1  0  0  0  0
 17 18  1  1  0  0  0
 17 22  1  0  0  0  0
 19  2  1  1  0  0  0
 19 24  1  0  0  0  0
 20 21  1  1  0  0  0
 20 26  1  0  0  0  0
 20 33  1  0  0  0  0
 22 23  1  6  0  0  0
 22 28  1  0  0  0  0
 24 25  1  1  0  0  0
 24 30  1  0  0  0  0
 26 27  1  0  0  0  0
 28 29  1  1  0  0  0
 28 32  1  0  0  0  0
 30 31  1  6  0  0  0
M  END
>  <CHROM.1>
-91.83530217,100.09802135,-79.80686364,-70.61065347,165.27754064,-72.61925210
8.64668766,7.60401709,3.23027407,-2.56706920,0.14334508,-1.08299916

>  <Name>
ligand

>  <RI>
0

>  <Rbt.Current_Directory>
/home/itssahil/PROJECTS/Mol_Feturizer/New_Systems/rnas/3TD1

>  <Rbt.Executable>
rbdock ($Id: //depot/dev/client3/rdock/2013.1/src/exe/rbdock.cxx#4 $)

>  <Rbt.Library>
libRbt.so (2013.1, Build901 2013/11/27)

>  <Rbt.Parameter_File>
/export/apps/rDock/src/rDock_2013.1_src/data/scripts/dock_solv.prm

>  <Rbt.Receptor>
prm/blind_docking_100.prm

>  <SCORE>
45.037

>  <SCORE.INTER>
33.634

>  <SCORE.INTER.CONST>
1

>  <SCORE.INTER.POLAR>
0

>  <SCORE.INTER.ROT>
6

>  <SCORE.INTER.SOLV>
31.7646

>  <SCORE.INTER.VDW>
4.23447

>  <SCORE.INTER.norm>
0.989235

>  <SCORE.INTRA>
2.73662

>  <SCORE.INTRA.DIHEDRAL>
-7.70718

>  <SCORE.INTRA.DIHEDRAL.0>
19.5869

>  <SCORE.INTRA.POLAR>
0

>  <SCORE.INTRA.POLAR.0>
0

>  <SCORE.INTRA.REPUL>
0

>  <SCORE.INTRA.REPUL.0>
0

>  <SCORE.INTRA.SOLV>
3.57978

>  <SCORE.INTRA.SOLV.lig_0>
-70.101

>  <SCORE.INTRA.VDW>
4.80031

>  <SCORE.INTRA.VDW.0>
-3.39718

>  <SCORE.INTRA.norm>
0.0804887

>  <SCORE.RESTR>
8.66644

>  <SCORE.RESTR.CAVITY>
8.66644

>  <SCORE.RESTR.norm>
0.254895

>  <SCORE.SYSTEM>
0

>  <SCORE.SYSTEM.CONST>
0

>  <SCORE.SYSTEM.DIHEDRAL>
0

>  <SCORE.SYSTEM.SOLV>
0

>  <SCORE.SYSTEM.norm>
0

>  <SCORE.heavy>
34

>  <SCORE.norm>
1.32462

>  <RMSD>
5.740

$$$$
ligand
 OpenBabel11021811483D
libRbt.so/2013.1/901 2013/11/27
 34 36  0  0  0  0  0  0  0  0999 V2000
    6.2053    6.3677    4.3745 C   0  0  2  0  0  0  0  0  0  0  0  0
    6.4897    7.7412    4.6831 O   0  0  0  0  0  0  0  0  0  0  0  0
    8.8230    8.4899    1.1821 C   0  0  2  0  0  0  0  0  0  0  0  0
    9.7150    9.1294    0.2211 N   0  0  0  0  0  0  0  0  0  0  0  0
   11.9972    7.4707    2.6984 C   0  0  2  0  0  0  0  0  0  0  0  0
    4.6513    6.2217    4.2002 C   0  0  2  0  0  0  0  0  0  0  0  0
    4.1585    7.0675    3.1019 N   0  0  0  0  0  0  0  0  0  0  0  0
    7.6835    9.5103    1.5136 C   0  0  0  0  0  0  0  0  0  0  0  0
   12.4333    8.7645    1.9219 C   0  0  2  0  0  0  0  0  0  0  0  0
   11.5477    9.8298    2.2251 O   0  0  0  0  0  0  0  0  0  0  0  0
    3.9502    6.6121    5.5194 C   0  0  1  0  0  0  0  0  0  0  0  0
    2.5279    6.4733    5.3694 O   0  0  0  0  0  0  0  0  0  0  0  0
    6.7125    8.8160    2.5275 C   0  0  2  0  0  0  0  0  0  0  0  0
    5.6136    9.7358    2.8854 N   0  0  0  0  0  0  0  0  0  0  0  0
   12.4330    8.4499    0.3758 C   0  0  1  0  0  0  0  0  0  0  0  0
   12.8271    9.6573   -0.4105 N   0  0  0  0  0  0  0  0  0  0  0  0
    4.4927    5.7150    6.6571 C   0  0  2  0  0  0  0  0  0  0  0  0
    3.8561    6.0746    7.8956 O   0  0  0  0  0  0  0  0  0  0  0  0
    7.4624    8.4030    3.8198 C   0  0  2  0  0  0  0  0  0  0  0  0
   13.4251    7.2696    0.0963 C   0  0  1  0  0  0  0  0  0  0  0  0
   14.7438    7.6532    0.4768 O   0  0  0  0  0  0  0  0  0  0  0  0
    6.0552    5.8903    6.7690 C   0  0  2  0  0  0  0  0  0  0  0  0
    6.6936    5.5372    5.4861 O   0  0  0  0  0  0  0  0  0  0  0  0
    8.6237    7.4445    3.4556 C   0  0  2  0  0  0  0  0  0  0  0  0
    9.3082    7.0937    4.6538 O   0  0  0  0  0  0  0  0  0  0  0  0
   12.9807    6.0336    0.9402 C   0  0  0  0  0  0  0  0  0  0  0  0
   12.9227    6.3741    2.3822 O   0  0  0  0  0  0  0  0  0  0  0  0
    6.6608    4.9929    7.8799 C   0  0  2  0  0  0  0  0  0  0  0  0
    6.1570    3.6665    7.7454 O   0  0  0  0  0  0  0  0  0  0  0  0
    9.6289    8.1215    2.4950 C   0  0  1  0  0  0  0  0  0  0  0  0
   10.6637    7.1500    2.2125 O   0  0  0  0  0  0  0  0  0  0  0  0
    6.2952    5.4962    9.2666 C   0  0  0  0  0  0  0  0  0  0  0  0
   13.4621    6.8904   -1.3791 C   0  0  0  0  0  0  0  0  0  0  0  0
   14.0231   10.2491    0.2189 C   0  0  0  0  0  0  0  0  0  0  0  0
  1  2  1  1  0  0  0
  1  6  1  0  0  0  0
  1 23  1  0  0  0  0
  3  4  1  6  0  0  0
  3  8  1  0  0  0  0
  3 30  1  0  0  0  0
  5  9  1  0  0  0  0
  5 27  1  0  0  0  0
  5 31  1  6  0  0  0
  6  7  1  6  0  0  0
  6 11  1  0  0  0  0
  8 13  1  0  0  0  0
  9 10  1  6  0  0  0
  9 15  1  0  0  0  0
 11 12  1  6  0  0  0
 11 17  1  0  0  0  0
 13 14  1  1  0  0  0
 13 19  1  0  0  0  0
 15 16  1  6  0  0  0
 15 20  1  0  0  0  0
 16 34  1  0  0  0  0
 17 18  1  1  0  0  0
 17 22  1  0  0  0  0
 19  2  1  1  0  0  0
 19 24  1  0  0  0  0
 20 21  1  1  0  0  0
 20 26  1  0  0  0  0
 20 33  1  0  0  0  0
 22 23  1  6  0  0  0
 22 28  1  0  0  0  0
 24 25  1  1  0  0  0
 24 30  1  0  0  0  0
 26 27  1  0  0  0  0
 28 29  1  6  0  0  0
 28 32  1  0  0  0  0
 30 31  1  6  0  0  0
M  END
>  <CHROM.1>
-125.84746975,80.08824770,46.66661632,48.03674667,129.56979391,-64.05127362
8.69550854,7.34386769,3.37184147,2.50989219,-0.22643597,2.23374668

>  <Name>
ligand

>  <RI>
0

>  <Rbt.Current_Directory>
/home/itssahil/PROJECTS/Mol_Feturizer/New_Systems/rnas/3TD1

>  <Rbt.Executable>
rbdock ($Id: //depot/dev/client3/rdock/2013.1/src/exe/rbdock.cxx#4 $)

>  <Rbt.Library>
libRbt.so (2013.1, Build901 2013/11/27)

>  <Rbt.Parameter_File>
/export/apps/rDock/src/rDock_2013.1_src/data/scripts/dock_solv.prm

>  <Rbt.Receptor>
prm/blind_docking_100.prm

>  <SCORE>
38.4754

>  <SCORE.INTER>
16.7503

>  <SCORE.INTER.CONST>
1

>  <SCORE.INTER.POLAR>
0

>  <SCORE.INTER.ROT>
6

>  <SCORE.INTER.SOLV>
28.8263

>  <SCORE.INTER.VDW>
-6.04186

>  <SCORE.INTER.norm>
0.492657

>  <SCORE.INTRA>
9.00039

>  <SCORE.INTRA.DIHEDRAL>
-3.29007

>  <SCORE.INTRA.DIHEDRAL.0>
19.5869

>  <SCORE.INTRA.POLAR>
0

>  <SCORE.INTRA.POLAR.0>
0

>  <SCORE.INTRA.REPUL>
0

>  <SCORE.INTRA.REPUL.0>
0

>  <SCORE.INTRA.SOLV>
5.03703

>  <SCORE.INTRA.SOLV.lig_0>
-70.101

>  <SCORE.INTRA.VDW>
8.12691

>  <SCORE.INTRA.VDW.0>
-3.39718

>  <SCORE.INTRA.norm>
0.264717

>  <SCORE.RESTR>
12.7247

>  <SCORE.RESTR.CAVITY>
12.7247

>  <SCORE.RESTR.norm>
0.374255

>  <SCORE.SYSTEM>
0

>  <SCORE.SYSTEM.CONST>
0

>  <SCORE.SYSTEM.DIHEDRAL>
0

>  <SCORE.SYSTEM.SOLV>
0

>  <SCORE.SYSTEM.norm>
0

>  <SCORE.heavy>
34

>  <SCORE.norm>
1.13163

>  <RMSD>
5.758

$$$$
ligand
 OpenBabel11021811483D
libRbt.so/2013.1/901 2013/11/27
 34 36  0  0  0  0  0  0  0  0999 V2000
    2.0287    4.7082    8.9106 C   0  0  2  0  0  0  0  0  0  0  0  0
    1.3241    4.8913    7.6726 O   0  0  0  0  0  0  0  0  0  0  0  0
    3.3056    6.2257    4.1293 C   0  0  2  0  0  0  0  0  0  0  0  0
    3.8554    7.0890    3.0899 N   0  0  0  0  0  0  0  0  0  0  0  0
    6.4183    7.2011    5.6270 C   0  0  2  0  0  0  0  0  0  0  0  0
    2.7337    3.3056    8.8643 C   0  0  2  0  0  0  0  0  0  0  0  0
    3.6962    3.2315    7.7542 N   0  0  0  0  0  0  0  0  0  0  0  0
    1.7876    6.5777    4.2752 C   0  0  0  0  0  0  0  0  0  0  0  0
    7.0248    7.5509    4.2210 C   0  0  2  0  0  0  0  0  0  0  0  0
    6.0005    8.0122    3.3557 O   0  0  0  0  0  0  0  0  0  0  0  0
    1.6654    2.2017    8.7082 C   0  0  1  0  0  0  0  0  0  0  0  0
    2.3031    0.9145    8.6732 O   0  0  0  0  0  0  0  0  0  0  0  0
    1.1911    5.6352    5.3747 C   0  0  2  0  0  0  0  0  0  0  0  0
   -0.2449    5.9248    5.5635 N   0  0  0  0  0  0  0  0  0  0  0  0
    7.7222    6.2618    3.6369 C   0  0  1  0  0  0  0  0  0  0  0  0
    8.3034    6.5386    2.2889 N   0  0  0  0  0  0  0  0  0  0  0  0
    0.6628    2.3082    9.8817 C   0  0  2  0  0  0  0  0  0  0  0  0
   -0.3456    1.2919    9.7440 O   0  0  0  0  0  0  0  0  0  0  0  0
    1.9240    5.8269    6.7270 C   0  0  2  0  0  0  0  0  0  0  0  0
    8.8426    5.7955    4.6283 C   0  0  1  0  0  0  0  0  0  0  0  0
    9.8253    6.8199    4.7552 O   0  0  0  0  0  0  0  0  0  0  0  0
    0.0050    3.7406    9.8866 C   0  0  2  0  0  0  0  0  0  0  0  0
    1.0518    4.7738   10.0083 O   0  0  0  0  0  0  0  0  0  0  0  0
    3.4337    5.5345    6.5390 C   0  0  2  0  0  0  0  0  0  0  0  0
    4.0881    5.7345    7.7877 O   0  0  0  0  0  0  0  0  0  0  0  0
    8.1940    5.5236    6.0222 C   0  0  0  0  0  0  0  0  0  0  0  0
    7.4869    6.7288    6.5180 O   0  0  0  0  0  0  0  0  0  0  0  0
   -0.9938    3.9155   11.0604 C   0  0  2  0  0  0  0  0  0  0  0  0
   -0.5433    3.1616   12.1828 O   0  0  0  0  0  0  0  0  0  0  0  0
    4.0634    6.4863    5.4955 C   0  0  1  0  0  0  0  0  0  0  0  0
    5.4620    6.1306    5.3885 O   0  0  0  0  0  0  0  0  0  0  0  0
   -2.3832    3.4233   10.6905 C   0  0  0  0  0  0  0  0  0  0  0  0
    9.5488    4.5358    4.1423 C   0  0  0  0  0  0  0  0  0  0  0  0
    7.5842    5.7161    1.2974 C   0  0  0  0  0  0  0  0  0  0  0  0
  1  2  1  6  0  0  0
  1  6  1  0  0  0  0
  1 23  1  0  0  0  0
  3  4  1  6  0  0  0
  3  8  1  0  0  0  0
  3 30  1  0  0  0  0
  5  9  1  0  0  0  0
  5 27  1  0  0  0  0
  5 31  1  6  0  0  0
  6  7  1  6  0  0  0
  6 11  1  0  0  0  0
  8 13  1  0  0  0  0
  9 10  1  6  0  0  0
  9 15  1  0  0  0  0
 11 12  1  1  0  0  0
 11 17  1  0  0  0  0
 13 14  1  1  0  0  0
 13 19  1  0  0  0  0
 15 16  1  6  0  0  0
 15 20  1  0  0  0  0
 16 34  1  0  0  0  0
 17 18  1  6  0  0  0
 17 22  1  0  0  0  0
 19  2  1  1  0  0  0
 19 24  1  0  0  0  0
 20 21  1  1  0  0  0
 20 26  1  0  0  0  0
 20 33  1  0  0  0  0
 22 23  1  1  0  0  0
 22 28  1  0  0  0  0
 24 25  1  1  0  0  0
 24 30  1  0  0  0  0
 26 27  1  0  0  0  0
 28 29  1  1  0  0  0
 28 32  1  0  0  0  0
 30 31  1  6  0  0  0
M  END
>  <CHROM.1>
-105.86203623,167.84456791,-115.17293726,32.88906332,119.98149990,-107.86481607
3.74229989,5.09348604,6.64267463,-2.42204174,0.12119052,-0.93734044

>  <Name>
ligand

>  <RI>
0

>  <Rbt.Current_Directory>
/home/itssahil/PROJECTS/Mol_Feturizer/New_Systems/rnas/3TD1

>  <Rbt.Executable>
rbdock ($Id: //depot/dev/client3/rdock/2013.1/src/exe/rbdock.cxx#4 $)

>  <Rbt.Library>
libRbt.so (2013.1, Build901 2013/11/27)

>  <Rbt.Parameter_File>
/export/apps/rDock/src/rDock_2013.1_src/data/scripts/dock_solv.prm

>  <Rbt.Receptor>
prm/blind_docking_60.prm

>  <SCORE>
35.5403

>  <SCORE.INTER>
12.2712

>  <SCORE.INTER.CONST>
1

>  <SCORE.INTER.POLAR>
0

>  <SCORE.INTER.ROT>
6

>  <SCORE.INTER.SOLV>
28.1214

>  <SCORE.INTER.VDW>
-8.79302

>  <SCORE.INTER.norm>
0.360917

>  <SCORE.INTRA>
8.36208

>  <SCORE.INTRA.DIHEDRAL>
4.46676

>  <SCORE.INTRA.DIHEDRAL.0>
19.5869

>  <SCORE.INTRA.POLAR>
0

>  <SCORE.INTRA.POLAR.0>
0

>  <SCORE.INTRA.REPUL>
0

>  <SCORE.INTRA.REPUL.0>
0

>  <SCORE.INTRA.SOLV>
2.6815

>  <SCORE.INTRA.SOLV.lig_0>
-70.101

>  <SCORE.INTRA.VDW>
4.78795

>  <SCORE.INTRA.VDW.0>
-3.39718

>  <SCORE.INTRA.norm>
0.245944

>  <SCORE.RESTR>
14.907

>  <SCORE.RESTR.CAVITY>
14.907

>  <SCORE.RESTR.norm>
0.438442

>  <SCORE.SYSTEM>
0

>  <SCORE.SYSTEM.CONST>
0

>  <SCORE.SYSTEM.DIHEDRAL>
0

>  <SCORE.SYSTEM.SOLV>
0

>  <SCORE.SYSTEM.norm>
0

>  <SCORE.heavy>
34

>  <SCORE.norm>
1.0453

>  <RMSD>
5.758

$$$$
ligand
 OpenBabel11021811483D
libRbt.so/2013.1/901 2013/11/27
 34 36  0  0  0  0  0  0  0  0999 V2000
    2.0246    4.6877    8.8943 C   0  0  2  0  0  0  0  0  0  0  0  0
    1.3245    4.8612    7.6524 O   0  0  0  0  0  0  0  0  0  0  0  0
    3.2900    6.2154    4.1078 C   0  0  2  0  0  0  0  0  0  0  0  0
    3.8340    7.0844    3.0701 N   0  0  0  0  0  0  0  0  0  0  0  0
    6.4057    7.1911    5.6023 C   0  0  2  0  0  0  0  0  0  0  0  0
    2.7291    3.2845    8.8619 C   0  0  2  0  0  0  0  0  0  0  0  0
    3.6955    3.2010    7.7558 N   0  0  0  0  0  0  0  0  0  0  0  0
    1.7716    6.5631    4.2607 C   0  0  0  0  0  0  0  0  0  0  0  0
    7.0311    7.5301    4.2019 C   0  0  2  0  0  0  0  0  0  0  0  0
    6.0189    7.9866    3.3200 O   0  0  0  0  0  0  0  0  0  0  0  0
    1.6608    2.1798    8.7108 C   0  0  1  0  0  0  0  0  0  0  0  0
    2.2981    0.8921    8.6883 O   0  0  0  0  0  0  0  0  0  0  0  0
    1.1814    5.6145    5.3582 C   0  0  2  0  0  0  0  0  0  0  0  0
   -0.2546    5.8998    5.5534 N   0  0  0  0  0  0  0  0  0  0  0  0
    7.7343    6.2359    3.6361 C   0  0  1  0  0  0  0  0  0  0  0  0
    8.3334    6.5024    2.2940 N   0  0  0  0  0  0  0  0  0  0  0  0
    0.6541    2.2961    9.8799 C   0  0  2  0  0  0  0  0  0  0  0  0
   -0.3542    1.2792    9.7467 O   0  0  0  0  0  0  0  0  0  0  0  0
    1.9187    5.8022    6.7087 C   0  0  2  0  0  0  0  0  0  0  0  0
    8.8409    5.7752    4.6455 C   0  0  1  0  0  0  0  0  0  0  0  0
    9.8233    6.7991    4.7780 O   0  0  0  0  0  0  0  0  0  0  0  0
   -0.0030    3.7288    9.8709 C   0  0  2  0  0  0  0  0  0  0  0  0
    1.0439    4.7625    9.9881 O   0  0  0  0  0  0  0  0  0  0  0  0
    3.4284    5.5143    6.5141 C   0  0  2  0  0  0  0  0  0  0  0  0
    4.0868    5.7106    7.7612 O   0  0  0  0  0  0  0  0  0  0  0  0
    8.1737    5.5140    6.0326 C   0  0  0  0  0  0  0  0  0  0  0  0
    7.4620    6.7237    6.5105 O   0  0  0  0  0  0  0  0  0  0  0  0
   -1.0058    3.9136   11.0397 C   0  0  2  0  0  0  0  0  0  0  0  0
   -0.5376    3.2033   12.1832 O   0  0  0  0  0  0  0  0  0  0  0  0
    4.0520    6.4721    5.4724 C   0  0  1  0  0  0  0  0  0  0  0  0
    5.4512    6.1202    5.3589 O   0  0  0  0  0  0  0  0  0  0  0  0
   -2.3830    3.3778   10.6849 C   0  0  0  0  0  0  0  0  0  0  0  0
    9.5516    4.5111    4.1777 C   0  0  0  0  0  0  0  0  0  0  0  0
    7.6079    5.6947    1.2950 C   0  0  0  0  0  0  0  0  0  0  0  0
  1  2  1  6  0  0  0
  1  6  1  0  0  0  0
  1 23  1  0  0  0  0
  3  4  1  6  0  0  0
  3  8  1  0  0  0  0
  3 30  1  0  0  0  0
  5  9  1  0  0  0  0
  5 27  1  0  0  0  0
  5 31  1  6  0  0  0
  6  7  1  6  0  0  0
  6 11  1  0  0  0  0
  8 13  1  0  0  0  0
  9 10  1  6  0  0  0
  9 15  1  0  0  0  0
 11 12  1  1  0  0  0
 11 17  1  0  0  0  0
 13 14  1  1  0  0  0
 13 19  1  0  0  0  0
 15 16  1  6  0  0  0
 15 20  1  0  0  0  0
 16 34  1  0  0  0  0
 17 18  1  6  0  0  0
 17 22  1  0  0  0  0
 19  2  1  1  0  0  0
 19 24  1  0  0  0  0
 20 21  1  1  0  0  0
 20 26  1  0  0  0  0
 20 33  1  0  0  0  0
 22 23  1  1  0  0  0
 22 28  1  0  0  0  0
 24 25  1  1  0  0  0
 24 30  1  0  0  0  0
 26 27  1  0  0  0  0
 28 29  1  1  0  0  0
 28 32  1  0  0  0  0
 30 31  1  6  0  0  0
M  END
>  <CHROM.1>
-106.64082491,168.62868514,-114.02663299,34.73710713,120.15369782,-109.10655223
3.73853412,5.07628900,6.63444095,-2.42265132,0.11946530,-0.93931859

>  <Name>
ligand

>  <RI>
0

>  <Rbt.Current_Directory>
/home/itssahil/PROJECTS/Mol_Feturizer/New_Systems/rnas/3TD1

>  <Rbt.Executable>
rbdock ($Id: //depot/dev/client3/rdock/2013.1/src/exe/rbdock.cxx#4 $)

>  <Rbt.Library>
libRbt.so (2013.1, Build901 2013/11/27)

>  <Rbt.Parameter_File>
/export/apps/rDock/src/rDock_2013.1_src/data/scripts/dock_solv.prm

>  <Rbt.Receptor>
prm/blind_docking_60.prm

>  <SCORE>
35.1831

>  <SCORE.INTER>
12.4484

>  <SCORE.INTER.CONST>
1

>  <SCORE.INTER.POLAR>
0

>  <SCORE.INTER.ROT>
6

>  <SCORE.INTER.SOLV>
28.309

>  <SCORE.INTER.VDW>
-8.73736

>  <SCORE.INTER.norm>
0.366131

>  <SCORE.INTRA>
7.73782

>  <SCORE.INTRA.DIHEDRAL>
4.34517

>  <SCORE.INTRA.DIHEDRAL.0>
19.5869

>  <SCORE.INTRA.POLAR>
0

>  <SCORE.INTRA.POLAR.0>
0

>  <SCORE.INTRA.REPUL>
0

>  <SCORE.INTRA.REPUL.0>
0

>  <SCORE.INTRA.SOLV>
2.54372

>  <SCORE.INTRA.SOLV.lig_0>
-70.101

>  <SCORE.INTRA.VDW>
4.29337

>  <SCORE.INTRA.VDW.0>
-3.39718

>  <SCORE.INTRA.norm>
0.227583

>  <SCORE.RESTR>
14.9968

>  <SCORE.RESTR.CAVITY>
14.9968

>  <SCORE.RESTR.norm>
0.441083

>  <SCORE.SYSTEM>
0

>  <SCORE.SYSTEM.CONST>
0

>  <SCORE.SYSTEM.DIHEDRAL>
0

>  <SCORE.SYSTEM.SOLV>
0

>  <SCORE.SYSTEM.norm>
0

>  <SCORE.heavy>
34

>  <SCORE.norm>
1.0348

>  <RMSD>
5.763

$$$$
ligand
 OpenBabel11021811483D
libRbt.so/2013.1/901 2013/11/27
 34 36  0  0  0  0  0  0  0  0999 V2000
    9.8130    4.5267   11.1805 C   0  0  2  0  0  0  0  0  0  0  0  0
   11.0815    3.8560   11.1204 O   0  0  0  0  0  0  0  0  0  0  0  0
   13.2545    7.3511    9.9697 C   0  0  2  0  0  0  0  0  0  0  0  0
   14.3439    8.2436    9.5890 N   0  0  0  0  0  0  0  0  0  0  0  0
   13.6450    7.6506    6.9046 C   0  0  2  0  0  0  0  0  0  0  0  0
    9.0134    3.9432   12.3998 C   0  0  2  0  0  0  0  0  0  0  0  0
    9.7315    4.1705   13.6635 N   0  0  0  0  0  0  0  0  0  0  0  0
   13.6571    6.6715   11.3209 C   0  0  0  0  0  0  0  0  0  0  0  0
   12.9160    8.2797    5.6636 C   0  0  2  0  0  0  0  0  0  0  0  0
   11.8683    9.1297    6.1003 O   0  0  0  0  0  0  0  0  0  0  0  0
    8.7898    2.4302   12.1872 C   0  0  1  0  0  0  0  0  0  0  0  0
    8.0515    1.8911   13.2958 O   0  0  0  0  0  0  0  0  0  0  0  0
   12.4780    5.7307   11.7424 C   0  0  2  0  0  0  0  0  0  0  0  0
   12.8024    5.0525   13.0137 N   0  0  0  0  0  0  0  0  0  0  0  0
   12.3593    7.1125    4.7596 C   0  0  1  0  0  0  0  0  0  0  0  0
   11.6410    7.6604    3.5700 N   0  0  0  0  0  0  0  0  0  0  0  0
    8.0420    2.2196   10.8492 C   0  0  2  0  0  0  0  0  0  0  0  0
    7.8358    0.8128   10.6321 O   0  0  0  0  0  0  0  0  0  0  0  0
   12.2084    4.6584   10.6560 C   0  0  2  0  0  0  0  0  0  0  0  0
   13.5543    6.2063    4.3054 C   0  0  1  0  0  0  0  0  0  0  0  0
   14.4708    6.9760    3.5317 O   0  0  0  0  0  0  0  0  0  0  0  0
    8.8827    2.8422    9.6702 C   0  0  2  0  0  0  0  0  0  0  0  0
    9.1036    4.2806    9.9156 O   0  0  0  0  0  0  0  0  0  0  0  0
   11.8756    5.3585    9.3147 C   0  0  2  0  0  0  0  0  0  0  0  0
   11.6502    4.3557    8.3293 O   0  0  0  0  0  0  0  0  0  0  0  0
   14.2785    5.6611    5.5764 C   0  0  0  0  0  0  0  0  0  0  0  0
   14.7315    6.7757    6.4430 O   0  0  0  0  0  0  0  0  0  0  0  0
    8.1684    2.6835    8.3025 C   0  0  2  0  0  0  0  0  0  0  0  0
    8.0048    1.2980    8.0108 O   0  0  0  0  0  0  0  0  0  0  0  0
   13.0447    6.2555    8.8453 C   0  0  1  0  0  0  0  0  0  0  0  0
   12.6358    6.8646    7.5979 O   0  0  0  0  0  0  0  0  0  0  0  0
    8.9731    3.3093    7.1754 C   0  0  0  0  0  0  0  0  0  0  0  0
   13.0910    5.0376    3.4443 C   0  0  0  0  0  0  0  0  0  0  0  0
   10.1910    7.5006    3.7912 C   0  0  0  0  0  0  0  0  0  0  0  0
  1  2  1  6  0  0  0
  1  6  1  0  0  0  0
  1 23  1  0  0  0  0
  3  4  1  6  0  0  0
  3  8  1  0  0  0  0
  3 30  1  0  0  0  0
  5  9  1  0  0  0  0
  5 27  1  0  0  0  0
  5 31  1  6  0  0  0
  6  7  1  1  0  0  0
  6 11  1  0  0  0  0
  8 13  1  0  0  0  0
  9 10  1  1  0  0  0
  9 15  1  0  0  0  0
 11 12  1  1  0  0  0
 11 17  1  0  0  0  0
 13 14  1  1  0  0  0
 13 19  1  0  0  0  0
 15 16  1  6  0  0  0
 15 20  1  0  0  0  0
 16 34  1  0  0  0  0
 17 18  1  6  0  0  0
 17 22  1  0  0  0  0
 19  2  1  1  0  0  0
 19 24  1  0  0  0  0
 20 21  1  6  0  0  0
 20 26  1  0  0  0  0
 20 33  1  0  0  0  0
 22 23  1  1  0  0  0
 22 28  1  0  0  0  0
 24 25  1  6  0  0  0
 24 30  1  0  0  0  0
 26 27  1  0  0  0  0
 28 29  1  6  0  0  0
 28 32  1  0  0  0  0
 30 31  1  6  0  0  0
M  END
>  <CHROM.1>
-146.06514414,67.66620733,-104.99665415,-61.57470896,70.05359404,-175.67114399
11.33789774,5.17618196,8.57834207,-2.25154203,-0.72687672,-1.46427048

>  <Name>
ligand

>  <RI>
0

>  <Rbt.Current_Directory>
/home/itssahil/PROJECTS/Mol_Feturizer/New_Systems/rnas/3TD1

>  <Rbt.Executable>
rbdock ($Id: //depot/dev/client3/rdock/2013.1/src/exe/rbdock.cxx#4 $)

>  <Rbt.Library>
libRbt.so (2013.1, Build901 2013/11/27)

>  <Rbt.Parameter_File>
/export/apps/rDock/src/rDock_2013.1_src/data/scripts/dock_solv.prm

>  <Rbt.Receptor>
prm/pocket_docking_5.prm

>  <SCORE>
-8.04176

>  <SCORE.INTER>
-2.29932

>  <SCORE.INTER.CONST>
1

>  <SCORE.INTER.POLAR>
0

>  <SCORE.INTER.ROT>
6

>  <SCORE.INTER.SOLV>
7.96008

>  <SCORE.INTER.VDW>
-11.7862

>  <SCORE.INTER.norm>
-0.0676271

>  <SCORE.INTRA>
-5.74805

>  <SCORE.INTRA.DIHEDRAL>
-13.2876

>  <SCORE.INTRA.DIHEDRAL.0>
19.5869

>  <SCORE.INTRA.POLAR>
0

>  <SCORE.INTRA.POLAR.0>
0

>  <SCORE.INTRA.REPUL>
0

>  <SCORE.INTRA.REPUL.0>
0

>  <SCORE.INTRA.SOLV>
0.6735

>  <SCORE.INTRA.SOLV.lig_0>
-70.101

>  <SCORE.INTRA.VDW>
0.559005

>  <SCORE.INTRA.VDW.0>
-3.39718

>  <SCORE.INTRA.norm>
-0.16906

>  <SCORE.RESTR>
0.00561176

>  <SCORE.RESTR.CAVITY>
0.00561176

>  <SCORE.RESTR.norm>
0.000165052

>  <SCORE.SYSTEM>
0

>  <SCORE.SYSTEM.CONST>
0

>  <SCORE.SYSTEM.DIHEDRAL>
0

>  <SCORE.SYSTEM.SOLV>
0

>  <SCORE.SYSTEM.norm>
0

>  <SCORE.heavy>
34

>  <SCORE.norm>
-0.236522

>  <RMSD>
5.795

$$$$
ligand
 OpenBabel11021811483D
libRbt.so/2013.1/901 2013/11/27
 34 36  0  0  0  0  0  0  0  0999 V2000
    3.1829    5.6494    5.9466 C   0  0  2  0  0  0  0  0  0  0  0  0
    4.2010    6.6583    6.0356 O   0  0  0  0  0  0  0  0  0  0  0  0
    8.4499    6.8712    5.6321 C   0  0  2  0  0  0  0  0  0  0  0  0
    9.8372    6.5073    5.3651 N   0  0  0  0  0  0  0  0  0  0  0  0
    7.5717    7.7493    1.9959 C   0  0  2  0  0  0  0  0  0  0  0  0
    1.7905    6.3714    5.8666 C   0  0  2  0  0  0  0  0  0  0  0  0
    1.7081    7.2358    4.6790 N   0  0  0  0  0  0  0  0  0  0  0  0
    7.8797    5.8268    6.6489 C   0  0  0  0  0  0  0  0  0  0  0  0
    8.1832    6.4490    1.3616 C   0  0  2  0  0  0  0  0  0  0  0  0
    7.7684    5.3118    2.1001 O   0  0  0  0  0  0  0  0  0  0  0  0
    1.5765    7.2118    7.1442 C   0  0  1  0  0  0  0  0  0  0  0  0
    0.3003    7.8692    7.0812 O   0  0  0  0  0  0  0  0  0  0  0  0
    6.3975    6.2303    6.9540 C   0  0  2  0  0  0  0  0  0  0  0  0
    5.7998    5.2739    7.9079 N   0  0  0  0  0  0  0  0  0  0  0  0
    9.7556    6.5800    1.3581 C   0  0  1  0  0  0  0  0  0  0  0  0
   10.3877    5.3576    0.7771 N   0  0  0  0  0  0  0  0  0  0  0  0
    1.6770    6.2812    8.3761 C   0  0  2  0  0  0  0  0  0  0  0  0
    1.4903    7.0525    9.5755 O   0  0  0  0  0  0  0  0  0  0  0  0
    5.5480    6.2436    5.6575 C   0  0  2  0  0  0  0  0  0  0  0  0
   10.1590    7.8482    0.5308 C   0  0  1  0  0  0  0  0  0  0  0  0
    9.7172    7.7007   -0.8161 O   0  0  0  0  0  0  0  0  0  0  0  0
    3.0850    5.5726    8.3897 C   0  0  2  0  0  0  0  0  0  0  0  0
    3.2714    4.8014    7.1452 O   0  0  0  0  0  0  0  0  0  0  0  0
    6.1710    7.2372    4.6454 C   0  0  2  0  0  0  0  0  0  0  0  0
    5.3859    7.2188    3.4577 O   0  0  0  0  0  0  0  0  0  0  0  0
    9.4738    9.0982    1.1674 C   0  0  0  0  0  0  0  0  0  0  0  0
    8.0026    8.9216    1.2218 O   0  0  0  0  0  0  0  0  0  0  0  0
    3.2347    4.6043    9.5922 C   0  0  2  0  0  0  0  0  0  0  0  0
    4.5315    4.0137    9.5670 O   0  0  0  0  0  0  0  0  0  0  0  0
    7.6197    6.8345    4.2838 C   0  0  1  0  0  0  0  0  0  0  0  0
    8.1109    7.8207    3.3455 O   0  0  0  0  0  0  0  0  0  0  0  0
    2.2075    3.4854    9.5405 C   0  0  0  0  0  0  0  0  0  0  0  0
   11.6682    8.0561    0.5015 C   0  0  0  0  0  0  0  0  0  0  0  0
   11.5677    5.0145    1.5936 C   0  0  0  0  0  0  0  0  0  0  0  0
  1  2  1  1  0  0  0
  1  6  1  0  0  0  0
  1 23  1  0  0  0  0
  3  4  1  6  0  0  0
  3  8  1  0  0  0  0
  3 30  1  0  0  0  0
  5  9  1  0  0  0  0
  5 27  1  0  0  0  0
  5 31  1  1  0  0  0
  6  7  1  6  0  0  0
  6 11  1  0  0  0  0
  8 13  1  0  0  0  0
  9 10  1  1  0  0  0
  9 15  1  0  0  0  0
 11 12  1  6  0  0  0
 11 17  1  0  0  0  0
 13 14  1  1  0  0  0
 13 19  1  0  0  0  0
 15 16  1  6  0  0  0
 15 20  1  0  0  0  0
 16 34  1  0  0  0  0
 17 18  1  1  0  0  0
 17 22  1  0  0  0  0
 19  2  1  1  0  0  0
 19 24  1  0  0  0  0
 20 21  1  6  0  0  0
 20 26  1  0  0  0  0
 20 33  1  0  0  0  0
 22 23  1  6  0  0  0
 22 28  1  0  0  0  0
 24 25  1  6  0  0  0
 24 30  1  0  0  0  0
 26 27  1  0  0  0  0
 28 29  1  6  0  0  0
 28 32  1  0  0  0  0
 30 31  1  6  0  0  0
M  END
>  <CHROM.1>
-159.46678489,-110.88443973,-138.53764434,-178.91804291,170.77011068,-70.37594557
6.09657822,6.49908247,4.83556437,2.42815107,-0.30328282,2.10102370

>  <Name>
ligand

>  <RI>
0

>  <Rbt.Current_Directory>
/home/itssahil/PROJECTS/Mol_Feturizer/New_Systems/rnas/3TD1

>  <Rbt.Executable>
rbdock ($Id: //depot/dev/client3/rdock/2013.1/src/exe/rbdock.cxx#4 $)

>  <Rbt.Library>
libRbt.so (2013.1, Build901 2013/11/27)

>  <Rbt.Parameter_File>
/export/apps/rDock/src/rDock_2013.1_src/data/scripts/dock_solv.prm

>  <Rbt.Receptor>
prm/blind_docking_40.prm

>  <SCORE>
19.6309

>  <SCORE.INTER>
8.59742

>  <SCORE.INTER.CONST>
1

>  <SCORE.INTER.POLAR>
0

>  <SCORE.INTER.ROT>
6

>  <SCORE.INTER.SOLV>
20.9519

>  <SCORE.INTER.VDW>
-8.85237

>  <SCORE.INTER.norm>
0.252865

>  <SCORE.INTRA>
0.0725268

>  <SCORE.INTRA.DIHEDRAL>
-8.96484

>  <SCORE.INTRA.DIHEDRAL.0>
19.5869

>  <SCORE.INTRA.POLAR>
0

>  <SCORE.INTRA.POLAR.0>
0

>  <SCORE.INTRA.REPUL>
0

>  <SCORE.INTRA.REPUL.0>
0

>  <SCORE.INTRA.SOLV>
2.46942

>  <SCORE.INTRA.SOLV.lig_0>
-70.101

>  <SCORE.INTRA.VDW>
3.32024

>  <SCORE.INTRA.VDW.0>
-3.39718

>  <SCORE.INTRA.norm>
0.00213314

>  <SCORE.RESTR>
10.961

>  <SCORE.RESTR.CAVITY>
10.961

>  <SCORE.RESTR.norm>
0.322382

>  <SCORE.SYSTEM>
0

>  <SCORE.SYSTEM.CONST>
0

>  <SCORE.SYSTEM.DIHEDRAL>
0

>  <SCORE.SYSTEM.SOLV>
0

>  <SCORE.SYSTEM.norm>
0

>  <SCORE.heavy>
34

>  <SCORE.norm>
0.57738

>  <RMSD>
5.814

$$$$
ligand
 OpenBabel11021811483D
libRbt.so/2013.1/901 2013/11/27
 34 36  0  0  0  0  0  0  0  0999 V2000
    2.3093    5.9789    5.3583 C   0  0  2  0  0  0  0  0  0  0  0  0
    3.4074    6.9042    5.3819 O   0  0  0  0  0  0  0  0  0  0  0  0
    7.6777    6.7437    5.3942 C   0  0  2  0  0  0  0  0  0  0  0  0
    9.0464    6.2573    5.5290 N   0  0  0  0  0  0  0  0  0  0  0  0
    7.4559    7.6016    2.4349 C   0  0  2  0  0  0  0  0  0  0  0  0
    0.9805    6.8065    5.2327 C   0  0  2  0  0  0  0  0  0  0  0  0
    0.9625    7.5970    3.9922 N   0  0  0  0  0  0  0  0  0  0  0  0
    6.9480    6.4697    6.7514 C   0  0  0  0  0  0  0  0  0  0  0  0
    8.1425    7.5940    1.0222 C   0  0  2  0  0  0  0  0  0  0  0  0
    7.4665    6.6910    0.1629 O   0  0  0  0  0  0  0  0  0  0  0  0
    0.8436    7.7416    6.4539 C   0  0  1  0  0  0  0  0  0  0  0  0
   -0.3746    8.4965    6.3495 O   0  0  0  0  0  0  0  0  0  0  0  0
    5.4853    7.0127    6.6155 C   0  0  2  0  0  0  0  0  0  0  0  0
    4.7403    6.7766    7.8689 N   0  0  0  0  0  0  0  0  0  0  0  0
    9.6557    7.1836    1.1983 C   0  0  1  0  0  0  0  0  0  0  0  0
   10.3516    7.1461   -0.1229 N   0  0  0  0  0  0  0  0  0  0  0  0
    0.8745    6.8865    7.7429 C   0  0  2  0  0  0  0  0  0  0  0  0
    0.7586    7.7457    8.8905 O   0  0  0  0  0  0  0  0  0  0  0  0
    4.7402    6.3142    5.4494 C   0  0  2  0  0  0  0  0  0  0  0  0
   10.3541    8.2111    2.1533 C   0  0  1  0  0  0  0  0  0  0  0  0
   10.3056    9.5121    1.5735 O   0  0  0  0  0  0  0  0  0  0  0  0
    2.2195    6.0667    7.8013 C   0  0  2  0  0  0  0  0  0  0  0  0
    2.3347    5.2048    6.6088 O   0  0  0  0  0  0  0  0  0  0  0  0
    5.5179    6.5475    4.1301 C   0  0  2  0  0  0  0  0  0  0  0  0
    4.8261    5.8826    3.0781 O   0  0  0  0  0  0  0  0  0  0  0  0
    9.5932    8.2223    3.5166 C   0  0  0  0  0  0  0  0  0  0  0  0
    8.1595    8.5431    3.3166 O   0  0  0  0  0  0  0  0  0  0  0  0
    2.2961    5.1683    9.0634 C   0  0  2  0  0  0  0  0  0  0  0  0
    2.5302    5.9810   10.2106 O   0  0  0  0  0  0  0  0  0  0  0  0
    6.9516    5.9741    4.2155 C   0  0  1  0  0  0  0  0  0  0  0  0
    7.5921    6.2464    2.9466 O   0  0  0  0  0  0  0  0  0  0  0  0
    3.4278    4.1590    8.9635 C   0  0  0  0  0  0  0  0  0  0  0  0
   11.8190    7.8663    2.3921 C   0  0  0  0  0  0  0  0  0  0  0  0
   10.5002    5.7351   -0.5276 C   0  0  0  0  0  0  0  0  0  0  0  0
  1  2  1  1  0  0  0
  1  6  1  0  0  0  0
  1 23  1  0  0  0  0
  3  4  1  1  0  0  0
  3  8  1  0  0  0  0
  3 30  1  0  0  0  0
  5  9  1  0  0  0  0
  5 27  1  0  0  0  0
  5 31  1  1  0  0  0
  6  7  1  6  0  0  0
  6 11  1  0  0  0  0
  8 13  1  0  0  0  0
  9 10  1  6  0  0  0
  9 15  1  0  0  0  0
 11 12  1  6  0  0  0
 11 17  1  0  0  0  0
 13 14  1  1  0  0  0
 13 19  1  0  0  0  0
 15 16  1  6  0  0  0
 15 20  1  0  0  0  0
 16 34  1  0  0  0  0
 17 18  1  1  0  0  0
 17 22  1  0  0  0  0
 19  2  1  6  0  0  0
 19 24  1  0  0  0  0
 20 21  1  6  0  0  0
 20 26  1  0  0  0  0
 20 33  1  0  0  0  0
 22 23  1  6  0  0  0
 22 28  1  0  0  0  0
 24 25  1  6  0  0  0
 24 30  1  0  0  0  0
 26 27  1  0  0  0  0
 28 29  1  1  0  0  0
 28 32  1  0  0  0  0
 30 31  1  6  0  0  0
M  END
>  <CHROM.1>
-177.97841865,-129.11298533,-103.25148383,-73.33348235,-68.54860825,-176.03486564
5.57511644,6.86496521,4.73600675,2.49330869,-0.05255467,1.78670690

>  <Name>
ligand

>  <RI>
0

>  <Rbt.Current_Directory>
/home/itssahil/PROJECTS/Mol_Feturizer/New_Systems/rnas/3TD1

>  <Rbt.Executable>
rbdock ($Id: //depot/dev/client3/rdock/2013.1/src/exe/rbdock.cxx#4 $)

>  <Rbt.Library>
libRbt.so (2013.1, Build901 2013/11/27)

>  <Rbt.Parameter_File>
/export/apps/rDock/src/rDock_2013.1_src/data/scripts/dock_solv.prm

>  <Rbt.Receptor>
prm/blind_docking_20.prm

>  <SCORE>
13.3218

>  <SCORE.INTER>
6.66656

>  <SCORE.INTER.CONST>
1

>  <SCORE.INTER.POLAR>
0

>  <SCORE.INTER.ROT>
6

>  <SCORE.INTER.SOLV>
24.0999

>  <SCORE.INTER.VDW>
-11.1889

>  <SCORE.INTER.norm>
0.196075

>  <SCORE.INTRA>
-0.783333

>  <SCORE.INTRA.DIHEDRAL>
-10.6705

>  <SCORE.INTRA.DIHEDRAL.0>
19.5869

>  <SCORE.INTRA.POLAR>
0

>  <SCORE.INTRA.POLAR.0>
0

>  <SCORE.INTRA.REPUL>
0

>  <SCORE.INTRA.REPUL.0>
0

>  <SCORE.INTRA.SOLV>
3.60038

>  <SCORE.INTRA.SOLV.lig_0>
-70.101

>  <SCORE.INTRA.VDW>
2.75172

>  <SCORE.INTRA.VDW.0>
-3.39718

>  <SCORE.INTRA.norm>
-0.0230392

>  <SCORE.RESTR>
7.43862

>  <SCORE.RESTR.CAVITY>
7.43862

>  <SCORE.RESTR.norm>
0.218783

>  <SCORE.SYSTEM>
0

>  <SCORE.SYSTEM.CONST>
0

>  <SCORE.SYSTEM.DIHEDRAL>
0

>  <SCORE.SYSTEM.SOLV>
0

>  <SCORE.SYSTEM.norm>
0

>  <SCORE.heavy>
34

>  <SCORE.norm>
0.391819

>  <RMSD>
5.818

$$$$
ligand
 OpenBabel11021811483D
libRbt.so/2013.1/901 2013/11/27
 34 36  0  0  0  0  0  0  0  0999 V2000
    3.1323    5.7008    5.8514 C   0  0  2  0  0  0  0  0  0  0  0  0
    4.1275    6.7271    5.9885 O   0  0  0  0  0  0  0  0  0  0  0  0
    8.3862    7.0447    5.8339 C   0  0  2  0  0  0  0  0  0  0  0  0
    9.7992    6.6987    5.7245 N   0  0  0  0  0  0  0  0  0  0  0  0
    7.6033    7.3879    2.0811 C   0  0  2  0  0  0  0  0  0  0  0  0
    1.7361    6.3992    5.6798 C   0  0  2  0  0  0  0  0  0  0  0  0
    1.7113    7.2487    4.4790 N   0  0  0  0  0  0  0  0  0  0  0  0
    7.7759    6.1639    6.9746 C   0  0  0  0  0  0  0  0  0  0  0  0
    8.7885    6.9292    1.1580 C   0  0  2  0  0  0  0  0  0  0  0  0
    9.3180    5.7007    1.6285 O   0  0  0  0  0  0  0  0  0  0  0  0
    1.4333    7.2504    6.9321 C   0  0  1  0  0  0  0  0  0  0  0  0
    0.1531    7.8863    6.7853 O   0  0  0  0  0  0  0  0  0  0  0  0
    6.2643    6.5512    7.1085 C   0  0  2  0  0  0  0  0  0  0  0  0
    5.6284    5.7454    8.1705 N   0  0  0  0  0  0  0  0  0  0  0  0
    9.8915    8.0574    1.1541 C   0  0  1  0  0  0  0  0  0  0  0  0
   11.0513    7.6614    0.3001 N   0  0  0  0  0  0  0  0  0  0  0  0
    1.4745    6.3355    8.1791 C   0  0  2  0  0  0  0  0  0  0  0  0
    1.2046    7.1172    9.3558 O   0  0  0  0  0  0  0  0  0  0  0  0
    5.5098    6.3107    5.7760 C   0  0  2  0  0  0  0  0  0  0  0  0
    9.2558    9.3891    0.6269 C   0  0  1  0  0  0  0  0  0  0  0  0
    8.7977    9.2037   -0.7098 O   0  0  0  0  0  0  0  0  0  0  0  0
    2.8900    5.6500    8.2851 C   0  0  2  0  0  0  0  0  0  0  0  0
    3.1622    4.8679    7.0634 O   0  0  0  0  0  0  0  0  0  0  0  0
    6.1740    7.1445    4.6519 C   0  0  2  0  0  0  0  0  0  0  0  0
    5.4768    6.8938    3.4360 O   0  0  0  0  0  0  0  0  0  0  0  0
    8.0474    9.7619    1.5424 C   0  0  0  0  0  0  0  0  0  0  0  0
    7.0580    8.6583    1.5836 O   0  0  0  0  0  0  0  0  0  0  0  0
    2.9826    4.6980    9.5061 C   0  0  2  0  0  0  0  0  0  0  0  0
    4.2828    4.1165    9.5566 O   0  0  0  0  0  0  0  0  0  0  0  0
    7.6561    6.7469    4.4602 C   0  0  1  0  0  0  0  0  0  0  0  0
    8.1839    7.5804    3.4014 O   0  0  0  0  0  0  0  0  0  0  0  0
    1.9669    3.5711    9.4150 C   0  0  0  0  0  0  0  0  0  0  0  0
   10.2581   10.5368    0.6165 C   0  0  0  0  0  0  0  0  0  0  0  0
   12.0657    7.0263    1.1630 C   0  0  0  0  0  0  0  0  0  0  0  0
  1  2  1  1  0  0  0
  1  6  1  0  0  0  0
  1 23  1  0  0  0  0
  3  4  1  6  0  0  0
  3  8  1  0  0  0  0
  3 30  1  0  0  0  0
  5  9  1  0  0  0  0
  5 27  1  0  0  0  0
  5 31  1  1  0  0  0
  6  7  1  6  0  0  0
  6 11  1  0  0  0  0
  8 13  1  0  0  0  0
  9 10  1  1  0  0  0
  9 15  1  0  0  0  0
 11 12  1  6  0  0  0
 11 17  1  0  0  0  0
 13 14  1  1  0  0  0
 13 19  1  0  0  0  0
 15 16  1  6  0  0  0
 15 20  1  0  0  0  0
 16 34  1  0  0  0  0
 17 18  1  1  0  0  0
 17 22  1  0  0  0  0
 19  2  1  1  0  0  0
 19 24  1  0  0  0  0
 20 21  1  6  0  0  0
 20 26  1  0  0  0  0
 20 33  1  0  0  0  0
 22 23  1  6  0  0  0
 22 28  1  0  0  0  0
 24 25  1  6  0  0  0
 24 30  1  0  0  0  0
 26 27  1  0  0  0  0
 28 29  1  6  0  0  0
 28 32  1  0  0  0  0
 30 31  1  6  0  0  0
M  END
>  <CHROM.1>
-163.07027579,-117.90803404,-93.89196476,-179.57545199,179.24523048,-118.89331667
5.96492023,6.90338007,4.80759955,2.37515261,-0.20131251,2.11141641

>  <Name>
ligand

>  <RI>
0

>  <Rbt.Current_Directory>
/home/itssahil/PROJECTS/Mol_Feturizer/New_Systems/rnas/3TD1

>  <Rbt.Executable>
rbdock ($Id: //depot/dev/client3/rdock/2013.1/src/exe/rbdock.cxx#4 $)

>  <Rbt.Library>
libRbt.so (2013.1, Build901 2013/11/27)

>  <Rbt.Parameter_File>
/export/apps/rDock/src/rDock_2013.1_src/data/scripts/dock_solv.prm

>  <Rbt.Receptor>
prm/blind_docking_40.prm

>  <SCORE>
18.8021

>  <SCORE.INTER>
5.79827

>  <SCORE.INTER.CONST>
1

>  <SCORE.INTER.POLAR>
0

>  <SCORE.INTER.ROT>
6

>  <SCORE.INTER.SOLV>
18.6297

>  <SCORE.INTER.VDW>
-9.94439

>  <SCORE.INTER.norm>
0.170537

>  <SCORE.INTRA>
1.60692

>  <SCORE.INTRA.DIHEDRAL>
-3.11979

>  <SCORE.INTRA.DIHEDRAL.0>
19.5869

>  <SCORE.INTRA.POLAR>
0

>  <SCORE.INTRA.POLAR.0>
0

>  <SCORE.INTRA.REPUL>
0

>  <SCORE.INTRA.REPUL.0>
0

>  <SCORE.INTRA.SOLV>
0.974903

>  <SCORE.INTRA.SOLV.lig_0>
-70.101

>  <SCORE.INTRA.VDW>
2.67936

>  <SCORE.INTRA.VDW.0>
-3.39718

>  <SCORE.INTRA.norm>
0.0472622

>  <SCORE.RESTR>
11.3969

>  <SCORE.RESTR.CAVITY>
11.3969

>  <SCORE.RESTR.norm>
0.335204

>  <SCORE.SYSTEM>
0

>  <SCORE.SYSTEM.CONST>
0

>  <SCORE.SYSTEM.DIHEDRAL>
0

>  <SCORE.SYSTEM.SOLV>
0

>  <SCORE.SYSTEM.norm>
0

>  <SCORE.heavy>
34

>  <SCORE.norm>
0.553004

>  <RMSD>
5.884

$$$$
ligand
 OpenBabel11021811483D
libRbt.so/2013.1/901 2013/11/27
 34 36  0  0  0  0  0  0  0  0999 V2000
    3.0538    5.7027    5.9681 C   0  0  2  0  0  0  0  0  0  0  0  0
    3.9886    6.7910    6.0346 O   0  0  0  0  0  0  0  0  0  0  0  0
    8.0323    7.4722    4.8320 C   0  0  2  0  0  0  0  0  0  0  0  0
    9.4456    7.2613    4.5382 N   0  0  0  0  0  0  0  0  0  0  0  0
    7.7166    5.9826    1.5328 C   0  0  2  0  0  0  0  0  0  0  0  0
    1.6416    6.2507    6.3826 C   0  0  2  0  0  0  0  0  0  0  0  0
    1.1967    7.3158    5.4705 N   0  0  0  0  0  0  0  0  0  0  0  0
    7.7919    7.0313    6.3144 C   0  0  0  0  0  0  0  0  0  0  0  0
    9.2400    5.7096    1.8010 C   0  0  2  0  0  0  0  0  0  0  0  0
    9.4188    5.2376    3.1261 O   0  0  0  0  0  0  0  0  0  0  0  0
    1.7068    6.7898    7.8281 C   0  0  1  0  0  0  0  0  0  0  0  0
    0.4155    7.2857    8.2169 O   0  0  0  0  0  0  0  0  0  0  0  0
    6.2797    7.2792    6.6381 C   0  0  2  0  0  0  0  0  0  0  0  0
    5.9877    6.8747    8.0283 N   0  0  0  0  0  0  0  0  0  0  0  0
   10.0424    7.0471    1.5627 C   0  0  1  0  0  0  0  0  0  0  0  0
   11.4996    6.8439    1.8209 N   0  0  0  0  0  0  0  0  0  0  0  0
    2.1852    5.6537    8.7631 C   0  0  2  0  0  0  0  0  0  0  0  0
    2.2612    6.1444   10.1129 O   0  0  0  0  0  0  0  0  0  0  0  0
    5.3675    6.4730    5.6785 C   0  0  2  0  0  0  0  0  0  0  0  0
    9.8114    7.5235    0.0878 C   0  0  1  0  0  0  0  0  0  0  0  0
   10.3031    6.5372   -0.8158 O   0  0  0  0  0  0  0  0  0  0  0  0
    3.5944    5.1338    8.2850 C   0  0  2  0  0  0  0  0  0  0  0  0
    3.5063    4.6521    6.8928 O   0  0  0  0  0  0  0  0  0  0  0  0
    5.6715    6.8826    4.2157 C   0  0  2  0  0  0  0  0  0  0  0  0
    4.8363    6.1174    3.3530 O   0  0  0  0  0  0  0  0  0  0  0  0
    8.2790    7.7174   -0.1398 C   0  0  0  0  0  0  0  0  0  0  0  0
    7.5403    6.4665    0.1566 O   0  0  0  0  0  0  0  0  0  0  0  0
    4.1151    3.9730    9.1723 C   0  0  2  0  0  0  0  0  0  0  0  0
    3.0464    3.4689    9.9692 O   0  0  0  0  0  0  0  0  0  0  0  0
    7.1472    6.6004    3.8496 C   0  0  1  0  0  0  0  0  0  0  0  0
    7.3299    7.0201    2.4768 O   0  0  0  0  0  0  0  0  0  0  0  0
    5.2205    4.4359   10.1069 C   0  0  0  0  0  0  0  0  0  0  0  0
   10.5386    8.8284   -0.2126 C   0  0  0  0  0  0  0  0  0  0  0  0
   11.9980    7.9985    2.5925 C   0  0  0  0  0  0  0  0  0  0  0  0
  1  2  1  1  0  0  0
  1  6  1  0  0  0  0
  1 23  1  0  0  0  0
  3  4  1  6  0  0  0
  3  8  1  0  0  0  0
  3 30  1  0  0  0  0
  5  9  1  0  0  0  0
  5 27  1  0  0  0  0
  5 31  1  1  0  0  0
  6  7  1  6  0  0  0
  6 11  1  0  0  0  0
  8 13  1  0  0  0  0
  9 10  1  1  0  0  0
  9 15  1  0  0  0  0
 11 12  1  1  0  0  0
 11 17  1  0  0  0  0
 13 14  1  1  0  0  0
 13 19  1  0  0  0  0
 15 16  1  6  0  0  0
 15 20  1  0  0  0  0
 16 34  1  0  0  0  0
 17 18  1  1  0  0  0
 17 22  1  0  0  0  0
 19  2  1  1  0  0  0
 19 24  1  0  0  0  0
 20 21  1  6  0  0  0
 20 26  1  0  0  0  0
 20 33  1  0  0  0  0
 22 23  1  6  0  0  0
 22 28  1  0  0  0  0
 24 25  1  6  0  0  0
 24 30  1  0  0  0  0
 26 27  1  0  0  0  0
 28 29  1  1  0  0  0
 28 32  1  0  0  0  0
 30 31  1  6  0  0  0
M  END
>  <CHROM.1>
-179.90096833,-142.05651714,-136.59235008,14.31943909,125.64474729,-75.94248277
6.17153483,6.41373517,4.84420811,2.33367537,-0.06320328,1.82699772

>  <Name>
ligand

>  <RI>
0

>  <Rbt.Current_Directory>
/home/itssahil/PROJECTS/Mol_Feturizer/New_Systems/rnas/3TD1

>  <Rbt.Executable>
rbdock ($Id: //depot/dev/client3/rdock/2013.1/src/exe/rbdock.cxx#4 $)

>  <Rbt.Library>
libRbt.so (2013.1, Build901 2013/11/27)

>  <Rbt.Parameter_File>
/export/apps/rDock/src/rDock_2013.1_src/data/scripts/dock_solv.prm

>  <Rbt.Receptor>
prm/blind_docking_40.prm

>  <SCORE>
17.8626

>  <SCORE.INTER>
4.71787

>  <SCORE.INTER.CONST>
1

>  <SCORE.INTER.POLAR>
0

>  <SCORE.INTER.ROT>
6

>  <SCORE.INTER.SOLV>
22.3895

>  <SCORE.INTER.VDW>
-11.9179

>  <SCORE.INTER.norm>
0.138761

>  <SCORE.INTRA>
2.89825

>  <SCORE.INTRA.DIHEDRAL>
-0.70262

>  <SCORE.INTRA.DIHEDRAL.0>
19.5869

>  <SCORE.INTRA.POLAR>
0

>  <SCORE.INTRA.POLAR.0>
0

>  <SCORE.INTRA.REPUL>
0

>  <SCORE.INTRA.REPUL.0>
0

>  <SCORE.INTRA.SOLV>
4.586

>  <SCORE.INTRA.SOLV.lig_0>
-70.101

>  <SCORE.INTRA.VDW>
0.956553

>  <SCORE.INTRA.VDW.0>
-3.39718

>  <SCORE.INTRA.norm>
0.0852425

>  <SCORE.RESTR>
10.2465

>  <SCORE.RESTR.CAVITY>
10.2465

>  <SCORE.RESTR.norm>
0.301367

>  <SCORE.SYSTEM>
0

>  <SCORE.SYSTEM.CONST>
0

>  <SCORE.SYSTEM.DIHEDRAL>
0

>  <SCORE.SYSTEM.SOLV>
0

>  <SCORE.SYSTEM.norm>
0

>  <SCORE.heavy>
34

>  <SCORE.norm>
0.52537

>  <RMSD>
5.886

$$$$
ligand
 OpenBabel11021811483D
libRbt.so/2013.1/901 2013/11/27
 34 36  0  0  0  0  0  0  0  0999 V2000
    1.9303    4.9416    9.1908 C   0  0  2  0  0  0  0  0  0  0  0  0
    1.6222    4.6562    7.8174 O   0  0  0  0  0  0  0  0  0  0  0  0
    2.9989    6.2323    4.0915 C   0  0  2  0  0  0  0  0  0  0  0  0
    3.3614    7.1647    3.0299 N   0  0  0  0  0  0  0  0  0  0  0  0
    5.7376    6.4525    3.6364 C   0  0  2  0  0  0  0  0  0  0  0  0
    1.8462    3.5961    9.9964 C   0  0  2  0  0  0  0  0  0  0  0  0
    2.8130    2.6111    9.4872 N   0  0  0  0  0  0  0  0  0  0  0  0
    1.5147    6.5300    4.4891 C   0  0  0  0  0  0  0  0  0  0  0  0
    6.9854    5.5433    3.3477 C   0  0  2  0  0  0  0  0  0  0  0  0
    6.6148    4.1769    3.4279 O   0  0  0  0  0  0  0  0  0  0  0  0
    0.4139    3.0281    9.8941 C   0  0  1  0  0  0  0  0  0  0  0  0
    0.3277    1.8004   10.6358 O   0  0  0  0  0  0  0  0  0  0  0  0
    1.1172    5.5140    5.6128 C   0  0  2  0  0  0  0  0  0  0  0  0
   -0.2780    5.7497    6.0365 N   0  0  0  0  0  0  0  0  0  0  0  0
    8.1140    5.8868    4.3954 C   0  0  1  0  0  0  0  0  0  0  0  0
    9.3207    5.0350    4.1727 N   0  0  0  0  0  0  0  0  0  0  0  0
   -0.5815    4.0859   10.4268 C   0  0  2  0  0  0  0  0  0  0  0  0
   -1.9221    3.5747   10.3279 O   0  0  0  0  0  0  0  0  0  0  0  0
    2.0471    5.6574    6.8447 C   0  0  2  0  0  0  0  0  0  0  0  0
    8.4856    7.4035    4.2646 C   0  0  1  0  0  0  0  0  0  0  0  0
    8.9922    7.6605    2.9576 O   0  0  0  0  0  0  0  0  0  0  0  0
   -0.4355    5.4159    9.5936 C   0  0  2  0  0  0  0  0  0  0  0  0
    0.9490    5.9183    9.6876 O   0  0  0  0  0  0  0  0  0  0  0  0
    3.5152    5.4211    6.4103 C   0  0  2  0  0  0  0  0  0  0  0  0
    4.3513    5.5757    7.5524 O   0  0  0  0  0  0  0  0  0  0  0  0
    7.1979    8.2548    4.4983 C   0  0  0  0  0  0  0  0  0  0  0  0
    6.1296    7.8657    3.5465 O   0  0  0  0  0  0  0  0  0  0  0  0
   -1.3938    6.5252   10.1004 C   0  0  2  0  0  0  0  0  0  0  0  0
   -2.7138    5.9987   10.2086 O   0  0  0  0  0  0  0  0  0  0  0  0
    3.9540    6.4445    5.3371 C   0  0  1  0  0  0  0  0  0  0  0  0
    5.3265    6.1374    4.9962 O   0  0  0  0  0  0  0  0  0  0  0  0
   -1.4359    7.7070    9.1457 C   0  0  0  0  0  0  0  0  0  0  0  0
    9.5573    7.8186    5.2651 C   0  0  0  0  0  0  0  0  0  0  0  0
    9.1491    3.7821    4.9328 C   0  0  0  0  0  0  0  0  0  0  0  0
  1  2  1  6  0  0  0
  1  6  1  0  0  0  0
  1 23  1  0  0  0  0
  3  4  1  6  0  0  0
  3  8  1  0  0  0  0
  3 30  1  0  0  0  0
  5  9  1  0  0  0  0
  5 27  1  0  0  0  0
  5 31  1  1  0  0  0
  6  7  1  6  0  0  0
  6 11  1  0  0  0  0
  8 13  1  0  0  0  0
  9 10  1  1  0  0  0
  9 15  1  0  0  0  0
 11 12  1  1  0  0  0
 11 17  1  0  0  0  0
 13 14  1  1  0  0  0
 13 19  1  0  0  0  0
 15 16  1  6  0  0  0
 15 20  1  0  0  0  0
 16 34  1  0  0  0  0
 17 18  1  6  0  0  0
 17 22  1  0  0  0  0
 19  2  1  1  0  0  0
 19 24  1  0  0  0  0
 20 21  1  6  0  0  0
 20 26  1  0  0  0  0
 20 33  1  0  0  0  0
 22 23  1  1  0  0  0
 22 28  1  0  0  0  0
 24 25  1  1  0  0  0
 24 30  1  0  0  0  0
 26 27  1  0  0  0  0
 28 29  1  6  0  0  0
 28 32  1  0  0  0  0
 30 31  1  6  0  0  0
M  END
>  <CHROM.1>
-161.37271050,-155.01092788,-87.60479248,-50.03085200,34.04518027,-157.87237203
3.39984174,5.58785610,6.64427309,-2.59325013,0.32035152,-0.80244965

>  <Name>
ligand

>  <RI>
0

>  <Rbt.Current_Directory>
/home/itssahil/PROJECTS/Mol_Feturizer/New_Systems/rnas/3TD1

>  <Rbt.Executable>
rbdock ($Id: //depot/dev/client3/rdock/2013.1/src/exe/rbdock.cxx#4 $)

>  <Rbt.Library>
libRbt.so (2013.1, Build901 2013/11/27)

>  <Rbt.Parameter_File>
/export/apps/rDock/src/rDock_2013.1_src/data/scripts/dock_solv.prm

>  <Rbt.Receptor>
prm/blind_docking_60.prm

>  <SCORE>
37.9354

>  <SCORE.INTER>
20.1805

>  <SCORE.INTER.CONST>
1

>  <SCORE.INTER.POLAR>
0

>  <SCORE.INTER.ROT>
6

>  <SCORE.INTER.SOLV>
30.7757

>  <SCORE.INTER.VDW>
-4.40494

>  <SCORE.INTER.norm>
0.593543

>  <SCORE.INTRA>
-1.22517

>  <SCORE.INTRA.DIHEDRAL>
-9.42354

>  <SCORE.INTRA.DIHEDRAL.0>
19.5869

>  <SCORE.INTRA.POLAR>
0

>  <SCORE.INTRA.POLAR.0>
0

>  <SCORE.INTRA.REPUL>
0

>  <SCORE.INTRA.REPUL.0>
0

>  <SCORE.INTRA.SOLV>
0.722155

>  <SCORE.INTRA.SOLV.lig_0>
-70.101

>  <SCORE.INTRA.VDW>
3.12552

>  <SCORE.INTRA.VDW.0>
-3.39718

>  <SCORE.INTRA.norm>
-0.0360346

>  <SCORE.RESTR>
18.9801

>  <SCORE.RESTR.CAVITY>
18.9801

>  <SCORE.RESTR.norm>
0.558238

>  <SCORE.SYSTEM>
0

>  <SCORE.SYSTEM.CONST>
0

>  <SCORE.SYSTEM.DIHEDRAL>
0

>  <SCORE.SYSTEM.SOLV>
0

>  <SCORE.SYSTEM.norm>
0

>  <SCORE.heavy>
34

>  <SCORE.norm>
1.11575

>  <RMSD>
5.886

$$$$
ligand
 OpenBabel11021811483D
libRbt.so/2013.1/901 2013/11/27
 34 36  0  0  0  0  0  0  0  0999 V2000
    4.3188    5.5634    5.6626 C   0  0  2  0  0  0  0  0  0  0  0  0
    5.2340    6.6607    5.5180 O   0  0  0  0  0  0  0  0  0  0  0  0
    9.1710    6.9862    3.8882 C   0  0  2  0  0  0  0  0  0  0  0  0
   10.3461    6.7759    3.0498 N   0  0  0  0  0  0  0  0  0  0  0  0
    8.0470    9.1801    1.1238 C   0  0  2  0  0  0  0  0  0  0  0  0
    2.8772    6.0866    5.3238 C   0  0  2  0  0  0  0  0  0  0  0  0
    2.8051    6.5867    3.9421 N   0  0  0  0  0  0  0  0  0  0  0  0
    8.7448    5.5908    4.4549 C   0  0  0  0  0  0  0  0  0  0  0  0
    8.8741    8.1348    0.2929 C   0  0  2  0  0  0  0  0  0  0  0  0
    8.4667    6.8195    0.6314 O   0  0  0  0  0  0  0  0  0  0  0  0
    2.4970    7.2118    6.3106 C   0  0  1  0  0  0  0  0  0  0  0  0
    1.1754    7.6899    6.0111 O   0  0  0  0  0  0  0  0  0  0  0  0
    7.4972    5.8189    5.3737 C   0  0  2  0  0  0  0  0  0  0  0  0
    7.0419    4.5313    5.9362 N   0  0  0  0  0  0  0  0  0  0  0  0
   10.4078    8.3487    0.5957 C   0  0  1  0  0  0  0  0  0  0  0  0
   11.2393    7.3652   -0.1610 N   0  0  0  0  0  0  0  0  0  0  0  0
    2.5898    6.6621    7.7538 C   0  0  2  0  0  0  0  0  0  0  0  0
    2.2484    7.7031    8.6856 O   0  0  0  0  0  0  0  0  0  0  0  0
    6.3314    6.4591    4.5776 C   0  0  2  0  0  0  0  0  0  0  0  0
   10.8046    9.8133    0.2044 C   0  0  1  0  0  0  0  0  0  0  0  0
   10.5901   10.0102   -1.1907 O   0  0  0  0  0  0  0  0  0  0  0  0
    4.0505    6.1356    8.0259 C   0  0  2  0  0  0  0  0  0  0  0  0
    4.3948    5.0827    7.0507 O   0  0  0  0  0  0  0  0  0  0  0  0
    6.8004    7.8070    3.9748 C   0  0  2  0  0  0  0  0  0  0  0  0
    5.7208    8.3668    3.2341 O   0  0  0  0  0  0  0  0  0  0  0  0
    9.9096   10.8055    1.0118 C   0  0  0  0  0  0  0  0  0  0  0  0
    8.4722   10.5396    0.7632 O   0  0  0  0  0  0  0  0  0  0  0  0
    4.1976    5.5472    9.4535 C   0  0  2  0  0  0  0  0  0  0  0  0
    5.5443    5.1273    9.6569 O   0  0  0  0  0  0  0  0  0  0  0  0
    8.0005    7.6069    3.0202 C   0  0  1  0  0  0  0  0  0  0  0  0
    8.3644    8.9147    2.5188 O   0  0  0  0  0  0  0  0  0  0  0  0
    3.2937    4.3427    9.6578 C   0  0  0  0  0  0  0  0  0  0  0  0
   12.2724   10.1046    0.4915 C   0  0  0  0  0  0  0  0  0  0  0  0
   12.2537    6.8136    0.7576 C   0  0  0  0  0  0  0  0  0  0  0  0
  1  2  1  1  0  0  0
  1  6  1  0  0  0  0
  1 23  1  0  0  0  0
  3  4  1  6  0  0  0
  3  8  1  0  0  0  0
  3 30  1  0  0  0  0
  5  9  1  0  0  0  0
  5 27  1  0  0  0  0
  5 31  1  1  0  0  0
  6  7  1  6  0  0  0
  6 11  1  0  0  0  0
  8 13  1  0  0  0  0
  9 10  1  1  0  0  0
  9 15  1  0  0  0  0
 11 12  1  6  0  0  0
 11 17  1  0  0  0  0
 13 14  1  6  0  0  0
 13 19  1  0  0  0  0
 15 16  1  6  0  0  0
 15 20  1  0  0  0  0
 16 34  1  0  0  0  0
 17 18  1  1  0  0  0
 17 22  1  0  0  0  0
 19  2  1  1  0  0  0
 19 24  1  0  0  0  0
 20 21  1  6  0  0  0
 20 26  1  0  0  0  0
 20 33  1  0  0  0  0
 22 23  1  6  0  0  0
 22 28  1  0  0  0  0
 24 25  1  6  0  0  0
 24 30  1  0  0  0  0
 26 27  1  0  0  0  0
 28 29  1  6  0  0  0
 28 32  1  0  0  0  0
 30 31  1  1  0  0  0
M  END
>  <CHROM.1>
-122.70471221,-88.93557563,-134.82144121,-178.17778964,135.73461337,-61.99291069
6.88484461,7.28479180,4.05234520,-2.35652993,0.32041736,-0.88698710

>  <Name>
ligand

>  <RI>
0

>  <Rbt.Current_Directory>
/home/itssahil/PROJECTS/Mol_Feturizer/New_Systems/rnas/3TD1

>  <Rbt.Executable>
rbdock ($Id: //depot/dev/client3/rdock/2013.1/src/exe/rbdock.cxx#4 $)

>  <Rbt.Library>
libRbt.so (2013.1, Build901 2013/11/27)

>  <Rbt.Parameter_File>
/export/apps/rDock/src/rDock_2013.1_src/data/scripts/dock_solv.prm

>  <Rbt.Receptor>
prm/blind_docking_40.prm

>  <SCORE>
42.6735

>  <SCORE.INTER>
30.1249

>  <SCORE.INTER.CONST>
1

>  <SCORE.INTER.POLAR>
0

>  <SCORE.INTER.ROT>
6

>  <SCORE.INTER.SOLV>
22.3246

>  <SCORE.INTER.VDW>
5.04173

>  <SCORE.INTER.norm>
0.886026

>  <SCORE.INTRA>
3.20418

>  <SCORE.INTRA.DIHEDRAL>
-1.9356

>  <SCORE.INTRA.DIHEDRAL.0>
19.5869

>  <SCORE.INTRA.POLAR>
0

>  <SCORE.INTRA.POLAR.0>
0

>  <SCORE.INTRA.REPUL>
0

>  <SCORE.INTRA.REPUL.0>
0

>  <SCORE.INTRA.SOLV>
4.02619

>  <SCORE.INTRA.SOLV.lig_0>
-70.101

>  <SCORE.INTRA.VDW>
2.15889

>  <SCORE.INTRA.VDW.0>
-3.39718

>  <SCORE.INTRA.norm>
0.0942407

>  <SCORE.RESTR>
9.34449

>  <SCORE.RESTR.CAVITY>
9.34449

>  <SCORE.RESTR.norm>
0.274838

>  <SCORE.SYSTEM>
0

>  <SCORE.SYSTEM.CONST>
0

>  <SCORE.SYSTEM.DIHEDRAL>
0

>  <SCORE.SYSTEM.SOLV>
0

>  <SCORE.SYSTEM.norm>
0

>  <SCORE.heavy>
34

>  <SCORE.norm>
1.2551

>  <RMSD>
5.895

$$$$
ligand
 OpenBabel11021811483D
libRbt.so/2013.1/901 2013/11/27
 34 36  0  0  0  0  0  0  0  0999 V2000
    2.4891    5.9479    5.0898 C   0  0  2  0  0  0  0  0  0  0  0  0
    3.5487    6.8784    5.3619 O   0  0  0  0  0  0  0  0  0  0  0  0
    7.6927    6.7428    6.3965 C   0  0  2  0  0  0  0  0  0  0  0  0
    9.0157    6.2462    6.7587 N   0  0  0  0  0  0  0  0  0  0  0  0
    8.1027    6.2836    2.6021 C   0  0  2  0  0  0  0  0  0  0  0  0
    1.3573    6.7145    4.3166 C   0  0  2  0  0  0  0  0  0  0  0  0
    1.8563    7.2529    3.0416 N   0  0  0  0  0  0  0  0  0  0  0  0
    6.6762    6.1700    7.4398 C   0  0  0  0  0  0  0  0  0  0  0  0
    9.5725    6.0874    2.0842 C   0  0  2  0  0  0  0  0  0  0  0  0
   10.2467    5.1396    2.8954 O   0  0  0  0  0  0  0  0  0  0  0  0
    0.8236    7.8635    5.1993 C   0  0  1  0  0  0  0  0  0  0  0  0
   -0.2182    8.5646    4.5009 O   0  0  0  0  0  0  0  0  0  0  0  0
    5.2590    6.7215    7.0654 C   0  0  2  0  0  0  0  0  0  0  0  0
    4.2504    6.2087    8.0147 N   0  0  0  0  0  0  0  0  0  0  0  0
   10.3084    7.4828    2.1123 C   0  0  1  0  0  0  0  0  0  0  0  0
   11.7197    7.3470    1.6421 N   0  0  0  0  0  0  0  0  0  0  0  0
    0.3145    7.2713    6.5349 C   0  0  2  0  0  0  0  0  0  0  0  0
   -0.1765    8.3321    7.3729 O   0  0  0  0  0  0  0  0  0  0  0  0
    4.8594    6.2955    5.6296 C   0  0  2  0  0  0  0  0  0  0  0  0
    9.5252    8.4898    1.2023 C   0  0  1  0  0  0  0  0  0  0  0  0
    9.5163    8.0132   -0.1407 O   0  0  0  0  0  0  0  0  0  0  0  0
    1.4871    6.4998    7.2520 C   0  0  2  0  0  0  0  0  0  0  0  0
    1.9943    5.4278    6.3736 O   0  0  0  0  0  0  0  0  0  0  0  0
    5.9157    6.8205    4.6253 C   0  0  2  0  0  0  0  0  0  0  0  0
    5.5381    6.4021    3.3177 O   0  0  0  0  0  0  0  0  0  0  0  0
    8.0577    8.5968    1.7244 C   0  0  0  0  0  0  0  0  0  0  0  0
    7.4106    7.2631    1.7532 O   0  0  0  0  0  0  0  0  0  0  0  0
    1.0279    5.8607    8.5887 C   0  0  2  0  0  0  0  0  0  0  0  0
    0.8714    6.8798    9.5726 O   0  0  0  0  0  0  0  0  0  0  0  0
    7.3188    6.2504    4.9383 C   0  0  1  0  0  0  0  0  0  0  0  0
    8.2277    6.8013    3.9561 O   0  0  0  0  0  0  0  0  0  0  0  0
    2.0453    4.8582    9.1079 C   0  0  0  0  0  0  0  0  0  0  0  0
   10.1645    9.8730    1.1972 C   0  0  0  0  0  0  0  0  0  0  0  0
   12.5917    8.0833    2.5773 C   0  0  0  0  0  0  0  0  0  0  0  0
  1  2  1  1  0  0  0
  1  6  1  0  0  0  0
  1 23  1  0  0  0  0
  3  4  1  1  0  0  0
  3  8  1  0  0  0  0
  3 30  1  0  0  0  0
  5  9  1  0  0  0  0
  5 27  1  0  0  0  0
  5 31  1  1  0  0  0
  6  7  1  6  0  0  0
  6 11  1  0  0  0  0
  8 13  1  0  0  0  0
  9 10  1  1  0  0  0
  9 15  1  0  0  0  0
 11 12  1  6  0  0  0
 11 17  1  0  0  0  0
 13 14  1  1  0  0  0
 13 19  1  0  0  0  0
 15 16  1  6  0  0  0
 15 20  1  0  0  0  0
 16 34  1  0  0  0  0
 17 18  1  1  0  0  0
 17 22  1  0  0  0  0
 19  2  1  6  0  0  0
 19 24  1  0  0  0  0
 20 21  1  6  0  0  0
 20 26  1  0  0  0  0
 20 33  1  0  0  0  0
 22 23  1  6  0  0  0
 22 28  1  0  0  0  0
 24 25  1  6  0  0  0
 24 30  1  0  0  0  0
 26 27  1  0  0  0  0
 28 29  1  1  0  0  0
 28 32  1  0  0  0  0
 30 31  1  6  0  0  0
M  END
>  <CHROM.1>
-158.84598958,-118.93640796,-134.03075202,-73.94777406,172.00429305,-138.25331754
5.55869777,6.93954852,4.69870627,2.63986480,-0.12744257,1.94254981

>  <Name>
ligand

>  <RI>
0

>  <Rbt.Current_Directory>
/home/itssahil/PROJECTS/Mol_Feturizer/New_Systems/rnas/3TD1

>  <Rbt.Executable>
rbdock ($Id: //depot/dev/client3/rdock/2013.1/src/exe/rbdock.cxx#4 $)

>  <Rbt.Library>
libRbt.so (2013.1, Build901 2013/11/27)

>  <Rbt.Parameter_File>
/export/apps/rDock/src/rDock_2013.1_src/data/scripts/dock_solv.prm

>  <Rbt.Receptor>
prm/blind_docking_20.prm

>  <SCORE>
17.5048

>  <SCORE.INTER>
4.86797

>  <SCORE.INTER.CONST>
1

>  <SCORE.INTER.POLAR>
0

>  <SCORE.INTER.ROT>
6

>  <SCORE.INTER.SOLV>
23.7601

>  <SCORE.INTER.VDW>
-12.2747

>  <SCORE.INTER.norm>
0.143176

>  <SCORE.INTRA>
1.44293

>  <SCORE.INTRA.DIHEDRAL>
-2.6473

>  <SCORE.INTRA.DIHEDRAL.0>
19.5869

>  <SCORE.INTRA.POLAR>
0

>  <SCORE.INTRA.POLAR.0>
0

>  <SCORE.INTRA.REPUL>
0

>  <SCORE.INTRA.REPUL.0>
0

>  <SCORE.INTRA.SOLV>
1.15888

>  <SCORE.INTRA.SOLV.lig_0>
-70.101

>  <SCORE.INTRA.VDW>
2.18714

>  <SCORE.INTRA.VDW.0>
-3.39718

>  <SCORE.INTRA.norm>
0.0424391

>  <SCORE.RESTR>
11.1939

>  <SCORE.RESTR.CAVITY>
11.1939

>  <SCORE.RESTR.norm>
0.329232

>  <SCORE.SYSTEM>
0

>  <SCORE.SYSTEM.CONST>
0

>  <SCORE.SYSTEM.DIHEDRAL>
0

>  <SCORE.SYSTEM.SOLV>
0

>  <SCORE.SYSTEM.norm>
0

>  <SCORE.heavy>
34

>  <SCORE.norm>
0.514847

>  <RMSD>
5.916

$$$$
ligand
 OpenBabel11021811483D
libRbt.so/2013.1/901 2013/11/27
 34 36  0  0  0  0  0  0  0  0999 V2000
    2.0267    4.6524    8.9118 C   0  0  2  0  0  0  0  0  0  0  0  0
    1.3304    4.8516    7.6716 O   0  0  0  0  0  0  0  0  0  0  0  0
    3.3470    6.2470    4.1719 C   0  0  2  0  0  0  0  0  0  0  0  0
    3.9018    7.1278    3.1499 N   0  0  0  0  0  0  0  0  0  0  0  0
    5.8627    5.2640    4.3795 C   0  0  2  0  0  0  0  0  0  0  0  0
    2.7041    3.2363    8.8654 C   0  0  2  0  0  0  0  0  0  0  0  0
    3.6690    3.1453    7.7587 N   0  0  0  0  0  0  0  0  0  0  0  0
    1.8232    6.5805    4.2998 C   0  0  0  0  0  0  0  0  0  0  0  0
    7.3191    4.7809    4.7152 C   0  0  2  0  0  0  0  0  0  0  0  0
    7.3206    4.0728    5.9437 O   0  0  0  0  0  0  0  0  0  0  0  0
    1.6148    2.1539    8.7034 C   0  0  1  0  0  0  0  0  0  0  0  0
    2.2272    0.8545    8.6682 O   0  0  0  0  0  0  0  0  0  0  0  0
    1.2217    5.6193    5.3803 C   0  0  2  0  0  0  0  0  0  0  0  0
   -0.2200    5.8909    5.5516 N   0  0  0  0  0  0  0  0  0  0  0  0
    8.2655    6.0414    4.7864 C   0  0  1  0  0  0  0  0  0  0  0  0
    9.6640    5.6356    5.1196 N   0  0  0  0  0  0  0  0  0  0  0  0
    0.6103    2.2780    9.8735 C   0  0  2  0  0  0  0  0  0  0  0  0
   -0.4174    1.2821    9.7301 O   0  0  0  0  0  0  0  0  0  0  0  0
    1.9331    5.8042    6.7450 C   0  0  2  0  0  0  0  0  0  0  0  0
    8.2274    6.7852    3.4077 C   0  0  1  0  0  0  0  0  0  0  0  0
    8.7089    5.9188    2.3837 O   0  0  0  0  0  0  0  0  0  0  0  0
   -0.0192    3.7231    9.8787 C   0  0  2  0  0  0  0  0  0  0  0  0
    1.0474    4.7353   10.0062 O   0  0  0  0  0  0  0  0  0  0  0  0
    3.4485    5.5307    6.5756 C   0  0  2  0  0  0  0  0  0  0  0  0
    4.0828    5.7241    7.8356 O   0  0  0  0  0  0  0  0  0  0  0  0
    6.7506    7.1850    3.0969 C   0  0  0  0  0  0  0  0  0  0  0  0
    5.8698    5.9922    3.1033 O   0  0  0  0  0  0  0  0  0  0  0  0
   -1.0186    3.9156   11.0492 C   0  0  2  0  0  0  0  0  0  0  0  0
   -0.5800    3.1613   12.1762 O   0  0  0  0  0  0  0  0  0  0  0  0
    4.0822    6.5009    5.5516 C   0  0  1  0  0  0  0  0  0  0  0  0
    5.4862    6.1619    5.4609 O   0  0  0  0  0  0  0  0  0  0  0  0
   -2.4130    3.4385   10.6781 C   0  0  0  0  0  0  0  0  0  0  0  0
    9.1023    8.0327    3.4062 C   0  0  0  0  0  0  0  0  0  0  0  0
   10.1517    6.5063    6.2063 C   0  0  0  0  0  0  0  0  0  0  0  0
  1  2  1  6  0  0  0
  1  6  1  0  0  0  0
  1 23  1  0  0  0  0
  3  4  1  6  0  0  0
  3  8  1  0  0  0  0
  3 30  1  0  0  0  0
  5  9  1  0  0  0  0
  5 27  1  0  0  0  0
  5 31  1  1  0  0  0
  6  7  1  6  0  0  0
  6 11  1  0  0  0  0
  8 13  1  0  0  0  0
  9 10  1  1  0  0  0
  9 15  1  0  0  0  0
 11 12  1  1  0  0  0
 11 17  1  0  0  0  0
 13 14  1  1  0  0  0
 13 19  1  0  0  0  0
 15 16  1  6  0  0  0
 15 20  1  0  0  0  0
 16 34  1  0  0  0  0
 17 18  1  6  0  0  0
 17 22  1  0  0  0  0
 19  2  1  1  0  0  0
 19 24  1  0  0  0  0
 20 21  1  6  0  0  0
 20 26  1  0  0  0  0
 20 33  1  0  0  0  0
 22 23  1  1  0  0  0
 22 28  1  0  0  0  0
 24 25  1  1  0  0  0
 24 30  1  0  0  0  0
 26 27  1  0  0  0  0
 28 29  1  1  0  0  0
 28 32  1  0  0  0  0
 30 31  1  6  0  0  0
M  END
>  <CHROM.1>
-107.45291544,167.22439596,-131.80100746,33.46203634,-20.47051175,-166.18194501
3.74544741,4.94404723,6.65245513,-2.44430248,0.11455177,-0.94260884

>  <Name>
ligand

>  <RI>
0

>  <Rbt.Current_Directory>
/home/itssahil/PROJECTS/Mol_Feturizer/New_Systems/rnas/3TD1

>  <Rbt.Executable>
rbdock ($Id: //depot/dev/client3/rdock/2013.1/src/exe/rbdock.cxx#4 $)

>  <Rbt.Library>
libRbt.so (2013.1, Build901 2013/11/27)

>  <Rbt.Parameter_File>
/export/apps/rDock/src/rDock_2013.1_src/data/scripts/dock_solv.prm

>  <Rbt.Receptor>
prm/blind_docking_60.prm

>  <SCORE>
58.9527

>  <SCORE.INTER>
34.1275

>  <SCORE.INTER.CONST>
1

>  <SCORE.INTER.POLAR>
0

>  <SCORE.INTER.ROT>
6

>  <SCORE.INTER.SOLV>
27.1522

>  <SCORE.INTER.VDW>
6.1009

>  <SCORE.INTER.norm>
1.00375

>  <SCORE.INTRA>
8.83149

>  <SCORE.INTRA.DIHEDRAL>
-2.8667

>  <SCORE.INTRA.DIHEDRAL.0>
19.5869

>  <SCORE.INTRA.POLAR>
0

>  <SCORE.INTRA.POLAR.0>
0

>  <SCORE.INTRA.REPUL>
0

>  <SCORE.INTRA.REPUL.0>
0

>  <SCORE.INTRA.SOLV>
2.82051

>  <SCORE.INTRA.SOLV.lig_0>
-70.101

>  <SCORE.INTRA.VDW>
8.85459

>  <SCORE.INTRA.VDW.0>
-3.39718

>  <SCORE.INTRA.norm>
0.25975

>  <SCORE.RESTR>
15.9937

>  <SCORE.RESTR.CAVITY>
15.9937

>  <SCORE.RESTR.norm>
0.470404

>  <SCORE.SYSTEM>
0

>  <SCORE.SYSTEM.CONST>
0

>  <SCORE.SYSTEM.DIHEDRAL>
0

>  <SCORE.SYSTEM.SOLV>
0

>  <SCORE.SYSTEM.norm>
0

>  <SCORE.heavy>
34

>  <SCORE.norm>
1.7339

>  <RMSD>
5.932

$$$$
ligand
 OpenBabel11021811483D
libRbt.so/2013.1/901 2013/11/27
 34 36  0  0  0  0  0  0  0  0999 V2000
    1.3467    6.0621    7.0426 C   0  0  2  0  0  0  0  0  0  0  0  0
    2.5038    6.6066    7.6961 O   0  0  0  0  0  0  0  0  0  0  0  0
    6.6915    6.4168    6.8661 C   0  0  2  0  0  0  0  0  0  0  0  0
    8.0270    5.9020    6.5840 N   0  0  0  0  0  0  0  0  0  0  0  0
    6.9627    7.9350    4.6205 C   0  0  2  0  0  0  0  0  0  0  0  0
    0.0788    6.4936    7.8629 C   0  0  2  0  0  0  0  0  0  0  0  0
   -0.0485    7.9584    7.9122 N   0  0  0  0  0  0  0  0  0  0  0  0
    6.1903    5.7238    8.1769 C   0  0  0  0  0  0  0  0  0  0  0  0
    6.9943    8.6348    3.2147 C   0  0  2  0  0  0  0  0  0  0  0  0
    5.6801    9.0035    2.8305 O   0  0  0  0  0  0  0  0  0  0  0  0
    0.1796    5.9262    9.2955 C   0  0  1  0  0  0  0  0  0  0  0  0
   -0.9816    6.3107   10.0495 O   0  0  0  0  0  0  0  0  0  0  0  0
    4.7660    6.2932    8.4934 C   0  0  2  0  0  0  0  0  0  0  0  0
    4.2344    5.6699    9.7224 N   0  0  0  0  0  0  0  0  0  0  0  0
    7.6323    7.6400    2.1694 C   0  0  1  0  0  0  0  0  0  0  0  0
    7.6710    8.2545    0.8085 N   0  0  0  0  0  0  0  0  0  0  0  0
    0.3213    4.3878    9.2139 C   0  0  2  0  0  0  0  0  0  0  0  0
    0.4272    3.8455   10.5418 O   0  0  0  0  0  0  0  0  0  0  0  0
    3.7856    6.0159    7.3252 C   0  0  2  0  0  0  0  0  0  0  0  0
    9.0795    7.2661    2.6401 C   0  0  1  0  0  0  0  0  0  0  0  0
    9.8841    8.4413    2.6913 O   0  0  0  0  0  0  0  0  0  0  0  0
    1.5967    4.0188    8.3643 C   0  0  2  0  0  0  0  0  0  0  0  0
    1.4839    4.5979    7.0114 O   0  0  0  0  0  0  0  0  0  0  0  0
    4.3377    6.6577    6.0279 C   0  0  2  0  0  0  0  0  0  0  0  0
    3.4315    6.3748    4.9667 O   0  0  0  0  0  0  0  0  0  0  0  0
    8.9933    6.6342    4.0651 C   0  0  0  0  0  0  0  0  0  0  0  0
    8.3285    7.5610    5.0126 O   0  0  0  0  0  0  0  0  0  0  0  0
    1.7767    2.4844    8.2260 C   0  0  2  0  0  0  0  0  0  0  0  0
    3.0010    2.2094    7.5501 O   0  0  0  0  0  0  0  0  0  0  0  0
    5.7227    6.0762    5.6602 C   0  0  1  0  0  0  0  0  0  0  0  0
    6.1514    6.7395    4.4476 O   0  0  0  0  0  0  0  0  0  0  0  0
    0.6468    1.8586    7.4251 C   0  0  0  0  0  0  0  0  0  0  0  0
    9.7549    6.2852    1.6896 C   0  0  0  0  0  0  0  0  0  0  0  0
    8.1792    9.6336    0.9380 C   0  0  0  0  0  0  0  0  0  0  0  0
  1  2  1  1  0  0  0
  1  6  1  0  0  0  0
  1 23  1  0  0  0  0
  3  4  1  6  0  0  0
  3  8  1  0  0  0  0
  3 30  1  0  0  0  0
  5  9  1  0  0  0  0
  5 27  1  0  0  0  0
  5 31  1  6  0  0  0
  6  7  1  1  0  0  0
  6 11  1  0  0  0  0
  8 13  1  0  0  0  0
  9 10  1  6  0  0  0
  9 15  1  0  0  0  0
 11 12  1  1  0  0  0
 11 17  1  0  0  0  0
 13 14  1  1  0  0  0
 13 19  1  0  0  0  0
 15 16  1  6  0  0  0
 15 20  1  0  0  0  0
 16 34  1  0  0  0  0
 17 18  1  1  0  0  0
 17 22  1  0  0  0  0
 19  2  1  1  0  0  0
 19 24  1  0  0  0  0
 20 21  1  1  0  0  0
 20 26  1  0  0  0  0
 20 33  1  0  0  0  0
 22 23  1  6  0  0  0
 22 28  1  0  0  0  0
 24 25  1  6  0  0  0
 24 30  1  0  0  0  0
 26 27  1  0  0  0  0
 28 29  1  6  0  0  0
 28 32  1  0  0  0  0
 30 31  1  6  0  0  0
M  END
>  <CHROM.1>
163.05653798,-157.20235000,45.76544366,-175.06443309,-23.73585256,-166.74333445
4.54629265,6.22857148,6.07832897,2.47322865,-0.33383570,2.43953140

>  <Name>
ligand

>  <RI>
0

>  <Rbt.Current_Directory>
/home/itssahil/PROJECTS/Mol_Feturizer/New_Systems/rnas/3TD1

>  <Rbt.Executable>
rbdock ($Id: //depot/dev/client3/rdock/2013.1/src/exe/rbdock.cxx#4 $)

>  <Rbt.Library>
libRbt.so (2013.1, Build901 2013/11/27)

>  <Rbt.Parameter_File>
/export/apps/rDock/src/rDock_2013.1_src/data/scripts/dock_solv.prm

>  <Rbt.Receptor>
prm/blind_docking_100.prm

>  <SCORE>
20.5385

>  <SCORE.INTER>
1.56029

>  <SCORE.INTER.CONST>
1

>  <SCORE.INTER.POLAR>
0

>  <SCORE.INTER.ROT>
6

>  <SCORE.INTER.SOLV>
22.5258

>  <SCORE.INTER.VDW>
-14.0684

>  <SCORE.INTER.norm>
0.0458908

>  <SCORE.INTRA>
6.44545

>  <SCORE.INTRA.DIHEDRAL>
-10.142

>  <SCORE.INTRA.DIHEDRAL.0>
19.5869

>  <SCORE.INTRA.POLAR>
0

>  <SCORE.INTRA.POLAR.0>
0

>  <SCORE.INTRA.REPUL>
0

>  <SCORE.INTRA.REPUL.0>
0

>  <SCORE.INTRA.SOLV>
1.20926

>  <SCORE.INTRA.SOLV.lig_0>
-70.101

>  <SCORE.INTRA.VDW>
10.9118

>  <SCORE.INTRA.VDW.0>
-3.39718

>  <SCORE.INTRA.norm>
0.189572

>  <SCORE.RESTR>
12.5327

>  <SCORE.RESTR.CAVITY>
12.5327

>  <SCORE.RESTR.norm>
0.368609

>  <SCORE.SYSTEM>
0

>  <SCORE.SYSTEM.CONST>
0

>  <SCORE.SYSTEM.DIHEDRAL>
0

>  <SCORE.SYSTEM.SOLV>
0

>  <SCORE.SYSTEM.norm>
0

>  <SCORE.heavy>
34

>  <SCORE.norm>
0.604072

>  <RMSD>
5.948

$$$$
ligand
 OpenBabel11021811483D
libRbt.so/2013.1/901 2013/11/27
 34 36  0  0  0  0  0  0  0  0999 V2000
    1.9233    4.6370    8.9538 C   0  0  2  0  0  0  0  0  0  0  0  0
    1.1949    4.8257    7.7305 O   0  0  0  0  0  0  0  0  0  0  0  0
    3.2166    6.2051    4.2274 C   0  0  2  0  0  0  0  0  0  0  0  0
    3.7485    7.0786    3.1872 N   0  0  0  0  0  0  0  0  0  0  0  0
    5.7697    5.3342    4.5468 C   0  0  2  0  0  0  0  0  0  0  0  0
    2.6487    3.2462    8.8765 C   0  0  2  0  0  0  0  0  0  0  0  0
    3.5930    3.2018    7.7493 N   0  0  0  0  0  0  0  0  0  0  0  0
    1.6750    6.4625    4.3113 C   0  0  0  0  0  0  0  0  0  0  0  0
    7.2395    4.9436    4.9394 C   0  0  2  0  0  0  0  0  0  0  0  0
    7.2472    4.3116    6.2088 O   0  0  0  0  0  0  0  0  0  0  0  0
    1.5947    2.1281    8.7236 C   0  0  1  0  0  0  0  0  0  0  0  0
    2.2513    0.8515    8.6601 O   0  0  0  0  0  0  0  0  0  0  0  0
    1.0994    5.5083    5.4119 C   0  0  2  0  0  0  0  0  0  0  0  0
   -0.3580    5.7096    5.5430 N   0  0  0  0  0  0  0  0  0  0  0  0
    8.1233    6.2505    4.9517 C   0  0  1  0  0  0  0  0  0  0  0  0
    9.5317    5.9340    5.3360 N   0  0  0  0  0  0  0  0  0  0  0  0
    0.6110    2.2034    9.9153 C   0  0  2  0  0  0  0  0  0  0  0  0
   -0.3840    1.1737    9.7809 O   0  0  0  0  0  0  0  0  0  0  0  0
    1.7687    5.7766    6.7840 C   0  0  2  0  0  0  0  0  0  0  0  0
    8.0807    6.9073    3.5295 C   0  0  1  0  0  0  0  0  0  0  0  0
    8.6253    6.0052    2.5699 O   0  0  0  0  0  0  0  0  0  0  0  0
   -0.0683    3.6254    9.9508 C   0  0  2  0  0  0  0  0  0  0  0  0
    0.9647    4.6729   10.0688 O   0  0  0  0  0  0  0  0  0  0  0  0
    3.2997    5.5772    6.6564 C   0  0  2  0  0  0  0  0  0  0  0  0
    3.8940    5.8464    7.9220 O   0  0  0  0  0  0  0  0  0  0  0  0
    6.5939    7.2153    3.1664 C   0  0  0  0  0  0  0  0  0  0  0  0
    5.7707    5.9838    3.2288 O   0  0  0  0  0  0  0  0  0  0  0  0
   -1.0492    3.7692   11.1437 C   0  0  2  0  0  0  0  0  0  0  0  0
   -1.8140    2.5738   11.2757 O   0  0  0  0  0  0  0  0  0  0  0  0
    3.9058    6.5440    5.6127 C   0  0  1  0  0  0  0  0  0  0  0  0
    5.3271    6.2762    5.5636 O   0  0  0  0  0  0  0  0  0  0  0  0
   -2.0148    4.9245   10.9376 C   0  0  0  0  0  0  0  0  0  0  0  0
    8.8954    8.1935    3.4685 C   0  0  0  0  0  0  0  0  0  0  0  0
    9.9403    6.8663    6.4041 C   0  0  0  0  0  0  0  0  0  0  0  0
  1  2  1  6  0  0  0
  1  6  1  0  0  0  0
  1 23  1  0  0  0  0
  3  4  1  6  0  0  0
  3  8  1  0  0  0  0
  3 30  1  0  0  0  0
  5  9  1  0  0  0  0
  5 27  1  0  0  0  0
  5 31  1  1  0  0  0
  6  7  1  6  0  0  0
  6 11  1  0  0  0  0
  8 13  1  0  0  0  0
  9 10  1  1  0  0  0
  9 15  1  0  0  0  0
 11 12  1  1  0  0  0
 11 17  1  0  0  0  0
 13 14  1  1  0  0  0
 13 19  1  0  0  0  0
 15 16  1  6  0  0  0
 15 20  1  0  0  0  0
 16 34  1  0  0  0  0
 17 18  1  6  0  0  0
 17 22  1  0  0  0  0
 19  2  1  1  0  0  0
 19 24  1  0  0  0  0
 20 21  1  6  0  0  0
 20 26  1  0  0  0  0
 20 33  1  0  0  0  0
 22 23  1  1  0  0  0
 22 28  1  0  0  0  0
 24 25  1  1  0  0  0
 24 30  1  0  0  0  0
 26 27  1  0  0  0  0
 28 29  1  6  0  0  0
 28 32  1  0  0  0  0
 30 31  1  6  0  0  0
M  END
>  <CHROM.1>
-105.47910135,163.06679895,-130.19043705,-42.23863926,-22.13042802,-165.74938667
3.61629091,5.00283675,6.71159323,-2.45492452,0.10365245,-0.92406617

>  <Name>
ligand

>  <RI>
0

>  <Rbt.Current_Directory>
/home/itssahil/PROJECTS/Mol_Feturizer/New_Systems/rnas/3TD1

>  <Rbt.Executable>
rbdock ($Id: //depot/dev/client3/rdock/2013.1/src/exe/rbdock.cxx#4 $)

>  <Rbt.Library>
libRbt.so (2013.1, Build901 2013/11/27)

>  <Rbt.Parameter_File>
/export/apps/rDock/src/rDock_2013.1_src/data/scripts/dock_solv.prm

>  <Rbt.Receptor>
prm/blind_docking_60.prm

>  <SCORE>
58.2068

>  <SCORE.INTER>
33.2913

>  <SCORE.INTER.CONST>
1

>  <SCORE.INTER.POLAR>
0

>  <SCORE.INTER.ROT>
6

>  <SCORE.INTER.SOLV>
26.0923

>  <SCORE.INTER.VDW>
5.89679

>  <SCORE.INTER.norm>
0.979157

>  <SCORE.INTRA>
8.60988

>  <SCORE.INTRA.DIHEDRAL>
-3.84666

>  <SCORE.INTRA.DIHEDRAL.0>
19.5869

>  <SCORE.INTRA.POLAR>
0

>  <SCORE.INTRA.POLAR.0>
0

>  <SCORE.INTRA.REPUL>
0

>  <SCORE.INTRA.REPUL.0>
0

>  <SCORE.INTRA.SOLV>
2.9221

>  <SCORE.INTRA.SOLV.lig_0>
-70.101

>  <SCORE.INTRA.VDW>
9.07216

>  <SCORE.INTRA.VDW.0>
-3.39718

>  <SCORE.INTRA.norm>
0.253232

>  <SCORE.RESTR>
16.3056

>  <SCORE.RESTR.CAVITY>
16.3056

>  <SCORE.RESTR.norm>
0.479577

>  <SCORE.SYSTEM>
0

>  <SCORE.SYSTEM.CONST>
0

>  <SCORE.SYSTEM.DIHEDRAL>
0

>  <SCORE.SYSTEM.SOLV>
0

>  <SCORE.SYSTEM.norm>
0

>  <SCORE.heavy>
34

>  <SCORE.norm>
1.71197

>  <RMSD>
5.979

$$$$
ligand
 OpenBabel11021811483D
libRbt.so/2013.1/901 2013/11/27
 34 36  0  0  0  0  0  0  0  0999 V2000
    1.7722    6.6065    5.9429 C   0  0  2  0  0  0  0  0  0  0  0  0
    2.9194    7.2341    6.5368 O   0  0  0  0  0  0  0  0  0  0  0  0
    7.0634    6.2620    6.9160 C   0  0  2  0  0  0  0  0  0  0  0  0
    8.2982    5.5159    7.1319 N   0  0  0  0  0  0  0  0  0  0  0  0
    6.4777    6.6054    3.3222 C   0  0  2  0  0  0  0  0  0  0  0  0
    0.4879    7.3227    6.4945 C   0  0  2  0  0  0  0  0  0  0  0  0
    0.4838    8.7510    6.1421 N   0  0  0  0  0  0  0  0  0  0  0  0
    6.1601    6.0461    8.1759 C   0  0  0  0  0  0  0  0  0  0  0  0
    7.2168    6.1011    2.0312 C   0  0  2  0  0  0  0  0  0  0  0  0
    7.0699    4.6959    1.9099 O   0  0  0  0  0  0  0  0  0  0  0  0
    0.4312    7.1597    8.0290 C   0  0  1  0  0  0  0  0  0  0  0  0
   -0.7461    7.8062    8.5396 O   0  0  0  0  0  0  0  0  0  0  0  0
    4.8437    6.8655    7.9553 C   0  0  2  0  0  0  0  0  0  0  0  0
    3.9432    6.6963    9.1137 N   0  0  0  0  0  0  0  0  0  0  0  0
    8.7387    6.5054    2.1301 C   0  0  1  0  0  0  0  0  0  0  0  0
    9.4914    6.0331    0.9294 N   0  0  0  0  0  0  0  0  0  0  0  0
    0.4458    5.6510    8.3713 C   0  0  2  0  0  0  0  0  0  0  0  0
    0.4041    5.4834    9.7991 O   0  0  0  0  0  0  0  0  0  0  0  0
    4.1071    6.3977    6.6741 C   0  0  2  0  0  0  0  0  0  0  0  0
    8.8441    8.0633    2.2616 C   0  0  1  0  0  0  0  0  0  0  0  0
    8.2897    8.6795    1.1023 O   0  0  0  0  0  0  0  0  0  0  0  0
    1.7451    4.9864    7.7757 C   0  0  2  0  0  0  0  0  0  0  0  0
    1.7849    5.1830    6.3135 O   0  0  0  0  0  0  0  0  0  0  0  0
    5.0460    6.5622    5.4528 C   0  0  2  0  0  0  0  0  0  0  0  0
    4.3557    6.1100    4.2925 O   0  0  0  0  0  0  0  0  0  0  0  0
    8.0409    8.5132    3.5225 C   0  0  0  0  0  0  0  0  0  0  0  0
    6.6310    8.0622    3.4371 O   0  0  0  0  0  0  0  0  0  0  0  0
    1.8023    3.4638    8.0662 C   0  0  2  0  0  0  0  0  0  0  0  0
    0.5018    2.9020    7.9103 O   0  0  0  0  0  0  0  0  0  0  0  0
    6.3335    5.7218    5.6183 C   0  0  1  0  0  0  0  0  0  0  0  0
    7.1401    5.9474    4.4381 O   0  0  0  0  0  0  0  0  0  0  0  0
    2.2689    3.1824    9.4849 C   0  0  0  0  0  0  0  0  0  0  0  0
   10.2891    8.5306    2.3865 C   0  0  0  0  0  0  0  0  0  0  0  0
   10.7898    5.4956    1.3792 C   0  0  0  0  0  0  0  0  0  0  0  0
  1  2  1  1  0  0  0
  1  6  1  0  0  0  0
  1 23  1  0  0  0  0
  3  4  1  1  0  0  0
  3  8  1  0  0  0  0
  3 30  1  0  0  0  0
  5  9  1  0  0  0  0
  5 27  1  0  0  0  0
  5 31  1  1  0  0  0
  6  7  1  1  0  0  0
  6 11  1  0  0  0  0
  8 13  1  0  0  0  0
  9 10  1  1  0  0  0
  9 15  1  0  0  0  0
 11 12  1  6  0  0  0
 11 17  1  0  0  0  0
 13 14  1  1  0  0  0
 13 19  1  0  0  0  0
 15 16  1  6  0  0  0
 15 20  1  0  0  0  0
 16 34  1  0  0  0  0
 17 18  1  1  0  0  0
 17 22  1  0  0  0  0
 19  2  1  6  0  0  0
 19 24  1  0  0  0  0
 20 21  1  6  0  0  0
 20 26  1  0  0  0  0
 20 33  1  0  0  0  0
 22 23  1  6  0  0  0
 22 28  1  0  0  0  0
 24 25  1  6  0  0  0
 24 30  1  0  0  0  0
 26 27  1  0  0  0  0
 28 29  1  1  0  0  0
 28 32  1  0  0  0  0
 30 31  1  6  0  0  0
M  END
>  <CHROM.1>
152.55452199,-147.53775000,-138.34713297,40.12089070,-128.87457244,-152.04979233
4.79245022,6.31688061,5.56255068,2.59961555,-0.39442112,2.34074876

>  <Name>
ligand

>  <RI>
0

>  <Rbt.Current_Directory>
/home/itssahil/PROJECTS/Mol_Feturizer/New_Systems/rnas/3TD1

>  <Rbt.Executable>
rbdock ($Id: //depot/dev/client3/rdock/2013.1/src/exe/rbdock.cxx#4 $)

>  <Rbt.Library>
libRbt.so (2013.1, Build901 2013/11/27)

>  <Rbt.Parameter_File>
/export/apps/rDock/src/rDock_2013.1_src/data/scripts/dock_solv.prm

>  <Rbt.Receptor>
prm/blind_docking_40.prm

>  <SCORE>
26.1424

>  <SCORE.INTER>
6.09151

>  <SCORE.INTER.CONST>
1

>  <SCORE.INTER.POLAR>
0

>  <SCORE.INTER.ROT>
6

>  <SCORE.INTER.SOLV>
23.2902

>  <SCORE.INTER.VDW>
-11.3024

>  <SCORE.INTER.norm>
0.179162

>  <SCORE.INTRA>
9.61807

>  <SCORE.INTRA.DIHEDRAL>
-0.153368

>  <SCORE.INTRA.DIHEDRAL.0>
19.5869

>  <SCORE.INTRA.POLAR>
0

>  <SCORE.INTRA.POLAR.0>
0

>  <SCORE.INTRA.REPUL>
0

>  <SCORE.INTRA.REPUL.0>
0

>  <SCORE.INTRA.SOLV>
0.109312

>  <SCORE.INTRA.SOLV.lig_0>
-70.101

>  <SCORE.INTRA.VDW>
9.6401

>  <SCORE.INTRA.VDW.0>
-3.39718

>  <SCORE.INTRA.norm>
0.282884

>  <SCORE.RESTR>
10.4328

>  <SCORE.RESTR.CAVITY>
10.4328

>  <SCORE.RESTR.norm>
0.306848

>  <SCORE.SYSTEM>
0

>  <SCORE.SYSTEM.CONST>
0

>  <SCORE.SYSTEM.DIHEDRAL>
0

>  <SCORE.SYSTEM.SOLV>
0

>  <SCORE.SYSTEM.norm>
0

>  <SCORE.heavy>
34

>  <SCORE.norm>
0.768894

>  <RMSD>
5.980

$$$$
ligand
 OpenBabel11021811483D
libRbt.so/2013.1/901 2013/11/27
 34 36  0  0  0  0  0  0  0  0999 V2000
    3.0826    5.6903    5.8996 C   0  0  2  0  0  0  0  0  0  0  0  0
    3.9819    6.8059    5.8028 O   0  0  0  0  0  0  0  0  0  0  0  0
    8.0179    7.4728    4.5668 C   0  0  2  0  0  0  0  0  0  0  0  0
    9.4332    7.2632    4.2817 N   0  0  0  0  0  0  0  0  0  0  0  0
    7.7636    5.8422    1.3482 C   0  0  2  0  0  0  0  0  0  0  0  0
    1.6605    6.2448    6.2694 C   0  0  2  0  0  0  0  0  0  0  0  0
    1.1647    7.1666    5.2356 N   0  0  0  0  0  0  0  0  0  0  0  0
    7.7826    7.0976    6.0680 C   0  0  0  0  0  0  0  0  0  0  0  0
    9.2882    5.6342    1.6635 C   0  0  2  0  0  0  0  0  0  0  0  0
    9.4501    5.2278    3.0123 O   0  0  0  0  0  0  0  0  0  0  0  0
    1.7332    6.9711    7.6301 C   0  0  1  0  0  0  0  0  0  0  0  0
    0.4332    7.4743    7.9786 O   0  0  0  0  0  0  0  0  0  0  0  0
    6.2681    7.3445    6.3813 C   0  0  2  0  0  0  0  0  0  0  0  0
    5.9808    7.0009    7.7888 N   0  0  0  0  0  0  0  0  0  0  0  0
   10.0510    6.9867    1.3836 C   0  0  1  0  0  0  0  0  0  0  0  0
   11.5073    6.8456    1.6843 N   0  0  0  0  0  0  0  0  0  0  0  0
    2.2652    5.9831    8.6952 C   0  0  2  0  0  0  0  0  0  0  0  0
    2.3487    6.6492    9.9672 O   0  0  0  0  0  0  0  0  0  0  0  0
    5.3639    6.4861    5.4603 C   0  0  2  0  0  0  0  0  0  0  0  0
    9.8404    7.3891   -0.1162 C   0  0  1  0  0  0  0  0  0  0  0  0
   10.3870    6.3813   -0.9627 O   0  0  0  0  0  0  0  0  0  0  0  0
    3.6822    5.4480    8.2589 C   0  0  2  0  0  0  0  0  0  0  0  0
    3.5858    4.7848    6.9439 O   0  0  0  0  0  0  0  0  0  0  0  0
    5.6630    6.8316    3.9801 C   0  0  2  0  0  0  0  0  0  0  0  0
    4.8354    6.0193    3.1539 O   0  0  0  0  0  0  0  0  0  0  0  0
    8.3085    7.5196   -0.3875 C   0  0  0  0  0  0  0  0  0  0  0  0
    7.6051    6.2583   -0.0521 O   0  0  0  0  0  0  0  0  0  0  0  0
    4.2566    4.4304    9.2789 C   0  0  2  0  0  0  0  0  0  0  0  0
    3.2119    3.9768   10.1358 O   0  0  0  0  0  0  0  0  0  0  0  0
    7.1414    6.5480    3.6260 C   0  0  1  0  0  0  0  0  0  0  0  0
    7.3193    6.9066    2.2353 O   0  0  0  0  0  0  0  0  0  0  0  0
    5.3368    5.0564   10.1455 C   0  0  0  0  0  0  0  0  0  0  0  0
   10.5307    8.7037   -0.4583 C   0  0  0  0  0  0  0  0  0  0  0  0
   11.9085    7.9611    2.5628 C   0  0  0  0  0  0  0  0  0  0  0  0
  1  2  1  1  0  0  0
  1  6  1  0  0  0  0
  1 23  1  0  0  0  0
  3  4  1  6  0  0  0
  3  8  1  0  0  0  0
  3 30  1  0  0  0  0
  5  9  1  0  0  0  0
  5 27  1  0  0  0  0
  5 31  1  1  0  0  0
  6  7  1  6  0  0  0
  6 11  1  0  0  0  0
  8 13  1  0  0  0  0
  9 10  1  1  0  0  0
  9 15  1  0  0  0  0
 11 12  1  1  0  0  0
 11 17  1  0  0  0  0
 13 14  1  1  0  0  0
 13 19  1  0  0  0  0
 15 16  1  6  0  0  0
 15 20  1  0  0  0  0
 16 34  1  0  0  0  0
 17 18  1  1  0  0  0
 17 22  1  0  0  0  0
 19  2  1  1  0  0  0
 19 24  1  0  0  0  0
 20 21  1  6  0  0  0
 20 26  1  0  0  0  0
 20 33  1  0  0  0  0
 22 23  1  6  0  0  0
 22 28  1  0  0  0  0
 24 25  1  6  0  0  0
 24 30  1  0  0  0  0
 26 27  1  0  0  0  0
 28 29  1  1  0  0  0
 28 32  1  0  0  0  0
 30 31  1  6  0  0  0
M  END
>  <CHROM.1>
-179.84920698,-136.88050691,-129.33399394,15.82501217,123.47292222,-74.81195025
6.20105392,6.47148143,4.69333702,2.32436266,-0.03344557,1.74417399

>  <Name>
ligand

>  <RI>
0

>  <Rbt.Current_Directory>
/home/itssahil/PROJECTS/Mol_Feturizer/New_Systems/rnas/3TD1

>  <Rbt.Executable>
rbdock ($Id: //depot/dev/client3/rdock/2013.1/src/exe/rbdock.cxx#4 $)

>  <Rbt.Library>
libRbt.so (2013.1, Build901 2013/11/27)

>  <Rbt.Parameter_File>
/export/apps/rDock/src/rDock_2013.1_src/data/scripts/dock_solv.prm

>  <Rbt.Receptor>
prm/blind_docking_20.prm

>  <SCORE>
21.1862

>  <SCORE.INTER>
6.72153

>  <SCORE.INTER.CONST>
1

>  <SCORE.INTER.POLAR>
0

>  <SCORE.INTER.ROT>
6

>  <SCORE.INTER.SOLV>
23.1125

>  <SCORE.INTER.VDW>
-10.8232

>  <SCORE.INTER.norm>
0.197692

>  <SCORE.INTRA>
4.23065

>  <SCORE.INTRA.DIHEDRAL>
0.0581307

>  <SCORE.INTRA.DIHEDRAL.0>
19.5869

>  <SCORE.INTRA.POLAR>
0

>  <SCORE.INTRA.POLAR.0>
0

>  <SCORE.INTRA.REPUL>
0

>  <SCORE.INTRA.REPUL.0>
0

>  <SCORE.INTRA.SOLV>
5.40054

>  <SCORE.INTRA.SOLV.lig_0>
-70.101

>  <SCORE.INTRA.VDW>
1.50132

>  <SCORE.INTRA.VDW.0>
-3.39718

>  <SCORE.INTRA.norm>
0.124431

>  <SCORE.RESTR>
10.234

>  <SCORE.RESTR.CAVITY>
10.234

>  <SCORE.RESTR.norm>
0.301001

>  <SCORE.SYSTEM>
0

>  <SCORE.SYSTEM.CONST>
0

>  <SCORE.SYSTEM.DIHEDRAL>
0

>  <SCORE.SYSTEM.SOLV>
0

>  <SCORE.SYSTEM.norm>
0

>  <SCORE.heavy>
34

>  <SCORE.norm>
0.623124

>  <RMSD>
5.986

$$$$
ligand
 OpenBabel11021811483D
libRbt.so/2013.1/901 2013/11/27
 34 36  0  0  0  0  0  0  0  0999 V2000
    0.9732    5.2929    7.3370 C   0  0  2  0  0  0  0  0  0  0  0  0
    1.8970    6.1534    8.0216 O   0  0  0  0  0  0  0  0  0  0  0  0
    6.0340    7.0350    7.4136 C   0  0  2  0  0  0  0  0  0  0  0  0
    7.4746    6.8788    7.2453 N   0  0  0  0  0  0  0  0  0  0  0  0
    5.8759    6.1402    3.8191 C   0  0  2  0  0  0  0  0  0  0  0  0
   -0.3996    5.3523    8.0975 C   0  0  2  0  0  0  0  0  0  0  0  0
   -0.9421    6.7197    8.1077 N   0  0  0  0  0  0  0  0  0  0  0  0
    5.6418    6.3373    8.7586 C   0  0  0  0  0  0  0  0  0  0  0  0
    7.2533    5.4539    4.1336 C   0  0  2  0  0  0  0  0  0  0  0  0
    7.1457    4.6767    5.3148 O   0  0  0  0  0  0  0  0  0  0  0  0
   -0.2034    4.8539    9.5458 C   0  0  1  0  0  0  0  0  0  0  0  0
   -1.4577    4.8981   10.2454 O   0  0  0  0  0  0  0  0  0  0  0  0
    4.0989    6.5246    8.9518 C   0  0  2  0  0  0  0  0  0  0  0  0
    3.6648    5.8791   10.2073 N   0  0  0  0  0  0  0  0  0  0  0  0
    8.3520    6.5752    4.2912 C   0  0  1  0  0  0  0  0  0  0  0  0
    9.6819    5.9731    4.6077 N   0  0  0  0  0  0  0  0  0  0  0  0
    0.3755    3.4197    9.5057 C   0  0  2  0  0  0  0  0  0  0  0  0
    0.5740    2.9456   10.8489 O   0  0  0  0  0  0  0  0  0  0  0  0
    3.3122    5.9029    7.7696 C   0  0  2  0  0  0  0  0  0  0  0  0
    8.4302    7.4017    2.9621 C   0  0  1  0  0  0  0  0  0  0  0  0
    8.8122    6.5457    1.8886 O   0  0  0  0  0  0  0  0  0  0  0  0
    1.7389    3.4220    8.7145 C   0  0  2  0  0  0  0  0  0  0  0  0
    1.5244    3.9291    7.3453 O   0  0  0  0  0  0  0  0  0  0  0  0
    3.7660    6.5665    6.4453 C   0  0  2  0  0  0  0  0  0  0  0  0
    3.0446    5.9678    5.3736 O   0  0  0  0  0  0  0  0  0  0  0  0
    7.0215    8.0066    2.6670 C   0  0  0  0  0  0  0  0  0  0  0  0
    5.9954    6.9390    2.5917 O   0  0  0  0  0  0  0  0  0  0  0  0
    2.3558    2.0020    8.6192 C   0  0  2  0  0  0  0  0  0  0  0  0
    3.5551    2.0565    7.8512 O   0  0  0  0  0  0  0  0  0  0  0  0
    5.2779    6.3528    6.2005 C   0  0  1  0  0  0  0  0  0  0  0  0
    5.6012    7.0103    4.9525 O   0  0  0  0  0  0  0  0  0  0  0  0
    1.4084    1.0250    7.9427 C   0  0  0  0  0  0  0  0  0  0  0  0
    9.4575    8.5240    3.0457 C   0  0  0  0  0  0  0  0  0  0  0  0
    9.9603    4.9183    3.6143 C   0  0  0  0  0  0  0  0  0  0  0  0
  1  2  1  1  0  0  0
  1  6  1  0  0  0  0
  1 23  1  0  0  0  0
  3  4  1  6  0  0  0
  3  8  1  0  0  0  0
  3 30  1  0  0  0  0
  5  9  1  0  0  0  0
  5 27  1  0  0  0  0
  5 31  1  1  0  0  0
  6  7  1  1  0  0  0
  6 11  1  0  0  0  0
  8 13  1  0  0  0  0
  9 10  1  1  0  0  0
  9 15  1  0  0  0  0
 11 12  1  6  0  0  0
 11 17  1  0  0  0  0
 13 14  1  1  0  0  0
 13 19  1  0  0  0  0
 15 16  1  6  0  0  0
 15 20  1  0  0  0  0
 16 34  1  0  0  0  0
 17 18  1  1  0  0  0
 17 22  1  0  0  0  0
 19  2  1  1  0  0  0
 19 24  1  0  0  0  0
 20 21  1  6  0  0  0
 20 26  1  0  0  0  0
 20 33  1  0  0  0  0
 22 23  1  6  0  0  0
 22 28  1  0  0  0  0
 24 25  1  6  0  0  0
 24 30  1  0  0  0  0
 26 27  1  0  0  0  0
 28 29  1  6  0  0  0
 28 32  1  0  0  0  0
 30 31  1  6  0  0  0
M  END
>  <CHROM.1>
159.86319569,-158.97231683,51.30385520,177.73033603,136.32456057,-70.01513293
4.32915129,5.49597559,6.58123288,2.63744838,-0.46305788,2.68839044

>  <Name>
ligand

>  <RI>
0

>  <Rbt.Current_Directory>
/home/itssahil/PROJECTS/Mol_Feturizer/New_Systems/rnas/3TD1

>  <Rbt.Executable>
rbdock ($Id: //depot/dev/client3/rdock/2013.1/src/exe/rbdock.cxx#4 $)

>  <Rbt.Library>
libRbt.so (2013.1, Build901 2013/11/27)

>  <Rbt.Parameter_File>
/export/apps/rDock/src/rDock_2013.1_src/data/scripts/dock_solv.prm

>  <Rbt.Receptor>
prm/blind_docking_60.prm

>  <SCORE>
43.4158

>  <SCORE.INTER>
22.6861

>  <SCORE.INTER.CONST>
1

>  <SCORE.INTER.POLAR>
0

>  <SCORE.INTER.ROT>
6

>  <SCORE.INTER.SOLV>
24.3719

>  <SCORE.INTER.VDW>
-0.599908

>  <SCORE.INTER.norm>
0.667238

>  <SCORE.INTRA>
2.88523

>  <SCORE.INTRA.DIHEDRAL>
-9.28784

>  <SCORE.INTRA.DIHEDRAL.0>
19.5869

>  <SCORE.INTRA.POLAR>
0

>  <SCORE.INTRA.POLAR.0>
0

>  <SCORE.INTRA.REPUL>
0

>  <SCORE.INTRA.REPUL.0>
0

>  <SCORE.INTRA.SOLV>
1.47581

>  <SCORE.INTRA.SOLV.lig_0>
-70.101

>  <SCORE.INTRA.VDW>
6.79125

>  <SCORE.INTRA.VDW.0>
-3.39718

>  <SCORE.INTRA.norm>
0.0848597

>  <SCORE.RESTR>
17.8445

>  <SCORE.RESTR.CAVITY>
17.8445

>  <SCORE.RESTR.norm>
0.524838

>  <SCORE.SYSTEM>
0

>  <SCORE.SYSTEM.CONST>
0

>  <SCORE.SYSTEM.DIHEDRAL>
0

>  <SCORE.SYSTEM.SOLV>
0

>  <SCORE.SYSTEM.norm>
0

>  <SCORE.heavy>
34

>  <SCORE.norm>
1.27694

>  <RMSD>
6.020

$$$$
ligand
 OpenBabel11021811483D
libRbt.so/2013.1/901 2013/11/27
 34 36  0  0  0  0  0  0  0  0999 V2000
    2.5452    5.7532    5.5933 C   0  0  2  0  0  0  0  0  0  0  0  0
    3.5320    6.7963    5.5650 O   0  0  0  0  0  0  0  0  0  0  0  0
    7.7857    7.1290    5.3255 C   0  0  2  0  0  0  0  0  0  0  0  0
    9.2050    6.7918    5.3281 N   0  0  0  0  0  0  0  0  0  0  0  0
    7.9154    5.8809    1.8543 C   0  0  2  0  0  0  0  0  0  0  0  0
    1.1650    6.3803    5.1832 C   0  0  2  0  0  0  0  0  0  0  0  0
    1.2207    6.9450    3.8259 N   0  0  0  0  0  0  0  0  0  0  0  0
    7.1829    6.6260    6.6796 C   0  0  0  0  0  0  0  0  0  0  0  0
    9.4629    5.6432    1.9810 C   0  0  2  0  0  0  0  0  0  0  0  0
    9.7712    5.1582    3.2773 O   0  0  0  0  0  0  0  0  0  0  0  0
    0.7833    7.4820    6.1956 C   0  0  1  0  0  0  0  0  0  0  0  0
   -0.4830    8.0548    5.8307 O   0  0  0  0  0  0  0  0  0  0  0  0
    5.6641    7.0083    6.6877 C   0  0  2  0  0  0  0  0  0  0  0  0
    5.0351    6.5523    7.9438 N   0  0  0  0  0  0  0  0  0  0  0  0
   10.2081    7.0037    1.6928 C   0  0  1  0  0  0  0  0  0  0  0  0
   11.6871    6.8342    1.8166 N   0  0  0  0  0  0  0  0  0  0  0  0
    0.7408    6.8638    7.6132 C   0  0  2  0  0  0  0  0  0  0  0  0
    0.3967    7.8815    8.5694 O   0  0  0  0  0  0  0  0  0  0  0  0
    4.9225    6.3601    5.4907 C   0  0  2  0  0  0  0  0  0  0  0  0
    9.8342    7.4938    0.2521 C   0  0  1  0  0  0  0  0  0  0  0  0
   10.2666    6.5324   -0.7071 O   0  0  0  0  0  0  0  0  0  0  0  0
    2.1446    6.2351    7.9579 C   0  0  2  0  0  0  0  0  0  0  0  0
    2.4940    5.2072    6.9582 O   0  0  0  0  0  0  0  0  0  0  0  0
    5.5798    6.8243    4.1669 C   0  0  2  0  0  0  0  0  0  0  0  0
    4.8949    6.2030    3.0842 O   0  0  0  0  0  0  0  0  0  0  0  0
    8.2834    7.6517    0.1654 C   0  0  0  0  0  0  0  0  0  0  0  0
    7.6047    6.3785    0.5071 O   0  0  0  0  0  0  0  0  0  0  0  0
    2.1550    5.5756    9.3618 C   0  0  2  0  0  0  0  0  0  0  0  0
    2.2580    6.5872   10.3604 O   0  0  0  0  0  0  0  0  0  0  0  0
    7.0697    6.4142    4.1068 C   0  0  1  0  0  0  0  0  0  0  0  0
    7.5901    6.8955    2.8451 O   0  0  0  0  0  0  0  0  0  0  0  0
    3.3336    4.6304    9.5269 C   0  0  0  0  0  0  0  0  0  0  0  0
   10.4998    8.8206   -0.0918 C   0  0  0  0  0  0  0  0  0  0  0  0
   12.2202    7.9733    2.5880 C   0  0  0  0  0  0  0  0  0  0  0  0
  1  2  1  1  0  0  0
  1  6  1  0  0  0  0
  1 23  1  0  0  0  0
  3  4  1  1  0  0  0
  3  8  1  0  0  0  0
  3 30  1  0  0  0  0
  5  9  1  0  0  0  0
  5 27  1  0  0  0  0
  5 31  1  1  0  0  0
  6  7  1  6  0  0  0
  6 11  1  0  0  0  0
  8 13  1  0  0  0  0
  9 10  1  1  0  0  0
  9 15  1  0  0  0  0
 11 12  1  6  0  0  0
 11 17  1  0  0  0  0
 13 14  1  1  0  0  0
 13 19  1  0  0  0  0
 15 16  1  6  0  0  0
 15 20  1  0  0  0  0
 16 34  1  0  0  0  0
 17 18  1  1  0  0  0
 17 22  1  0  0  0  0
 19  2  1  6  0  0  0
 19 24  1  0  0  0  0
 20 21  1  6  0  0  0
 20 26  1  0  0  0  0
 20 33  1  0  0  0  0
 22 23  1  6  0  0  0
 22 28  1  0  0  0  0
 24 25  1  6  0  0  0
 24 30  1  0  0  0  0
 26 27  1  0  0  0  0
 28 29  1  1  0  0  0
 28 32  1  0  0  0  0
 30 31  1  6  0  0  0
M  END
>  <CHROM.1>
-160.98475307,-124.69386010,-135.17682266,-77.47111110,133.75703932,-97.57687136
5.72407923,6.66511360,4.63015907,2.49511059,-0.07205278,1.73231417

>  <Name>
ligand

>  <RI>
0

>  <Rbt.Current_Directory>
/home/itssahil/PROJECTS/Mol_Feturizer/New_Systems/rnas/3TD1

>  <Rbt.Executable>
rbdock ($Id: //depot/dev/client3/rdock/2013.1/src/exe/rbdock.cxx#4 $)

>  <Rbt.Library>
libRbt.so (2013.1, Build901 2013/11/27)

>  <Rbt.Parameter_File>
/export/apps/rDock/src/rDock_2013.1_src/data/scripts/dock_solv.prm

>  <Rbt.Receptor>
prm/blind_docking_20.prm

>  <SCORE>
18.4613

>  <SCORE.INTER>
5.60821

>  <SCORE.INTER.CONST>
1

>  <SCORE.INTER.POLAR>
0

>  <SCORE.INTER.ROT>
6

>  <SCORE.INTER.SOLV>
23.2855

>  <SCORE.INTER.VDW>
-11.623

>  <SCORE.INTER.norm>
0.164947

>  <SCORE.INTRA>
3.20197

>  <SCORE.INTRA.DIHEDRAL>
2.4579

>  <SCORE.INTRA.DIHEDRAL.0>
19.5869

>  <SCORE.INTRA.POLAR>
0

>  <SCORE.INTRA.POLAR.0>
0

>  <SCORE.INTRA.REPUL>
0

>  <SCORE.INTRA.REPUL.0>
0

>  <SCORE.INTRA.SOLV>
3.50769

>  <SCORE.INTRA.SOLV.lig_0>
-70.101

>  <SCORE.INTRA.VDW>
0.219177

>  <SCORE.INTRA.VDW.0>
-3.39718

>  <SCORE.INTRA.norm>
0.0941756

>  <SCORE.RESTR>
9.65112

>  <SCORE.RESTR.CAVITY>
9.65112

>  <SCORE.RESTR.norm>
0.283856

>  <SCORE.SYSTEM>
0

>  <SCORE.SYSTEM.CONST>
0

>  <SCORE.SYSTEM.DIHEDRAL>
0

>  <SCORE.SYSTEM.SOLV>
0

>  <SCORE.SYSTEM.norm>
0

>  <SCORE.heavy>
34

>  <SCORE.norm>
0.542979

>  <RMSD>
6.043

$$$$
ligand
 OpenBabel11021811483D
libRbt.so/2013.1/901 2013/11/27
 34 36  0  0  0  0  0  0  0  0999 V2000
    1.4068    5.9108    7.3696 C   0  0  2  0  0  0  0  0  0  0  0  0
    2.5398    6.3726    8.1218 O   0  0  0  0  0  0  0  0  0  0  0  0
    6.7630    6.3105    7.4723 C   0  0  2  0  0  0  0  0  0  0  0  0
    8.1112    5.8483    7.1611 N   0  0  0  0  0  0  0  0  0  0  0  0
    5.7798    6.8927    3.8102 C   0  0  2  0  0  0  0  0  0  0  0  0
    0.1147    6.1946    8.2159 C   0  0  2  0  0  0  0  0  0  0  0  0
   -0.0432    7.6337    8.4775 N   0  0  0  0  0  0  0  0  0  0  0  0
    6.1994    5.3836    8.6005 C   0  0  0  0  0  0  0  0  0  0  0  0
    6.8023    5.9728    3.0516 C   0  0  2  0  0  0  0  0  0  0  0  0
    6.9130    4.7251    3.7163 O   0  0  0  0  0  0  0  0  0  0  0  0
    0.1989    5.4237    9.5512 C   0  0  1  0  0  0  0  0  0  0  0  0
   -0.9844    5.6727   10.3275 O   0  0  0  0  0  0  0  0  0  0  0  0
    4.7609    5.8936    8.9516 C   0  0  2  0  0  0  0  0  0  0  0  0
    4.1708    5.0510   10.0115 N   0  0  0  0  0  0  0  0  0  0  0  0
    8.1966    6.7090    2.9925 C   0  0  1  0  0  0  0  0  0  0  0  0
    9.2116    5.8660    2.2923 N   0  0  0  0  0  0  0  0  0  0  0  0
    0.3734    3.9168    9.2471 C   0  0  2  0  0  0  0  0  0  0  0  0
    0.4642    3.1863   10.4827 O   0  0  0  0  0  0  0  0  0  0  0  0
    3.8386    5.8532    7.7064 C   0  0  2  0  0  0  0  0  0  0  0  0
    8.0187    8.0775    2.2500 C   0  0  1  0  0  0  0  0  0  0  0  0
    7.5770    7.8434    0.9155 O   0  0  0  0  0  0  0  0  0  0  0  0
    1.6723    3.6993    8.3811 C   0  0  2  0  0  0  0  0  0  0  0  0
    1.5743    4.4698    7.1261 O   0  0  0  0  0  0  0  0  0  0  0  0
    4.4525    6.7270    6.5840 C   0  0  2  0  0  0  0  0  0  0  0  0
    3.5991    6.6600    5.4462 O   0  0  0  0  0  0  0  0  0  0  0  0
    6.9480    8.9221    3.0100 C   0  0  0  0  0  0  0  0  0  0  0  0
    5.6680    8.1808    3.1121 O   0  0  0  0  0  0  0  0  0  0  0  0
    1.8861    2.2055    8.0224 C   0  0  2  0  0  0  0  0  0  0  0  0
    1.2786    1.3869    9.0185 O   0  0  0  0  0  0  0  0  0  0  0  0
    5.8543    6.2152    6.1785 C   0  0  1  0  0  0  0  0  0  0  0  0
    6.3407    7.0949    5.1375 O   0  0  0  0  0  0  0  0  0  0  0  0
    3.3626    1.8513    7.9593 C   0  0  0  0  0  0  0  0  0  0  0  0
    9.3233    8.8611    2.1738 C   0  0  0  0  0  0  0  0  0  0  0  0
   10.2198    5.4389    3.2812 C   0  0  0  0  0  0  0  0  0  0  0  0
  1  2  1  1  0  0  0
  1  6  1  0  0  0  0
  1 23  1  0  0  0  0
  3  4  1  6  0  0  0
  3  8  1  0  0  0  0
  3 30  1  0  0  0  0
  5  9  1  0  0  0  0
  5 27  1  0  0  0  0
  5 31  1  1  0  0  0
  6  7  1  1  0  0  0
  6 11  1  0  0  0  0
  8 13  1  0  0  0  0
  9 10  1  1  0  0  0
  9 15  1  0  0  0  0
 11 12  1  6  0  0  0
 11 17  1  0  0  0  0
 13 14  1  1  0  0  0
 13 19  1  0  0  0  0
 15 16  1  6  0  0  0
 15 20  1  0  0  0  0
 16 34  1  0  0  0  0
 17 18  1  1  0  0  0
 17 22  1  0  0  0  0
 19  2  1  1  0  0  0
 19 24  1  0  0  0  0
 20 21  1  6  0  0  0
 20 26  1  0  0  0  0
 20 33  1  0  0  0  0
 22 23  1  6  0  0  0
 22 28  1  0  0  0  0
 24 25  1  6  0  0  0
 24 30  1  0  0  0  0
 26 27  1  0  0  0  0
 28 29  1  1  0  0  0
 28 32  1  0  0  0  0
 30 31  1  6  0  0  0
M  END
>  <CHROM.1>
162.37936709,-153.68869414,-111.99227297,-26.87255360,167.09288268,-96.01202553
4.47476522,5.76311255,6.34426657,2.50189428,-0.45701156,2.52562031

>  <Name>
ligand

>  <RI>
0

>  <Rbt.Current_Directory>
/home/itssahil/PROJECTS/Mol_Feturizer/New_Systems/rnas/3TD1

>  <Rbt.Executable>
rbdock ($Id: //depot/dev/client3/rdock/2013.1/src/exe/rbdock.cxx#4 $)

>  <Rbt.Library>
libRbt.so (2013.1, Build901 2013/11/27)

>  <Rbt.Parameter_File>
/export/apps/rDock/src/rDock_2013.1_src/data/scripts/dock_solv.prm

>  <Rbt.Receptor>
prm/blind_docking_60.prm

>  <SCORE>
16.854

>  <SCORE.INTER>
0.977248

>  <SCORE.INTER.CONST>
1

>  <SCORE.INTER.POLAR>
0

>  <SCORE.INTER.ROT>
6

>  <SCORE.INTER.SOLV>
24.1524

>  <SCORE.INTER.VDW>
-14.9993

>  <SCORE.INTER.norm>
0.0287426

>  <SCORE.INTRA>
-1.75204

>  <SCORE.INTRA.DIHEDRAL>
-5.40088

>  <SCORE.INTRA.DIHEDRAL.0>
19.5869

>  <SCORE.INTRA.POLAR>
0

>  <SCORE.INTRA.POLAR.0>
0

>  <SCORE.INTRA.REPUL>
0

>  <SCORE.INTRA.REPUL.0>
0

>  <SCORE.INTRA.SOLV>
0.0289261

>  <SCORE.INTRA.SOLV.lig_0>
-70.101

>  <SCORE.INTRA.VDW>
0.93394

>  <SCORE.INTRA.VDW.0>
-3.39718

>  <SCORE.INTRA.norm>
-0.0515305

>  <SCORE.RESTR>
17.6288

>  <SCORE.RESTR.CAVITY>
17.6288

>  <SCORE.RESTR.norm>
0.518495

>  <SCORE.SYSTEM>
0

>  <SCORE.SYSTEM.CONST>
0

>  <SCORE.SYSTEM.DIHEDRAL>
0

>  <SCORE.SYSTEM.SOLV>
0

>  <SCORE.SYSTEM.norm>
0

>  <SCORE.heavy>
34

>  <SCORE.norm>
0.495707

>  <RMSD>
6.063

$$$$
ligand
 OpenBabel11021811483D
libRbt.so/2013.1/901 2013/11/27
 34 36  0  0  0  0  0  0  0  0999 V2000
    0.6641    6.1878    8.7166 C   0  0  2  0  0  0  0  0  0  0  0  0
    0.8829    5.6951    7.3855 O   0  0  0  0  0  0  0  0  0  0  0  0
    3.4858    6.5095    4.0956 C   0  0  2  0  0  0  0  0  0  0  0  0
    4.4482    7.1682    3.2193 N   0  0  0  0  0  0  0  0  0  0  0  0
    6.4642    5.3684    6.0199 C   0  0  2  0  0  0  0  0  0  0  0  0
    1.9814    5.9594    9.5407 C   0  0  2  0  0  0  0  0  0  0  0  0
    3.1131    6.6864    8.9449 N   0  0  0  0  0  0  0  0  0  0  0  0
    2.3168    7.5188    4.3493 C   0  0  0  0  0  0  0  0  0  0  0  0
    6.8373    6.8823    5.8303 C   0  0  2  0  0  0  0  0  0  0  0  0
    5.8034    7.7020    6.3498 O   0  0  0  0  0  0  0  0  0  0  0  0
    2.2961    4.4486    9.5928 C   0  0  1  0  0  0  0  0  0  0  0  0
    3.4964    4.2317   10.3524 O   0  0  0  0  0  0  0  0  0  0  0  0
    1.2717    6.8040    5.2711 C   0  0  2  0  0  0  0  0  0  0  0  0
    0.1418    7.7126    5.5529 N   0  0  0  0  0  0  0  0  0  0  0  0
    7.0612    7.1587    4.2931 C   0  0  1  0  0  0  0  0  0  0  0  0
    7.4042    8.5933    4.0572 N   0  0  0  0  0  0  0  0  0  0  0  0
    1.0879    3.7085   10.2142 C   0  0  2  0  0  0  0  0  0  0  0  0
    1.3622    2.2974   10.2596 O   0  0  0  0  0  0  0  0  0  0  0  0
    1.9177    6.3750    6.6133 C   0  0  2  0  0  0  0  0  0  0  0  0
    8.2107    6.2303    3.7711 C   0  0  1  0  0  0  0  0  0  0  0  0
    9.4198    6.5315    4.4628 O   0  0  0  0  0  0  0  0  0  0  0  0
   -0.2038    3.9919    9.3564 C   0  0  2  0  0  0  0  0  0  0  0  0
   -0.4620    5.4440    9.3017 O   0  0  0  0  0  0  0  0  0  0  0  0
    3.1107    5.4283    6.3297 C   0  0  2  0  0  0  0  0  0  0  0  0
    3.6986    5.0626    7.5740 O   0  0  0  0  0  0  0  0  0  0  0  0
    7.8144    4.7448    4.0422 C   0  0  0  0  0  0  0  0  0  0  0  0
    7.5427    4.5270    5.4834 O   0  0  0  0  0  0  0  0  0  0  0  0
   -1.4566    3.2942    9.9477 C   0  0  2  0  0  0  0  0  0  0  0  0
   -1.6224    3.6894   11.3069 O   0  0  0  0  0  0  0  0  0  0  0  0
    4.1857    6.1251    5.4635 C   0  0  1  0  0  0  0  0  0  0  0  0
    5.2460    5.1634    5.2510 O   0  0  0  0  0  0  0  0  0  0  0  0
   -1.3234    1.7808    9.9110 C   0  0  0  0  0  0  0  0  0  0  0  0
    8.4703    6.4231    2.2821 C   0  0  0  0  0  0  0  0  0  0  0  0
    6.7049    9.0415    2.8378 C   0  0  0  0  0  0  0  0  0  0  0  0
  1  2  1  6  0  0  0
  1  6  1  0  0  0  0
  1 23  1  0  0  0  0
  3  4  1  6  0  0  0
  3  8  1  0  0  0  0
  3 30  1  0  0  0  0
  5  9  1  0  0  0  0
  5 27  1  0  0  0  0
  5 31  1  6  0  0  0
  6  7  1  6  0  0  0
  6 11  1  0  0  0  0
  8 13  1  0  0  0  0
  9 10  1  6  0  0  0
  9 15  1  0  0  0  0
 11 12  1  1  0  0  0
 11 17  1  0  0  0  0
 13 14  1  1  0  0  0
 13 19  1  0  0  0  0
 15 16  1  1  0  0  0
 15 20  1  0  0  0  0
 16 34  1  0  0  0  0
 17 18  1  6  0  0  0
 17 22  1  0  0  0  0
 19  2  1  1  0  0  0
 19 24  1  0  0  0  0
 20 21  1  1  0  0  0
 20 26  1  0  0  0  0
 20 33  1  0  0  0  0
 22 23  1  1  0  0  0
 22 28  1  0  0  0  0
 24 25  1  1  0  0  0
 24 30  1  0  0  0  0
 26 27  1  0  0  0  0
 28 29  1  1  0  0  0
 28 32  1  0  0  0  0
 30 31  1  6  0  0  0
M  END
>  <CHROM.1>
-63.24395774,-126.90694484,-139.98136673,55.28113381,139.17762878,-48.81440640
3.57907388,5.69376200,6.73524120,2.45041587,-0.22333199,2.28085958

>  <Name>
ligand

>  <RI>
0

>  <Rbt.Current_Directory>
/home/itssahil/PROJECTS/Mol_Feturizer/New_Systems/rnas/3TD1

>  <Rbt.Executable>
rbdock ($Id: //depot/dev/client3/rdock/2013.1/src/exe/rbdock.cxx#4 $)

>  <Rbt.Library>
libRbt.so (2013.1, Build901 2013/11/27)

>  <Rbt.Parameter_File>
/export/apps/rDock/src/rDock_2013.1_src/data/scripts/dock_solv.prm

>  <Rbt.Receptor>
prm/blind_docking_60.prm

>  <SCORE>
107.094

>  <SCORE.INTER>
78.3656

>  <SCORE.INTER.CONST>
1

>  <SCORE.INTER.POLAR>
0

>  <SCORE.INTER.ROT>
6

>  <SCORE.INTER.SOLV>
30.1278

>  <SCORE.INTER.VDW>
34.6012

>  <SCORE.INTER.norm>
2.30487

>  <SCORE.INTRA>
14.6125

>  <SCORE.INTRA.DIHEDRAL>
-5.47296

>  <SCORE.INTRA.DIHEDRAL.0>
19.5869

>  <SCORE.INTRA.POLAR>
0

>  <SCORE.INTRA.POLAR.0>
0

>  <SCORE.INTRA.REPUL>
0.155847

>  <SCORE.INTRA.REPUL.0>
0

>  <SCORE.INTRA.SOLV>
6.98851

>  <SCORE.INTRA.SOLV.lig_0>
-70.101

>  <SCORE.INTRA.VDW>
13.0755

>  <SCORE.INTRA.VDW.0>
-3.39718

>  <SCORE.INTRA.norm>
0.429781

>  <SCORE.RESTR>
14.116

>  <SCORE.RESTR.CAVITY>
14.116

>  <SCORE.RESTR.norm>
0.415177

>  <SCORE.SYSTEM>
0

>  <SCORE.SYSTEM.CONST>
0

>  <SCORE.SYSTEM.DIHEDRAL>
0

>  <SCORE.SYSTEM.SOLV>
0

>  <SCORE.SYSTEM.norm>
0

>  <SCORE.heavy>
34

>  <SCORE.norm>
3.14983

>  <RMSD>
6.063

$$$$
ligand
 OpenBabel11021811483D
libRbt.so/2013.1/901 2013/11/27
 34 36  0  0  0  0  0  0  0  0999 V2000
    4.2835    5.6327    5.4664 C   0  0  2  0  0  0  0  0  0  0  0  0
    5.1644    6.7585    5.3276 O   0  0  0  0  0  0  0  0  0  0  0  0
    9.1174    7.1505    3.7522 C   0  0  2  0  0  0  0  0  0  0  0  0
   10.3017    6.9729    2.9193 N   0  0  0  0  0  0  0  0  0  0  0  0
    7.9317    9.4734    1.0861 C   0  0  2  0  0  0  0  0  0  0  0  0
    2.8209    6.1221    5.1704 C   0  0  2  0  0  0  0  0  0  0  0  0
    2.7045    6.6509    3.8025 N   0  0  0  0  0  0  0  0  0  0  0  0
    8.6887    5.7348    4.2640 C   0  0  0  0  0  0  0  0  0  0  0  0
    8.6894    8.4614    0.1540 C   0  0  2  0  0  0  0  0  0  0  0  0
    8.2740    7.1367    0.4428 O   0  0  0  0  0  0  0  0  0  0  0  0
    2.4310    7.2136    6.1908 C   0  0  1  0  0  0  0  0  0  0  0  0
    1.0904    7.6606    5.9306 O   0  0  0  0  0  0  0  0  0  0  0  0
    7.4310    5.9272    5.1772 C   0  0  2  0  0  0  0  0  0  0  0  0
    6.9731    4.6193    5.6884 N   0  0  0  0  0  0  0  0  0  0  0  0
   10.2416    8.6308    0.3808 C   0  0  1  0  0  0  0  0  0  0  0  0
   11.0092    7.6762   -0.4742 N   0  0  0  0  0  0  0  0  0  0  0  0
    2.5708    6.6345    7.6186 C   0  0  2  0  0  0  0  0  0  0  0  0
    2.2210    7.6441    8.5813 O   0  0  0  0  0  0  0  0  0  0  0  0
    6.2720    6.5931    4.3922 C   0  0  2  0  0  0  0  0  0  0  0  0
   10.6466   10.1076    0.0481 C   0  0  1  0  0  0  0  0  0  0  0  0
   10.3592   10.3855   -1.3198 O   0  0  0  0  0  0  0  0  0  0  0  0
    4.0512    6.1437    7.8473 C   0  0  2  0  0  0  0  0  0  0  0  0
    4.4033    5.1232    6.8410 O   0  0  0  0  0  0  0  0  0  0  0  0
    6.7439    7.9627    3.8432 C   0  0  2  0  0  0  0  0  0  0  0  0
    5.6708    8.5464    3.1117 O   0  0  0  0  0  0  0  0  0  0  0  0
    9.8187   11.0691    0.9578 C   0  0  0  0  0  0  0  0  0  0  0  0
    8.3646   10.8430    0.7768 O   0  0  0  0  0  0  0  0  0  0  0  0
    4.2460    5.5278    9.2575 C   0  0  2  0  0  0  0  0  0  0  0  0
    4.0373    6.5323   10.2468 O   0  0  0  0  0  0  0  0  0  0  0  0
    7.9545    7.7995    2.8948 C   0  0  1  0  0  0  0  0  0  0  0  0
    8.3204    9.1252    2.4444 O   0  0  0  0  0  0  0  0  0  0  0  0
    5.6503    4.9755    9.4374 C   0  0  0  0  0  0  0  0  0  0  0  0
   12.1339   10.3563    0.2672 C   0  0  0  0  0  0  0  0  0  0  0  0
   11.0230    6.3623    0.1970 C   0  0  0  0  0  0  0  0  0  0  0  0
  1  2  1  1  0  0  0
  1  6  1  0  0  0  0
  1 23  1  0  0  0  0
  3  4  1  6  0  0  0
  3  8  1  0  0  0  0
  3 30  1  0  0  0  0
  5  9  1  0  0  0  0
  5 27  1  0  0  0  0
  5 31  1  1  0  0  0
  6  7  1  6  0  0  0
  6 11  1  0  0  0  0
  8 13  1  0  0  0  0
  9 10  1  1  0  0  0
  9 15  1  0  0  0  0
 11 12  1  6  0  0  0
 11 17  1  0  0  0  0
 13 14  1  6  0  0  0
 13 19  1  0  0  0  0
 15 16  1  6  0  0  0
 15 20  1  0  0  0  0
 16 34  1  0  0  0  0
 17 18  1  1  0  0  0
 17 22  1  0  0  0  0
 19  2  1  1  0  0  0
 19 24  1  0  0  0  0
 20 21  1  6  0  0  0
 20 26  1  0  0  0  0
 20 33  1  0  0  0  0
 22 23  1  6  0  0  0
 22 28  1  0  0  0  0
 24 25  1  6  0  0  0
 24 30  1  0  0  0  0
 26 27  1  0  0  0  0
 28 29  1  1  0  0  0
 28 32  1  0  0  0  0
 30 31  1  1  0  0  0
M  END
>  <CHROM.1>
-124.65740098,-86.32850437,-81.44278937,-64.21465645,139.96414539,-62.15094041
6.79461859,7.47699197,3.91182906,-2.32620884,0.32890428,-0.90324606

>  <Name>
ligand

>  <RI>
0

>  <Rbt.Current_Directory>
/home/itssahil/PROJECTS/Mol_Feturizer/New_Systems/rnas/3TD1

>  <Rbt.Executable>
rbdock ($Id: //depot/dev/client3/rdock/2013.1/src/exe/rbdock.cxx#4 $)

>  <Rbt.Library>
libRbt.so (2013.1, Build901 2013/11/27)

>  <Rbt.Parameter_File>
/export/apps/rDock/src/rDock_2013.1_src/data/scripts/dock_solv.prm

>  <Rbt.Receptor>
prm/blind_docking_20.prm

>  <SCORE>
44.3242

>  <SCORE.INTER>
32.6614

>  <SCORE.INTER.CONST>
1

>  <SCORE.INTER.POLAR>
0

>  <SCORE.INTER.ROT>
6

>  <SCORE.INTER.SOLV>
24.0802

>  <SCORE.INTER.VDW>
6.14756

>  <SCORE.INTER.norm>
0.96063

>  <SCORE.INTRA>
2.81579

>  <SCORE.INTRA.DIHEDRAL>
-3.76078

>  <SCORE.INTRA.DIHEDRAL.0>
19.5869

>  <SCORE.INTRA.POLAR>
0

>  <SCORE.INTRA.POLAR.0>
0

>  <SCORE.INTRA.REPUL>
0

>  <SCORE.INTRA.REPUL.0>
0

>  <SCORE.INTRA.SOLV>
4.31142

>  <SCORE.INTRA.SOLV.lig_0>
-70.101

>  <SCORE.INTRA.VDW>
2.54046

>  <SCORE.INTRA.VDW.0>
-3.39718

>  <SCORE.INTRA.norm>
0.0828172

>  <SCORE.RESTR>
8.84701

>  <SCORE.RESTR.CAVITY>
8.84701

>  <SCORE.RESTR.norm>
0.260206

>  <SCORE.SYSTEM>
0

>  <SCORE.SYSTEM.CONST>
0

>  <SCORE.SYSTEM.DIHEDRAL>
0

>  <SCORE.SYSTEM.SOLV>
0

>  <SCORE.SYSTEM.norm>
0

>  <SCORE.heavy>
34

>  <SCORE.norm>
1.30365

>  <RMSD>
6.064

$$$$
ligand
 OpenBabel11021811483D
libRbt.so/2013.1/901 2013/11/27
 34 36  0  0  0  0  0  0  0  0999 V2000
    1.6174    5.5545    7.3707 C   0  0  2  0  0  0  0  0  0  0  0  0
    2.7664    6.0188    8.0964 O   0  0  0  0  0  0  0  0  0  0  0  0
    6.9608    6.1459    7.2884 C   0  0  2  0  0  0  0  0  0  0  0  0
    8.3088    5.7536    6.8921 N   0  0  0  0  0  0  0  0  0  0  0  0
    5.7944    6.9973    3.7316 C   0  0  2  0  0  0  0  0  0  0  0  0
    0.3334    6.0243    8.1436 C   0  0  2  0  0  0  0  0  0  0  0  0
    0.2764    7.4915    8.2358 N   0  0  0  0  0  0  0  0  0  0  0  0
    6.4700    5.1161    8.3600 C   0  0  0  0  0  0  0  0  0  0  0  0
    6.6750    5.9889    2.9102 C   0  0  2  0  0  0  0  0  0  0  0  0
    6.6652    4.7179    3.5388 O   0  0  0  0  0  0  0  0  0  0  0  0
    0.3354    5.4084    9.5596 C   0  0  1  0  0  0  0  0  0  0  0  0
   -0.8411    5.8279   10.2699 O   0  0  0  0  0  0  0  0  0  0  0  0
    5.0318    5.5498    8.8032 C   0  0  2  0  0  0  0  0  0  0  0  0
    4.5093    4.6085    9.8144 N   0  0  0  0  0  0  0  0  0  0  0  0
    8.1419    6.5620    2.8135 C   0  0  1  0  0  0  0  0  0  0  0  0
    9.0261    5.6291    2.0524 N   0  0  0  0  0  0  0  0  0  0  0  0
    0.4049    3.8680    9.4334 C   0  0  2  0  0  0  0  0  0  0  0  0
    0.4184    3.2800   10.7459 O   0  0  0  0  0  0  0  0  0  0  0  0
    4.0628    5.5761    7.5936 C   0  0  2  0  0  0  0  0  0  0  0  0
    8.0960    7.9630    2.1129 C   0  0  1  0  0  0  0  0  0  0  0  0
    7.5812    7.8201    0.7917 O   0  0  0  0  0  0  0  0  0  0  0  0
    1.7008    3.4611    8.6336 C   0  0  2  0  0  0  0  0  0  0  0  0
    1.6835    4.0869    7.2971 O   0  0  0  0  0  0  0  0  0  0  0  0
    4.6057    6.5541    6.5218 C   0  0  2  0  0  0  0  0  0  0  0  0
    3.7105    6.5479    5.4145 O   0  0  0  0  0  0  0  0  0  0  0  0
    7.1589    8.9021    2.9359 C   0  0  0  0  0  0  0  0  0  0  0  0
    5.8065    8.3096    3.0708 O   0  0  0  0  0  0  0  0  0  0  0  0
    1.8115    1.9245    8.4528 C   0  0  2  0  0  0  0  0  0  0  0  0
    3.1017    1.5987    7.9424 O   0  0  0  0  0  0  0  0  0  0  0  0
    6.0050    6.1216    6.0256 C   0  0  1  0  0  0  0  0  0  0  0  0
    6.4236    7.0950    5.0400 O   0  0  0  0  0  0  0  0  0  0  0  0
    0.7730    1.4003    7.4749 C   0  0  0  0  0  0  0  0  0  0  0  0
    9.4787    8.5939    2.0039 C   0  0  0  0  0  0  0  0  0  0  0  0
   10.2854    5.4687    2.8042 C   0  0  0  0  0  0  0  0  0  0  0  0
  1  2  1  1  0  0  0
  1  6  1  0  0  0  0
  1 23  1  0  0  0  0
  3  4  1  6  0  0  0
  3  8  1  0  0  0  0
  3 30  1  0  0  0  0
  5  9  1  0  0  0  0
  5 27  1  0  0  0  0
  5 31  1  1  0  0  0
  6  7  1  1  0  0  0
  6 11  1  0  0  0  0
  8 13  1  0  0  0  0
  9 10  1  1  0  0  0
  9 15  1  0  0  0  0
 11 12  1  6  0  0  0
 11 17  1  0  0  0  0
 13 14  1  1  0  0  0
 13 19  1  0  0  0  0
 15 16  1  6  0  0  0
 15 20  1  0  0  0  0
 16 34  1  0  0  0  0
 17 18  1  1  0  0  0
 17 22  1  0  0  0  0
 19  2  1  1  0  0  0
 19 24  1  0  0  0  0
 20 21  1  6  0  0  0
 20 26  1  0  0  0  0
 20 33  1  0  0  0  0
 22 23  1  6  0  0  0
 22 28  1  0  0  0  0
 24 25  1  6  0  0  0
 24 30  1  0  0  0  0
 26 27  1  0  0  0  0
 28 29  1  6  0  0  0
 28 32  1  0  0  0  0
 30 31  1  6  0  0  0
M  END
>  <CHROM.1>
174.74696735,-152.29584416,-133.54421235,-169.70146597,168.45128023,-87.79425871
4.55122525,5.63545532,6.22268859,2.50684337,-0.48267440,2.56168239

>  <Name>
ligand

>  <RI>
0

>  <Rbt.Current_Directory>
/home/itssahil/PROJECTS/Mol_Feturizer/New_Systems/rnas/3TD1

>  <Rbt.Executable>
rbdock ($Id: //depot/dev/client3/rdock/2013.1/src/exe/rbdock.cxx#4 $)

>  <Rbt.Library>
libRbt.so (2013.1, Build901 2013/11/27)

>  <Rbt.Parameter_File>
/export/apps/rDock/src/rDock_2013.1_src/data/scripts/dock_solv.prm

>  <Rbt.Receptor>
prm/blind_docking_60.prm

>  <SCORE>
14.8626

>  <SCORE.INTER>
2.11851

>  <SCORE.INTER.CONST>
1

>  <SCORE.INTER.POLAR>
0

>  <SCORE.INTER.ROT>
6

>  <SCORE.INTER.SOLV>
23.4205

>  <SCORE.INTER.VDW>
-13.9945

>  <SCORE.INTER.norm>
0.062309

>  <SCORE.INTRA>
-4.79099

>  <SCORE.INTRA.DIHEDRAL>
-10.961

>  <SCORE.INTRA.DIHEDRAL.0>
19.5869

>  <SCORE.INTRA.POLAR>
0

>  <SCORE.INTRA.POLAR.0>
0

>  <SCORE.INTRA.REPUL>
0

>  <SCORE.INTRA.REPUL.0>
0

>  <SCORE.INTRA.SOLV>
-0.760032

>  <SCORE.INTRA.SOLV.lig_0>
-70.101

>  <SCORE.INTRA.VDW>
1.06953

>  <SCORE.INTRA.VDW.0>
-3.39718

>  <SCORE.INTRA.norm>
-0.140911

>  <SCORE.RESTR>
17.535

>  <SCORE.RESTR.CAVITY>
17.535

>  <SCORE.RESTR.norm>
0.515736

>  <SCORE.SYSTEM>
0

>  <SCORE.SYSTEM.CONST>
0

>  <SCORE.SYSTEM.DIHEDRAL>
0

>  <SCORE.SYSTEM.SOLV>
0

>  <SCORE.SYSTEM.norm>
0

>  <SCORE.heavy>
34

>  <SCORE.norm>
0.437134

>  <RMSD>
6.071

$$$$
ligand
 OpenBabel11021811483D
libRbt.so/2013.1/901 2013/11/27
 34 36  0  0  0  0  0  0  0  0999 V2000
    1.6208    5.5213    7.2897 C   0  0  2  0  0  0  0  0  0  0  0  0
    2.7556    6.0236    8.0125 O   0  0  0  0  0  0  0  0  0  0  0  0
    6.9574    6.1932    7.2522 C   0  0  2  0  0  0  0  0  0  0  0  0
    8.3150    5.8126    6.8778 N   0  0  0  0  0  0  0  0  0  0  0  0
    5.8238    6.9752    3.6691 C   0  0  2  0  0  0  0  0  0  0  0  0
    0.3222    6.0193    8.0192 C   0  0  2  0  0  0  0  0  0  0  0  0
    0.2575    7.4888    8.0438 N   0  0  0  0  0  0  0  0  0  0  0  0
    6.4670    5.1733    8.3335 C   0  0  0  0  0  0  0  0  0  0  0  0
    6.8074    6.0871    2.8259 C   0  0  2  0  0  0  0  0  0  0  0  0
    6.9278    4.8049    3.4195 O   0  0  0  0  0  0  0  0  0  0  0  0
    0.3031    5.4682    9.4615 C   0  0  1  0  0  0  0  0  0  0  0  0
   -0.8869    5.9137   10.1326 O   0  0  0  0  0  0  0  0  0  0  0  0
    5.0181    5.5949    8.7530 C   0  0  2  0  0  0  0  0  0  0  0  0
    4.4957    4.6620    9.7720 N   0  0  0  0  0  0  0  0  0  0  0  0
    8.2069    6.8120    2.7540 C   0  0  1  0  0  0  0  0  0  0  0  0
    9.1859    5.9975    1.9733 N   0  0  0  0  0  0  0  0  0  0  0  0
    0.3811    3.9240    9.4066 C   0  0  2  0  0  0  0  0  0  0  0  0
    0.3751    3.3962   10.7445 O   0  0  0  0  0  0  0  0  0  0  0  0
    4.0635    5.5904    7.5318 C   0  0  2  0  0  0  0  0  0  0  0  0
    8.0178    8.2195    2.0916 C   0  0  1  0  0  0  0  0  0  0  0  0
    7.5251    8.0606    0.7638 O   0  0  0  0  0  0  0  0  0  0  0  0
    1.6919    3.4877    8.6475 C   0  0  2  0  0  0  0  0  0  0  0  0
    1.6943    4.0522    7.2839 O   0  0  0  0  0  0  0  0  0  0  0  0
    4.6066    6.5592    6.4518 C   0  0  2  0  0  0  0  0  0  0  0  0
    3.7250    6.5247    5.3342 O   0  0  0  0  0  0  0  0  0  0  0  0
    6.9854    9.0329    2.9341 C   0  0  0  0  0  0  0  0  0  0  0  0
    5.7015    8.2995    3.0443 O   0  0  0  0  0  0  0  0  0  0  0  0
    1.8119    1.9451    8.5385 C   0  0  2  0  0  0  0  0  0  0  0  0
    3.1148    1.6024    8.0734 O   0  0  0  0  0  0  0  0  0  0  0  0
    6.0173    6.1376    5.9788 C   0  0  1  0  0  0  0  0  0  0  0  0
    6.4351    7.1015    4.9835 O   0  0  0  0  0  0  0  0  0  0  0  0
    0.7984    1.3729    7.5612 C   0  0  0  0  0  0  0  0  0  0  0  0
    9.3277    8.9935    2.0084 C   0  0  0  0  0  0  0  0  0  0  0  0
   10.5205    6.1749    2.5768 C   0  0  0  0  0  0  0  0  0  0  0  0
  1  2  1  1  0  0  0
  1  6  1  0  0  0  0
  1 23  1  0  0  0  0
  3  4  1  6  0  0  0
  3  8  1  0  0  0  0
  3 30  1  0  0  0  0
  5  9  1  0  0  0  0
  5 27  1  0  0  0  0
  5 31  1  1  0  0  0
  6  7  1  1  0  0  0
  6 11  1  0  0  0  0
  8 13  1  0  0  0  0
  9 10  1  1  0  0  0
  9 15  1  0  0  0  0
 11 12  1  6  0  0  0
 11 17  1  0  0  0  0
 13 14  1  1  0  0  0
 13 19  1  0  0  0  0
 15 16  1  6  0  0  0
 15 20  1  0  0  0  0
 16 34  1  0  0  0  0
 17 18  1  1  0  0  0
 17 22  1  0  0  0  0
 19  2  1  1  0  0  0
 19 24  1  0  0  0  0
 20 21  1  6  0  0  0
 20 26  1  0  0  0  0
 20 33  1  0  0  0  0
 22 23  1  6  0  0  0
 22 28  1  0  0  0  0
 24 25  1  6  0  0  0
 24 30  1  0  0  0  0
 26 27  1  0  0  0  0
 28 29  1  6  0  0  0
 28 32  1  0  0  0  0
 30 31  1  6  0  0  0
M  END
>  <CHROM.1>
176.15893346,-151.60841245,-145.05503056,-169.31204913,168.39923471,-93.55778481
4.55720472,5.72603240,6.17494165,2.46553456,-0.43034203,2.50687234

>  <Name>
ligand

>  <RI>
0

>  <Rbt.Current_Directory>
/home/itssahil/PROJECTS/Mol_Feturizer/New_Systems/rnas/3TD1

>  <Rbt.Executable>
rbdock ($Id: //depot/dev/client3/rdock/2013.1/src/exe/rbdock.cxx#4 $)

>  <Rbt.Library>
libRbt.so (2013.1, Build901 2013/11/27)

>  <Rbt.Parameter_File>
/export/apps/rDock/src/rDock_2013.1_src/data/scripts/dock_solv.prm

>  <Rbt.Receptor>
prm/blind_docking_40.prm

>  <SCORE>
9.36253

>  <SCORE.INTER>
1.33678

>  <SCORE.INTER.CONST>
1

>  <SCORE.INTER.POLAR>
0

>  <SCORE.INTER.ROT>
6

>  <SCORE.INTER.SOLV>
22.8052

>  <SCORE.INTER.VDW>
-14.3106

>  <SCORE.INTER.norm>
0.0393171

>  <SCORE.INTRA>
-3.5359

>  <SCORE.INTRA.DIHEDRAL>
-10.084

>  <SCORE.INTRA.DIHEDRAL.0>
19.5869

>  <SCORE.INTRA.POLAR>
0

>  <SCORE.INTRA.POLAR.0>
0

>  <SCORE.INTRA.REPUL>
0

>  <SCORE.INTRA.REPUL.0>
0

>  <SCORE.INTRA.SOLV>
-1.00129

>  <SCORE.INTRA.SOLV.lig_0>
-70.101

>  <SCORE.INTRA.VDW>
2.00676

>  <SCORE.INTRA.VDW.0>
-3.39718

>  <SCORE.INTRA.norm>
-0.103997

>  <SCORE.RESTR>
11.5616

>  <SCORE.RESTR.CAVITY>
11.5616

>  <SCORE.RESTR.norm>
0.340048

>  <SCORE.SYSTEM>
0

>  <SCORE.SYSTEM.CONST>
0

>  <SCORE.SYSTEM.DIHEDRAL>
0

>  <SCORE.SYSTEM.SOLV>
0

>  <SCORE.SYSTEM.norm>
0

>  <SCORE.heavy>
34

>  <SCORE.norm>
0.275369

>  <RMSD>
6.075

$$$$
ligand
 OpenBabel11021811483D
libRbt.so/2013.1/901 2013/11/27
 34 36  0  0  0  0  0  0  0  0999 V2000
    1.2965    5.8485    7.3919 C   0  0  2  0  0  0  0  0  0  0  0  0
    2.4922    6.1243    8.1382 O   0  0  0  0  0  0  0  0  0  0  0  0
    6.6698    5.8693    7.2758 C   0  0  2  0  0  0  0  0  0  0  0  0
    7.9656    5.3677    6.8315 N   0  0  0  0  0  0  0  0  0  0  0  0
    5.7703    6.9194    3.7293 C   0  0  2  0  0  0  0  0  0  0  0  0
    0.0728    6.3700    8.2269 C   0  0  2  0  0  0  0  0  0  0  0  0
    0.1659    7.8202    8.4564 N   0  0  0  0  0  0  0  0  0  0  0  0
    6.0816    4.8217    8.2788 C   0  0  0  0  0  0  0  0  0  0  0  0
    6.8240    6.0010    3.0127 C   0  0  2  0  0  0  0  0  0  0  0  0
    6.8324    4.7171    3.6145 O   0  0  0  0  0  0  0  0  0  0  0  0
    0.0226    5.6260    9.5791 C   0  0  1  0  0  0  0  0  0  0  0  0
   -1.0998    6.0928   10.3453 O   0  0  0  0  0  0  0  0  0  0  0  0
    4.7009    5.3705    8.7742 C   0  0  2  0  0  0  0  0  0  0  0  0
    4.0900    4.4182    9.7237 N   0  0  0  0  0  0  0  0  0  0  0  0
    8.2424    6.6844    3.1155 C   0  0  1  0  0  0  0  0  0  0  0  0
    9.2860    5.8399    2.4604 N   0  0  0  0  0  0  0  0  0  0  0  0
   -0.0659    4.1053    9.3088 C   0  0  2  0  0  0  0  0  0  0  0  0
   -0.1025    3.3977   10.5604 O   0  0  0  0  0  0  0  0  0  0  0  0
    3.7304    5.5859    7.5849 C   0  0  2  0  0  0  0  0  0  0  0  0
    8.1781    8.0955    2.4371 C   0  0  1  0  0  0  0  0  0  0  0  0
    7.8487    7.9486    1.0584 O   0  0  0  0  0  0  0  0  0  0  0  0
    1.1760    3.6475    8.4526 C   0  0  2  0  0  0  0  0  0  0  0  0
    1.2125    4.3953    7.1807 O   0  0  0  0  0  0  0  0  0  0  0  0
    4.3650    6.5768    6.5772 C   0  0  2  0  0  0  0  0  0  0  0  0
    3.4653    6.7447    5.4864 O   0  0  0  0  0  0  0  0  0  0  0  0
    7.0738    8.9406    3.1470 C   0  0  0  0  0  0  0  0  0  0  0  0
    5.7651    8.2454    3.0965 O   0  0  0  0  0  0  0  0  0  0  0  0
    1.1284    2.1316    8.1276 C   0  0  2  0  0  0  0  0  0  0  0  0
    0.4407    1.4443    9.1697 O   0  0  0  0  0  0  0  0  0  0  0  0
    5.7068    6.0371    6.0296 C   0  0  1  0  0  0  0  0  0  0  0  0
    6.2179    7.0301    5.1094 O   0  0  0  0  0  0  0  0  0  0  0  0
    2.5237    1.5397    8.0151 C   0  0  0  0  0  0  0  0  0  0  0  0
    9.5104    8.8305    2.5178 C   0  0  0  0  0  0  0  0  0  0  0  0
   10.0667    5.1674    3.5163 C   0  0  0  0  0  0  0  0  0  0  0  0
  1  2  1  1  0  0  0
  1  6  1  0  0  0  0
  1 23  1  0  0  0  0
  3  4  1  6  0  0  0
  3  8  1  0  0  0  0
  3 30  1  0  0  0  0
  5  9  1  0  0  0  0
  5 27  1  0  0  0  0
  5 31  1  1  0  0  0
  6  7  1  1  0  0  0
  6 11  1  0  0  0  0
  8 13  1  0  0  0  0
  9 10  1  1  0  0  0
  9 15  1  0  0  0  0
 11 12  1  6  0  0  0
 11 17  1  0  0  0  0
 13 14  1  1  0  0  0
 13 19  1  0  0  0  0
 15 16  1  6  0  0  0
 15 20  1  0  0  0  0
 16 34  1  0  0  0  0
 17 18  1  1  0  0  0
 17 22  1  0  0  0  0
 19  2  1  1  0  0  0
 19 24  1  0  0  0  0
 20 21  1  6  0  0  0
 20 26  1  0  0  0  0
 20 33  1  0  0  0  0
 22 23  1  6  0  0  0
 22 28  1  0  0  0  0
 24 25  1  6  0  0  0
 24 30  1  0  0  0  0
 26 27  1  0  0  0  0
 28 29  1  1  0  0  0
 28 32  1  0  0  0  0
 30 31  1  6  0  0  0
M  END
>  <CHROM.1>
173.86080226,-152.91160014,-103.93032241,-29.47245800,156.31053776,-90.40255622
4.32652863,5.68821922,6.35205038,2.56484976,-0.48010231,2.61707743

>  <Name>
ligand

>  <RI>
0

>  <Rbt.Current_Directory>
/home/itssahil/PROJECTS/Mol_Feturizer/New_Systems/rnas/3TD1

>  <Rbt.Executable>
rbdock ($Id: //depot/dev/client3/rdock/2013.1/src/exe/rbdock.cxx#4 $)

>  <Rbt.Library>
libRbt.so (2013.1, Build901 2013/11/27)

>  <Rbt.Parameter_File>
/export/apps/rDock/src/rDock_2013.1_src/data/scripts/dock_solv.prm

>  <Rbt.Receptor>
prm/blind_docking_100.prm

>  <SCORE>
10.3937

>  <SCORE.INTER>
0.0985216

>  <SCORE.INTER.CONST>
1

>  <SCORE.INTER.POLAR>
0

>  <SCORE.INTER.ROT>
6

>  <SCORE.INTER.SOLV>
22.5697

>  <SCORE.INTER.VDW>
-15.0576

>  <SCORE.INTER.norm>
0.00289769

>  <SCORE.INTRA>
-2.61456

>  <SCORE.INTRA.DIHEDRAL>
-6.43058

>  <SCORE.INTRA.DIHEDRAL.0>
19.5869

>  <SCORE.INTRA.POLAR>
0

>  <SCORE.INTRA.POLAR.0>
0

>  <SCORE.INTRA.REPUL>
0

>  <SCORE.INTRA.REPUL.0>
0

>  <SCORE.INTRA.SOLV>
0.820811

>  <SCORE.INTRA.SOLV.lig_0>
-70.101

>  <SCORE.INTRA.VDW>
0.19032

>  <SCORE.INTRA.VDW.0>
-3.39718

>  <SCORE.INTRA.norm>
-0.0768989

>  <SCORE.RESTR>
12.9098

>  <SCORE.RESTR.CAVITY>
12.9098

>  <SCORE.RESTR.norm>
0.379699

>  <SCORE.SYSTEM>
0

>  <SCORE.SYSTEM.CONST>
0

>  <SCORE.SYSTEM.DIHEDRAL>
0

>  <SCORE.SYSTEM.SOLV>
0

>  <SCORE.SYSTEM.norm>
0

>  <SCORE.heavy>
34

>  <SCORE.norm>
0.305698

>  <RMSD>
6.083

$$$$
ligand
 OpenBabel11021811483D
libRbt.so/2013.1/901 2013/11/27
 34 36  0  0  0  0  0  0  0  0999 V2000
    1.2797    5.8148    7.3672 C   0  0  2  0  0  0  0  0  0  0  0  0
    2.4901    6.0571    8.1014 O   0  0  0  0  0  0  0  0  0  0  0  0
    6.6551    5.7624    7.1917 C   0  0  2  0  0  0  0  0  0  0  0  0
    7.9374    5.2569    6.7142 N   0  0  0  0  0  0  0  0  0  0  0  0
    5.7633    6.9741    3.6988 C   0  0  2  0  0  0  0  0  0  0  0  0
    0.0777    6.3531    8.2228 C   0  0  2  0  0  0  0  0  0  0  0  0
    0.2046    7.7984    8.4664 N   0  0  0  0  0  0  0  0  0  0  0  0
    6.0549    4.6823    8.1524 C   0  0  0  0  0  0  0  0  0  0  0  0
    6.7679    6.0150    2.9653 C   0  0  2  0  0  0  0  0  0  0  0  0
    6.7005    4.7188    3.5363 O   0  0  0  0  0  0  0  0  0  0  0  0
    0.0282    5.5958    9.5676 C   0  0  1  0  0  0  0  0  0  0  0  0
   -1.0746    6.0780   10.3525 O   0  0  0  0  0  0  0  0  0  0  0  0
    4.6890    5.2343    8.6839 C   0  0  2  0  0  0  0  0  0  0  0  0
    4.0675    4.2523    9.5955 N   0  0  0  0  0  0  0  0  0  0  0  0
    8.2219    6.6147    3.0909 C   0  0  1  0  0  0  0  0  0  0  0  0
    9.2202    5.7285    2.4206 N   0  0  0  0  0  0  0  0  0  0  0  0
   -0.0960    4.0803    9.2824 C   0  0  2  0  0  0  0  0  0  0  0  0
   -0.1326    3.3602   10.5268 O   0  0  0  0  0  0  0  0  0  0  0  0
    3.7133    5.5207    7.5139 C   0  0  2  0  0  0  0  0  0  0  0  0
    8.2410    8.0428    2.4461 C   0  0  1  0  0  0  0  0  0  0  0  0
    7.9121    7.9472    1.0627 O   0  0  0  0  0  0  0  0  0  0  0  0
    1.1252    3.6055    8.4061 C   0  0  2  0  0  0  0  0  0  0  0  0
    1.1622    4.3660    7.1418 O   0  0  0  0  0  0  0  0  0  0  0  0
    4.3587    6.5435    6.5456 C   0  0  2  0  0  0  0  0  0  0  0  0
    3.4537    6.7767    5.4713 O   0  0  0  0  0  0  0  0  0  0  0  0
    7.1818    8.9318    3.1708 C   0  0  0  0  0  0  0  0  0  0  0  0
    5.8364    8.3129    3.0977 O   0  0  0  0  0  0  0  0  0  0  0  0
    1.0413    2.0946    8.0658 C   0  0  2  0  0  0  0  0  0  0  0  0
    0.3137    1.4179    9.0875 O   0  0  0  0  0  0  0  0  0  0  0  0
    5.6855    6.0036    5.9628 C   0  0  1  0  0  0  0  0  0  0  0  0
    6.2082    7.0270    5.0831 O   0  0  0  0  0  0  0  0  0  0  0  0
    2.4213    1.4643    7.9753 C   0  0  0  0  0  0  0  0  0  0  0  0
    9.6120    8.6995    2.5504 C   0  0  0  0  0  0  0  0  0  0  0  0
   10.2092    5.3007    3.4285 C   0  0  0  0  0  0  0  0  0  0  0  0
  1  2  1  1  0  0  0
  1  6  1  0  0  0  0
  1 23  1  0  0  0  0
  3  4  1  6  0  0  0
  3  8  1  0  0  0  0
  3 30  1  0  0  0  0
  5  9  1  0  0  0  0
  5 27  1  0  0  0  0
  5 31  1  1  0  0  0
  6  7  1  1  0  0  0
  6 11  1  0  0  0  0
  8 13  1  0  0  0  0
  9 10  1  1  0  0  0
  9 15  1  0  0  0  0
 11 12  1  1  0  0  0
 11 17  1  0  0  0  0
 13 14  1  1  0  0  0
 13 19  1  0  0  0  0
 15 16  1  6  0  0  0
 15 20  1  0  0  0  0
 16 34  1  0  0  0  0
 17 18  1  1  0  0  0
 17 22  1  0  0  0  0
 19  2  1  1  0  0  0
 19 24  1  0  0  0  0
 20 21  1  6  0  0  0
 20 26  1  0  0  0  0
 20 33  1  0  0  0  0
 22 23  1  6  0  0  0
 22 28  1  0  0  0  0
 24 25  1  6  0  0  0
 24 30  1  0  0  0  0
 26 27  1  0  0  0  0
 28 29  1  1  0  0  0
 28 32  1  0  0  0  0
 30 31  1  6  0  0  0
M  END
>  <CHROM.1>
175.00356536,-151.74616699,-120.50524221,-27.58029944,155.41379440,-87.56283008
4.31702759,5.65077790,6.31176151,2.58006814,-0.49001700,2.64756136

>  <Name>
ligand

>  <RI>
0

>  <Rbt.Current_Directory>
/home/itssahil/PROJECTS/Mol_Feturizer/New_Systems/rnas/3TD1

>  <Rbt.Executable>
rbdock ($Id: //depot/dev/client3/rdock/2013.1/src/exe/rbdock.cxx#4 $)

>  <Rbt.Library>
libRbt.so (2013.1, Build901 2013/11/27)

>  <Rbt.Parameter_File>
/export/apps/rDock/src/rDock_2013.1_src/data/scripts/dock_solv.prm

>  <Rbt.Receptor>
prm/blind_docking_100.prm

>  <SCORE>
11.5938

>  <SCORE.INTER>
1.363

>  <SCORE.INTER.CONST>
1

>  <SCORE.INTER.POLAR>
0

>  <SCORE.INTER.ROT>
6

>  <SCORE.INTER.SOLV>
22.2196

>  <SCORE.INTER.VDW>
-14.0979

>  <SCORE.INTER.norm>
0.0400884

>  <SCORE.INTRA>
-2.43145

>  <SCORE.INTRA.DIHEDRAL>
-6.18232

>  <SCORE.INTRA.DIHEDRAL.0>
19.5869

>  <SCORE.INTRA.POLAR>
0

>  <SCORE.INTRA.POLAR.0>
0

>  <SCORE.INTRA.REPUL>
0

>  <SCORE.INTRA.REPUL.0>
0

>  <SCORE.INTRA.SOLV>
0.948211

>  <SCORE.INTRA.SOLV.lig_0>
-70.101

>  <SCORE.INTRA.VDW>
0.18561

>  <SCORE.INTRA.VDW.0>
-3.39718

>  <SCORE.INTRA.norm>
-0.0715131

>  <SCORE.RESTR>
12.6622

>  <SCORE.RESTR.CAVITY>
12.6622

>  <SCORE.RESTR.norm>
0.372419

>  <SCORE.SYSTEM>
0

>  <SCORE.SYSTEM.CONST>
0

>  <SCORE.SYSTEM.DIHEDRAL>
0

>  <SCORE.SYSTEM.SOLV>
0

>  <SCORE.SYSTEM.norm>
0

>  <SCORE.heavy>
34

>  <SCORE.norm>
0.340994

>  <RMSD>
6.084

$$$$
ligand
 OpenBabel11021811483D
libRbt.so/2013.1/901 2013/11/27
 34 36  0  0  0  0  0  0  0  0999 V2000
    1.4507    6.0216    7.1820 C   0  0  2  0  0  0  0  0  0  0  0  0
    2.6457    6.4532    7.8515 O   0  0  0  0  0  0  0  0  0  0  0  0
    6.8415    5.8580    7.3014 C   0  0  2  0  0  0  0  0  0  0  0  0
    8.1272    5.2297    7.0181 N   0  0  0  0  0  0  0  0  0  0  0  0
    5.9190    6.7233    3.6681 C   0  0  2  0  0  0  0  0  0  0  0  0
    0.2210    6.4544    8.0578 C   0  0  2  0  0  0  0  0  0  0  0  0
    0.1732    7.9157    8.2206 N   0  0  0  0  0  0  0  0  0  0  0  0
    6.1372    5.0038    8.4078 C   0  0  0  0  0  0  0  0  0  0  0  0
    6.8618    5.9256    2.6975 C   0  0  2  0  0  0  0  0  0  0  0  0
    6.9913    4.5861    3.1446 O   0  0  0  0  0  0  0  0  0  0  0  0
    0.3142    5.7743    9.4409 C   0  0  1  0  0  0  0  0  0  0  0  0
   -0.8125    6.1598   10.2451 O   0  0  0  0  0  0  0  0  0  0  0  0
    4.7669    5.6907    8.7293 C   0  0  2  0  0  0  0  0  0  0  0  0
    4.0487    4.9238    9.7674 N   0  0  0  0  0  0  0  0  0  0  0  0
    8.2649    6.6457    2.6512 C   0  0  1  0  0  0  0  0  0  0  0  0
    9.2062    5.9145    1.7507 N   0  0  0  0  0  0  0  0  0  0  0  0
    0.3720    4.2413    9.2402 C   0  0  2  0  0  0  0  0  0  0  0  0
    0.4699    3.5939   10.5207 O   0  0  0  0  0  0  0  0  0  0  0  0
    3.8778    5.7752    7.4623 C   0  0  2  0  0  0  0  0  0  0  0  0
    8.0655    8.1176    2.1518 C   0  0  1  0  0  0  0  0  0  0  0  0
    7.5224    8.1060    0.8343 O   0  0  0  0  0  0  0  0  0  0  0  0
    1.6120    3.8726    8.3396 C   0  0  2  0  0  0  0  0  0  0  0  0
    1.5088    4.5589    7.0371 O   0  0  0  0  0  0  0  0  0  0  0  0
    4.6251    6.5702    6.3626 C   0  0  2  0  0  0  0  0  0  0  0  0
    3.7984    6.6189    5.2044 O   0  0  0  0  0  0  0  0  0  0  0  0
    7.0731    8.8414    3.1155 C   0  0  0  0  0  0  0  0  0  0  0  0
    5.7869    8.1080    3.1947 O   0  0  0  0  0  0  0  0  0  0  0  0
    1.7074    2.3461    8.0819 C   0  0  2  0  0  0  0  0  0  0  0  0
    1.0916    1.6439    9.1584 O   0  0  0  0  0  0  0  0  0  0  0  0
    5.9601    5.8865    5.9858 C   0  0  1  0  0  0  0  0  0  0  0  0
    6.5798    6.7032    4.9643 O   0  0  0  0  0  0  0  0  0  0  0  0
    3.1521    1.8844    7.9849 C   0  0  0  0  0  0  0  0  0  0  0  0
    9.3791    8.8883    2.1030 C   0  0  0  0  0  0  0  0  0  0  0  0
   10.2982    5.3612    2.5743 C   0  0  0  0  0  0  0  0  0  0  0  0
  1  2  1  1  0  0  0
  1  6  1  0  0  0  0
  1 23  1  0  0  0  0
  3  4  1  6  0  0  0
  3  8  1  0  0  0  0
  3 30  1  0  0  0  0
  5  9  1  0  0  0  0
  5 27  1  0  0  0  0
  5 31  1  1  0  0  0
  6  7  1  1  0  0  0
  6 11  1  0  0  0  0
  8 13  1  0  0  0  0
  9 10  1  1  0  0  0
  9 15  1  0  0  0  0
 11 12  1  1  0  0  0
 11 17  1  0  0  0  0
 13 14  1  1  0  0  0
 13 19  1  0  0  0  0
 15 16  1  6  0  0  0
 15 20  1  0  0  0  0
 16 34  1  0  0  0  0
 17 18  1  1  0  0  0
 17 22  1  0  0  0  0
 19  2  1  1  0  0  0
 19 24  1  0  0  0  0
 20 21  1  6  0  0  0
 20 26  1  0  0  0  0
 20 33  1  0  0  0  0
 22 23  1  6  0  0  0
 22 28  1  0  0  0  0
 24 25  1  6  0  0  0
 24 30  1  0  0  0  0
 26 27  1  0  0  0  0
 28 29  1  1  0  0  0
 28 32  1  0  0  0  0
 30 31  1  6  0  0  0
M  END
>  <CHROM.1>
159.86113531,-146.16045467,-113.88055036,-26.83570874,175.25895116,-109.39870357
4.51737816,5.76552224,6.17737911,2.52743597,-0.49757707,2.53459130

>  <Name>
ligand

>  <RI>
0

>  <Rbt.Current_Directory>
/home/itssahil/PROJECTS/Mol_Feturizer/New_Systems/rnas/3TD1

>  <Rbt.Executable>
rbdock ($Id: //depot/dev/client3/rdock/2013.1/src/exe/rbdock.cxx#4 $)

>  <Rbt.Library>
libRbt.so (2013.1, Build901 2013/11/27)

>  <Rbt.Parameter_File>
/export/apps/rDock/src/rDock_2013.1_src/data/scripts/dock_solv.prm

>  <Rbt.Receptor>
prm/blind_docking_60.prm

>  <SCORE>
17.6607

>  <SCORE.INTER>
0.31174

>  <SCORE.INTER.CONST>
1

>  <SCORE.INTER.POLAR>
0

>  <SCORE.INTER.ROT>
6

>  <SCORE.INTER.SOLV>
23.0459

>  <SCORE.INTER.VDW>
-15.0741

>  <SCORE.INTER.norm>
0.00916882

>  <SCORE.INTRA>
0.5849

>  <SCORE.INTRA.DIHEDRAL>
-2.30156

>  <SCORE.INTRA.DIHEDRAL.0>
19.5869

>  <SCORE.INTRA.POLAR>
0

>  <SCORE.INTRA.POLAR.0>
0

>  <SCORE.INTRA.REPUL>
0

>  <SCORE.INTRA.REPUL.0>
0

>  <SCORE.INTRA.SOLV>
0.210721

>  <SCORE.INTRA.SOLV.lig_0>
-70.101

>  <SCORE.INTRA.VDW>
1.63032

>  <SCORE.INTRA.VDW.0>
-3.39718

>  <SCORE.INTRA.norm>
0.0172029

>  <SCORE.RESTR>
16.764

>  <SCORE.RESTR.CAVITY>
16.764

>  <SCORE.RESTR.norm>
0.49306

>  <SCORE.SYSTEM>
0

>  <SCORE.SYSTEM.CONST>
0

>  <SCORE.SYSTEM.DIHEDRAL>
0

>  <SCORE.SYSTEM.SOLV>
0

>  <SCORE.SYSTEM.norm>
0

>  <SCORE.heavy>
34

>  <SCORE.norm>
0.519432

>  <RMSD>
6.090

$$$$
ligand
 OpenBabel11021811483D
libRbt.so/2013.1/901 2013/11/27
 34 36  0  0  0  0  0  0  0  0999 V2000
    1.4718    6.0434    7.1832 C   0  0  2  0  0  0  0  0  0  0  0  0
    2.6698    6.4555    7.8596 O   0  0  0  0  0  0  0  0  0  0  0  0
    6.8595    5.8371    7.2886 C   0  0  2  0  0  0  0  0  0  0  0  0
    8.1402    5.2019    6.9981 N   0  0  0  0  0  0  0  0  0  0  0  0
    5.9213    6.7186    3.6630 C   0  0  2  0  0  0  0  0  0  0  0  0
    0.2450    6.4755    8.0635 C   0  0  2  0  0  0  0  0  0  0  0  0
    0.2100    7.9350    8.2455 N   0  0  0  0  0  0  0  0  0  0  0  0
    6.1555    4.9852    8.3970 C   0  0  0  0  0  0  0  0  0  0  0  0
    6.8547    5.9254    2.6798 C   0  0  2  0  0  0  0  0  0  0  0  0
    6.9839    4.5824    3.1164 O   0  0  0  0  0  0  0  0  0  0  0  0
    0.3307    5.7764    9.4376 C   0  0  1  0  0  0  0  0  0  0  0  0
   -0.7935    6.1613   10.2457 O   0  0  0  0  0  0  0  0  0  0  0  0
    4.7907    5.6794    8.7261 C   0  0  2  0  0  0  0  0  0  0  0  0
    4.0730    4.9151    9.7664 N   0  0  0  0  0  0  0  0  0  0  0  0
    8.2594    6.6421    2.6282 C   0  0  1  0  0  0  0  0  0  0  0  0
    9.1919    5.9149    1.7156 N   0  0  0  0  0  0  0  0  0  0  0  0
    0.3751    4.2458    9.2167 C   0  0  2  0  0  0  0  0  0  0  0  0
    0.4659    3.5807   10.4887 O   0  0  0  0  0  0  0  0  0  0  0  0
    3.8962    5.7711    7.4635 C   0  0  2  0  0  0  0  0  0  0  0  0
    8.0602    8.1181    2.1408 C   0  0  1  0  0  0  0  0  0  0  0  0
    7.5073    8.1173    0.8273 O   0  0  0  0  0  0  0  0  0  0  0  0
    1.6128    3.8780    8.3125 C   0  0  2  0  0  0  0  0  0  0  0  0
    1.5171    4.5824    7.0191 O   0  0  0  0  0  0  0  0  0  0  0  0
    4.6428    6.5636    6.3615 C   0  0  2  0  0  0  0  0  0  0  0  0
    3.8109    6.6189    5.2072 O   0  0  0  0  0  0  0  0  0  0  0  0
    7.0769    8.8376    3.1170 C   0  0  0  0  0  0  0  0  0  0  0  0
    5.7893    8.1070    3.2004 O   0  0  0  0  0  0  0  0  0  0  0  0
    1.6950    2.3542    8.0347 C   0  0  2  0  0  0  0  0  0  0  0  0
    1.0338    1.6453    9.0795 O   0  0  0  0  0  0  0  0  0  0  0  0
    5.9720    5.8728    5.9772 C   0  0  1  0  0  0  0  0  0  0  0  0
    6.5915    6.6875    4.9541 O   0  0  0  0  0  0  0  0  0  0  0  0
    3.1354    1.8729    7.9784 C   0  0  0  0  0  0  0  0  0  0  0  0
    9.3754    8.8856    2.0877 C   0  0  0  0  0  0  0  0  0  0  0  0
   10.2827    5.3435    2.5285 C   0  0  0  0  0  0  0  0  0  0  0  0
  1  2  1  1  0  0  0
  1  6  1  0  0  0  0
  1 23  1  0  0  0  0
  3  4  1  6  0  0  0
  3  8  1  0  0  0  0
  3 30  1  0  0  0  0
  5  9  1  0  0  0  0
  5 27  1  0  0  0  0
  5 31  1  1  0  0  0
  6  7  1  1  0  0  0
  6 11  1  0  0  0  0
  8 13  1  0  0  0  0
  9 10  1  1  0  0  0
  9 15  1  0  0  0  0
 11 12  1  1  0  0  0
 11 17  1  0  0  0  0
 13 14  1  1  0  0  0
 13 19  1  0  0  0  0
 15 16  1  6  0  0  0
 15 20  1  0  0  0  0
 16 34  1  0  0  0  0
 17 18  1  1  0  0  0
 17 22  1  0  0  0  0
 19  2  1  1  0  0  0
 19 24  1  0  0  0  0
 20 21  1  6  0  0  0
 20 26  1  0  0  0  0
 20 33  1  0  0  0  0
 22 23  1  6  0  0  0
 22 28  1  0  0  0  0
 24 25  1  6  0  0  0
 24 30  1  0  0  0  0
 26 27  1  0  0  0  0
 28 29  1  1  0  0  0
 28 32  1  0  0  0  0
 30 31  1  6  0  0  0
M  END
>  <CHROM.1>
159.81204707,-146.90190049,-113.42596619,-24.96858243,175.54260293,-109.82519629
4.52186801,5.76354948,6.16420468,2.53190023,-0.50399484,2.54331206

>  <Name>
ligand

>  <RI>
0

>  <Rbt.Current_Directory>
/home/itssahil/PROJECTS/Mol_Feturizer/New_Systems/rnas/3TD1

>  <Rbt.Executable>
rbdock ($Id: //depot/dev/client3/rdock/2013.1/src/exe/rbdock.cxx#4 $)

>  <Rbt.Library>
libRbt.so (2013.1, Build901 2013/11/27)

>  <Rbt.Parameter_File>
/export/apps/rDock/src/rDock_2013.1_src/data/scripts/dock_solv.prm

>  <Rbt.Receptor>
prm/blind_docking_60.prm

>  <SCORE>
17.9546

>  <SCORE.INTER>
0.545743

>  <SCORE.INTER.CONST>
1

>  <SCORE.INTER.POLAR>
0

>  <SCORE.INTER.ROT>
6

>  <SCORE.INTER.SOLV>
23.132

>  <SCORE.INTER.VDW>
-14.9468

>  <SCORE.INTER.norm>
0.0160513

>  <SCORE.INTRA>
0.68041

>  <SCORE.INTRA.DIHEDRAL>
-2.14972

>  <SCORE.INTRA.DIHEDRAL.0>
19.5869

>  <SCORE.INTRA.POLAR>
0

>  <SCORE.INTRA.POLAR.0>
0

>  <SCORE.INTRA.REPUL>
0

>  <SCORE.INTRA.REPUL.0>
0

>  <SCORE.INTRA.SOLV>
0.115822

>  <SCORE.INTRA.SOLV.lig_0>
-70.101

>  <SCORE.INTRA.VDW>
1.69736

>  <SCORE.INTRA.VDW.0>
-3.39718

>  <SCORE.INTRA.norm>
0.0200121

>  <SCORE.RESTR>
16.7284

>  <SCORE.RESTR.CAVITY>
16.7284

>  <SCORE.RESTR.norm>
0.492012

>  <SCORE.SYSTEM>
0

>  <SCORE.SYSTEM.CONST>
0

>  <SCORE.SYSTEM.DIHEDRAL>
0

>  <SCORE.SYSTEM.SOLV>
0

>  <SCORE.SYSTEM.norm>
0

>  <SCORE.heavy>
34

>  <SCORE.norm>
0.528076

>  <RMSD>
6.090

$$$$
ligand
 OpenBabel11021811483D
libRbt.so/2013.1/901 2013/11/27
 34 36  0  0  0  0  0  0  0  0999 V2000
    1.4369    6.0785    7.1699 C   0  0  2  0  0  0  0  0  0  0  0  0
    2.6392    6.5066    7.8286 O   0  0  0  0  0  0  0  0  0  0  0  0
    6.8263    5.8332    7.3029 C   0  0  2  0  0  0  0  0  0  0  0  0
    8.1021    5.1801    7.0307 N   0  0  0  0  0  0  0  0  0  0  0  0
    5.9240    6.7019    3.6646 C   0  0  2  0  0  0  0  0  0  0  0  0
    0.2180    6.4888    8.0712 C   0  0  2  0  0  0  0  0  0  0  0  0
    0.1636    7.9469    8.2591 N   0  0  0  0  0  0  0  0  0  0  0  0
    6.1021    5.0007    8.4129 C   0  0  0  0  0  0  0  0  0  0  0  0
    6.8542    5.9029    2.6830 C   0  0  2  0  0  0  0  0  0  0  0  0
    6.9715    4.5583    3.1178 O   0  0  0  0  0  0  0  0  0  0  0  0
    0.3362    5.7864    9.4413 C   0  0  1  0  0  0  0  0  0  0  0  0
   -0.7805    6.1513   10.2686 O   0  0  0  0  0  0  0  0  0  0  0  0
    4.7427    5.7142    8.7224 C   0  0  2  0  0  0  0  0  0  0  0  0
    4.0064    4.9687    9.7635 N   0  0  0  0  0  0  0  0  0  0  0  0
    8.2646    6.6087    2.6368 C   0  0  1  0  0  0  0  0  0  0  0  0
    9.1942    5.8756    1.7259 N   0  0  0  0  0  0  0  0  0  0  0  0
    0.4005    4.2574    9.2141 C   0  0  2  0  0  0  0  0  0  0  0  0
    0.5217    3.5895   10.4820 O   0  0  0  0  0  0  0  0  0  0  0  0
    3.8610    5.8038    7.4507 C   0  0  2  0  0  0  0  0  0  0  0  0
    8.0785    8.0869    2.1513 C   0  0  1  0  0  0  0  0  0  0  0  0
    7.5297    8.0926    0.8360 O   0  0  0  0  0  0  0  0  0  0  0  0
    1.6290    3.9117    8.2889 C   0  0  2  0  0  0  0  0  0  0  0  0
    1.5019    4.6189    6.9998 O   0  0  0  0  0  0  0  0  0  0  0  0
    4.6271    6.5765    6.3480 C   0  0  2  0  0  0  0  0  0  0  0  0
    3.8066    6.6301    5.1855 O   0  0  0  0  0  0  0  0  0  0  0  0
    7.0979    8.8126    3.1256 C   0  0  0  0  0  0  0  0  0  0  0  0
    5.8044    8.0920    3.2039 O   0  0  0  0  0  0  0  0  0  0  0  0
    1.7298    2.3902    8.0044 C   0  0  2  0  0  0  0  0  0  0  0  0
    1.1099    1.6672    9.0646 O   0  0  0  0  0  0  0  0  0  0  0  0
    5.9515    5.8663    5.9830 C   0  0  1  0  0  0  0  0  0  0  0  0
    6.5900    6.6635    4.9578 O   0  0  0  0  0  0  0  0  0  0  0  0
    3.1763    1.9342    7.9072 C   0  0  0  0  0  0  0  0  0  0  0  0
    9.3999    8.8442    2.1034 C   0  0  0  0  0  0  0  0  0  0  0  0
   10.2560    5.2611    2.5457 C   0  0  0  0  0  0  0  0  0  0  0  0
  1  2  1  1  0  0  0
  1  6  1  0  0  0  0
  1 23  1  0  0  0  0
  3  4  1  6  0  0  0
  3  8  1  0  0  0  0
  3 30  1  0  0  0  0
  5  9  1  0  0  0  0
  5 27  1  0  0  0  0
  5 31  1  1  0  0  0
  6  7  1  1  0  0  0
  6 11  1  0  0  0  0
  8 13  1  0  0  0  0
  9 10  1  1  0  0  0
  9 15  1  0  0  0  0
 11 12  1  1  0  0  0
 11 17  1  0  0  0  0
 13 14  1  1  0  0  0
 13 19  1  0  0  0  0
 15 16  1  6  0  0  0
 15 20  1  0  0  0  0
 16 34  1  0  0  0  0
 17 18  1  1  0  0  0
 17 22  1  0  0  0  0
 19  2  1  1  0  0  0
 19 24  1  0  0  0  0
 20 21  1  6  0  0  0
 20 26  1  0  0  0  0
 20 33  1  0  0  0  0
 22 23  1  6  0  0  0
 22 28  1  0  0  0  0
 24 25  1  6  0  0  0
 24 30  1  0  0  0  0
 26 27  1  0  0  0  0
 28 29  1  1  0  0  0
 28 32  1  0  0  0  0
 30 31  1  6  0  0  0
M  END
>  <CHROM.1>
157.35251240,-145.36638365,-111.78742518,-25.63205858,176.21951233,-110.61859854
4.51881114,5.76542661,6.16228979,2.54091091,-0.51108430,2.54848781

>  <Name>
ligand

>  <RI>
0

>  <Rbt.Current_Directory>
/home/itssahil/PROJECTS/Mol_Feturizer/New_Systems/rnas/3TD1

>  <Rbt.Executable>
rbdock ($Id: //depot/dev/client3/rdock/2013.1/src/exe/rbdock.cxx#4 $)

>  <Rbt.Library>
libRbt.so (2013.1, Build901 2013/11/27)

>  <Rbt.Parameter_File>
/export/apps/rDock/src/rDock_2013.1_src/data/scripts/dock_solv.prm

>  <Rbt.Receptor>
prm/blind_docking_60.prm

>  <SCORE>
18.75

>  <SCORE.INTER>
0.962603

>  <SCORE.INTER.CONST>
1

>  <SCORE.INTER.POLAR>
0

>  <SCORE.INTER.ROT>
6

>  <SCORE.INTER.SOLV>
23.2337

>  <SCORE.INTER.VDW>
-14.7028

>  <SCORE.INTER.norm>
0.0283119

>  <SCORE.INTRA>
1.26789

>  <SCORE.INTRA.DIHEDRAL>
-1.5131

>  <SCORE.INTRA.DIHEDRAL.0>
19.5869

>  <SCORE.INTRA.POLAR>
0

>  <SCORE.INTRA.POLAR.0>
0

>  <SCORE.INTRA.REPUL>
0

>  <SCORE.INTRA.REPUL.0>
0

>  <SCORE.INTRA.SOLV>
0.331151

>  <SCORE.INTRA.SOLV.lig_0>
-70.101

>  <SCORE.INTRA.VDW>
1.85886

>  <SCORE.INTRA.VDW.0>
-3.39718

>  <SCORE.INTRA.norm>
0.0372908

>  <SCORE.RESTR>
16.5195

>  <SCORE.RESTR.CAVITY>
16.5195

>  <SCORE.RESTR.norm>
0.485868

>  <SCORE.SYSTEM>
0

>  <SCORE.SYSTEM.CONST>
0

>  <SCORE.SYSTEM.DIHEDRAL>
0

>  <SCORE.SYSTEM.SOLV>
0

>  <SCORE.SYSTEM.norm>
0

>  <SCORE.heavy>
34

>  <SCORE.norm>
0.551471

>  <RMSD>
6.090

$$$$
ligand
 OpenBabel11021811483D
libRbt.so/2013.1/901 2013/11/27
 34 36  0  0  0  0  0  0  0  0999 V2000
    1.4565    6.0147    7.1516 C   0  0  2  0  0  0  0  0  0  0  0  0
    2.6487    6.4652    7.8136 O   0  0  0  0  0  0  0  0  0  0  0  0
    6.8475    5.8473    7.3133 C   0  0  2  0  0  0  0  0  0  0  0  0
    8.1339    5.2099    7.0544 N   0  0  0  0  0  0  0  0  0  0  0  0
    5.9372    6.6735    3.6667 C   0  0  2  0  0  0  0  0  0  0  0  0
    0.2249    6.4409    8.0280 C   0  0  2  0  0  0  0  0  0  0  0  0
    0.1612    7.9029    8.1790 N   0  0  0  0  0  0  0  0  0  0  0  0
    6.1309    5.0181    8.4307 C   0  0  0  0  0  0  0  0  0  0  0  0
    6.8799    5.8971    2.6789 C   0  0  2  0  0  0  0  0  0  0  0  0
    7.0268    4.5539    3.1089 O   0  0  0  0  0  0  0  0  0  0  0  0
    0.3303    5.7732    9.4164 C   0  0  1  0  0  0  0  0  0  0  0  0
   -0.7981    6.1527   10.2211 O   0  0  0  0  0  0  0  0  0  0  0  0
    4.7598    5.7152    8.7258 C   0  0  2  0  0  0  0  0  0  0  0  0
    4.0302    4.9719    9.7730 N   0  0  0  0  0  0  0  0  0  0  0  0
    8.2751    6.6323    2.6295 C   0  0  1  0  0  0  0  0  0  0  0  0
    9.2161    5.9215    1.7126 N   0  0  0  0  0  0  0  0  0  0  0  0
    0.4047    4.2394    9.2280 C   0  0  2  0  0  0  0  0  0  0  0  0
    0.5141    3.6037   10.5135 O   0  0  0  0  0  0  0  0  0  0  0  0
    3.8823    5.7760    7.4494 C   0  0  2  0  0  0  0  0  0  0  0  0
    8.0564    8.1078    2.1494 C   0  0  1  0  0  0  0  0  0  0  0  0
    7.5023    8.1062    0.8364 O   0  0  0  0  0  0  0  0  0  0  0  0
    1.6458    3.8773    8.3263 C   0  0  2  0  0  0  0  0  0  0  0  0
    1.5306    4.5517    7.0186 O   0  0  0  0  0  0  0  0  0  0  0  0
    4.6416    6.5461    6.3403 C   0  0  2  0  0  0  0  0  0  0  0  0
    3.8254    6.5732    5.1739 O   0  0  0  0  0  0  0  0  0  0  0  0
    7.0647    8.8098    3.1299 C   0  0  0  0  0  0  0  0  0  0  0  0
    5.7869    8.0623    3.2109 O   0  0  0  0  0  0  0  0  0  0  0  0
    1.7575    2.3498    8.0808 C   0  0  2  0  0  0  0  0  0  0  0  0
    1.1804    1.6493    9.1796 O   0  0  0  0  0  0  0  0  0  0  0  0
    5.9779    5.8511    5.9895 C   0  0  1  0  0  0  0  0  0  0  0  0
    6.6090    6.6449    4.9571 O   0  0  0  0  0  0  0  0  0  0  0  0
    3.2060    1.9088    7.9508 C   0  0  0  0  0  0  0  0  0  0  0  0
    9.3615    8.8926    2.0989 C   0  0  0  0  0  0  0  0  0  0  0  0
   10.2517    5.2635    2.5321 C   0  0  0  0  0  0  0  0  0  0  0  0
  1  2  1  1  0  0  0
  1  6  1  0  0  0  0
  1 23  1  0  0  0  0
  3  4  1  6  0  0  0
  3  8  1  0  0  0  0
  3 30  1  0  0  0  0
  5  9  1  0  0  0  0
  5 27  1  0  0  0  0
  5 31  1  1  0  0  0
  6  7  1  1  0  0  0
  6 11  1  0  0  0  0
  8 13  1  0  0  0  0
  9 10  1  1  0  0  0
  9 15  1  0  0  0  0
 11 12  1  1  0  0  0
 11 17  1  0  0  0  0
 13 14  1  1  0  0  0
 13 19  1  0  0  0  0
 15 16  1  6  0  0  0
 15 20  1  0  0  0  0
 16 34  1  0  0  0  0
 17 18  1  1  0  0  0
 17 22  1  0  0  0  0
 19  2  1  1  0  0  0
 19 24  1  0  0  0  0
 20 21  1  6  0  0  0
 20 26  1  0  0  0  0
 20 33  1  0  0  0  0
 22 23  1  6  0  0  0
 22 28  1  0  0  0  0
 24 25  1  6  0  0  0
 24 30  1  0  0  0  0
 26 27  1  0  0  0  0
 28 29  1  1  0  0  0
 28 32  1  0  0  0  0
 30 31  1  6  0  0  0
M  END
>  <CHROM.1>
158.43553828,-145.59818071,-108.67366771,-28.14908548,177.10651710,-111.71963565
4.53017208,5.75360844,6.16603816,2.52609193,-0.49826979,2.52804139

>  <Name>
ligand

>  <RI>
0

>  <Rbt.Current_Directory>
/home/itssahil/PROJECTS/Mol_Feturizer/New_Systems/rnas/3TD1

>  <Rbt.Executable>
rbdock ($Id: //depot/dev/client3/rdock/2013.1/src/exe/rbdock.cxx#4 $)

>  <Rbt.Library>
libRbt.so (2013.1, Build901 2013/11/27)

>  <Rbt.Parameter_File>
/export/apps/rDock/src/rDock_2013.1_src/data/scripts/dock_solv.prm

>  <Rbt.Receptor>
prm/blind_docking_60.prm

>  <SCORE>
18.2372

>  <SCORE.INTER>
0.723885

>  <SCORE.INTER.CONST>
1

>  <SCORE.INTER.POLAR>
0

>  <SCORE.INTER.ROT>
6

>  <SCORE.INTER.SOLV>
23.0655

>  <SCORE.INTER.VDW>
-14.8059

>  <SCORE.INTER.norm>
0.0212907

>  <SCORE.INTRA>
0.962898

>  <SCORE.INTRA.DIHEDRAL>
-2.07644

>  <SCORE.INTRA.DIHEDRAL.0>
19.5869

>  <SCORE.INTRA.POLAR>
0

>  <SCORE.INTRA.POLAR.0>
0

>  <SCORE.INTRA.REPUL>
0

>  <SCORE.INTRA.REPUL.0>
0

>  <SCORE.INTRA.SOLV>
0.233384

>  <SCORE.INTRA.SOLV.lig_0>
-70.101

>  <SCORE.INTRA.VDW>
1.88443

>  <SCORE.INTRA.VDW.0>
-3.39718

>  <SCORE.INTRA.norm>
0.0283205

>  <SCORE.RESTR>
16.5504

>  <SCORE.RESTR.CAVITY>
16.5504

>  <SCORE.RESTR.norm>
0.486777

>  <SCORE.SYSTEM>
0

>  <SCORE.SYSTEM.CONST>
0

>  <SCORE.SYSTEM.DIHEDRAL>
0

>  <SCORE.SYSTEM.SOLV>
0

>  <SCORE.SYSTEM.norm>
0

>  <SCORE.heavy>
34

>  <SCORE.norm>
0.536388

>  <RMSD>
6.091

$$$$
ligand
 OpenBabel11021811483D
libRbt.so/2013.1/901 2013/11/27
 34 36  0  0  0  0  0  0  0  0999 V2000
    1.2839    5.8319    7.3675 C   0  0  2  0  0  0  0  0  0  0  0  0
    2.4768    6.1210    8.1131 O   0  0  0  0  0  0  0  0  0  0  0  0
    6.6597    5.8602    7.2781 C   0  0  2  0  0  0  0  0  0  0  0  0
    7.9579    5.3561    6.8439 N   0  0  0  0  0  0  0  0  0  0  0  0
    5.7579    6.9158    3.7286 C   0  0  2  0  0  0  0  0  0  0  0  0
    0.0557    6.3504    8.1977 C   0  0  2  0  0  0  0  0  0  0  0  0
    0.1385    7.8027    8.4176 N   0  0  0  0  0  0  0  0  0  0  0  0
    6.0645    4.8169    8.2816 C   0  0  0  0  0  0  0  0  0  0  0  0
    6.7938    5.9916    2.9939 C   0  0  2  0  0  0  0  0  0  0  0  0
    6.7955    4.7035    3.5869 O   0  0  0  0  0  0  0  0  0  0  0  0
    0.0092    5.6152    9.5548 C   0  0  1  0  0  0  0  0  0  0  0  0
   -1.1173    6.0792   10.3166 O   0  0  0  0  0  0  0  0  0  0  0  0
    4.6811    5.3685    8.7661 C   0  0  2  0  0  0  0  0  0  0  0  0
    4.0637    4.4204    9.7156 N   0  0  0  0  0  0  0  0  0  0  0  0
    8.2203    6.6594    3.0853 C   0  0  1  0  0  0  0  0  0  0  0  0
    9.2476    5.8087    2.4127 N   0  0  0  0  0  0  0  0  0  0  0  0
   -0.0683    4.0921    9.2945 C   0  0  2  0  0  0  0  0  0  0  0  0
   -0.1015    3.3926   10.5508 O   0  0  0  0  0  0  0  0  0  0  0  0
    3.7182    5.5797    7.5698 C   0  0  2  0  0  0  0  0  0  0  0  0
    8.1631    8.0758    2.4172 C   0  0  1  0  0  0  0  0  0  0  0  0
    7.8168    7.9417    1.0413 O   0  0  0  0  0  0  0  0  0  0  0  0
    1.1776    3.6372    8.4428 C   0  0  2  0  0  0  0  0  0  0  0  0
    1.2103    4.3767    7.1660 O   0  0  0  0  0  0  0  0  0  0  0  0
    4.3596    6.5661    6.5621 C   0  0  2  0  0  0  0  0  0  0  0  0
    3.4669    6.7301    5.4651 O   0  0  0  0  0  0  0  0  0  0  0  0
    7.0758    8.9274    3.1451 C   0  0  0  0  0  0  0  0  0  0  0  0
    5.7594    8.2462    3.1048 O   0  0  0  0  0  0  0  0  0  0  0  0
    1.1410    2.1189    8.1279 C   0  0  2  0  0  0  0  0  0  0  0  0
    0.4454    1.4355    9.1673 O   0  0  0  0  0  0  0  0  0  0  0  0
    5.7045    6.0234    6.0252 C   0  0  1  0  0  0  0  0  0  0  0  0
    6.2221    7.0125    5.1042 O   0  0  0  0  0  0  0  0  0  0  0  0
    2.5403    1.5332    8.0348 C   0  0  0  0  0  0  0  0  0  0  0  0
    9.5039    8.7963    2.4878 C   0  0  0  0  0  0  0  0  0  0  0  0
   10.1719    5.2980    3.4432 C   0  0  0  0  0  0  0  0  0  0  0  0
  1  2  1  1  0  0  0
  1  6  1  0  0  0  0
  1 23  1  0  0  0  0
  3  4  1  6  0  0  0
  3  8  1  0  0  0  0
  3 30  1  0  0  0  0
  5  9  1  0  0  0  0
  5 27  1  0  0  0  0
  5 31  1  1  0  0  0
  6  7  1  1  0  0  0
  6 11  1  0  0  0  0
  8 13  1  0  0  0  0
  9 10  1  1  0  0  0
  9 15  1  0  0  0  0
 11 12  1  6  0  0  0
 11 17  1  0  0  0  0
 13 14  1  1  0  0  0
 13 19  1  0  0  0  0
 15 16  1  6  0  0  0
 15 20  1  0  0  0  0
 16 34  1  0  0  0  0
 17 18  1  1  0  0  0
 17 22  1  0  0  0  0
 19  2  1  1  0  0  0
 19 24  1  0  0  0  0
 20 21  1  6  0  0  0
 20 26  1  0  0  0  0
 20 33  1  0  0  0  0
 22 23  1  6  0  0  0
 22 28  1  0  0  0  0
 24 25  1  6  0  0  0
 24 30  1  0  0  0  0
 26 27  1  0  0  0  0
 28 29  1  1  0  0  0
 28 32  1  0  0  0  0
 30 31  1  6  0  0  0
M  END
>  <CHROM.1>
173.44906618,-152.32853849,-113.15914411,-28.89939901,157.73797987,-90.76570350
4.31924531,5.68058673,6.33670080,2.56018848,-0.47506225,2.60777910

>  <Name>
ligand

>  <RI>
0

>  <Rbt.Current_Directory>
/home/itssahil/PROJECTS/Mol_Feturizer/New_Systems/rnas/3TD1

>  <Rbt.Executable>
rbdock ($Id: //depot/dev/client3/rdock/2013.1/src/exe/rbdock.cxx#4 $)

>  <Rbt.Library>
libRbt.so (2013.1, Build901 2013/11/27)

>  <Rbt.Parameter_File>
/export/apps/rDock/src/rDock_2013.1_src/data/scripts/dock_solv.prm

>  <Rbt.Receptor>
prm/blind_docking_100.prm

>  <SCORE>
10.1299

>  <SCORE.INTER>
-0.288955

>  <SCORE.INTER.CONST>
1

>  <SCORE.INTER.POLAR>
0

>  <SCORE.INTER.ROT>
6

>  <SCORE.INTER.SOLV>
22.4689

>  <SCORE.INTER.VDW>
-15.2823

>  <SCORE.INTER.norm>
-0.00849867

>  <SCORE.INTRA>
-2.54919

>  <SCORE.INTRA.DIHEDRAL>
-6.23277

>  <SCORE.INTRA.DIHEDRAL.0>
19.5869

>  <SCORE.INTRA.POLAR>
0

>  <SCORE.INTRA.POLAR.0>
0

>  <SCORE.INTRA.REPUL>
0

>  <SCORE.INTRA.REPUL.0>
0

>  <SCORE.INTRA.SOLV>
0.713935

>  <SCORE.INTRA.SOLV.lig_0>
-70.101

>  <SCORE.INTRA.VDW>
0.210232

>  <SCORE.INTRA.VDW.0>
-3.39718

>  <SCORE.INTRA.norm>
-0.0749761

>  <SCORE.RESTR>
12.9681

>  <SCORE.RESTR.CAVITY>
12.9681

>  <SCORE.RESTR.norm>
0.381414

>  <SCORE.SYSTEM>
0

>  <SCORE.SYSTEM.CONST>
0

>  <SCORE.SYSTEM.DIHEDRAL>
0

>  <SCORE.SYSTEM.SOLV>
0

>  <SCORE.SYSTEM.norm>
0

>  <SCORE.heavy>
34

>  <SCORE.norm>
0.29794

>  <RMSD>
6.097

$$$$
ligand
 OpenBabel11021811483D
libRbt.so/2013.1/901 2013/11/27
 34 36  0  0  0  0  0  0  0  0999 V2000
    1.3693    5.3226    7.3884 C   0  0  2  0  0  0  0  0  0  0  0  0
    2.4286    5.9699    8.1104 O   0  0  0  0  0  0  0  0  0  0  0  0
    6.6441    6.3910    7.5500 C   0  0  2  0  0  0  0  0  0  0  0  0
    8.0420    6.0867    7.2647 N   0  0  0  0  0  0  0  0  0  0  0  0
    5.7061    6.8668    3.8642 C   0  0  2  0  0  0  0  0  0  0  0  0
    0.0189    5.6317    8.1283 C   0  0  2  0  0  0  0  0  0  0  0  0
   -0.2466    7.0782    8.1665 N   0  0  0  0  0  0  0  0  0  0  0  0
    6.1663    5.3974    8.6608 C   0  0  0  0  0  0  0  0  0  0  0  0
    6.8000    5.9541    3.2028 C   0  0  2  0  0  0  0  0  0  0  0  0
    6.9135    4.7384    3.9239 O   0  0  0  0  0  0  0  0  0  0  0  0
    0.0840    5.0711    9.5656 C   0  0  1  0  0  0  0  0  0  0  0  0
   -1.1519    5.3435   10.2462 O   0  0  0  0  0  0  0  0  0  0  0  0
    4.6723    5.7386    8.9843 C   0  0  2  0  0  0  0  0  0  0  0  0
    4.1600    4.8263   10.0267 N   0  0  0  0  0  0  0  0  0  0  0  0
    8.1703    6.7361    3.1908 C   0  0  1  0  0  0  0  0  0  0  0  0
    9.2508    5.9021    2.5838 N   0  0  0  0  0  0  0  0  0  0  0  0
    0.3727    3.5528    9.4963 C   0  0  2  0  0  0  0  0  0  0  0  0
    0.4469    3.0180   10.8294 O   0  0  0  0  0  0  0  0  0  0  0  0
    3.7861    5.6041    7.7196 C   0  0  2  0  0  0  0  0  0  0  0  0
    7.9901    8.0669    2.3833 C   0  0  1  0  0  0  0  0  0  0  0  0
    7.6332    7.7646    1.0371 O   0  0  0  0  0  0  0  0  0  0  0  0
    1.7265    3.3068    8.7273 C   0  0  2  0  0  0  0  0  0  0  0  0
    1.6436    3.8776    7.3689 O   0  0  0  0  0  0  0  0  0  0  0  0
    4.3199    6.5506    6.6154 C   0  0  2  0  0  0  0  0  0  0  0  0
    3.5030    6.3965    5.4594 O   0  0  0  0  0  0  0  0  0  0  0  0
    6.8505    8.9028    3.0467 C   0  0  0  0  0  0  0  0  0  0  0  0
    5.5919    8.1214    3.1081 O   0  0  0  0  0  0  0  0  0  0  0  0
    2.0564    1.7962    8.6038 C   0  0  2  0  0  0  0  0  0  0  0  0
    3.3370    1.6383    7.9985 O   0  0  0  0  0  0  0  0  0  0  0  0
    5.7786    6.2038    6.2368 C   0  0  1  0  0  0  0  0  0  0  0  0
    6.1834    7.1411    5.2112 O   0  0  0  0  0  0  0  0  0  0  0  0
    1.0366    1.0697    7.7425 C   0  0  0  0  0  0  0  0  0  0  0  0
    9.2704    8.8923    2.3473 C   0  0  0  0  0  0  0  0  0  0  0  0
    9.9697    5.2128    3.6724 C   0  0  0  0  0  0  0  0  0  0  0  0
  1  2  1  1  0  0  0
  1  6  1  0  0  0  0
  1 23  1  0  0  0  0
  3  4  1  6  0  0  0
  3  8  1  0  0  0  0
  3 30  1  0  0  0  0
  5  9  1  0  0  0  0
  5 27  1  0  0  0  0
  5 31  1  1  0  0  0
  6  7  1  1  0  0  0
  6 11  1  0  0  0  0
  8 13  1  0  0  0  0
  9 10  1  1  0  0  0
  9 15  1  0  0  0  0
 11 12  1  6  0  0  0
 11 17  1  0  0  0  0
 13 14  1  1  0  0  0
 13 19  1  0  0  0  0
 15 16  1  6  0  0  0
 15 20  1  0  0  0  0
 16 34  1  0  0  0  0
 17 18  1  1  0  0  0
 17 22  1  0  0  0  0
 19  2  1  1  0  0  0
 19 24  1  0  0  0  0
 20 21  1  6  0  0  0
 20 26  1  0  0  0  0
 20 33  1  0  0  0  0
 22 23  1  6  0  0  0
 22 28  1  0  0  0  0
 24 25  1  6  0  0  0
 24 30  1  0  0  0  0
 26 27  1  0  0  0  0
 28 29  1  6  0  0  0
 28 32  1  0  0  0  0
 30 31  1  6  0  0  0
M  END
>  <CHROM.1>
169.32309962,-149.81848798,-94.83856602,-175.36652485,165.46961017,-89.81056690
4.41700239,5.57914969,6.40724309,2.47308304,-0.41025969,2.52053311

>  <Name>
ligand

>  <RI>
0

>  <Rbt.Current_Directory>
/home/itssahil/PROJECTS/Mol_Feturizer/New_Systems/rnas/3TD1

>  <Rbt.Executable>
rbdock ($Id: //depot/dev/client3/rdock/2013.1/src/exe/rbdock.cxx#4 $)

>  <Rbt.Library>
libRbt.so (2013.1, Build901 2013/11/27)

>  <Rbt.Parameter_File>
/export/apps/rDock/src/rDock_2013.1_src/data/scripts/dock_solv.prm

>  <Rbt.Receptor>
prm/blind_docking_60.prm

>  <SCORE>
13.844

>  <SCORE.INTER>
0.369147

>  <SCORE.INTER.CONST>
1

>  <SCORE.INTER.POLAR>
0

>  <SCORE.INTER.ROT>
6

>  <SCORE.INTER.SOLV>
23.5032

>  <SCORE.INTER.VDW>
-15.1883

>  <SCORE.INTER.norm>
0.0108573

>  <SCORE.INTRA>
-4.25276

>  <SCORE.INTRA.DIHEDRAL>
-9.96924

>  <SCORE.INTRA.DIHEDRAL.0>
19.5869

>  <SCORE.INTRA.POLAR>
0

>  <SCORE.INTRA.POLAR.0>
0

>  <SCORE.INTRA.REPUL>
0

>  <SCORE.INTRA.REPUL.0>
0

>  <SCORE.INTRA.SOLV>
0.0582356

>  <SCORE.INTRA.SOLV.lig_0>
-70.101

>  <SCORE.INTRA.VDW>
0.702743

>  <SCORE.INTRA.VDW.0>
-3.39718

>  <SCORE.INTRA.norm>
-0.125081

>  <SCORE.RESTR>
17.7276

>  <SCORE.RESTR.CAVITY>
17.7276

>  <SCORE.RESTR.norm>
0.521401

>  <SCORE.SYSTEM>
0

>  <SCORE.SYSTEM.CONST>
0

>  <SCORE.SYSTEM.DIHEDRAL>
0

>  <SCORE.SYSTEM.SOLV>
0

>  <SCORE.SYSTEM.norm>
0

>  <SCORE.heavy>
34

>  <SCORE.norm>
0.407177

>  <RMSD>
6.100

$$$$
ligand
 OpenBabel11021811483D
libRbt.so/2013.1/901 2013/11/27
 34 36  0  0  0  0  0  0  0  0999 V2000
    1.4404    6.0876    7.1894 C   0  0  2  0  0  0  0  0  0  0  0  0
    2.6461    6.5071    7.8474 O   0  0  0  0  0  0  0  0  0  0  0  0
    6.8286    5.8329    7.2876 C   0  0  2  0  0  0  0  0  0  0  0  0
    8.1020    5.1794    7.0055 N   0  0  0  0  0  0  0  0  0  0  0  0
    5.9061    6.6812    3.6501 C   0  0  2  0  0  0  0  0  0  0  0  0
    0.2256    6.4941    8.0979 C   0  0  2  0  0  0  0  0  0  0  0  0
    0.1759    7.9508    8.2974 N   0  0  0  0  0  0  0  0  0  0  0  0
    6.1137    5.0019    8.4047 C   0  0  0  0  0  0  0  0  0  0  0  0
    6.8438    5.8832    2.6750 C   0  0  2  0  0  0  0  0  0  0  0  0
    6.9742    4.5434    3.1209 O   0  0  0  0  0  0  0  0  0  0  0  0
    0.3464    5.7805    9.4619 C   0  0  1  0  0  0  0  0  0  0  0  0
   -0.7667    6.1419   10.2957 O   0  0  0  0  0  0  0  0  0  0  0  0
    4.7569    5.7159    8.7247 C   0  0  2  0  0  0  0  0  0  0  0  0
    4.0294    4.9718    9.7728 N   0  0  0  0  0  0  0  0  0  0  0  0
    8.2473    6.6022    2.6226 C   0  0  1  0  0  0  0  0  0  0  0  0
    9.1838    5.8706    1.7176 N   0  0  0  0  0  0  0  0  0  0  0  0
    0.4056    4.2532    9.2224 C   0  0  2  0  0  0  0  0  0  0  0  0
    0.5291    3.5749   10.4847 O   0  0  0  0  0  0  0  0  0  0  0  0
    3.8646    5.8038    7.4603 C   0  0  2  0  0  0  0  0  0  0  0  0
    8.0468    8.0745    2.1248 C   0  0  1  0  0  0  0  0  0  0  0  0
    7.4977    8.0639    0.8097 O   0  0  0  0  0  0  0  0  0  0  0  0
    1.6302    3.9114    8.2906 C   0  0  2  0  0  0  0  0  0  0  0  0
    1.5008    4.6292    7.0075 O   0  0  0  0  0  0  0  0  0  0  0  0
    4.6215    6.5750    6.3501 C   0  0  2  0  0  0  0  0  0  0  0  0
    3.7912    6.6271    5.1945 O   0  0  0  0  0  0  0  0  0  0  0  0
    7.0593    8.7986    3.0933 C   0  0  0  0  0  0  0  0  0  0  0  0
    5.7729    8.0663    3.1779 O   0  0  0  0  0  0  0  0  0  0  0  0
    1.7259    2.3920    7.9936 C   0  0  2  0  0  0  0  0  0  0  0  0
    1.0259    1.6668    9.0012 O   0  0  0  0  0  0  0  0  0  0  0  0
    5.9427    5.8643    5.9750 C   0  0  1  0  0  0  0  0  0  0  0  0
    6.5727    6.6600    4.9434 O   0  0  0  0  0  0  0  0  0  0  0  0
    3.1683    1.9134    7.9864 C   0  0  0  0  0  0  0  0  0  0  0  0
    9.3608    8.8441    2.0703 C   0  0  0  0  0  0  0  0  0  0  0  0
   10.2506    5.2717    2.5423 C   0  0  0  0  0  0  0  0  0  0  0  0
  1  2  1  1  0  0  0
  1  6  1  0  0  0  0
  1 23  1  0  0  0  0
  3  4  1  6  0  0  0
  3  8  1  0  0  0  0
  3 30  1  0  0  0  0
  5  9  1  0  0  0  0
  5 27  1  0  0  0  0
  5 31  1  1  0  0  0
  6  7  1  1  0  0  0
  6 11  1  0  0  0  0
  8 13  1  0  0  0  0
  9 10  1  1  0  0  0
  9 15  1  0  0  0  0
 11 12  1  1  0  0  0
 11 17  1  0  0  0  0
 13 14  1  1  0  0  0
 13 19  1  0  0  0  0
 15 16  1  6  0  0  0
 15 20  1  0  0  0  0
 16 34  1  0  0  0  0
 17 18  1  1  0  0  0
 17 22  1  0  0  0  0
 19  2  1  1  0  0  0
 19 24  1  0  0  0  0
 20 21  1  6  0  0  0
 20 26  1  0  0  0  0
 20 33  1  0  0  0  0
 22 23  1  6  0  0  0
 22 28  1  0  0  0  0
 24 25  1  6  0  0  0
 24 30  1  0  0  0  0
 26 27  1  0  0  0  0
 28 29  1  1  0  0  0
 28 32  1  0  0  0  0
 30 31  1  6  0  0  0
M  END
>  <CHROM.1>
157.33766318,-145.98552905,-111.71050598,-21.57191511,175.36455629,-110.56332679
4.51091145,5.76034035,6.16069099,2.53911270,-0.51400677,2.54686391

>  <Name>
ligand

>  <RI>
0

>  <Rbt.Current_Directory>
/home/itssahil/PROJECTS/Mol_Feturizer/New_Systems/rnas/3TD1

>  <Rbt.Executable>
rbdock ($Id: //depot/dev/client3/rdock/2013.1/src/exe/rbdock.cxx#4 $)

>  <Rbt.Library>
libRbt.so (2013.1, Build901 2013/11/27)

>  <Rbt.Parameter_File>
/export/apps/rDock/src/rDock_2013.1_src/data/scripts/dock_solv.prm

>  <Rbt.Receptor>
prm/blind_docking_60.prm

>  <SCORE>
18.9039

>  <SCORE.INTER>
0.969855

>  <SCORE.INTER.CONST>
1

>  <SCORE.INTER.POLAR>
0

>  <SCORE.INTER.ROT>
6

>  <SCORE.INTER.SOLV>
23.4266

>  <SCORE.INTER.VDW>
-14.7623

>  <SCORE.INTER.norm>
0.0285251

>  <SCORE.INTRA>
1.41504

>  <SCORE.INTRA.DIHEDRAL>
-1.05668

>  <SCORE.INTRA.DIHEDRAL.0>
19.5869

>  <SCORE.INTRA.POLAR>
0

>  <SCORE.INTRA.POLAR.0>
0

>  <SCORE.INTRA.REPUL>
0

>  <SCORE.INTRA.REPUL.0>
0

>  <SCORE.INTRA.SOLV>
0.31072

>  <SCORE.INTRA.SOLV.lig_0>
-70.101

>  <SCORE.INTRA.VDW>
1.78802

>  <SCORE.INTRA.VDW.0>
-3.39718

>  <SCORE.INTRA.norm>
0.0416188

>  <SCORE.RESTR>
16.519

>  <SCORE.RESTR.CAVITY>
16.519

>  <SCORE.RESTR.norm>
0.485854

>  <SCORE.SYSTEM>
0

>  <SCORE.SYSTEM.CONST>
0

>  <SCORE.SYSTEM.DIHEDRAL>
0

>  <SCORE.SYSTEM.SOLV>
0

>  <SCORE.SYSTEM.norm>
0

>  <SCORE.heavy>
34

>  <SCORE.norm>
0.555998

>  <RMSD>
6.102

$$$$
ligand
 OpenBabel11021811483D
libRbt.so/2013.1/901 2013/11/27
 34 36  0  0  0  0  0  0  0  0999 V2000
    2.9410    5.6564    6.1750 C   0  0  2  0  0  0  0  0  0  0  0  0
    3.9665    6.6587    6.0957 O   0  0  0  0  0  0  0  0  0  0  0  0
    8.1706    6.8288    5.3483 C   0  0  2  0  0  0  0  0  0  0  0  0
    9.5468    6.4314    5.0725 N   0  0  0  0  0  0  0  0  0  0  0  0
    8.2325    8.5308    3.1763 C   0  0  2  0  0  0  0  0  0  0  0  0
    1.8802    5.9587    5.0571 C   0  0  2  0  0  0  0  0  0  0  0  0
    2.4901    5.9097    3.7192 N   0  0  0  0  0  0  0  0  0  0  0  0
    7.7011    6.0405    6.6163 C   0  0  0  0  0  0  0  0  0  0  0  0
    7.9733    9.3584    1.8668 C   0  0  2  0  0  0  0  0  0  0  0  0
    6.5784    9.4897    1.6481 O   0  0  0  0  0  0  0  0  0  0  0  0
    1.2623    7.3524    5.3024 C   0  0  1  0  0  0  0  0  0  0  0  0
    0.2847    7.6323    4.2872 O   0  0  0  0  0  0  0  0  0  0  0  0
    6.2315    6.4838    6.9268 C   0  0  2  0  0  0  0  0  0  0  0  0
    5.7278    5.7662    8.1155 N   0  0  0  0  0  0  0  0  0  0  0  0
    8.6696    8.6218    0.6576 C   0  0  1  0  0  0  0  0  0  0  0  0
    8.4385    9.3632   -0.6184 N   0  0  0  0  0  0  0  0  0  0  0  0
    0.6370    7.3789    6.7172 C   0  0  2  0  0  0  0  0  0  0  0  0
    0.0663    8.6757    6.9645 O   0  0  0  0  0  0  0  0  0  0  0  0
    5.2967    6.1856    5.7268 C   0  0  2  0  0  0  0  0  0  0  0  0
   10.2048    8.5037    0.9493 C   0  0  1  0  0  0  0  0  0  0  0  0
   10.7703    9.8065    1.0680 O   0  0  0  0  0  0  0  0  0  0  0  0
    1.7436    7.0496    7.7904 C   0  0  2  0  0  0  0  0  0  0  0  0
    2.3342    5.7258    7.5132 O   0  0  0  0  0  0  0  0  0  0  0  0
    5.8206    6.9264    4.4711 C   0  0  2  0  0  0  0  0  0  0  0  0
    4.9583    6.6234    3.3793 O   0  0  0  0  0  0  0  0  0  0  0  0
   10.3998    7.7294    2.2908 C   0  0  0  0  0  0  0  0  0  0  0  0
    9.6796    8.4039    3.3975 O   0  0  0  0  0  0  0  0  0  0  0  0
    1.1681    7.0366    9.2307 C   0  0  2  0  0  0  0  0  0  0  0  0
    2.2289    6.8480   10.1637 O   0  0  0  0  0  0  0  0  0  0  0  0
    7.2530    6.4702    4.1081 C   0  0  1  0  0  0  0  0  0  0  0  0
    7.6507    7.2191    2.9353 O   0  0  0  0  0  0  0  0  0  0  0  0
    0.1672    5.9092    9.4228 C   0  0  0  0  0  0  0  0  0  0  0  0
   10.9454    7.7789   -0.1678 C   0  0  0  0  0  0  0  0  0  0  0  0
    7.1129    8.9814   -1.1416 C   0  0  0  0  0  0  0  0  0  0  0  0
  1  2  1  1  0  0  0
  1  6  1  0  0  0  0
  1 23  1  0  0  0  0
  3  4  1  6  0  0  0
  3  8  1  0  0  0  0
  3 30  1  0  0  0  0
  5  9  1  0  0  0  0
  5 27  1  0  0  0  0
  5 31  1  6  0  0  0
  6  7  1  6  0  0  0
  6 11  1  0  0  0  0
  8 13  1  0  0  0  0
  9 10  1  6  0  0  0
  9 15  1  0  0  0  0
 11 12  1  6  0  0  0
 11 17  1  0  0  0  0
 13 14  1  1  0  0  0
 13 19  1  0  0  0  0
 15 16  1  6  0  0  0
 15 20  1  0  0  0  0
 16 34  1  0  0  0  0
 17 18  1  1  0  0  0
 17 22  1  0  0  0  0
 19  2  1  1  0  0  0
 19 24  1  0  0  0  0
 20 21  1  1  0  0  0
 20 26  1  0  0  0  0
 20 33  1  0  0  0  0
 22 23  1  6  0  0  0
 22 28  1  0  0  0  0
 24 25  1  6  0  0  0
 24 30  1  0  0  0  0
 26 27  1  0  0  0  0
 28 29  1  1  0  0  0
 28 32  1  0  0  0  0
 30 31  1  6  0  0  0
M  END
>  <CHROM.1>
-115.11142355,-117.29655329,-82.54908265,-175.08137619,-30.19286031,-155.10521801
5.52207888,7.35117396,4.53045927,-2.44926542,0.06579796,-1.21187603

>  <Name>
ligand

>  <RI>
0

>  <Rbt.Current_Directory>
/home/itssahil/PROJECTS/Mol_Feturizer/New_Systems/rnas/3TD1

>  <Rbt.Executable>
rbdock ($Id: //depot/dev/client3/rdock/2013.1/src/exe/rbdock.cxx#4 $)

>  <Rbt.Library>
libRbt.so (2013.1, Build901 2013/11/27)

>  <Rbt.Parameter_File>
/export/apps/rDock/src/rDock_2013.1_src/data/scripts/dock_solv.prm

>  <Rbt.Receptor>
prm/blind_docking_40.prm

>  <SCORE>
22.1473

>  <SCORE.INTER>
4.62746

>  <SCORE.INTER.CONST>
1

>  <SCORE.INTER.POLAR>
0

>  <SCORE.INTER.ROT>
6

>  <SCORE.INTER.SOLV>
23.6916

>  <SCORE.INTER.VDW>
-12.4122

>  <SCORE.INTER.norm>
0.136102

>  <SCORE.INTRA>
4.53006

>  <SCORE.INTRA.DIHEDRAL>
1.34488

>  <SCORE.INTRA.DIHEDRAL.0>
19.5869

>  <SCORE.INTRA.POLAR>
0

>  <SCORE.INTRA.POLAR.0>
0

>  <SCORE.INTRA.REPUL>
0.000849176

>  <SCORE.INTRA.REPUL.0>
0

>  <SCORE.INTRA.SOLV>
1.95351

>  <SCORE.INTRA.SOLV.lig_0>
-70.101

>  <SCORE.INTRA.VDW>
2.87663

>  <SCORE.INTRA.VDW.0>
-3.39718

>  <SCORE.INTRA.norm>
0.133237

>  <SCORE.RESTR>
12.9898

>  <SCORE.RESTR.CAVITY>
12.9898

>  <SCORE.RESTR.norm>
0.382052

>  <SCORE.SYSTEM>
0

>  <SCORE.SYSTEM.CONST>
0

>  <SCORE.SYSTEM.DIHEDRAL>
0

>  <SCORE.SYSTEM.SOLV>
0

>  <SCORE.SYSTEM.norm>
0

>  <SCORE.heavy>
34

>  <SCORE.norm>
0.651391

>  <RMSD>
6.106

$$$$
ligand
 OpenBabel11021811483D
libRbt.so/2013.1/901 2013/11/27
 34 36  0  0  0  0  0  0  0  0999 V2000
    1.2257    5.4297    7.3712 C   0  0  2  0  0  0  0  0  0  0  0  0
    2.4079    5.8799    8.0510 O   0  0  0  0  0  0  0  0  0  0  0  0
    6.6068    5.8307    7.2582 C   0  0  2  0  0  0  0  0  0  0  0  0
    7.9305    5.3988    6.8231 N   0  0  0  0  0  0  0  0  0  0  0  0
    5.7232    6.9478    3.7283 C   0  0  2  0  0  0  0  0  0  0  0  0
   -0.0215    5.9661    8.1606 C   0  0  2  0  0  0  0  0  0  0  0  0
   -0.0296    7.4366    8.2049 N   0  0  0  0  0  0  0  0  0  0  0  0
    6.0476    4.7289    8.2190 C   0  0  0  0  0  0  0  0  0  0  0  0
    6.7692    6.0085    3.0278 C   0  0  2  0  0  0  0  0  0  0  0  0
    6.7312    4.7200    3.6186 O   0  0  0  0  0  0  0  0  0  0  0  0
   -0.0011    5.3972    9.5960 C   0  0  1  0  0  0  0  0  0  0  0  0
   -1.1442    5.8778   10.3219 O   0  0  0  0  0  0  0  0  0  0  0  0
    4.6361    5.2027    8.7049 C   0  0  2  0  0  0  0  0  0  0  0  0
    4.0511    4.1968    9.6146 N   0  0  0  0  0  0  0  0  0  0  0  0
    8.2019    6.6544    3.1686 C   0  0  1  0  0  0  0  0  0  0  0  0
    9.2383    5.7887    2.5300 N   0  0  0  0  0  0  0  0  0  0  0  0
    0.0162    3.8520    9.5199 C   0  0  2  0  0  0  0  0  0  0  0  0
    0.0462    3.3073   10.8507 O   0  0  0  0  0  0  0  0  0  0  0  0
    3.6776    5.4121    7.5049 C   0  0  2  0  0  0  0  0  0  0  0  0
    8.1890    8.0721    2.5011 C   0  0  1  0  0  0  0  0  0  0  0  0
    7.8876    7.9447    1.1140 O   0  0  0  0  0  0  0  0  0  0  0  0
    1.2767    3.3772    8.7011 C   0  0  2  0  0  0  0  0  0  0  0  0
    1.2434    3.9591    7.3452 O   0  0  0  0  0  0  0  0  0  0  0  0
    4.2856    6.4593    6.5386 C   0  0  2  0  0  0  0  0  0  0  0  0
    3.3982    6.6214    5.4370 O   0  0  0  0  0  0  0  0  0  0  0  0
    7.0907    8.9395    3.1930 C   0  0  0  0  0  0  0  0  0  0  0  0
    5.7663    8.2786    3.1069 O   0  0  0  0  0  0  0  0  0  0  0  0
    1.3338    1.8328    8.5693 C   0  0  2  0  0  0  0  0  0  0  0  0
    2.4553    1.4661    7.7700 O   0  0  0  0  0  0  0  0  0  0  0  0
    5.6587    5.9945    6.0001 C   0  0  1  0  0  0  0  0  0  0  0  0
    6.1419    7.0360    5.1191 O   0  0  0  0  0  0  0  0  0  0  0  0
    0.0829    1.2816    7.9051 C   0  0  0  0  0  0  0  0  0  0  0  0
    9.5375    8.7720    2.6182 C   0  0  0  0  0  0  0  0  0  0  0  0
   10.0271    5.1466    3.5988 C   0  0  0  0  0  0  0  0  0  0  0  0
  1  2  1  1  0  0  0
  1  6  1  0  0  0  0
  1 23  1  0  0  0  0
  3  4  1  6  0  0  0
  3  8  1  0  0  0  0
  3 30  1  0  0  0  0
  5  9  1  0  0  0  0
  5 27  1  0  0  0  0
  5 31  1  1  0  0  0
  6  7  1  1  0  0  0
  6 11  1  0  0  0  0
  8 13  1  0  0  0  0
  9 10  1  1  0  0  0
  9 15  1  0  0  0  0
 11 12  1  1  0  0  0
 11 17  1  0  0  0  0
 13 14  1  1  0  0  0
 13 19  1  0  0  0  0
 15 16  1  6  0  0  0
 15 20  1  0  0  0  0
 16 34  1  0  0  0  0
 17 18  1  1  0  0  0
 17 22  1  0  0  0  0
 19  2  1  1  0  0  0
 19 24  1  0  0  0  0
 20 21  1  6  0  0  0
 20 26  1  0  0  0  0
 20 33  1  0  0  0  0
 22 23  1  6  0  0  0
 22 28  1  0  0  0  0
 24 25  1  6  0  0  0
 24 30  1  0  0  0  0
 26 27  1  0  0  0  0
 28 29  1  6  0  0  0
 28 32  1  0  0  0  0
 30 31  1  6  0  0  0
M  END
>  <CHROM.1>
176.56479323,-145.12693021,-107.07624550,177.32256417,156.30224750,-86.25861768
4.29565932,5.55675212,6.33077846,2.55653280,-0.46886824,2.63673007

>  <Name>
ligand

>  <RI>
0

>  <Rbt.Current_Directory>
/home/itssahil/PROJECTS/Mol_Feturizer/New_Systems/rnas/3TD1

>  <Rbt.Executable>
rbdock ($Id: //depot/dev/client3/rdock/2013.1/src/exe/rbdock.cxx#4 $)

>  <Rbt.Library>
libRbt.so (2013.1, Build901 2013/11/27)

>  <Rbt.Parameter_File>
/export/apps/rDock/src/rDock_2013.1_src/data/scripts/dock_solv.prm

>  <Rbt.Receptor>
prm/blind_docking_100.prm

>  <SCORE>
9.74613

>  <SCORE.INTER>
0.929697

>  <SCORE.INTER.CONST>
1

>  <SCORE.INTER.POLAR>
0

>  <SCORE.INTER.ROT>
6

>  <SCORE.INTER.SOLV>
21.442

>  <SCORE.INTER.VDW>
-14.1275

>  <SCORE.INTER.norm>
0.027344

>  <SCORE.INTRA>
-3.81309

>  <SCORE.INTRA.DIHEDRAL>
-8.57111

>  <SCORE.INTRA.DIHEDRAL.0>
19.5869

>  <SCORE.INTRA.POLAR>
0

>  <SCORE.INTRA.POLAR.0>
0

>  <SCORE.INTRA.REPUL>
0

>  <SCORE.INTRA.REPUL.0>
0

>  <SCORE.INTRA.SOLV>
0.971597

>  <SCORE.INTRA.SOLV.lig_0>
-70.101

>  <SCORE.INTRA.VDW>
-0.0133316

>  <SCORE.INTRA.VDW.0>
-3.39718

>  <SCORE.INTRA.norm>
-0.11215

>  <SCORE.RESTR>
12.6295

>  <SCORE.RESTR.CAVITY>
12.6295

>  <SCORE.RESTR.norm>
0.371457

>  <SCORE.SYSTEM>
0

>  <SCORE.SYSTEM.CONST>
0

>  <SCORE.SYSTEM.DIHEDRAL>
0

>  <SCORE.SYSTEM.SOLV>
0

>  <SCORE.SYSTEM.norm>
0

>  <SCORE.heavy>
34

>  <SCORE.norm>
0.286651

>  <RMSD>
6.110

$$$$
ligand
 OpenBabel11021811483D
libRbt.so/2013.1/901 2013/11/27
 34 36  0  0  0  0  0  0  0  0999 V2000
    1.2166    5.2834    7.3010 C   0  0  2  0  0  0  0  0  0  0  0  0
    2.3527    5.8409    7.9800 O   0  0  0  0  0  0  0  0  0  0  0  0
    6.5758    5.9528    7.3362 C   0  0  2  0  0  0  0  0  0  0  0  0
    7.9324    5.5653    6.9652 N   0  0  0  0  0  0  0  0  0  0  0  0
    5.7292    6.9180    3.7444 C   0  0  2  0  0  0  0  0  0  0  0  0
   -0.0796    5.7863    8.0316 C   0  0  2  0  0  0  0  0  0  0  0  0
   -0.1755    7.2538    7.9927 N   0  0  0  0  0  0  0  0  0  0  0  0
    6.0313    4.8649    8.3208 C   0  0  0  0  0  0  0  0  0  0  0  0
    6.8056    5.9920    3.0728 C   0  0  2  0  0  0  0  0  0  0  0  0
    6.8000    4.7174    3.6943 O   0  0  0  0  0  0  0  0  0  0  0  0
   -0.0616    5.2995    9.4969 C   0  0  1  0  0  0  0  0  0  0  0  0
   -1.2490    5.7495   10.1694 O   0  0  0  0  0  0  0  0  0  0  0  0
    4.5834    5.2922    8.7379 C   0  0  2  0  0  0  0  0  0  0  0  0
    4.0107    4.2969    9.6668 N   0  0  0  0  0  0  0  0  0  0  0  0
    8.2186    6.6812    3.2060 C   0  0  1  0  0  0  0  0  0  0  0  0
    9.2830    5.8300    2.5944 N   0  0  0  0  0  0  0  0  0  0  0  0
    0.0487    3.7563    9.5085 C   0  0  2  0  0  0  0  0  0  0  0  0
    0.0774    3.2885   10.8683 O   0  0  0  0  0  0  0  0  0  0  0  0
    3.6610    5.4107    7.4977 C   0  0  2  0  0  0  0  0  0  0  0  0
    8.1702    8.0816    2.5044 C   0  0  1  0  0  0  0  0  0  0  0  0
    7.8813    7.9125    1.1191 O   0  0  0  0  0  0  0  0  0  0  0  0
    1.3552    3.3141    8.7455 C   0  0  2  0  0  0  0  0  0  0  0  0
    1.3216    3.8174    7.3585 O   0  0  0  0  0  0  0  0  0  0  0  0
    4.2569    6.4461    6.5114 C   0  0  2  0  0  0  0  0  0  0  0  0
    3.4040    6.5244    5.3740 O   0  0  0  0  0  0  0  0  0  0  0  0
    7.0436    8.9340    3.1689 C   0  0  0  0  0  0  0  0  0  0  0  0
    5.7388    8.2341    3.0913 O   0  0  0  0  0  0  0  0  0  0  0  0
    1.5066    1.7710    8.7023 C   0  0  2  0  0  0  0  0  0  0  0  0
    2.7470    1.4331    8.0871 O   0  0  0  0  0  0  0  0  0  0  0  0
    5.6680    6.0239    6.0402 C   0  0  1  0  0  0  0  0  0  0  0  0
    6.1364    7.0513    5.1350 O   0  0  0  0  0  0  0  0  0  0  0  0
    0.3914    1.1219    7.8993 C   0  0  0  0  0  0  0  0  0  0  0  0
    9.4977    8.8219    2.6122 C   0  0  0  0  0  0  0  0  0  0  0  0
    9.9905    5.1235    3.6794 C   0  0  0  0  0  0  0  0  0  0  0  0
  1  2  1  1  0  0  0
  1  6  1  0  0  0  0
  1 23  1  0  0  0  0
  3  4  1  6  0  0  0
  3  8  1  0  0  0  0
  3 30  1  0  0  0  0
  5  9  1  0  0  0  0
  5 27  1  0  0  0  0
  5 31  1  1  0  0  0
  6  7  1  1  0  0  0
  6 11  1  0  0  0  0
  8 13  1  0  0  0  0
  9 10  1  1  0  0  0
  9 15  1  0  0  0  0
 11 12  1  6  0  0  0
 11 17  1  0  0  0  0
 13 14  1  1  0  0  0
 13 19  1  0  0  0  0
 15 16  1  6  0  0  0
 15 20  1  0  0  0  0
 16 34  1  0  0  0  0
 17 18  1  1  0  0  0
 17 22  1  0  0  0  0
 19  2  1  1  0  0  0
 19 24  1  0  0  0  0
 20 21  1  6  0  0  0
 20 26  1  0  0  0  0
 20 33  1  0  0  0  0
 22 23  1  6  0  0  0
 22 28  1  0  0  0  0
 24 25  1  6  0  0  0
 24 30  1  0  0  0  0
 26 27  1  0  0  0  0
 28 29  1  6  0  0  0
 28 32  1  0  0  0  0
 30 31  1  6  0  0  0
M  END
>  <CHROM.1>
175.96621239,-143.54489565,-101.11643392,-175.90086240,158.62690896,-86.74608224
4.30824424,5.53119421,6.34354506,2.52159803,-0.42774204,2.58052977

>  <Name>
ligand

>  <RI>
0

>  <Rbt.Current_Directory>
/home/itssahil/PROJECTS/Mol_Feturizer/New_Systems/rnas/3TD1

>  <Rbt.Executable>
rbdock ($Id: //depot/dev/client3/rdock/2013.1/src/exe/rbdock.cxx#4 $)

>  <Rbt.Library>
libRbt.so (2013.1, Build901 2013/11/27)

>  <Rbt.Parameter_File>
/export/apps/rDock/src/rDock_2013.1_src/data/scripts/dock_solv.prm

>  <Rbt.Receptor>
prm/blind_docking_100.prm

>  <SCORE>
8.75246

>  <SCORE.INTER>
-0.371763

>  <SCORE.INTER.CONST>
1

>  <SCORE.INTER.POLAR>
0

>  <SCORE.INTER.ROT>
6

>  <SCORE.INTER.SOLV>
20.91

>  <SCORE.INTER.VDW>
-14.8178

>  <SCORE.INTER.norm>
-0.0109342

>  <SCORE.INTRA>
-3.76825

>  <SCORE.INTRA.DIHEDRAL>
-8.66889

>  <SCORE.INTRA.DIHEDRAL.0>
19.5869

>  <SCORE.INTRA.POLAR>
0

>  <SCORE.INTRA.POLAR.0>
0

>  <SCORE.INTRA.REPUL>
0

>  <SCORE.INTRA.REPUL.0>
0

>  <SCORE.INTRA.SOLV>
1.09179

>  <SCORE.INTRA.SOLV.lig_0>
-70.101

>  <SCORE.INTRA.VDW>
0.0202958

>  <SCORE.INTRA.VDW.0>
-3.39718

>  <SCORE.INTRA.norm>
-0.110831

>  <SCORE.RESTR>
12.8925

>  <SCORE.RESTR.CAVITY>
12.8925

>  <SCORE.RESTR.norm>
0.37919

>  <SCORE.SYSTEM>
0

>  <SCORE.SYSTEM.CONST>
0

>  <SCORE.SYSTEM.DIHEDRAL>
0

>  <SCORE.SYSTEM.SOLV>
0

>  <SCORE.SYSTEM.norm>
0

>  <SCORE.heavy>
34

>  <SCORE.norm>
0.257425

>  <RMSD>
6.123

$$$$
ligand
 OpenBabel11021811483D
libRbt.so/2013.1/901 2013/11/27
 34 36  0  0  0  0  0  0  0  0999 V2000
    1.2893    5.2890    7.3753 C   0  0  2  0  0  0  0  0  0  0  0  0
    2.3494    5.9620    8.0723 O   0  0  0  0  0  0  0  0  0  0  0  0
    6.5730    6.3463    7.5478 C   0  0  2  0  0  0  0  0  0  0  0  0
    7.9703    6.0302    7.2723 N   0  0  0  0  0  0  0  0  0  0  0  0
    5.6731    6.8458    3.8562 C   0  0  2  0  0  0  0  0  0  0  0  0
   -0.0507    5.5675    8.1454 C   0  0  2  0  0  0  0  0  0  0  0  0
   -0.3491    7.0075    8.1882 N   0  0  0  0  0  0  0  0  0  0  0  0
    6.0770    5.3518    8.6499 C   0  0  0  0  0  0  0  0  0  0  0  0
    6.7723    5.9361    3.1996 C   0  0  2  0  0  0  0  0  0  0  0  0
    6.8782    4.7161    3.9146 O   0  0  0  0  0  0  0  0  0  0  0  0
    0.0601    5.0108    9.5815 C   0  0  1  0  0  0  0  0  0  0  0  0
   -1.1660    5.2553   10.2897 O   0  0  0  0  0  0  0  0  0  0  0  0
    4.5837    5.7055    8.9631 C   0  0  2  0  0  0  0  0  0  0  0  0
    4.0545    4.7929    9.9969 N   0  0  0  0  0  0  0  0  0  0  0  0
    8.1434    6.7168    3.2049 C   0  0  1  0  0  0  0  0  0  0  0  0
    9.2288    5.8855    2.6031 N   0  0  0  0  0  0  0  0  0  0  0  0
    0.3826    3.4995    9.5071 C   0  0  2  0  0  0  0  0  0  0  0  0
    0.4996    2.9687   10.8387 O   0  0  0  0  0  0  0  0  0  0  0  0
    3.7065    5.5853    7.6907 C   0  0  2  0  0  0  0  0  0  0  0  0
    7.9718    8.0525    2.4035 C   0  0  1  0  0  0  0  0  0  0  0  0
    7.6272    7.7583    1.0523 O   0  0  0  0  0  0  0  0  0  0  0  0
    1.7240    3.2841    8.7077 C   0  0  2  0  0  0  0  0  0  0  0  0
    1.5969    3.8508    7.3510 O   0  0  0  0  0  0  0  0  0  0  0  0
    4.2580    6.5321    6.5954 C   0  0  2  0  0  0  0  0  0  0  0  0
    3.4490    6.3913    5.4322 O   0  0  0  0  0  0  0  0  0  0  0  0
    6.8268    8.8855    3.0612 C   0  0  0  0  0  0  0  0  0  0  0  0
    5.5670    8.1050    3.1063 O   0  0  0  0  0  0  0  0  0  0  0  0
    2.0862    1.7814    8.5782 C   0  0  2  0  0  0  0  0  0  0  0  0
    3.3530    1.6524    7.9379 O   0  0  0  0  0  0  0  0  0  0  0  0
    5.7164    6.1735    6.2268 C   0  0  1  0  0  0  0  0  0  0  0  0
    6.1381    7.1119    5.2090 O   0  0  0  0  0  0  0  0  0  0  0  0
    1.0605    1.0286    7.7471 C   0  0  0  0  0  0  0  0  0  0  0  0
    9.2531    8.8770    2.3842 C   0  0  0  0  0  0  0  0  0  0  0  0
    9.9761    5.2376    3.6979 C   0  0  0  0  0  0  0  0  0  0  0  0
  1  2  1  1  0  0  0
  1  6  1  0  0  0  0
  1 23  1  0  0  0  0
  3  4  1  6  0  0  0
  3  8  1  0  0  0  0
  3 30  1  0  0  0  0
  5  9  1  0  0  0  0
  5 27  1  0  0  0  0
  5 31  1  1  0  0  0
  6  7  1  1  0  0  0
  6 11  1  0  0  0  0
  8 13  1  0  0  0  0
  9 10  1  1  0  0  0
  9 15  1  0  0  0  0
 11 12  1  6  0  0  0
 11 17  1  0  0  0  0
 13 14  1  1  0  0  0
 13 19  1  0  0  0  0
 15 16  1  6  0  0  0
 15 20  1  0  0  0  0
 16 34  1  0  0  0  0
 17 18  1  1  0  0  0
 17 22  1  0  0  0  0
 19  2  1  1  0  0  0
 19 24  1  0  0  0  0
 20 21  1  6  0  0  0
 20 26  1  0  0  0  0
 20 33  1  0  0  0  0
 22 23  1  6  0  0  0
 22 28  1  0  0  0  0
 24 25  1  6  0  0  0
 24 30  1  0  0  0  0
 26 27  1  0  0  0  0
 28 29  1  6  0  0  0
 28 32  1  0  0  0  0
 30 31  1  6  0  0  0
M  END
>  <CHROM.1>
166.80080169,-147.44172892,-97.38845095,-175.66048829,165.25613882,-90.17170406
4.38128671,5.55080555,6.40500646,2.47374405,-0.41153717,2.52468477

>  <Name>
ligand

>  <RI>
0

>  <Rbt.Current_Directory>
/home/itssahil/PROJECTS/Mol_Feturizer/New_Systems/rnas/3TD1

>  <Rbt.Executable>
rbdock ($Id: //depot/dev/client3/rdock/2013.1/src/exe/rbdock.cxx#4 $)

>  <Rbt.Library>
libRbt.so (2013.1, Build901 2013/11/27)

>  <Rbt.Parameter_File>
/export/apps/rDock/src/rDock_2013.1_src/data/scripts/dock_solv.prm

>  <Rbt.Receptor>
prm/blind_docking_60.prm

>  <SCORE>
14.8351

>  <SCORE.INTER>
1.05969

>  <SCORE.INTER.CONST>
1

>  <SCORE.INTER.POLAR>
0

>  <SCORE.INTER.ROT>
6

>  <SCORE.INTER.SOLV>
23.4004

>  <SCORE.INTER.VDW>
-14.6937

>  <SCORE.INTER.norm>
0.0311673

>  <SCORE.INTRA>
-3.70048

>  <SCORE.INTRA.DIHEDRAL>
-9.0836

>  <SCORE.INTRA.DIHEDRAL.0>
19.5869

>  <SCORE.INTRA.POLAR>
0

>  <SCORE.INTRA.POLAR.0>
0

>  <SCORE.INTRA.REPUL>
0

>  <SCORE.INTRA.REPUL.0>
0

>  <SCORE.INTRA.SOLV>
0.436186

>  <SCORE.INTRA.SOLV.lig_0>
-70.101

>  <SCORE.INTRA.VDW>
0.623226

>  <SCORE.INTRA.VDW.0>
-3.39718

>  <SCORE.INTRA.norm>
-0.108838

>  <SCORE.RESTR>
17.4759

>  <SCORE.RESTR.CAVITY>
17.4759

>  <SCORE.RESTR.norm>
0.513998

>  <SCORE.SYSTEM>
0

>  <SCORE.SYSTEM.CONST>
0

>  <SCORE.SYSTEM.DIHEDRAL>
0

>  <SCORE.SYSTEM.SOLV>
0

>  <SCORE.SYSTEM.norm>
0

>  <SCORE.heavy>
34

>  <SCORE.norm>
0.436327

>  <RMSD>
6.123

$$$$
ligand
 OpenBabel11021811483D
libRbt.so/2013.1/901 2013/11/27
 34 36  0  0  0  0  0  0  0  0999 V2000
    1.2178    5.2728    7.3183 C   0  0  2  0  0  0  0  0  0  0  0  0
    2.3745    5.7907    7.9938 O   0  0  0  0  0  0  0  0  0  0  0  0
    6.5856    5.8659    7.2707 C   0  0  2  0  0  0  0  0  0  0  0  0
    7.9292    5.4721    6.8612 N   0  0  0  0  0  0  0  0  0  0  0  0
    5.7136    6.9355    3.7206 C   0  0  2  0  0  0  0  0  0  0  0  0
   -0.0577    5.7949    8.0714 C   0  0  2  0  0  0  0  0  0  0  0  0
   -0.1178    7.2647    8.0578 N   0  0  0  0  0  0  0  0  0  0  0  0
    6.0448    4.7549    8.2314 C   0  0  0  0  0  0  0  0  0  0  0  0
    6.7725    5.9977    3.0377 C   0  0  2  0  0  0  0  0  0  0  0  0
    6.7386    4.7142    3.6397 O   0  0  0  0  0  0  0  0  0  0  0  0
   -0.0362    5.2831    9.5281 C   0  0  1  0  0  0  0  0  0  0  0  0
   -1.2049    5.7508   10.2211 O   0  0  0  0  0  0  0  0  0  0  0  0
    4.6114    5.1884    8.6900 C   0  0  2  0  0  0  0  0  0  0  0  0
    4.0427    4.1720    9.5984 N   0  0  0  0  0  0  0  0  0  0  0  0
    8.1992    6.6552    3.1852 C   0  0  1  0  0  0  0  0  0  0  0  0
    9.2474    5.7915    2.5635 N   0  0  0  0  0  0  0  0  0  0  0  0
    0.0362    3.7378    9.5130 C   0  0  2  0  0  0  0  0  0  0  0  0
    0.0678    3.2465   10.8644 O   0  0  0  0  0  0  0  0  0  0  0  0
    3.6671    5.3583    7.4726 C   0  0  2  0  0  0  0  0  0  0  0  0
    8.1820    8.0668    2.5049 C   0  0  1  0  0  0  0  0  0  0  0  0
    7.8937    7.9248    1.1165 O   0  0  0  0  0  0  0  0  0  0  0  0
    1.3231    3.2766    8.7283 C   0  0  2  0  0  0  0  0  0  0  0  0
    1.2873    3.8038    7.3503 O   0  0  0  0  0  0  0  0  0  0  0  0
    4.2584    6.4163    6.5077 C   0  0  2  0  0  0  0  0  0  0  0  0
    3.3849    6.5419    5.3902 O   0  0  0  0  0  0  0  0  0  0  0  0
    7.0714    8.9323    3.1793 C   0  0  0  0  0  0  0  0  0  0  0  0
    5.7525    8.2610    3.0877 O   0  0  0  0  0  0  0  0  0  0  0  0
    1.4359    1.7312    8.6579 C   0  0  2  0  0  0  0  0  0  0  0  0
    2.6419    1.3736    7.9877 O   0  0  0  0  0  0  0  0  0  0  0  0
    5.6541    5.9902    5.9958 C   0  0  1  0  0  0  0  0  0  0  0  0
    6.1194    7.0392    5.1141 O   0  0  0  0  0  0  0  0  0  0  0  0
    0.2739    1.1199    7.8926 C   0  0  0  0  0  0  0  0  0  0  0  0
    9.5242    8.7775    2.6275 C   0  0  0  0  0  0  0  0  0  0  0  0
   10.0003    5.1272    3.6446 C   0  0  0  0  0  0  0  0  0  0  0  0
  1  2  1  1  0  0  0
  1  6  1  0  0  0  0
  1 23  1  0  0  0  0
  3  4  1  6  0  0  0
  3  8  1  0  0  0  0
  3 30  1  0  0  0  0
  5  9  1  0  0  0  0
  5 27  1  0  0  0  0
  5 31  1  1  0  0  0
  6  7  1  1  0  0  0
  6 11  1  0  0  0  0
  8 13  1  0  0  0  0
  9 10  1  1  0  0  0
  9 15  1  0  0  0  0
 11 12  1  6  0  0  0
 11 17  1  0  0  0  0
 13 14  1  1  0  0  0
 13 19  1  0  0  0  0
 15 16  1  6  0  0  0
 15 20  1  0  0  0  0
 16 34  1  0  0  0  0
 17 18  1  1  0  0  0
 17 22  1  0  0  0  0
 19  2  1  1  0  0  0
 19 24  1  0  0  0  0
 20 21  1  6  0  0  0
 20 26  1  0  0  0  0
 20 33  1  0  0  0  0
 22 23  1  6  0  0  0
 22 28  1  0  0  0  0
 24 25  1  6  0  0  0
 24 30  1  0  0  0  0
 26 27  1  0  0  0  0
 28 29  1  6  0  0  0
 28 32  1  0  0  0  0
 30 31  1  6  0  0  0
M  END
>  <CHROM.1>
177.17796826,-143.68195925,-105.08594822,-177.63188484,157.01244088,-85.28369199
4.30078179,5.50368368,6.32643202,2.53087742,-0.44335725,2.60614602

>  <Name>
ligand

>  <RI>
0

>  <Rbt.Current_Directory>
/home/itssahil/PROJECTS/Mol_Feturizer/New_Systems/rnas/3TD1

>  <Rbt.Executable>
rbdock ($Id: //depot/dev/client3/rdock/2013.1/src/exe/rbdock.cxx#4 $)

>  <Rbt.Library>
libRbt.so (2013.1, Build901 2013/11/27)

>  <Rbt.Parameter_File>
/export/apps/rDock/src/rDock_2013.1_src/data/scripts/dock_solv.prm

>  <Rbt.Receptor>
prm/blind_docking_100.prm

>  <SCORE>
9.49312

>  <SCORE.INTER>
0.680913

>  <SCORE.INTER.CONST>
1

>  <SCORE.INTER.POLAR>
0

>  <SCORE.INTER.ROT>
6

>  <SCORE.INTER.SOLV>
21.0093

>  <SCORE.INTER.VDW>
-14.1492

>  <SCORE.INTER.norm>
0.0200269

>  <SCORE.INTRA>
-3.83769

>  <SCORE.INTRA.DIHEDRAL>
-8.67439

>  <SCORE.INTRA.DIHEDRAL.0>
19.5869

>  <SCORE.INTRA.POLAR>
0

>  <SCORE.INTRA.POLAR.0>
0

>  <SCORE.INTRA.REPUL>
0

>  <SCORE.INTRA.REPUL.0>
0

>  <SCORE.INTRA.SOLV>
1.14351

>  <SCORE.INTRA.SOLV.lig_0>
-70.101

>  <SCORE.INTRA.VDW>
-0.0722511

>  <SCORE.INTRA.VDW.0>
-3.39718

>  <SCORE.INTRA.norm>
-0.112873

>  <SCORE.RESTR>
12.6499

>  <SCORE.RESTR.CAVITY>
12.6499

>  <SCORE.RESTR.norm>
0.372056

>  <SCORE.SYSTEM>
0

>  <SCORE.SYSTEM.CONST>
0

>  <SCORE.SYSTEM.DIHEDRAL>
0

>  <SCORE.SYSTEM.SOLV>
0

>  <SCORE.SYSTEM.norm>
0

>  <SCORE.heavy>
34

>  <SCORE.norm>
0.279209

>  <RMSD>
6.126

$$$$
ligand
 OpenBabel11021811483D
libRbt.so/2013.1/901 2013/11/27
 34 36  0  0  0  0  0  0  0  0999 V2000
   10.5175    4.7774   13.2640 C   0  0  2  0  0  0  0  0  0  0  0  0
   11.6236    4.0712   12.6807 O   0  0  0  0  0  0  0  0  0  0  0  0
   12.9675    7.4269   10.4015 C   0  0  2  0  0  0  0  0  0  0  0  0
   13.7781    8.2869    9.5463 N   0  0  0  0  0  0  0  0  0  0  0  0
   11.1784    5.5441    7.5655 C   0  0  2  0  0  0  0  0  0  0  0  0
    9.9458    3.9007   14.4350 C   0  0  2  0  0  0  0  0  0  0  0  0
   10.9635    3.6715   15.4723 N   0  0  0  0  0  0  0  0  0  0  0  0
   13.8737    6.9602   11.5892 C   0  0  0  0  0  0  0  0  0  0  0  0
   12.4559    5.1960    6.7206 C   0  0  2  0  0  0  0  0  0  0  0  0
   13.4759    4.6998    7.5716 O   0  0  0  0  0  0  0  0  0  0  0  0
    9.4574    2.5492   13.8700 C   0  0  1  0  0  0  0  0  0  0  0  0
    8.9256    1.7448   14.9353 O   0  0  0  0  0  0  0  0  0  0  0  0
   12.9975    6.0556   12.5203 C   0  0  2  0  0  0  0  0  0  0  0  0
   13.8026    5.5767   13.6623 N   0  0  0  0  0  0  0  0  0  0  0  0
   12.9314    6.4967    5.9646 C   0  0  1  0  0  0  0  0  0  0  0  0
   14.1571    6.2214    5.1563 N   0  0  0  0  0  0  0  0  0  0  0  0
    8.3964    2.8196   12.7769 C   0  0  2  0  0  0  0  0  0  0  0  0
    7.9395    1.5689   12.2332 O   0  0  0  0  0  0  0  0  0  0  0  0
   12.4468    4.8311   11.7457 C   0  0  2  0  0  0  0  0  0  0  0  0
   11.7709    7.0015    5.0405 C   0  0  1  0  0  0  0  0  0  0  0  0
   11.4645    6.0040    4.0698 O   0  0  0  0  0  0  0  0  0  0  0  0
    9.0227    3.7179   11.6431 C   0  0  2  0  0  0  0  0  0  0  0  0
    9.5052    4.9887   12.2180 O   0  0  0  0  0  0  0  0  0  0  0  0
   11.6075    5.3215   10.5394 C   0  0  2  0  0  0  0  0  0  0  0  0
   11.1281    4.1816    9.8336 O   0  0  0  0  0  0  0  0  0  0  0  0
   10.5114    7.2706    5.9230 C   0  0  0  0  0  0  0  0  0  0  0  0
   10.1257    6.0526    6.6753 O   0  0  0  0  0  0  0  0  0  0  0  0
    7.9947    4.0443   10.5285 C   0  0  2  0  0  0  0  0  0  0  0  0
    6.7840    4.5078   11.1207 O   0  0  0  0  0  0  0  0  0  0  0  0
   12.4608    6.1756    9.5730 C   0  0  1  0  0  0  0  0  0  0  0  0
   11.5910    6.5873    8.4922 O   0  0  0  0  0  0  0  0  0  0  0  0
    7.6692    2.8183    9.6914 C   0  0  0  0  0  0  0  0  0  0  0  0
   12.1478    8.2740    4.2919 C   0  0  0  0  0  0  0  0  0  0  0  0
   15.3374    6.4950    5.9982 C   0  0  0  0  0  0  0  0  0  0  0  0
  1  2  1  6  0  0  0
  1  6  1  0  0  0  0
  1 23  1  0  0  0  0
  3  4  1  6  0  0  0
  3  8  1  0  0  0  0
  3 30  1  0  0  0  0
  5  9  1  0  0  0  0
  5 27  1  0  0  0  0
  5 31  1  1  0  0  0
  6  7  1  1  0  0  0
  6 11  1  0  0  0  0
  8 13  1  0  0  0  0
  9 10  1  1  0  0  0
  9 15  1  0  0  0  0
 11 12  1  1  0  0  0
 11 17  1  0  0  0  0
 13 14  1  1  0  0  0
 13 19  1  0  0  0  0
 15 16  1  6  0  0  0
 15 20  1  0  0  0  0
 16 34  1  0  0  0  0
 17 18  1  6  0  0  0
 17 22  1  0  0  0  0
 19  2  1  1  0  0  0
 19 24  1  0  0  0  0
 20 21  1  6  0  0  0
 20 26  1  0  0  0  0
 20 33  1  0  0  0  0
 22 23  1  1  0  0  0
 22 28  1  0  0  0  0
 24 25  1  6  0  0  0
 24 30  1  0  0  0  0
 26 27  1  0  0  0  0
 28 29  1  1  0  0  0
 28 32  1  0  0  0  0
 30 31  1  6  0  0  0
M  END
>  <CHROM.1>
-168.75959819,58.77050327,-90.60829783,48.86871618,173.36210798,-71.77770957
11.17156843,5.14587080,9.90958400,-1.98662035,-0.47361107,-1.34733901

>  <Name>
ligand

>  <RI>
0

>  <Rbt.Current_Directory>
/home/itssahil/PROJECTS/Mol_Feturizer/New_Systems/rnas/3TD1

>  <Rbt.Executable>
rbdock ($Id: //depot/dev/client3/rdock/2013.1/src/exe/rbdock.cxx#4 $)

>  <Rbt.Library>
libRbt.so (2013.1, Build901 2013/11/27)

>  <Rbt.Parameter_File>
/export/apps/rDock/src/rDock_2013.1_src/data/scripts/dock_solv.prm

>  <Rbt.Receptor>
prm/pocket_docking_8.prm

>  <SCORE>
-7.41515

>  <SCORE.INTER>
-2.24283

>  <SCORE.INTER.CONST>
1

>  <SCORE.INTER.POLAR>
0

>  <SCORE.INTER.ROT>
6

>  <SCORE.INTER.SOLV>
8.50922

>  <SCORE.INTER.VDW>
-11.9316

>  <SCORE.INTER.norm>
-0.0659657

>  <SCORE.INTRA>
-5.17232

>  <SCORE.INTRA.DIHEDRAL>
-16.9734

>  <SCORE.INTRA.DIHEDRAL.0>
19.5869

>  <SCORE.INTRA.POLAR>
0

>  <SCORE.INTRA.POLAR.0>
0

>  <SCORE.INTRA.REPUL>
0

>  <SCORE.INTRA.REPUL.0>
0

>  <SCORE.INTRA.SOLV>
-0.171417

>  <SCORE.INTRA.SOLV.lig_0>
-70.101

>  <SCORE.INTRA.VDW>
3.40009

>  <SCORE.INTRA.VDW.0>
-3.39718

>  <SCORE.INTRA.norm>
-0.152127

>  <SCORE.RESTR>
0

>  <SCORE.RESTR.CAVITY>
0

>  <SCORE.RESTR.norm>
0

>  <SCORE.SYSTEM>
0

>  <SCORE.SYSTEM.CONST>
0

>  <SCORE.SYSTEM.DIHEDRAL>
0

>  <SCORE.SYSTEM.SOLV>
0

>  <SCORE.SYSTEM.norm>
0

>  <SCORE.heavy>
34

>  <SCORE.norm>
-0.218093

>  <RMSD>
6.126

$$$$
ligand
 OpenBabel11021811483D
libRbt.so/2013.1/901 2013/11/27
 34 36  0  0  0  0  0  0  0  0999 V2000
    1.1757    5.3961    7.3839 C   0  0  2  0  0  0  0  0  0  0  0  0
    2.2384    6.0800    8.0661 O   0  0  0  0  0  0  0  0  0  0  0  0
    6.4785    6.3583    7.6124 C   0  0  2  0  0  0  0  0  0  0  0  0
    7.8731    6.0049    7.3708 N   0  0  0  0  0  0  0  0  0  0  0  0
    5.6507    6.7947    3.8951 C   0  0  2  0  0  0  0  0  0  0  0  0
   -0.1449    5.6091    8.2069 C   0  0  2  0  0  0  0  0  0  0  0  0
   -0.4847    7.0370    8.3053 N   0  0  0  0  0  0  0  0  0  0  0  0
    5.9401    5.4015    8.7280 C   0  0  0  0  0  0  0  0  0  0  0  0
    6.7735    5.9081    3.2468 C   0  0  2  0  0  0  0  0  0  0  0  0
    6.9050    4.6941    3.9676 O   0  0  0  0  0  0  0  0  0  0  0  0
    0.0320    5.0123    9.6200 C   0  0  1  0  0  0  0  0  0  0  0  0
   -1.1758    5.1967   10.3763 O   0  0  0  0  0  0  0  0  0  0  0  0
    4.4497    5.7955    9.0045 C   0  0  2  0  0  0  0  0  0  0  0  0
    3.8812    4.9197   10.0493 N   0  0  0  0  0  0  0  0  0  0  0  0
    8.1259    6.7208    3.2540 C   0  0  1  0  0  0  0  0  0  0  0  0
    9.2328    5.9126    2.6601 N   0  0  0  0  0  0  0  0  0  0  0  0
    0.3970    3.5147    9.4871 C   0  0  2  0  0  0  0  0  0  0  0  0
    0.5757    2.9472   10.7965 O   0  0  0  0  0  0  0  0  0  0  0  0
    3.5935    5.6645    7.7190 C   0  0  2  0  0  0  0  0  0  0  0  0
    7.9263    8.0487    2.4461 C   0  0  1  0  0  0  0  0  0  0  0  0
    7.5940    7.7407    1.0949 O   0  0  0  0  0  0  0  0  0  0  0  0
    1.7159    3.3657    8.6368 C   0  0  2  0  0  0  0  0  0  0  0  0
    1.5252    3.9695    7.3037 O   0  0  0  0  0  0  0  0  0  0  0  0
    4.1861    6.5724    6.6125 C   0  0  2  0  0  0  0  0  0  0  0  0
    3.3956    6.4219    5.4378 O   0  0  0  0  0  0  0  0  0  0  0  0
    6.7595    8.8574    3.0957 C   0  0  0  0  0  0  0  0  0  0  0  0
    5.5182    8.0478    3.1394 O   0  0  0  0  0  0  0  0  0  0  0  0
    2.1185    1.8797    8.4477 C   0  0  2  0  0  0  0  0  0  0  0  0
    3.3760    1.8102    7.7806 O   0  0  0  0  0  0  0  0  0  0  0  0
    5.6426    6.1730    6.2799 C   0  0  1  0  0  0  0  0  0  0  0  0
    6.1040    7.0774    5.2486 O   0  0  0  0  0  0  0  0  0  0  0  0
    1.0992    1.1266    7.6089 C   0  0  0  0  0  0  0  0  0  0  0  0
    9.1880    8.9028    2.4282 C   0  0  0  0  0  0  0  0  0  0  0  0
    9.9354    5.2158    3.7545 C   0  0  0  0  0  0  0  0  0  0  0  0
  1  2  1  1  0  0  0
  1  6  1  0  0  0  0
  1 23  1  0  0  0  0
  3  4  1  6  0  0  0
  3  8  1  0  0  0  0
  3 30  1  0  0  0  0
  5  9  1  0  0  0  0
  5 27  1  0  0  0  0
  5 31  1  1  0  0  0
  6  7  1  1  0  0  0
  6 11  1  0  0  0  0
  8 13  1  0  0  0  0
  9 10  1  1  0  0  0
  9 15  1  0  0  0  0
 11 12  1  1  0  0  0
 11 17  1  0  0  0  0
 13 14  1  1  0  0  0
 13 19  1  0  0  0  0
 15 16  1  6  0  0  0
 15 20  1  0  0  0  0
 16 34  1  0  0  0  0
 17 18  1  1  0  0  0
 17 22  1  0  0  0  0
 19  2  1  1  0  0  0
 19 24  1  0  0  0  0
 20 21  1  6  0  0  0
 20 26  1  0  0  0  0
 20 33  1  0  0  0  0
 22 23  1  6  0  0  0
 22 28  1  0  0  0  0
 24 25  1  6  0  0  0
 24 30  1  0  0  0  0
 26 27  1  0  0  0  0
 28 29  1  6  0  0  0
 28 32  1  0  0  0  0
 30 31  1  6  0  0  0
M  END
>  <CHROM.1>
161.09273833,-146.28204318,-93.68910655,-174.73677876,165.65141351,-93.29081660
4.33321649,5.57938335,6.42392963,2.48970216,-0.42345730,2.53648710

>  <Name>
ligand

>  <RI>
0

>  <Rbt.Current_Directory>
/home/itssahil/PROJECTS/Mol_Feturizer/New_Systems/rnas/3TD1

>  <Rbt.Executable>
rbdock ($Id: //depot/dev/client3/rdock/2013.1/src/exe/rbdock.cxx#4 $)

>  <Rbt.Library>
libRbt.so (2013.1, Build901 2013/11/27)

>  <Rbt.Parameter_File>
/export/apps/rDock/src/rDock_2013.1_src/data/scripts/dock_solv.prm

>  <Rbt.Receptor>
prm/blind_docking_60.prm

>  <SCORE>
15.7535

>  <SCORE.INTER>
1.08868

>  <SCORE.INTER.CONST>
1

>  <SCORE.INTER.POLAR>
0

>  <SCORE.INTER.ROT>
6

>  <SCORE.INTER.SOLV>
23.5386

>  <SCORE.INTER.VDW>
-14.7204

>  <SCORE.INTER.norm>
0.03202

>  <SCORE.INTRA>
-2.59891

>  <SCORE.INTRA.DIHEDRAL>
-7.61516

>  <SCORE.INTRA.DIHEDRAL.0>
19.5869

>  <SCORE.INTRA.POLAR>
0

>  <SCORE.INTRA.POLAR.0>
0

>  <SCORE.INTRA.REPUL>
0

>  <SCORE.INTRA.REPUL.0>
0

>  <SCORE.INTRA.SOLV>
0.671042

>  <SCORE.INTRA.SOLV.lig_0>
-70.101

>  <SCORE.INTRA.VDW>
0.873149

>  <SCORE.INTRA.VDW.0>
-3.39718

>  <SCORE.INTRA.norm>
-0.0764385

>  <SCORE.RESTR>
17.2638

>  <SCORE.RESTR.CAVITY>
17.2638

>  <SCORE.RESTR.norm>
0.507758

>  <SCORE.SYSTEM>
0

>  <SCORE.SYSTEM.CONST>
0

>  <SCORE.SYSTEM.DIHEDRAL>
0

>  <SCORE.SYSTEM.SOLV>
0

>  <SCORE.SYSTEM.norm>
0

>  <SCORE.heavy>
34

>  <SCORE.norm>
0.46334

>  <RMSD>
6.138

$$$$
ligand
 OpenBabel11021811483D
libRbt.so/2013.1/901 2013/11/27
 34 36  0  0  0  0  0  0  0  0999 V2000
    1.6883    5.0769    7.2597 C   0  0  2  0  0  0  0  0  0  0  0  0
    2.8201    5.2865    8.1186 O   0  0  0  0  0  0  0  0  0  0  0  0
    6.9403    5.9258    7.1820 C   0  0  2  0  0  0  0  0  0  0  0  0
    8.3006    5.7171    6.6983 N   0  0  0  0  0  0  0  0  0  0  0  0
    5.6852    6.9307    3.7177 C   0  0  2  0  0  0  0  0  0  0  0  0
    0.8783    6.4205    7.1886 C   0  0  2  0  0  0  0  0  0  0  0  0
    1.7004    7.5074    6.6346 N   0  0  0  0  0  0  0  0  0  0  0  0
    6.6025    4.7451    8.1524 C   0  0  0  0  0  0  0  0  0  0  0  0
    6.6911    6.0024    2.9473 C   0  0  2  0  0  0  0  0  0  0  0  0
    6.7248    4.7209    3.5536 O   0  0  0  0  0  0  0  0  0  0  0  0
    0.3912    6.7990    8.6041 C   0  0  1  0  0  0  0  0  0  0  0  0
   -0.3578    8.0239    8.5452 O   0  0  0  0  0  0  0  0  0  0  0  0
    5.1506    4.9808    8.6903 C   0  0  2  0  0  0  0  0  0  0  0  0
    4.7699    3.8906    9.6112 N   0  0  0  0  0  0  0  0  0  0  0  0
    8.1174    6.6766    2.9675 C   0  0  1  0  0  0  0  0  0  0  0  0
    9.1172    5.8224    2.2589 N   0  0  0  0  0  0  0  0  0  0  0  0
   -0.4619    5.6368    9.1656 C   0  0  2  0  0  0  0  0  0  0  0  0
   -0.9143    5.9708   10.4893 O   0  0  0  0  0  0  0  0  0  0  0  0
    4.1292    5.0337    7.5255 C   0  0  2  0  0  0  0  0  0  0  0  0
    8.0243    8.0853    2.2874 C   0  0  1  0  0  0  0  0  0  0  0  0
    7.6174    7.9348    0.9299 O   0  0  0  0  0  0  0  0  0  0  0  0
    0.3976    4.3158    9.1934 C   0  0  2  0  0  0  0  0  0  0  0  0
    0.8716    3.9960    7.8328 O   0  0  0  0  0  0  0  0  0  0  0  0
    4.5238    6.1686    6.5476 C   0  0  2  0  0  0  0  0  0  0  0  0
    3.5837    6.1862    5.4783 O   0  0  0  0  0  0  0  0  0  0  0  0
    6.9670    8.9407    3.0541 C   0  0  0  0  0  0  0  0  0  0  0  0
    5.6531    8.2542    3.0801 O   0  0  0  0  0  0  0  0  0  0  0  0
   -0.4156    3.1066    9.7248 C   0  0  2  0  0  0  0  0  0  0  0  0
   -1.7278    3.1365    9.1693 O   0  0  0  0  0  0  0  0  0  0  0  0
    5.9346    5.9357    5.9585 C   0  0  1  0  0  0  0  0  0  0  0  0
    6.2100    7.0443    5.0700 O   0  0  0  0  0  0  0  0  0  0  0  0
   -0.5451    3.1417   11.2386 C   0  0  0  0  0  0  0  0  0  0  0  0
    9.3638    8.8117    2.2901 C   0  0  0  0  0  0  0  0  0  0  0  0
   10.1629    5.4358    3.2253 C   0  0  0  0  0  0  0  0  0  0  0  0
  1  2  1  1  0  0  0
  1  6  1  0  0  0  0
  1 23  1  0  0  0  0
  3  4  1  6  0  0  0
  3  8  1  0  0  0  0
  3 30  1  0  0  0  0
  5  9  1  0  0  0  0
  5 27  1  0  0  0  0
  5 31  1  1  0  0  0
  6  7  1  1  0  0  0
  6 11  1  0  0  0  0
  8 13  1  0  0  0  0
  9 10  1  1  0  0  0
  9 15  1  0  0  0  0
 11 12  1  6  0  0  0
 11 17  1  0  0  0  0
 13 14  1  1  0  0  0
 13 19  1  0  0  0  0
 15 16  1  6  0  0  0
 15 20  1  0  0  0  0
 16 34  1  0  0  0  0
 17 18  1  1  0  0  0
 17 22  1  0  0  0  0
 19  2  1  1  0  0  0
 19 24  1  0  0  0  0
 20 21  1  6  0  0  0
 20 26  1  0  0  0  0
 20 33  1  0  0  0  0
 22 23  1  6  0  0  0
 22 28  1  0  0  0  0
 24 25  1  6  0  0  0
 24 30  1  0  0  0  0
 26 27  1  0  0  0  0
 28 29  1  6  0  0  0
 28 32  1  0  0  0  0
 30 31  1  6  0  0  0
M  END
>  <CHROM.1>
-122.32556640,-166.47168697,-118.66826535,41.92872111,160.24861708,-80.02426439
4.22119529,5.93489952,6.29712802,2.50405174,-0.30237215,2.29100792

>  <Name>
ligand

>  <RI>
0

>  <Rbt.Current_Directory>
/home/itssahil/PROJECTS/Mol_Feturizer/New_Systems/rnas/3TD1

>  <Rbt.Executable>
rbdock ($Id: //depot/dev/client3/rdock/2013.1/src/exe/rbdock.cxx#4 $)

>  <Rbt.Library>
libRbt.so (2013.1, Build901 2013/11/27)

>  <Rbt.Parameter_File>
/export/apps/rDock/src/rDock_2013.1_src/data/scripts/dock_solv.prm

>  <Rbt.Receptor>
prm/blind_docking_60.prm

>  <SCORE>
25.2734

>  <SCORE.INTER>
5.57419

>  <SCORE.INTER.CONST>
1

>  <SCORE.INTER.POLAR>
0

>  <SCORE.INTER.ROT>
6

>  <SCORE.INTER.SOLV>
21.4829

>  <SCORE.INTER.VDW>
-11.0448

>  <SCORE.INTER.norm>
0.163947

>  <SCORE.INTRA>
-1.51069

>  <SCORE.INTRA.DIHEDRAL>
-5.64185

>  <SCORE.INTRA.DIHEDRAL.0>
19.5869

>  <SCORE.INTRA.POLAR>
0

>  <SCORE.INTRA.POLAR.0>
0

>  <SCORE.INTRA.REPUL>
0

>  <SCORE.INTRA.REPUL.0>
0

>  <SCORE.INTRA.SOLV>
0.702111

>  <SCORE.INTRA.SOLV.lig_0>
-70.101

>  <SCORE.INTRA.VDW>
0.959178

>  <SCORE.INTRA.VDW.0>
-3.39718

>  <SCORE.INTRA.norm>
-0.0444321

>  <SCORE.RESTR>
21.2099

>  <SCORE.RESTR.CAVITY>
21.2099

>  <SCORE.RESTR.norm>
0.62382

>  <SCORE.SYSTEM>
0

>  <SCORE.SYSTEM.CONST>
0

>  <SCORE.SYSTEM.DIHEDRAL>
0

>  <SCORE.SYSTEM.SOLV>
0

>  <SCORE.SYSTEM.norm>
0

>  <SCORE.heavy>
34

>  <SCORE.norm>
0.743335

>  <RMSD>
6.163

$$$$
ligand
 OpenBabel11021811483D
libRbt.so/2013.1/901 2013/11/27
 34 36  0  0  0  0  0  0  0  0999 V2000
    1.5791    5.4727    7.2600 C   0  0  2  0  0  0  0  0  0  0  0  0
    2.7235    5.9861    7.9595 O   0  0  0  0  0  0  0  0  0  0  0  0
    6.9286    6.1104    7.2089 C   0  0  2  0  0  0  0  0  0  0  0  0
    8.2804    5.7193    6.8244 N   0  0  0  0  0  0  0  0  0  0  0  0
    5.8230    7.0107    3.6460 C   0  0  2  0  0  0  0  0  0  0  0  0
    0.2903    5.9946    7.9901 C   0  0  2  0  0  0  0  0  0  0  0  0
    0.2331    7.4646    7.9804 N   0  0  0  0  0  0  0  0  0  0  0  0
    6.4202    5.0662    8.2581 C   0  0  0  0  0  0  0  0  0  0  0  0
    6.8018    6.1305    2.7889 C   0  0  2  0  0  0  0  0  0  0  0  0
    6.8995    4.8323    3.3510 O   0  0  0  0  0  0  0  0  0  0  0  0
    0.2827    5.4779    9.4452 C   0  0  1  0  0  0  0  0  0  0  0  0
   -0.8983    5.9454   10.1171 O   0  0  0  0  0  0  0  0  0  0  0  0
    4.9777    5.4984    8.6889 C   0  0  2  0  0  0  0  0  0  0  0  0
    4.4387    4.5437    9.6786 N   0  0  0  0  0  0  0  0  0  0  0  0
    8.2116    6.8376    2.7471 C   0  0  1  0  0  0  0  0  0  0  0  0
    9.1862    6.0295    1.9544 N   0  0  0  0  0  0  0  0  0  0  0  0
    0.3525    3.9325    9.4262 C   0  0  2  0  0  0  0  0  0  0  0  0
    0.3570    3.4366   10.7762 O   0  0  0  0  0  0  0  0  0  0  0  0
    4.0249    5.5465    7.4672 C   0  0  2  0  0  0  0  0  0  0  0  0
    8.0475    8.2638    2.1189 C   0  0  1  0  0  0  0  0  0  0  0  0
    7.5643    8.1452    0.7834 O   0  0  0  0  0  0  0  0  0  0  0  0
    1.6535    3.4715    8.6650 C   0  0  2  0  0  0  0  0  0  0  0  0
    1.6453    4.0035    7.2883 O   0  0  0  0  0  0  0  0  0  0  0  0
    4.5852    6.5387    6.4176 C   0  0  2  0  0  0  0  0  0  0  0  0
    3.7048    6.5524    5.2987 O   0  0  0  0  0  0  0  0  0  0  0  0
    7.0189    9.0700    2.9729 C   0  0  0  0  0  0  0  0  0  0  0  0
    5.7242    8.3519    3.0538 O   0  0  0  0  0  0  0  0  0  0  0  0
    1.7648    1.9261    8.5914 C   0  0  2  0  0  0  0  0  0  0  0  0
    3.0969    1.5628    8.2384 O   0  0  0  0  0  0  0  0  0  0  0  0
    5.9895    6.1087    5.9334 C   0  0  1  0  0  0  0  0  0  0  0  0
    6.4244    7.0954    4.9682 O   0  0  0  0  0  0  0  0  0  0  0  0
    0.8267    1.3470    7.5453 C   0  0  0  0  0  0  0  0  0  0  0  0
    9.3685    9.0215    2.0663 C   0  0  0  0  0  0  0  0  0  0  0  0
    8.5847    5.7398    0.6386 C   0  0  0  0  0  0  0  0  0  0  0  0
  1  2  1  1  0  0  0
  1  6  1  0  0  0  0
  1 23  1  0  0  0  0
  3  4  1  6  0  0  0
  3  8  1  0  0  0  0
  3 30  1  0  0  0  0
  5  9  1  0  0  0  0
  5 27  1  0  0  0  0
  5 31  1  1  0  0  0
  6  7  1  1  0  0  0
  6 11  1  0  0  0  0
  8 13  1  0  0  0  0
  9 10  1  1  0  0  0
  9 15  1  0  0  0  0
 11 12  1  6  0  0  0
 11 17  1  0  0  0  0
 13 14  1  1  0  0  0
 13 19  1  0  0  0  0
 15 16  1  6  0  0  0
 15 20  1  0  0  0  0
 16 34  1  0  0  0  0
 17 18  1  1  0  0  0
 17 22  1  0  0  0  0
 19  2  1  1  0  0  0
 19 24  1  0  0  0  0
 20 21  1  6  0  0  0
 20 26  1  0  0  0  0
 20 33  1  0  0  0  0
 22 23  1  6  0  0  0
 22 28  1  0  0  0  0
 24 25  1  6  0  0  0
 24 30  1  0  0  0  0
 26 27  1  0  0  0  0
 28 29  1  6  0  0  0
 28 32  1  0  0  0  0
 30 31  1  6  0  0  0
M  END
>  <CHROM.1>
176.81242696,-148.72349879,52.55344358,-164.11636957,167.80226508,-93.27084642
4.48212213,5.70315980,6.10218392,2.48394221,-0.52147378,2.58800080

>  <Name>
ligand

>  <RI>
0

>  <Rbt.Current_Directory>
/home/itssahil/PROJECTS/Mol_Feturizer/New_Systems/rnas/3TD1

>  <Rbt.Executable>
rbdock ($Id: //depot/dev/client3/rdock/2013.1/src/exe/rbdock.cxx#4 $)

>  <Rbt.Library>
libRbt.so (2013.1, Build901 2013/11/27)

>  <Rbt.Parameter_File>
/export/apps/rDock/src/rDock_2013.1_src/data/scripts/dock_solv.prm

>  <Rbt.Receptor>
prm/blind_docking_40.prm

>  <SCORE>
14.4508

>  <SCORE.INTER>
2.12992

>  <SCORE.INTER.CONST>
1

>  <SCORE.INTER.POLAR>
0

>  <SCORE.INTER.ROT>
6

>  <SCORE.INTER.SOLV>
22.5273

>  <SCORE.INTER.VDW>
-13.6891

>  <SCORE.INTER.norm>
0.0626446

>  <SCORE.INTRA>
1.63316

>  <SCORE.INTRA.DIHEDRAL>
-9.78792

>  <SCORE.INTRA.DIHEDRAL.0>
19.5869

>  <SCORE.INTRA.POLAR>
0

>  <SCORE.INTRA.POLAR.0>
0

>  <SCORE.INTRA.REPUL>
0

>  <SCORE.INTRA.REPUL.0>
0

>  <SCORE.INTRA.SOLV>
-0.361911

>  <SCORE.INTRA.SOLV.lig_0>
-70.101

>  <SCORE.INTRA.VDW>
6.70808

>  <SCORE.INTRA.VDW.0>
-3.39718

>  <SCORE.INTRA.norm>
0.0480342

>  <SCORE.RESTR>
10.6877

>  <SCORE.RESTR.CAVITY>
10.6877

>  <SCORE.RESTR.norm>
0.314345

>  <SCORE.SYSTEM>
0

>  <SCORE.SYSTEM.CONST>
0

>  <SCORE.SYSTEM.DIHEDRAL>
0

>  <SCORE.SYSTEM.SOLV>
0

>  <SCORE.SYSTEM.norm>
0

>  <SCORE.heavy>
34

>  <SCORE.norm>
0.425024

>  <RMSD>
6.176

$$$$
ligand
 OpenBabel11021811483D
libRbt.so/2013.1/901 2013/11/27
 34 36  0  0  0  0  0  0  0  0999 V2000
    1.6814    5.2151    7.2519 C   0  0  2  0  0  0  0  0  0  0  0  0
    2.8173    5.4801    8.0898 O   0  0  0  0  0  0  0  0  0  0  0  0
    6.9745    5.9123    7.1994 C   0  0  2  0  0  0  0  0  0  0  0  0
    8.3304    5.6318    6.7402 N   0  0  0  0  0  0  0  0  0  0  0  0
    5.7570    6.9288    3.7158 C   0  0  2  0  0  0  0  0  0  0  0  0
    0.9140    6.5679    7.0335 C   0  0  2  0  0  0  0  0  0  0  0  0
    1.7709    7.5635    6.3713 N   0  0  0  0  0  0  0  0  0  0  0  0
    6.5705    4.7701    8.1903 C   0  0  0  0  0  0  0  0  0  0  0  0
    6.7356    6.0132    2.8965 C   0  0  2  0  0  0  0  0  0  0  0  0
    6.7844    4.7201    3.4763 O   0  0  0  0  0  0  0  0  0  0  0  0
    0.4359    7.1102    8.3980 C   0  0  1  0  0  0  0  0  0  0  0  0
   -0.2743    8.3443    8.2047 O   0  0  0  0  0  0  0  0  0  0  0  0
    5.1236    5.0828    8.7018 C   0  0  2  0  0  0  0  0  0  0  0  0
    4.6815    4.0318    9.6407 N   0  0  0  0  0  0  0  0  0  0  0  0
    8.1639    6.6835    2.8851 C   0  0  1  0  0  0  0  0  0  0  0  0
    9.1384    5.8409    2.1290 N   0  0  0  0  0  0  0  0  0  0  0  0
   -0.4544    6.0414    9.0754 C   0  0  2  0  0  0  0  0  0  0  0  0
   -0.8989    6.5286   10.3535 O   0  0  0  0  0  0  0  0  0  0  0  0
    4.1215    5.1555    7.5214 C   0  0  2  0  0  0  0  0  0  0  0  0
    8.0539    8.1054    2.2358 C   0  0  1  0  0  0  0  0  0  0  0  0
    7.6042    7.9824    0.8890 O   0  0  0  0  0  0  0  0  0  0  0  0
    0.3633    4.7050    9.2486 C   0  0  2  0  0  0  0  0  0  0  0  0
    0.8300    4.2274    7.9324 O   0  0  0  0  0  0  0  0  0  0  0  0
    4.5803    6.2492    6.5247 C   0  0  2  0  0  0  0  0  0  0  0  0
    3.6565    6.2850    5.4418 O   0  0  0  0  0  0  0  0  0  0  0  0
    7.0236    8.9483    3.0516 C   0  0  0  0  0  0  0  0  0  0  0  0
    5.7091    8.2645    3.1054 O   0  0  0  0  0  0  0  0  0  0  0  0
   -0.4886    3.5851    9.9014 C   0  0  2  0  0  0  0  0  0  0  0  0
   -1.1851    4.1140   11.0267 O   0  0  0  0  0  0  0  0  0  0  0  0
    5.9869    5.9398    5.9614 C   0  0  1  0  0  0  0  0  0  0  0  0
    6.3243    7.0147    5.0530 O   0  0  0  0  0  0  0  0  0  0  0  0
    0.3773    2.4329   10.3835 C   0  0  0  0  0  0  0  0  0  0  0  0
    9.3950    8.8284    2.2106 C   0  0  0  0  0  0  0  0  0  0  0  0
   10.2100    5.4288    3.0558 C   0  0  0  0  0  0  0  0  0  0  0  0
  1  2  1  1  0  0  0
  1  6  1  0  0  0  0
  1 23  1  0  0  0  0
  3  4  1  6  0  0  0
  3  8  1  0  0  0  0
  3 30  1  0  0  0  0
  5  9  1  0  0  0  0
  5 27  1  0  0  0  0
  5 31  1  1  0  0  0
  6  7  1  1  0  0  0
  6 11  1  0  0  0  0
  8 13  1  0  0  0  0
  9 10  1  1  0  0  0
  9 15  1  0  0  0  0
 11 12  1  6  0  0  0
 11 17  1  0  0  0  0
 13 14  1  1  0  0  0
 13 19  1  0  0  0  0
 15 16  1  6  0  0  0
 15 20  1  0  0  0  0
 16 34  1  0  0  0  0
 17 18  1  1  0  0  0
 17 22  1  0  0  0  0
 19  2  1  1  0  0  0
 19 24  1  0  0  0  0
 20 21  1  6  0  0  0
 20 26  1  0  0  0  0
 20 33  1  0  0  0  0
 22 23  1  6  0  0  0
 22 28  1  0  0  0  0
 24 25  1  6  0  0  0
 24 30  1  0  0  0  0
 26 27  1  0  0  0  0
 28 29  1  1  0  0  0
 28 32  1  0  0  0  0
 30 31  1  6  0  0  0
M  END
>  <CHROM.1>
-120.88626232,-162.32251900,-118.46090503,-46.18127204,163.26428666,-84.67975923
4.29066031,6.05674248,6.28679181,2.51405164,-0.35792737,2.30834383

>  <Name>
ligand

>  <RI>
0

>  <Rbt.Current_Directory>
/home/itssahil/PROJECTS/Mol_Feturizer/New_Systems/rnas/3TD1

>  <Rbt.Executable>
rbdock ($Id: //depot/dev/client3/rdock/2013.1/src/exe/rbdock.cxx#4 $)

>  <Rbt.Library>
libRbt.so (2013.1, Build901 2013/11/27)

>  <Rbt.Parameter_File>
/export/apps/rDock/src/rDock_2013.1_src/data/scripts/dock_solv.prm

>  <Rbt.Receptor>
prm/blind_docking_60.prm

>  <SCORE>
21.964

>  <SCORE.INTER>
2.62316

>  <SCORE.INTER.CONST>
1

>  <SCORE.INTER.POLAR>
0

>  <SCORE.INTER.ROT>
6

>  <SCORE.INTER.SOLV>
22.5736

>  <SCORE.INTER.VDW>
-13.3757

>  <SCORE.INTER.norm>
0.0771516

>  <SCORE.INTRA>
-1.03976

>  <SCORE.INTRA.DIHEDRAL>
-5.12029

>  <SCORE.INTRA.DIHEDRAL.0>
19.5869

>  <SCORE.INTRA.POLAR>
0

>  <SCORE.INTRA.POLAR.0>
0

>  <SCORE.INTRA.REPUL>
0

>  <SCORE.INTRA.REPUL.0>
0

>  <SCORE.INTRA.SOLV>
0.545832

>  <SCORE.INTRA.SOLV.lig_0>
-70.101

>  <SCORE.INTRA.VDW>
1.24747

>  <SCORE.INTRA.VDW.0>
-3.39718

>  <SCORE.INTRA.norm>
-0.0305812

>  <SCORE.RESTR>
20.3806

>  <SCORE.RESTR.CAVITY>
20.3806

>  <SCORE.RESTR.norm>
0.599429

>  <SCORE.SYSTEM>
0

>  <SCORE.SYSTEM.CONST>
0

>  <SCORE.SYSTEM.DIHEDRAL>
0

>  <SCORE.SYSTEM.SOLV>
0

>  <SCORE.SYSTEM.norm>
0

>  <SCORE.heavy>
34

>  <SCORE.norm>
0.645999

>  <RMSD>
6.176

$$$$
ligand
 OpenBabel11021811483D
libRbt.so/2013.1/901 2013/11/27
 34 36  0  0  0  0  0  0  0  0999 V2000
    2.3072    4.4184    9.0003 C   0  0  2  0  0  0  0  0  0  0  0  0
    1.6177    4.6517    7.7622 O   0  0  0  0  0  0  0  0  0  0  0  0
    2.6766    6.8427    4.2494 C   0  0  2  0  0  0  0  0  0  0  0  0
    3.0734    7.9287    3.3599 N   0  0  0  0  0  0  0  0  0  0  0  0
    6.2188    5.8195    5.3466 C   0  0  2  0  0  0  0  0  0  0  0  0
    2.9275    2.9766    8.9454 C   0  0  2  0  0  0  0  0  0  0  0  0
    3.8865    2.8530    7.8367 N   0  0  0  0  0  0  0  0  0  0  0  0
    1.4109    7.3212    5.0361 C   0  0  0  0  0  0  0  0  0  0  0  0
    7.1423    7.0621    5.0817 C   0  0  2  0  0  0  0  0  0  0  0  0
    6.4917    8.2464    5.5117 O   0  0  0  0  0  0  0  0  0  0  0  0
    1.7957    1.9394    8.7794 C   0  0  1  0  0  0  0  0  0  0  0  0
    2.3558    0.6168    8.7365 O   0  0  0  0  0  0  0  0  0  0  0  0
    0.9704    6.1472    5.9745 C   0  0  2  0  0  0  0  0  0  0  0  0
   -0.2219    6.5420    6.7518 N   0  0  0  0  0  0  0  0  0  0  0  0
    7.4741    7.1254    3.5404 C   0  0  1  0  0  0  0  0  0  0  0  0
    8.3402    8.3029    3.2329 N   0  0  0  0  0  0  0  0  0  0  0  0
    0.7985    2.0972    9.9517 C   0  0  2  0  0  0  0  0  0  0  0  0
   -0.2682    1.1438    9.8048 O   0  0  0  0  0  0  0  0  0  0  0  0
    2.1069    5.7662    6.9573 C   0  0  2  0  0  0  0  0  0  0  0  0
    8.1903    5.7969    3.1188 C   0  0  1  0  0  0  0  0  0  0  0  0
    9.4141    5.6649    3.8370 O   0  0  0  0  0  0  0  0  0  0  0  0
    0.2272    3.5662    9.9655 C   0  0  2  0  0  0  0  0  0  0  0  0
    1.3334    4.5343   10.0966 O   0  0  0  0  0  0  0  0  0  0  0  0
    3.3665    5.3587    6.1528 C   0  0  2  0  0  0  0  0  0  0  0  0
    4.4010    5.0312    7.0747 O   0  0  0  0  0  0  0  0  0  0  0  0
    7.2550    4.5949    3.4624 C   0  0  0  0  0  0  0  0  0  0  0  0
    6.9026    4.5971    4.9026 O   0  0  0  0  0  0  0  0  0  0  0  0
   -0.7621    3.7921   11.1386 C   0  0  2  0  0  0  0  0  0  0  0  0
   -0.3941    2.9608   12.2362 O   0  0  0  0  0  0  0  0  0  0  0  0
    3.8571    6.5178    5.2543 C   0  0  1  0  0  0  0  0  0  0  0  0
    5.0241    6.0384    4.5453 O   0  0  0  0  0  0  0  0  0  0  0  0
   -2.1877    3.4444   10.7428 C   0  0  0  0  0  0  0  0  0  0  0  0
    8.5226    5.7729    1.6319 C   0  0  0  0  0  0  0  0  0  0  0  0
    7.6901    9.0895    2.1672 C   0  0  0  0  0  0  0  0  0  0  0  0
  1  2  1  6  0  0  0
  1  6  1  0  0  0  0
  1 23  1  0  0  0  0
  3  4  1  6  0  0  0
  3  8  1  0  0  0  0
  3 30  1  0  0  0  0
  5  9  1  0  0  0  0
  5 27  1  0  0  0  0
  5 31  1  6  0  0  0
  6  7  1  6  0  0  0
  6 11  1  0  0  0  0
  8 13  1  0  0  0  0
  9 10  1  6  0  0  0
  9 15  1  0  0  0  0
 11 12  1  1  0  0  0
 11 17  1  0  0  0  0
 13 14  1  1  0  0  0
 13 19  1  0  0  0  0
 15 16  1  1  0  0  0
 15 20  1  0  0  0  0
 16 34  1  0  0  0  0
 17 18  1  6  0  0  0
 17 22  1  0  0  0  0
 19  2  1  6  0  0  0
 19 24  1  0  0  0  0
 20 21  1  1  0  0  0
 20 26  1  0  0  0  0
 20 33  1  0  0  0  0
 22 23  1  1  0  0  0
 22 28  1  0  0  0  0
 24 25  1  1  0  0  0
 24 30  1  0  0  0  0
 26 27  1  0  0  0  0
 28 29  1  1  0  0  0
 28 32  1  0  0  0  0
 30 31  1  6  0  0  0
M  END
>  <CHROM.1>
-118.97221502,-160.55685339,-126.09718177,30.36022950,174.63355602,-101.69165539
3.65530605,5.11027842,6.55770642,-2.41596645,0.40218148,-0.62901318

>  <Name>
ligand

>  <RI>
0

>  <Rbt.Current_Directory>
/home/itssahil/PROJECTS/Mol_Feturizer/New_Systems/rnas/3TD1

>  <Rbt.Executable>
rbdock ($Id: //depot/dev/client3/rdock/2013.1/src/exe/rbdock.cxx#4 $)

>  <Rbt.Library>
libRbt.so (2013.1, Build901 2013/11/27)

>  <Rbt.Parameter_File>
/export/apps/rDock/src/rDock_2013.1_src/data/scripts/dock_solv.prm

>  <Rbt.Receptor>
prm/blind_docking_60.prm

>  <SCORE>
105.459

>  <SCORE.INTER>
92.9105

>  <SCORE.INTER.CONST>
1

>  <SCORE.INTER.POLAR>
0

>  <SCORE.INTER.ROT>
6

>  <SCORE.INTER.SOLV>
33.8973

>  <SCORE.INTER.VDW>
43.0412

>  <SCORE.INTER.norm>
2.73266

>  <SCORE.INTRA>
1.94902

>  <SCORE.INTRA.DIHEDRAL>
-1.02681

>  <SCORE.INTRA.DIHEDRAL.0>
19.5869

>  <SCORE.INTRA.POLAR>
0

>  <SCORE.INTRA.POLAR.0>
0

>  <SCORE.INTRA.REPUL>
0

>  <SCORE.INTRA.REPUL.0>
0

>  <SCORE.INTRA.SOLV>
-0.529703

>  <SCORE.INTRA.SOLV.lig_0>
-70.101

>  <SCORE.INTRA.VDW>
2.72727

>  <SCORE.INTRA.VDW.0>
-3.39718

>  <SCORE.INTRA.norm>
0.057324

>  <SCORE.RESTR>
10.5992

>  <SCORE.RESTR.CAVITY>
10.5992

>  <SCORE.RESTR.norm>
0.31174

>  <SCORE.SYSTEM>
0

>  <SCORE.SYSTEM.CONST>
0

>  <SCORE.SYSTEM.DIHEDRAL>
0

>  <SCORE.SYSTEM.SOLV>
0

>  <SCORE.SYSTEM.norm>
0

>  <SCORE.heavy>
34

>  <SCORE.norm>
3.10173

>  <RMSD>
6.177

$$$$
ligand
 OpenBabel11021811483D
libRbt.so/2013.1/901 2013/11/27
 34 36  0  0  0  0  0  0  0  0999 V2000
    2.3254    4.4071    9.0164 C   0  0  2  0  0  0  0  0  0  0  0  0
    1.6428    4.6376    7.7740 O   0  0  0  0  0  0  0  0  0  0  0  0
    2.6647    6.8684    4.2754 C   0  0  2  0  0  0  0  0  0  0  0  0
    3.0544    7.9639    3.3943 N   0  0  0  0  0  0  0  0  0  0  0  0
    6.2222    5.8355    5.3091 C   0  0  2  0  0  0  0  0  0  0  0  0
    2.9498    2.9669    8.9666 C   0  0  2  0  0  0  0  0  0  0  0  0
    3.9158    2.8449    7.8637 N   0  0  0  0  0  0  0  0  0  0  0  0
    1.4116    7.3421    5.0847 C   0  0  0  0  0  0  0  0  0  0  0  0
    7.1518    7.0631    4.9993 C   0  0  2  0  0  0  0  0  0  0  0  0
    6.5224    8.2622    5.4196 O   0  0  0  0  0  0  0  0  0  0  0  0
    1.8217    1.9266    8.7946 C   0  0  1  0  0  0  0  0  0  0  0  0
    2.3855    0.6054    8.7562 O   0  0  0  0  0  0  0  0  0  0  0  0
    0.9784    6.1582    6.0140 C   0  0  2  0  0  0  0  0  0  0  0  0
   -0.2018    6.5481    6.8120 N   0  0  0  0  0  0  0  0  0  0  0  0
    7.4501    7.0924    3.4502 C   0  0  1  0  0  0  0  0  0  0  0  0
    8.3207    8.2548    3.1003 N   0  0  0  0  0  0  0  0  0  0  0  0
    0.8171    2.0828    9.9607 C   0  0  2  0  0  0  0  0  0  0  0  0
   -0.2463    1.1265    9.8082 O   0  0  0  0  0  0  0  0  0  0  0  0
    2.1262    5.7601    6.9768 C   0  0  2  0  0  0  0  0  0  0  0  0
    8.1438    5.7486    3.0398 C   0  0  1  0  0  0  0  0  0  0  0  0
    9.3819    5.6184    3.7336 O   0  0  0  0  0  0  0  0  0  0  0  0
    0.2418    3.5503    9.9698 C   0  0  2  0  0  0  0  0  0  0  0  0
    1.3447    4.5215   10.1067 O   0  0  0  0  0  0  0  0  0  0  0  0
    3.3733    5.3576    6.1505 C   0  0  2  0  0  0  0  0  0  0  0  0
    4.4184    5.0142    7.0545 O   0  0  0  0  0  0  0  0  0  0  0  0
    7.2047    4.5633    3.4277 C   0  0  0  0  0  0  0  0  0  0  0  0
    6.8841    4.5976    4.8749 O   0  0  0  0  0  0  0  0  0  0  0  0
   -0.7552    3.7747   11.1367 C   0  0  2  0  0  0  0  0  0  0  0  0
   -1.4784    2.5711   11.3806 O   0  0  0  0  0  0  0  0  0  0  0  0
    3.8569    6.5259    5.2603 C   0  0  1  0  0  0  0  0  0  0  0  0
    5.0123    6.0507    4.5299 O   0  0  0  0  0  0  0  0  0  0  0  0
   -1.7589    4.8687   10.8121 C   0  0  0  0  0  0  0  0  0  0  0  0
    8.4431    5.6918    1.5468 C   0  0  0  0  0  0  0  0  0  0  0  0
    7.6169    9.0737    2.0949 C   0  0  0  0  0  0  0  0  0  0  0  0
  1  2  1  6  0  0  0
  1  6  1  0  0  0  0
  1 23  1  0  0  0  0
  3  4  1  6  0  0  0
  3  8  1  0  0  0  0
  3 30  1  0  0  0  0
  5  9  1  0  0  0  0
  5 27  1  0  0  0  0
  5 31  1  6  0  0  0
  6  7  1  6  0  0  0
  6 11  1  0  0  0  0
  8 13  1  0  0  0  0
  9 10  1  6  0  0  0
  9 15  1  0  0  0  0
 11 12  1  1  0  0  0
 11 17  1  0  0  0  0
 13 14  1  1  0  0  0
 13 19  1  0  0  0  0
 15 16  1  1  0  0  0
 15 20  1  0  0  0  0
 16 34  1  0  0  0  0
 17 18  1  6  0  0  0
 17 22  1  0  0  0  0
 19  2  1  6  0  0  0
 19 24  1  0  0  0  0
 20 21  1  1  0  0  0
 20 26  1  0  0  0  0
 20 33  1  0  0  0  0
 22 23  1  1  0  0  0
 22 28  1  0  0  0  0
 24 25  1  1  0  0  0
 24 30  1  0  0  0  0
 26 27  1  0  0  0  0
 28 29  1  6  0  0  0
 28 32  1  0  0  0  0
 30 31  1  6  0  0  0
M  END
>  <CHROM.1>
-119.50408936,-159.00341874,-122.57212085,-34.09799274,173.75850576,-103.09832159
3.63133509,5.13211154,6.51615200,-2.44689789,0.43887516,-0.58627479

>  <Name>
ligand

>  <RI>
0

>  <Rbt.Current_Directory>
/home/itssahil/PROJECTS/Mol_Feturizer/New_Systems/rnas/3TD1

>  <Rbt.Executable>
rbdock ($Id: //depot/dev/client3/rdock/2013.1/src/exe/rbdock.cxx#4 $)

>  <Rbt.Library>
libRbt.so (2013.1, Build901 2013/11/27)

>  <Rbt.Parameter_File>
/export/apps/rDock/src/rDock_2013.1_src/data/scripts/dock_solv.prm

>  <Rbt.Receptor>
prm/blind_docking_60.prm

>  <SCORE>
107.648

>  <SCORE.INTER>
94.7937

>  <SCORE.INTER.CONST>
1

>  <SCORE.INTER.POLAR>
0

>  <SCORE.INTER.ROT>
6

>  <SCORE.INTER.SOLV>
33.3547

>  <SCORE.INTER.VDW>
44.4776

>  <SCORE.INTER.norm>
2.78805

>  <SCORE.INTRA>
2.24548

>  <SCORE.INTRA.DIHEDRAL>
-0.969742

>  <SCORE.INTRA.DIHEDRAL.0>
19.5869

>  <SCORE.INTRA.POLAR>
0

>  <SCORE.INTRA.POLAR.0>
0

>  <SCORE.INTRA.REPUL>
0

>  <SCORE.INTRA.REPUL.0>
0

>  <SCORE.INTRA.SOLV>
-0.465815

>  <SCORE.INTRA.SOLV.lig_0>
-70.101

>  <SCORE.INTRA.VDW>
2.96326

>  <SCORE.INTRA.VDW.0>
-3.39718

>  <SCORE.INTRA.norm>
0.0660435

>  <SCORE.RESTR>
10.6084

>  <SCORE.RESTR.CAVITY>
10.6084

>  <SCORE.RESTR.norm>
0.312013

>  <SCORE.SYSTEM>
0

>  <SCORE.SYSTEM.CONST>
0

>  <SCORE.SYSTEM.DIHEDRAL>
0

>  <SCORE.SYSTEM.SOLV>
0

>  <SCORE.SYSTEM.norm>
0

>  <SCORE.heavy>
34

>  <SCORE.norm>
3.16611

>  <RMSD>
6.182

$$$$
ligand
 OpenBabel11021811483D
libRbt.so/2013.1/901 2013/11/27
 34 36  0  0  0  0  0  0  0  0999 V2000
    2.7485    5.8703    5.9637 C   0  0  2  0  0  0  0  0  0  0  0  0
    3.7692    6.8780    6.0371 O   0  0  0  0  0  0  0  0  0  0  0  0
    7.9919    7.1273    5.4306 C   0  0  2  0  0  0  0  0  0  0  0  0
    9.4002    6.7637    5.3178 N   0  0  0  0  0  0  0  0  0  0  0  0
    8.8930    7.4848    2.9046 C   0  0  2  0  0  0  0  0  0  0  0  0
    1.4064    6.5011    6.4809 C   0  0  2  0  0  0  0  0  0  0  0  0
    1.0036    7.6469    5.6508 N   0  0  0  0  0  0  0  0  0  0  0  0
    7.4985    6.6562    6.8392 C   0  0  0  0  0  0  0  0  0  0  0  0
    8.7942    8.5438    1.7487 C   0  0  2  0  0  0  0  0  0  0  0  0
    7.8199    9.5216    2.0732 O   0  0  0  0  0  0  0  0  0  0  0  0
    1.5852    6.9513    7.9471 C   0  0  1  0  0  0  0  0  0  0  0  0
    0.3581    7.5224    8.4295 O   0  0  0  0  0  0  0  0  0  0  0  0
    5.9928    7.0669    6.9703 C   0  0  2  0  0  0  0  0  0  0  0  0
    5.4657    6.6418    8.2830 N   0  0  0  0  0  0  0  0  0  0  0  0
    8.4231    7.7965    0.4095 C   0  0  1  0  0  0  0  0  0  0  0  0
    8.3013    8.7650   -0.7212 N   0  0  0  0  0  0  0  0  0  0  0  0
    2.0168    5.7310    8.7946 C   0  0  2  0  0  0  0  0  0  0  0  0
    2.1978    6.1377   10.1623 O   0  0  0  0  0  0  0  0  0  0  0  0
    5.1404    6.4148    5.8519 C   0  0  2  0  0  0  0  0  0  0  0  0
    9.5289    6.7308    0.0979 C   0  0  1  0  0  0  0  0  0  0  0  0
   10.7832    7.3825   -0.0836 O   0  0  0  0  0  0  0  0  0  0  0  0
    3.3550    5.1321    8.2156 C   0  0  2  0  0  0  0  0  0  0  0  0
    3.1607    4.7377    6.8068 O   0  0  0  0  0  0  0  0  0  0  0  0
    5.6901    6.8466    4.4694 C   0  0  2  0  0  0  0  0  0  0  0  0
    4.9045    6.2220    3.4594 O   0  0  0  0  0  0  0  0  0  0  0  0
    9.6263    5.7452    1.3048 C   0  0  0  0  0  0  0  0  0  0  0  0
    9.9077    6.4788    2.5622 O   0  0  0  0  0  0  0  0  0  0  0  0
    3.8244    3.8865    9.0120 C   0  0  2  0  0  0  0  0  0  0  0  0
    2.7162    3.3241    9.7096 O   0  0  0  0  0  0  0  0  0  0  0  0
    7.1620    6.4078    4.2894 C   0  0  1  0  0  0  0  0  0  0  0  0
    7.5810    6.8602    2.9801 O   0  0  0  0  0  0  0  0  0  0  0  0
    4.8902    4.2454   10.0342 C   0  0  0  0  0  0  0  0  0  0  0  0
    9.2269    5.9480   -1.1740 C   0  0  0  0  0  0  0  0  0  0  0  0
    7.0082    9.4640   -0.5942 C   0  0  0  0  0  0  0  0  0  0  0  0
  1  2  1  1  0  0  0
  1  6  1  0  0  0  0
  1 23  1  0  0  0  0
  3  4  1  6  0  0  0
  3  8  1  0  0  0  0
  3 30  1  0  0  0  0
  5  9  1  0  0  0  0
  5 27  1  0  0  0  0
  5 31  1  6  0  0  0
  6  7  1  6  0  0  0
  6 11  1  0  0  0  0
  8 13  1  0  0  0  0
  9 10  1  1  0  0  0
  9 15  1  0  0  0  0
 11 12  1  1  0  0  0
 11 17  1  0  0  0  0
 13 14  1  1  0  0  0
 13 19  1  0  0  0  0
 15 16  1  6  0  0  0
 15 20  1  0  0  0  0
 16 34  1  0  0  0  0
 17 18  1  1  0  0  0
 17 22  1  0  0  0  0
 19  2  1  1  0  0  0
 19 24  1  0  0  0  0
 20 21  1  6  0  0  0
 20 26  1  0  0  0  0
 20 33  1  0  0  0  0
 22 23  1  6  0  0  0
 22 28  1  0  0  0  0
 24 25  1  6  0  0  0
 24 30  1  0  0  0  0
 26 27  1  0  0  0  0
 28 29  1  1  0  0  0
 28 32  1  0  0  0  0
 30 31  1  6  0  0  0
M  END
>  <CHROM.1>
168.27278920,-133.79934947,-76.82064846,21.42527581,19.70015105,-148.80018524
5.81782763,6.62650298,4.87165356,2.28196803,-0.25191040,2.01818822

>  <Name>
ligand

>  <RI>
0

>  <Rbt.Current_Directory>
/home/itssahil/PROJECTS/Mol_Feturizer/New_Systems/rnas/3TD1

>  <Rbt.Executable>
rbdock ($Id: //depot/dev/client3/rdock/2013.1/src/exe/rbdock.cxx#4 $)

>  <Rbt.Library>
libRbt.so (2013.1, Build901 2013/11/27)

>  <Rbt.Parameter_File>
/export/apps/rDock/src/rDock_2013.1_src/data/scripts/dock_solv.prm

>  <Rbt.Receptor>
prm/blind_docking_40.prm

>  <SCORE>
19.8734

>  <SCORE.INTER>
1.56759

>  <SCORE.INTER.CONST>
1

>  <SCORE.INTER.POLAR>
0

>  <SCORE.INTER.ROT>
6

>  <SCORE.INTER.SOLV>
21.4504

>  <SCORE.INTER.VDW>
-13.7051

>  <SCORE.INTER.norm>
0.0461055

>  <SCORE.INTRA>
8.19348

>  <SCORE.INTRA.DIHEDRAL>
0.687242

>  <SCORE.INTRA.DIHEDRAL.0>
19.5869

>  <SCORE.INTRA.POLAR>
0

>  <SCORE.INTRA.POLAR.0>
0

>  <SCORE.INTRA.REPUL>
0

>  <SCORE.INTRA.REPUL.0>
0

>  <SCORE.INTRA.SOLV>
3.61139

>  <SCORE.INTRA.SOLV.lig_0>
-70.101

>  <SCORE.INTRA.VDW>
6.04416

>  <SCORE.INTRA.VDW.0>
-3.39718

>  <SCORE.INTRA.norm>
0.240985

>  <SCORE.RESTR>
10.1124

>  <SCORE.RESTR.CAVITY>
10.1124

>  <SCORE.RESTR.norm>
0.297423

>  <SCORE.SYSTEM>
0

>  <SCORE.SYSTEM.CONST>
0

>  <SCORE.SYSTEM.DIHEDRAL>
0

>  <SCORE.SYSTEM.SOLV>
0

>  <SCORE.SYSTEM.norm>
0

>  <SCORE.heavy>
34

>  <SCORE.norm>
0.584513

>  <RMSD>
6.184

$$$$
ligand
 OpenBabel11021811483D
libRbt.so/2013.1/901 2013/11/27
 34 36  0  0  0  0  0  0  0  0999 V2000
    1.9253    4.5902    8.9878 C   0  0  2  0  0  0  0  0  0  0  0  0
    1.2261    4.9623    7.7898 O   0  0  0  0  0  0  0  0  0  0  0  0
    3.0595    6.2792    4.1613 C   0  0  2  0  0  0  0  0  0  0  0  0
    3.6981    7.1236    3.1577 N   0  0  0  0  0  0  0  0  0  0  0  0
    6.4254    5.7796    5.8160 C   0  0  2  0  0  0  0  0  0  0  0  0
    2.4053    3.1035    8.8271 C   0  0  2  0  0  0  0  0  0  0  0  0
    3.3167    2.9608    7.6811 N   0  0  0  0  0  0  0  0  0  0  0  0
    1.7272    6.9826    4.5855 C   0  0  0  0  0  0  0  0  0  0  0  0
    6.8713    7.1960    5.3043 C   0  0  2  0  0  0  0  0  0  0  0  0
    5.8479    8.1442    5.5582 O   0  0  0  0  0  0  0  0  0  0  0  0
    1.1767    2.1874    8.6388 C   0  0  1  0  0  0  0  0  0  0  0  0
    1.6083    0.8240    8.4990 O   0  0  0  0  0  0  0  0  0  0  0  0
    1.0295    6.0653    5.6460 C   0  0  2  0  0  0  0  0  0  0  0  0
   -0.2367    6.6813    6.0918 N   0  0  0  0  0  0  0  0  0  0  0  0
    7.1845    7.0999    3.7609 C   0  0  1  0  0  0  0  0  0  0  0  0
    7.5994    8.4293    3.2207 N   0  0  0  0  0  0  0  0  0  0  0  0
    0.2323    2.3638    9.8515 C   0  0  2  0  0  0  0  0  0  0  0  0
   -0.9232    1.5237    9.6849 O   0  0  0  0  0  0  0  0  0  0  0  0
    1.9436    5.8481    6.8789 C   0  0  2  0  0  0  0  0  0  0  0  0
    8.3188    6.0422    3.5365 C   0  0  1  0  0  0  0  0  0  0  0  0
    9.5028    6.4607    4.2102 O   0  0  0  0  0  0  0  0  0  0  0  0
   -0.1976    3.8756    9.9712 C   0  0  2  0  0  0  0  0  0  0  0  0
    0.9981    4.7275   10.1215 O   0  0  0  0  0  0  0  0  0  0  0  0
    3.2794    5.2102    6.4219 C   0  0  2  0  0  0  0  0  0  0  0  0
    4.1085    5.0373    7.5665 O   0  0  0  0  0  0  0  0  0  0  0  0
    7.8468    4.6729    4.1194 C   0  0  0  0  0  0  0  0  0  0  0  0
    7.4932    4.8050    5.5533 O   0  0  0  0  0  0  0  0  0  0  0  0
   -1.1276    4.1188   11.1884 C   0  0  2  0  0  0  0  0  0  0  0  0
   -0.7023    3.3072   12.2800 O   0  0  0  0  0  0  0  0  0  0  0  0
    4.0181    6.1192    5.4121 C   0  0  1  0  0  0  0  0  0  0  0  0
    5.2402    5.4369    5.0445 O   0  0  0  0  0  0  0  0  0  0  0  0
   -2.5700    3.7606   10.8705 C   0  0  0  0  0  0  0  0  0  0  0  0
    8.6616    5.8750    2.0612 C   0  0  0  0  0  0  0  0  0  0  0  0
    6.3955    9.1230    2.7242 C   0  0  0  0  0  0  0  0  0  0  0  0
  1  2  1  6  0  0  0
  1  6  1  0  0  0  0
  1 23  1  0  0  0  0
  3  4  1  6  0  0  0
  3  8  1  0  0  0  0
  3 30  1  0  0  0  0
  5  9  1  0  0  0  0
  5 27  1  0  0  0  0
  5 31  1  6  0  0  0
  6  7  1  6  0  0  0
  6 11  1  0  0  0  0
  8 13  1  0  0  0  0
  9 10  1  6  0  0  0
  9 15  1  0  0  0  0
 11 12  1  1  0  0  0
 11 17  1  0  0  0  0
 13 14  1  1  0  0  0
 13 19  1  0  0  0  0
 15 16  1  1  0  0  0
 15 20  1  0  0  0  0
 16 34  1  0  0  0  0
 17 18  1  6  0  0  0
 17 22  1  0  0  0  0
 19  2  1  1  0  0  0
 19 24  1  0  0  0  0
 20 21  1  1  0  0  0
 20 26  1  0  0  0  0
 20 33  1  0  0  0  0
 22 23  1  1  0  0  0
 22 28  1  0  0  0  0
 24 25  1  1  0  0  0
 24 30  1  0  0  0  0
 26 27  1  0  0  0  0
 28 29  1  1  0  0  0
 28 32  1  0  0  0  0
 30 31  1  6  0  0  0
M  END
>  <CHROM.1>
-105.26471922,177.79445008,-91.76980258,37.52894725,150.57800428,-75.07016438
3.45712232,5.17902379,6.65267558,-2.44261439,0.32371496,-0.68823791

>  <Name>
ligand

>  <RI>
0

>  <Rbt.Current_Directory>
/home/itssahil/PROJECTS/Mol_Feturizer/New_Systems/rnas/3TD1

>  <Rbt.Executable>
rbdock ($Id: //depot/dev/client3/rdock/2013.1/src/exe/rbdock.cxx#4 $)

>  <Rbt.Library>
libRbt.so (2013.1, Build901 2013/11/27)

>  <Rbt.Parameter_File>
/export/apps/rDock/src/rDock_2013.1_src/data/scripts/dock_solv.prm

>  <Rbt.Receptor>
prm/blind_docking_60.prm

>  <SCORE>
90.5975

>  <SCORE.INTER>
74.0006

>  <SCORE.INTER.CONST>
1

>  <SCORE.INTER.POLAR>
0

>  <SCORE.INTER.ROT>
6

>  <SCORE.INTER.SOLV>
29.4125

>  <SCORE.INTER.VDW>
31.9296

>  <SCORE.INTER.norm>
2.17649

>  <SCORE.INTRA>
5.02193

>  <SCORE.INTRA.DIHEDRAL>
-6.51226

>  <SCORE.INTRA.DIHEDRAL.0>
19.5869

>  <SCORE.INTRA.POLAR>
0

>  <SCORE.INTRA.POLAR.0>
0

>  <SCORE.INTRA.REPUL>
0

>  <SCORE.INTRA.REPUL.0>
0

>  <SCORE.INTRA.SOLV>
3.05377

>  <SCORE.INTRA.SOLV.lig_0>
-70.101

>  <SCORE.INTRA.VDW>
6.75118

>  <SCORE.INTRA.VDW.0>
-3.39718

>  <SCORE.INTRA.norm>
0.147704

>  <SCORE.RESTR>
11.5749

>  <SCORE.RESTR.CAVITY>
11.5749

>  <SCORE.RESTR.norm>
0.34044

>  <SCORE.SYSTEM>
0

>  <SCORE.SYSTEM.CONST>
0

>  <SCORE.SYSTEM.DIHEDRAL>
0

>  <SCORE.SYSTEM.SOLV>
0

>  <SCORE.SYSTEM.norm>
0

>  <SCORE.heavy>
34

>  <SCORE.norm>
2.66463

>  <RMSD>
6.188

$$$$
ligand
 OpenBabel11021811483D
libRbt.so/2013.1/901 2013/11/27
 34 36  0  0  0  0  0  0  0  0999 V2000
    9.2584    7.1902    4.5265 C   0  0  2  0  0  0  0  0  0  0  0  0
   10.3914    6.3474    4.2651 O   0  0  0  0  0  0  0  0  0  0  0  0
   14.3722    6.4152    5.8176 C   0  0  2  0  0  0  0  0  0  0  0  0
   15.7256    6.8507    6.1444 N   0  0  0  0  0  0  0  0  0  0  0  0
   14.0656    8.3497    8.6716 C   0  0  2  0  0  0  0  0  0  0  0  0
    7.9643    6.3049    4.4358 C   0  0  2  0  0  0  0  0  0  0  0  0
    7.9910    5.2220    5.4313 N   0  0  0  0  0  0  0  0  0  0  0  0
   14.2085    6.5225    4.2647 C   0  0  0  0  0  0  0  0  0  0  0  0
   14.1098    7.9453   10.1887 C   0  0  2  0  0  0  0  0  0  0  0  0
   14.8980    6.7780   10.3533 O   0  0  0  0  0  0  0  0  0  0  0  0
    7.8507    5.7102    3.0153 C   0  0  1  0  0  0  0  0  0  0  0  0
    6.6642    4.9050    2.9228 O   0  0  0  0  0  0  0  0  0  0  0  0
   12.7635    6.0331    3.9105 C   0  0  2  0  0  0  0  0  0  0  0  0
   12.5450    6.1169    2.4521 N   0  0  0  0  0  0  0  0  0  0  0  0
   12.6333    7.7076   10.6914 C   0  0  1  0  0  0  0  0  0  0  0  0
   12.6217    7.3040   12.1295 N   0  0  0  0  0  0  0  0  0  0  0  0
    7.8339    6.8682    1.9895 C   0  0  2  0  0  0  0  0  0  0  0  0
    7.7391    6.3288    0.6596 O   0  0  0  0  0  0  0  0  0  0  0  0
   11.6941    6.8952    4.6288 C   0  0  2  0  0  0  0  0  0  0  0  0
   11.8081    9.0242   10.4880 C   0  0  1  0  0  0  0  0  0  0  0  0
   12.3833   10.0733   11.2624 O   0  0  0  0  0  0  0  0  0  0  0  0
    9.1452    7.7294    2.1431 C   0  0  2  0  0  0  0  0  0  0  0  0
    9.2398    8.2599    3.5171 O   0  0  0  0  0  0  0  0  0  0  0  0
   11.9190    6.8221    6.1598 C   0  0  2  0  0  0  0  0  0  0  0  0
   10.9383    7.6347    6.7964 O   0  0  0  0  0  0  0  0  0  0  0  0
   11.8514    9.4119    8.9763 C   0  0  0  0  0  0  0  0  0  0  0  0
   13.2513    9.5622    8.5112 O   0  0  0  0  0  0  0  0  0  0  0  0
    9.1727    8.9243    1.1545 C   0  0  2  0  0  0  0  0  0  0  0  0
    9.0731    8.4372   -0.1812 O   0  0  0  0  0  0  0  0  0  0  0  0
   13.3206    7.3489    6.5463 C   0  0  1  0  0  0  0  0  0  0  0  0
   13.4339    7.2335    7.9843 O   0  0  0  0  0  0  0  0  0  0  0  0
   10.4643    9.7167    1.2707 C   0  0  0  0  0  0  0  0  0  0  0  0
   10.3586    8.8652   10.9302 C   0  0  0  0  0  0  0  0  0  0  0  0
   12.3580    5.8541   12.2009 C   0  0  0  0  0  0  0  0  0  0  0  0
  1  2  1  6  0  0  0
  1  6  1  0  0  0  0
  1 23  1  0  0  0  0
  3  4  1  6  0  0  0
  3  8  1  0  0  0  0
  3 30  1  0  0  0  0
  5  9  1  0  0  0  0
  5 27  1  0  0  0  0
  5 31  1  6  0  0  0
  6  7  1  1  0  0  0
  6 11  1  0  0  0  0
  8 13  1  0  0  0  0
  9 10  1  6  0  0  0
  9 15  1  0  0  0  0
 11 12  1  1  0  0  0
 11 17  1  0  0  0  0
 13 14  1  6  0  0  0
 13 19  1  0  0  0  0
 15 16  1  1  0  0  0
 15 20  1  0  0  0  0
 16 34  1  0  0  0  0
 17 18  1  6  0  0  0
 17 22  1  0  0  0  0
 19  2  1  1  0  0  0
 19 24  1  0  0  0  0
 20 21  1  1  0  0  0
 20 26  1  0  0  0  0
 20 33  1  0  0  0  0
 22 23  1  1  0  0  0
 22 28  1  0  0  0  0
 24 25  1  1  0  0  0
 24 30  1  0  0  0  0
 26 27  1  0  0  0  0
 28 29  1  6  0  0  0
 28 32  1  0  0  0  0
 30 31  1  1  0  0  0
M  END
>  <CHROM.1>
-165.13655242,-164.20140339,-104.31302165,-58.23383319,105.44011892,-177.83355642
11.27583562,7.38509221,6.00718500,2.04634987,-0.06157948,-1.64768214

>  <Name>
ligand

>  <RI>
0

>  <Rbt.Current_Directory>
/home/itssahil/PROJECTS/Mol_Feturizer/New_Systems/rnas/3TD1

>  <Rbt.Executable>
rbdock ($Id: //depot/dev/client3/rdock/2013.1/src/exe/rbdock.cxx#4 $)

>  <Rbt.Library>
libRbt.so (2013.1, Build901 2013/11/27)

>  <Rbt.Parameter_File>
/export/apps/rDock/src/rDock_2013.1_src/data/scripts/dock_solv.prm

>  <Rbt.Receptor>
prm/pocket_docking_6.prm

>  <SCORE>
-11.4949

>  <SCORE.INTER>
-5.32524

>  <SCORE.INTER.CONST>
1

>  <SCORE.INTER.POLAR>
0

>  <SCORE.INTER.ROT>
6

>  <SCORE.INTER.SOLV>
13.9431

>  <SCORE.INTER.VDW>
-15.7979

>  <SCORE.INTER.norm>
-0.156625

>  <SCORE.INTRA>
-6.16961

>  <SCORE.INTRA.DIHEDRAL>
-10.1592

>  <SCORE.INTRA.DIHEDRAL.0>
19.5869

>  <SCORE.INTRA.POLAR>
0

>  <SCORE.INTRA.POLAR.0>
0

>  <SCORE.INTRA.REPUL>
0

>  <SCORE.INTRA.REPUL.0>
0

>  <SCORE.INTRA.SOLV>
-1.83946

>  <SCORE.INTRA.SOLV.lig_0>
-70.101

>  <SCORE.INTRA.VDW>
-0.170268

>  <SCORE.INTRA.VDW.0>
-3.39718

>  <SCORE.INTRA.norm>
-0.181459

>  <SCORE.RESTR>
0

>  <SCORE.RESTR.CAVITY>
0

>  <SCORE.RESTR.norm>
0

>  <SCORE.SYSTEM>
0

>  <SCORE.SYSTEM.CONST>
0

>  <SCORE.SYSTEM.DIHEDRAL>
0

>  <SCORE.SYSTEM.SOLV>
0

>  <SCORE.SYSTEM.norm>
0

>  <SCORE.heavy>
34

>  <SCORE.norm>
-0.338084

>  <RMSD>
6.197

$$$$
ligand
 OpenBabel11021811483D
libRbt.so/2013.1/901 2013/11/27
 34 36  0  0  0  0  0  0  0  0999 V2000
    2.1074    2.3429    9.2129 C   0  0  2  0  0  0  0  0  0  0  0  0
    1.9627    3.4399    8.2973 O   0  0  0  0  0  0  0  0  0  0  0  0
    4.3518    6.7820    7.1207 C   0  0  2  0  0  0  0  0  0  0  0  0
    5.2602    7.9223    7.1692 N   0  0  0  0  0  0  0  0  0  0  0  0
    5.7682    5.1979    5.1287 C   0  0  2  0  0  0  0  0  0  0  0  0
    1.4543    1.0743    8.5567 C   0  0  2  0  0  0  0  0  0  0  0  0
    2.1206    0.7284    7.2916 N   0  0  0  0  0  0  0  0  0  0  0  0
    3.2102    7.0489    8.1576 C   0  0  0  0  0  0  0  0  0  0  0  0
    6.9838    4.6118    4.3252 C   0  0  2  0  0  0  0  0  0  0  0  0
    7.2287    3.2748    4.7292 O   0  0  0  0  0  0  0  0  0  0  0  0
   -0.0450    1.3441    8.3044 C   0  0  1  0  0  0  0  0  0  0  0  0
   -0.6509    0.1841    7.7111 O   0  0  0  0  0  0  0  0  0  0  0  0
    2.2217    5.8359    8.0896 C   0  0  2  0  0  0  0  0  0  0  0  0
    1.1201    6.0272    9.0547 N   0  0  0  0  0  0  0  0  0  0  0  0
    8.2463    5.5222    4.5837 C   0  0  1  0  0  0  0  0  0  0  0  0
    9.4374    4.9965    3.8515 N   0  0  0  0  0  0  0  0  0  0  0  0
   -0.7183    1.7137    9.6475 C   0  0  2  0  0  0  0  0  0  0  0  0
   -2.1145    1.9786    9.4264 O   0  0  0  0  0  0  0  0  0  0  0  0
    2.9504    4.5074    8.4163 C   0  0  2  0  0  0  0  0  0  0  0  0
    7.9232    6.9840    4.1207 C   0  0  1  0  0  0  0  0  0  0  0  0
    7.6418    6.9918    2.7236 O   0  0  0  0  0  0  0  0  0  0  0  0
   -0.0080    2.9784   10.2644 C   0  0  2  0  0  0  0  0  0  0  0  0
    1.4271    2.6997   10.4673 O   0  0  0  0  0  0  0  0  0  0  0  0
    4.1145    4.3005    7.4152 C   0  0  2  0  0  0  0  0  0  0  0  0
    4.7794    3.0855    7.7456 O   0  0  0  0  0  0  0  0  0  0  0  0
    6.6717    7.4907    4.9046 C   0  0  0  0  0  0  0  0  0  0  0  0
    5.5188    6.5812    4.7004 O   0  0  0  0  0  0  0  0  0  0  0  0
   -0.6256    3.3818   11.6288 C   0  0  2  0  0  0  0  0  0  0  0  0
   -0.7905    2.2196   12.4370 O   0  0  0  0  0  0  0  0  0  0  0  0
    5.1363    5.4584    7.4966 C   0  0  1  0  0  0  0  0  0  0  0  0
    6.1725    5.1768    6.5264 O   0  0  0  0  0  0  0  0  0  0  0  0
   -1.9888    4.0311   11.4555 C   0  0  0  0  0  0  0  0  0  0  0  0
    9.0915    7.9320    4.3617 C   0  0  0  0  0  0  0  0  0  0  0  0
   10.1308    4.0329    4.7278 C   0  0  0  0  0  0  0  0  0  0  0  0
  1  2  1  6  0  0  0
  1  6  1  0  0  0  0
  1 23  1  0  0  0  0
  3  4  1  1  0  0  0
  3  8  1  0  0  0  0
  3 30  1  0  0  0  0
  5  9  1  0  0  0  0
  5 27  1  0  0  0  0
  5 31  1  1  0  0  0
  6  7  1  6  0  0  0
  6 11  1  0  0  0  0
  8 13  1  0  0  0  0
  9 10  1  1  0  0  0
  9 15  1  0  0  0  0
 11 12  1  1  0  0  0
 11 17  1  0  0  0  0
 13 14  1  1  0  0  0
 13 19  1  0  0  0  0
 15 16  1  6  0  0  0
 15 20  1  0  0  0  0
 16 34  1  0  0  0  0
 17 18  1  6  0  0  0
 17 22  1  0  0  0  0
 19  2  1  6  0  0  0
 19 24  1  0  0  0  0
 20 21  1  6  0  0  0
 20 26  1  0  0  0  0
 20 33  1  0  0  0  0
 22 23  1  1  0  0  0
 22 28  1  0  0  0  0
 24 25  1  1  0  0  0
 24 30  1  0  0  0  0
 26 27  1  0  0  0  0
 28 29  1  1  0  0  0
 28 32  1  0  0  0  0
 30 31  1  6  0  0  0
M  END
>  <CHROM.1>
-154.43353855,-145.50128446,-89.05147674,45.89502012,-50.19475204,-169.88628068
3.70025413,4.32449644,7.35472165,-2.89577276,0.63831123,0.18806203

>  <Name>
ligand

>  <RI>
0

>  <Rbt.Current_Directory>
/home/itssahil/PROJECTS/Mol_Feturizer/New_Systems/rnas/3TD1

>  <Rbt.Executable>
rbdock ($Id: //depot/dev/client3/rdock/2013.1/src/exe/rbdock.cxx#4 $)

>  <Rbt.Library>
libRbt.so (2013.1, Build901 2013/11/27)

>  <Rbt.Parameter_File>
/export/apps/rDock/src/rDock_2013.1_src/data/scripts/dock_solv.prm

>  <Rbt.Receptor>
prm/blind_docking_60.prm

>  <SCORE>
62.7683

>  <SCORE.INTER>
43.3426

>  <SCORE.INTER.CONST>
1

>  <SCORE.INTER.POLAR>
0

>  <SCORE.INTER.ROT>
6

>  <SCORE.INTER.SOLV>
30.9454

>  <SCORE.INTER.VDW>
10.9799

>  <SCORE.INTER.norm>
1.27478

>  <SCORE.INTRA>
-1.30431

>  <SCORE.INTRA.DIHEDRAL>
-10.0955

>  <SCORE.INTRA.DIHEDRAL.0>
19.5869

>  <SCORE.INTRA.POLAR>
0

>  <SCORE.INTRA.POLAR.0>
0

>  <SCORE.INTRA.REPUL>
0

>  <SCORE.INTRA.REPUL.0>
0

>  <SCORE.INTRA.SOLV>
1.83421

>  <SCORE.INTRA.SOLV.lig_0>
-70.101

>  <SCORE.INTRA.VDW>
2.82636

>  <SCORE.INTRA.VDW.0>
-3.39718

>  <SCORE.INTRA.norm>
-0.038362

>  <SCORE.RESTR>
20.73

>  <SCORE.RESTR.CAVITY>
20.73

>  <SCORE.RESTR.norm>
0.609707

>  <SCORE.SYSTEM>
0

>  <SCORE.SYSTEM.CONST>
0

>  <SCORE.SYSTEM.DIHEDRAL>
0

>  <SCORE.SYSTEM.SOLV>
0

>  <SCORE.SYSTEM.norm>
0

>  <SCORE.heavy>
34

>  <SCORE.norm>
1.84613

>  <RMSD>
6.210

$$$$
ligand
 OpenBabel11021811483D
libRbt.so/2013.1/901 2013/11/27
 34 36  0  0  0  0  0  0  0  0999 V2000
    2.4395    5.2672    9.0176 C   0  0  2  0  0  0  0  0  0  0  0  0
    2.2616    4.8542    7.6536 O   0  0  0  0  0  0  0  0  0  0  0  0
    2.4497    6.6139    3.7639 C   0  0  2  0  0  0  0  0  0  0  0  0
    2.4892    7.5983    2.6881 N   0  0  0  0  0  0  0  0  0  0  0  0
    6.1629    6.2326    4.6467 C   0  0  2  0  0  0  0  0  0  0  0  0
    3.2783    4.1619    9.7533 C   0  0  2  0  0  0  0  0  0  0  0  0
    4.6008    3.9965    9.1305 N   0  0  0  0  0  0  0  0  0  0  0  0
    1.1738    6.9088    4.6212 C   0  0  0  0  0  0  0  0  0  0  0  0
    7.1509    7.3600    4.1777 C   0  0  2  0  0  0  0  0  0  0  0  0
    6.6091    8.6339    4.4854 O   0  0  0  0  0  0  0  0  0  0  0  0
    2.5076    2.8244    9.7134 C   0  0  1  0  0  0  0  0  0  0  0  0
    3.2661    1.8101   10.3920 O   0  0  0  0  0  0  0  0  0  0  0  0
    1.1179    5.8381    5.7628 C   0  0  2  0  0  0  0  0  0  0  0  0
   -0.0670    6.0684    6.6139 N   0  0  0  0  0  0  0  0  0  0  0  0
    7.3923    7.2066    2.6260 C   0  0  1  0  0  0  0  0  0  0  0  0
    8.3161    8.2688    2.1261 N   0  0  0  0  0  0  0  0  0  0  0  0
    1.1196    3.0289   10.3655 C   0  0  2  0  0  0  0  0  0  0  0  0
    0.3852    1.7929   10.3260 O   0  0  0  0  0  0  0  0  0  0  0  0
    2.3903    5.9016    6.6458 C   0  0  2  0  0  0  0  0  0  0  0  0
    7.9901    5.7862    2.3418 C   0  0  1  0  0  0  0  0  0  0  0  0
    9.2433    5.6531    3.0071 O   0  0  0  0  0  0  0  0  0  0  0  0
    0.3363    4.1607    9.5973 C   0  0  2  0  0  0  0  0  0  0  0  0
    1.1099    5.4171    9.6286 O   0  0  0  0  0  0  0  0  0  0  0  0
    3.6412    5.6702    5.7616 C   0  0  2  0  0  0  0  0  0  0  0  0
    4.7968    5.7512    6.5896 O   0  0  0  0  0  0  0  0  0  0  0  0
    6.9980    4.7096    2.8841 C   0  0  0  0  0  0  0  0  0  0  0  0
    6.7342    4.9168    4.3284 O   0  0  0  0  0  0  0  0  0  0  0  0
   -1.0571    4.4285   10.2240 C   0  0  2  0  0  0  0  0  0  0  0  0
   -1.6926    3.1866   10.5158 O   0  0  0  0  0  0  0  0  0  0  0  0
    3.7523    6.7451    4.6554 C   0  0  1  0  0  0  0  0  0  0  0  0
    4.9395    6.4392    3.8865 O   0  0  0  0  0  0  0  0  0  0  0  0
   -1.9563    5.2055    9.2767 C   0  0  0  0  0  0  0  0  0  0  0  0
    8.2295    5.5532    0.8551 C   0  0  0  0  0  0  0  0  0  0  0  0
    7.5020    9.4061    1.6563 C   0  0  0  0  0  0  0  0  0  0  0  0
  1  2  1  6  0  0  0
  1  6  1  0  0  0  0
  1 23  1  0  0  0  0
  3  4  1  6  0  0  0
  3  8  1  0  0  0  0
  3 30  1  0  0  0  0
  5  9  1  0  0  0  0
  5 27  1  0  0  0  0
  5 31  1  6  0  0  0
  6  7  1  6  0  0  0
  6 11  1  0  0  0  0
  8 13  1  0  0  0  0
  9 10  1  6  0  0  0
  9 15  1  0  0  0  0
 11 12  1  1  0  0  0
 11 17  1  0  0  0  0
 13 14  1  1  0  0  0
 13 19  1  0  0  0  0
 15 16  1  1  0  0  0
 15 20  1  0  0  0  0
 16 34  1  0  0  0  0
 17 18  1  6  0  0  0
 17 22  1  0  0  0  0
 19  2  1  1  0  0  0
 19 24  1  0  0  0  0
 20 21  1  1  0  0  0
 20 26  1  0  0  0  0
 20 33  1  0  0  0  0
 22 23  1  1  0  0  0
 22 28  1  0  0  0  0
 24 25  1  1  0  0  0
 24 30  1  0  0  0  0
 26 27  1  0  0  0  0
 28 29  1  6  0  0  0
 28 32  1  0  0  0  0
 30 31  1  6  0  0  0
M  END
>  <CHROM.1>
-139.11042107,-127.77548334,-92.74966905,-44.10304056,-166.82174152,-117.83654615
3.70386448,5.49431915,6.18597041,-2.33377593,0.27642080,-0.89894503

>  <Name>
ligand

>  <RI>
0

>  <Rbt.Current_Directory>
/home/itssahil/PROJECTS/Mol_Feturizer/New_Systems/rnas/3TD1

>  <Rbt.Executable>
rbdock ($Id: //depot/dev/client3/rdock/2013.1/src/exe/rbdock.cxx#4 $)

>  <Rbt.Library>
libRbt.so (2013.1, Build901 2013/11/27)

>  <Rbt.Parameter_File>
/export/apps/rDock/src/rDock_2013.1_src/data/scripts/dock_solv.prm

>  <Rbt.Receptor>
prm/blind_docking_60.prm

>  <SCORE>
108.594

>  <SCORE.INTER>
91.8468

>  <SCORE.INTER.CONST>
1

>  <SCORE.INTER.POLAR>
0

>  <SCORE.INTER.ROT>
6

>  <SCORE.INTER.SOLV>
33.0927

>  <SCORE.INTER.VDW>
42.6003

>  <SCORE.INTER.norm>
2.70138

>  <SCORE.INTRA>
5.72659

>  <SCORE.INTRA.DIHEDRAL>
2.47608

>  <SCORE.INTRA.DIHEDRAL.0>
19.5869

>  <SCORE.INTRA.POLAR>
0

>  <SCORE.INTRA.POLAR.0>
0

>  <SCORE.INTRA.REPUL>
0

>  <SCORE.INTRA.REPUL.0>
0

>  <SCORE.INTRA.SOLV>
0.321318

>  <SCORE.INTRA.SOLV.lig_0>
-70.101

>  <SCORE.INTRA.VDW>
4.32789

>  <SCORE.INTRA.VDW.0>
-3.39718

>  <SCORE.INTRA.norm>
0.168429

>  <SCORE.RESTR>
11.021

>  <SCORE.RESTR.CAVITY>
11.021

>  <SCORE.RESTR.norm>
0.324148

>  <SCORE.SYSTEM>
0

>  <SCORE.SYSTEM.CONST>
0

>  <SCORE.SYSTEM.DIHEDRAL>
0

>  <SCORE.SYSTEM.SOLV>
0

>  <SCORE.SYSTEM.norm>
0

>  <SCORE.heavy>
34

>  <SCORE.norm>
3.19395

>  <RMSD>
6.221

$$$$
ligand
 OpenBabel11021811483D
libRbt.so/2013.1/901 2013/11/27
 34 36  0  0  0  0  0  0  0  0999 V2000
    2.7442    4.8962    9.1638 C   0  0  2  0  0  0  0  0  0  0  0  0
    2.5831    4.5186    7.7876 O   0  0  0  0  0  0  0  0  0  0  0  0
    2.4188    6.4452    3.9767 C   0  0  2  0  0  0  0  0  0  0  0  0
    2.2893    7.4683    2.9448 N   0  0  0  0  0  0  0  0  0  0  0  0
    6.1507    6.3904    4.7670 C   0  0  2  0  0  0  0  0  0  0  0  0
    2.4518    3.6333   10.0504 C   0  0  2  0  0  0  0  0  0  0  0  0
    3.3889    2.5413    9.7444 N   0  0  0  0  0  0  0  0  0  0  0  0
    1.1355    6.5165    4.8697 C   0  0  0  0  0  0  0  0  0  0  0  0
    7.1649    7.4664    4.2372 C   0  0  2  0  0  0  0  0  0  0  0  0
    6.6850    8.7676    4.5329 O   0  0  0  0  0  0  0  0  0  0  0  0
    1.0008    3.1639    9.8085 C   0  0  1  0  0  0  0  0  0  0  0  0
    0.7238    2.0129   10.6228 O   0  0  0  0  0  0  0  0  0  0  0  0
    1.2629    5.4030    5.9637 C   0  0  2  0  0  0  0  0  0  0  0  0
    0.0786    5.4238    6.8461 N   0  0  0  0  0  0  0  0  0  0  0  0
    7.3449    7.2685    2.6823 C   0  0  1  0  0  0  0  0  0  0  0  0
    8.2913    8.2811    2.1254 N   0  0  0  0  0  0  0  0  0  0  0  0
    0.0386    4.3324   10.1287 C   0  0  2  0  0  0  0  0  0  0  0  0
   -1.3176    3.9131    9.8975 O   0  0  0  0  0  0  0  0  0  0  0  0
    2.5344    5.6141    6.8248 C   0  0  2  0  0  0  0  0  0  0  0  0
    7.8758    5.8192    2.4116 C   0  0  1  0  0  0  0  0  0  0  0  0
    9.1457    5.6509    3.0362 O   0  0  0  0  0  0  0  0  0  0  0  0
    0.3942    5.5731    9.2238 C   0  0  2  0  0  0  0  0  0  0  0  0
    1.7936    5.9800    9.4564 O   0  0  0  0  0  0  0  0  0  0  0  0
    3.7832    5.6032    5.9081 C   0  0  2  0  0  0  0  0  0  0  0  0
    4.9352    5.8168    6.7171 O   0  0  0  0  0  0  0  0  0  0  0  0
    6.8621    4.7958    3.0136 C   0  0  0  0  0  0  0  0  0  0  0  0
    6.6581    5.0459    4.4607 O   0  0  0  0  0  0  0  0  0  0  0  0
   -0.5240    6.7878    9.5193 C   0  0  2  0  0  0  0  0  0  0  0  0
   -1.8735    6.4484    9.2110 O   0  0  0  0  0  0  0  0  0  0  0  0
    3.7107    6.7273    4.8486 C   0  0  1  0  0  0  0  0  0  0  0  0
    4.9101    6.6287    4.0449 O   0  0  0  0  0  0  0  0  0  0  0  0
   -0.1399    7.9960    8.6812 C   0  0  0  0  0  0  0  0  0  0  0  0
    8.0529    5.5432    0.9236 C   0  0  0  0  0  0  0  0  0  0  0  0
    7.5054    9.4336    1.6448 C   0  0  0  0  0  0  0  0  0  0  0  0
  1  2  1  6  0  0  0
  1  6  1  0  0  0  0
  1 23  1  0  0  0  0
  3  4  1  6  0  0  0
  3  8  1  0  0  0  0
  3 30  1  0  0  0  0
  5  9  1  0  0  0  0
  5 27  1  0  0  0  0
  5 31  1  6  0  0  0
  6  7  1  6  0  0  0
  6 11  1  0  0  0  0
  8 13  1  0  0  0  0
  9 10  1  6  0  0  0
  9 15  1  0  0  0  0
 11 12  1  1  0  0  0
 11 17  1  0  0  0  0
 13 14  1  1  0  0  0
 13 19  1  0  0  0  0
 15 16  1  1  0  0  0
 15 20  1  0  0  0  0
 16 34  1  0  0  0  0
 17 18  1  6  0  0  0
 17 22  1  0  0  0  0
 19  2  1  1  0  0  0
 19 24  1  0  0  0  0
 20 21  1  1  0  0  0
 20 26  1  0  0  0  0
 20 33  1  0  0  0  0
 22 23  1  1  0  0  0
 22 28  1  0  0  0  0
 24 25  1  1  0  0  0
 24 30  1  0  0  0  0
 26 27  1  0  0  0  0
 28 29  1  6  0  0  0
 28 32  1  0  0  0  0
 30 31  1  6  0  0  0
M  END
>  <CHROM.1>
167.50709985,-128.25312815,-93.29868779,-62.70559398,-158.85323462,-130.09355264
3.53743418,5.82283692,6.18978999,-2.46424377,0.43200073,-0.77429672

>  <Name>
ligand

>  <RI>
0

>  <Rbt.Current_Directory>
/home/itssahil/PROJECTS/Mol_Feturizer/New_Systems/rnas/3TD1

>  <Rbt.Executable>
rbdock ($Id: //depot/dev/client3/rdock/2013.1/src/exe/rbdock.cxx#4 $)

>  <Rbt.Library>
libRbt.so (2013.1, Build901 2013/11/27)

>  <Rbt.Parameter_File>
/export/apps/rDock/src/rDock_2013.1_src/data/scripts/dock_solv.prm

>  <Rbt.Receptor>
prm/blind_docking_60.prm

>  <SCORE>
73.7164

>  <SCORE.INTER>
53.5257

>  <SCORE.INTER.CONST>
1

>  <SCORE.INTER.POLAR>
0

>  <SCORE.INTER.ROT>
6

>  <SCORE.INTER.SOLV>
36.0716

>  <SCORE.INTER.VDW>
16.0599

>  <SCORE.INTER.norm>
1.57428

>  <SCORE.INTRA>
9.62424

>  <SCORE.INTRA.DIHEDRAL>
-2.5308

>  <SCORE.INTRA.DIHEDRAL.0>
19.5869

>  <SCORE.INTRA.POLAR>
0

>  <SCORE.INTRA.POLAR.0>
0

>  <SCORE.INTRA.REPUL>
0

>  <SCORE.INTRA.REPUL.0>
0

>  <SCORE.INTRA.SOLV>
2.08144

>  <SCORE.INTRA.SOLV.lig_0>
-70.101

>  <SCORE.INTRA.VDW>
9.84892

>  <SCORE.INTRA.VDW.0>
-3.39718

>  <SCORE.INTRA.norm>
0.283066

>  <SCORE.RESTR>
10.5665

>  <SCORE.RESTR.CAVITY>
10.5665

>  <SCORE.RESTR.norm>
0.310779

>  <SCORE.SYSTEM>
0

>  <SCORE.SYSTEM.CONST>
0

>  <SCORE.SYSTEM.DIHEDRAL>
0

>  <SCORE.SYSTEM.SOLV>
0

>  <SCORE.SYSTEM.norm>
0

>  <SCORE.heavy>
34

>  <SCORE.norm>
2.16813

>  <RMSD>
6.222

$$$$
ligand
 OpenBabel11021811483D
libRbt.so/2013.1/901 2013/11/27
 34 36  0  0  0  0  0  0  0  0999 V2000
    1.2497    5.2711    7.3240 C   0  0  2  0  0  0  0  0  0  0  0  0
    2.4275    5.7609    7.9840 O   0  0  0  0  0  0  0  0  0  0  0  0
    6.6280    5.7665    7.1985 C   0  0  2  0  0  0  0  0  0  0  0  0
    7.9566    5.3554    6.7582 N   0  0  0  0  0  0  0  0  0  0  0  0
    5.6903    6.9726    3.7022 C   0  0  2  0  0  0  0  0  0  0  0  0
   -0.0027    5.8182    8.0978 C   0  0  2  0  0  0  0  0  0  0  0  0
   -0.0306    7.2891    8.0902 N   0  0  0  0  0  0  0  0  0  0  0  0
    6.0778    4.6422    8.1381 C   0  0  0  0  0  0  0  0  0  0  0  0
    6.7145    6.0666    2.9294 C   0  0  2  0  0  0  0  0  0  0  0  0
    6.6995    4.7550    3.4680 O   0  0  0  0  0  0  0  0  0  0  0  0
    0.0292    5.3006    9.5522 C   0  0  1  0  0  0  0  0  0  0  0  0
   -1.1186    5.7912   10.2642 O   0  0  0  0  0  0  0  0  0  0  0  0
    4.6610    5.0935    8.6298 C   0  0  2  0  0  0  0  0  0  0  0  0
    4.0842    4.0657    9.5201 N   0  0  0  0  0  0  0  0  0  0  0  0
    8.1495    6.7118    3.0483 C   0  0  1  0  0  0  0  0  0  0  0  0
    9.1660    5.8768    2.3407 N   0  0  0  0  0  0  0  0  0  0  0  0
    0.0672    3.7541    9.5307 C   0  0  2  0  0  0  0  0  0  0  0  0
    0.1080    3.2571   10.8797 O   0  0  0  0  0  0  0  0  0  0  0  0
    3.7026    5.3153    7.4319 C   0  0  2  0  0  0  0  0  0  0  0  0
    8.1107    8.1554    2.4400 C   0  0  1  0  0  0  0  0  0  0  0  0
    7.7632    8.0833    1.0598 O   0  0  0  0  0  0  0  0  0  0  0  0
    1.3319    3.2677    8.7253 C   0  0  2  0  0  0  0  0  0  0  0  0
    1.2873    3.8008    7.3499 O   0  0  0  0  0  0  0  0  0  0  0  0
    4.3021    6.3856    6.4859 C   0  0  2  0  0  0  0  0  0  0  0  0
    3.4151    6.5590    5.3856 O   0  0  0  0  0  0  0  0  0  0  0  0
    7.0341    8.9897    3.2030 C   0  0  0  0  0  0  0  0  0  0  0  0
    5.7091    8.3278    3.1345 O   0  0  0  0  0  0  0  0  0  0  0  0
    1.4096    1.7204    8.6479 C   0  0  2  0  0  0  0  0  0  0  0  0
    2.5831    1.3395    7.9345 O   0  0  0  0  0  0  0  0  0  0  0  0
    5.6806    5.9439    5.9417 C   0  0  1  0  0  0  0  0  0  0  0  0
    6.1551    7.0058    5.0806 O   0  0  0  0  0  0  0  0  0  0  0  0
    0.2084    1.1358    7.9232 C   0  0  0  0  0  0  0  0  0  0  0  0
    9.4605    8.8551    2.5404 C   0  0  0  0  0  0  0  0  0  0  0  0
    8.7091    5.6690    0.9532 C   0  0  0  0  0  0  0  0  0  0  0  0
  1  2  1  1  0  0  0
  1  6  1  0  0  0  0
  1 23  1  0  0  0  0
  3  4  1  6  0  0  0
  3  8  1  0  0  0  0
  3 30  1  0  0  0  0
  5  9  1  0  0  0  0
  5 27  1  0  0  0  0
  5 31  1  1  0  0  0
  6  7  1  1  0  0  0
  6 11  1  0  0  0  0
  8 13  1  0  0  0  0
  9 10  1  1  0  0  0
  9 15  1  0  0  0  0
 11 12  1  1  0  0  0
 11 17  1  0  0  0  0
 13 14  1  1  0  0  0
 13 19  1  0  0  0  0
 15 16  1  6  0  0  0
 15 20  1  0  0  0  0
 16 34  1  0  0  0  0
 17 18  1  1  0  0  0
 17 22  1  0  0  0  0
 19  2  1  1  0  0  0
 19 24  1  0  0  0  0
 20 21  1  6  0  0  0
 20 26  1  0  0  0  0
 20 33  1  0  0  0  0
 22 23  1  6  0  0  0
 22 28  1  0  0  0  0
 24 25  1  6  0  0  0
 24 30  1  0  0  0  0
 26 27  1  0  0  0  0
 28 29  1  6  0  0  0
 28 32  1  0  0  0  0
 30 31  1  6  0  0  0
M  END
>  <CHROM.1>
177.90471893,-142.88314352,54.04890133,-178.82308841,159.01379707,-87.58144383
4.26227039,5.52536371,6.20697195,2.54590497,-0.54014994,2.69325831

>  <Name>
ligand

>  <RI>
0

>  <Rbt.Current_Directory>
/home/itssahil/PROJECTS/Mol_Feturizer/New_Systems/rnas/3TD1

>  <Rbt.Executable>
rbdock ($Id: //depot/dev/client3/rdock/2013.1/src/exe/rbdock.cxx#4 $)

>  <Rbt.Library>
libRbt.so (2013.1, Build901 2013/11/27)

>  <Rbt.Parameter_File>
/export/apps/rDock/src/rDock_2013.1_src/data/scripts/dock_solv.prm

>  <Rbt.Receptor>
prm/blind_docking_100.prm

>  <SCORE>
16.9915

>  <SCORE.INTER>
4.11525

>  <SCORE.INTER.CONST>
1

>  <SCORE.INTER.POLAR>
0

>  <SCORE.INTER.ROT>
6

>  <SCORE.INTER.SOLV>
21.3975

>  <SCORE.INTER.VDW>
-11.989

>  <SCORE.INTER.norm>
0.121037

>  <SCORE.INTRA>
1.90076

>  <SCORE.INTRA.DIHEDRAL>
-9.47951

>  <SCORE.INTRA.DIHEDRAL.0>
19.5869

>  <SCORE.INTRA.POLAR>
0

>  <SCORE.INTRA.POLAR.0>
0

>  <SCORE.INTRA.REPUL>
0

>  <SCORE.INTRA.REPUL.0>
0

>  <SCORE.INTRA.SOLV>
0.690078

>  <SCORE.INTRA.SOLV.lig_0>
-70.101

>  <SCORE.INTRA.VDW>
6.29548

>  <SCORE.INTRA.VDW.0>
-3.39718

>  <SCORE.INTRA.norm>
0.0559047

>  <SCORE.RESTR>
10.9755

>  <SCORE.RESTR.CAVITY>
10.9755

>  <SCORE.RESTR.norm>
0.322809

>  <SCORE.SYSTEM>
0

>  <SCORE.SYSTEM.CONST>
0

>  <SCORE.SYSTEM.DIHEDRAL>
0

>  <SCORE.SYSTEM.SOLV>
0

>  <SCORE.SYSTEM.norm>
0

>  <SCORE.heavy>
34

>  <SCORE.norm>
0.49975

>  <RMSD>
6.226

$$$$
ligand
 OpenBabel11021811483D
libRbt.so/2013.1/901 2013/11/27
 34 36  0  0  0  0  0  0  0  0999 V2000
    2.7628    4.8858    9.1598 C   0  0  2  0  0  0  0  0  0  0  0  0
    2.5940    4.5098    7.7840 O   0  0  0  0  0  0  0  0  0  0  0  0
    2.4027    6.4426    3.9775 C   0  0  2  0  0  0  0  0  0  0  0  0
    2.2603    7.4664    2.9481 N   0  0  0  0  0  0  0  0  0  0  0  0
    6.1365    6.4302    4.7624 C   0  0  2  0  0  0  0  0  0  0  0  0
    2.4597    3.6261   10.0473 C   0  0  2  0  0  0  0  0  0  0  0  0
    3.3844    2.5243    9.7389 N   0  0  0  0  0  0  0  0  0  0  0  0
    1.1200    6.4978    4.8727 C   0  0  0  0  0  0  0  0  0  0  0  0
    7.1444    7.5019    4.2124 C   0  0  2  0  0  0  0  0  0  0  0  0
    6.6610    8.8056    4.4911 O   0  0  0  0  0  0  0  0  0  0  0  0
    1.0031    3.1720    9.8095 C   0  0  1  0  0  0  0  0  0  0  0  0
    0.7164    2.0240   10.6247 O   0  0  0  0  0  0  0  0  0  0  0  0
    1.2614    5.3834    5.9641 C   0  0  2  0  0  0  0  0  0  0  0  0
    0.0783    5.3893    6.8483 N   0  0  0  0  0  0  0  0  0  0  0  0
    7.3182    7.2819    2.6597 C   0  0  1  0  0  0  0  0  0  0  0  0
    8.2585    8.2896    2.0838 N   0  0  0  0  0  0  0  0  0  0  0  0
    0.0542    4.3505   10.1322 C   0  0  2  0  0  0  0  0  0  0  0  0
   -1.3070    3.9455    9.9047 O   0  0  0  0  0  0  0  0  0  0  0  0
    2.5318    5.6067    6.8237 C   0  0  2  0  0  0  0  0  0  0  0  0
    7.8533    5.8307    2.4079 C   0  0  1  0  0  0  0  0  0  0  0  0
    9.1265    5.6761    3.0292 O   0  0  0  0  0  0  0  0  0  0  0  0
    0.4203    5.5873    9.2261 C   0  0  2  0  0  0  0  0  0  0  0  0
    1.8245    5.9795    9.4548 O   0  0  0  0  0  0  0  0  0  0  0  0
    3.7792    5.6115    5.9051 C   0  0  2  0  0  0  0  0  0  0  0  0
    4.9301    5.8362    6.7128 O   0  0  0  0  0  0  0  0  0  0  0  0
    6.8460    4.8126    3.0294 C   0  0  0  0  0  0  0  0  0  0  0  0
    6.6475    5.0832    4.4736 O   0  0  0  0  0  0  0  0  0  0  0  0
   -0.4843    6.8116    9.5240 C   0  0  2  0  0  0  0  0  0  0  0  0
   -1.8462    6.4634    9.2894 O   0  0  0  0  0  0  0  0  0  0  0  0
    3.6927    6.7370    4.8481 C   0  0  1  0  0  0  0  0  0  0  0  0
    4.8919    6.6535    4.0424 O   0  0  0  0  0  0  0  0  0  0  0  0
   -0.1402    7.9917    8.6303 C   0  0  0  0  0  0  0  0  0  0  0  0
    8.0248    5.5335    0.9233 C   0  0  0  0  0  0  0  0  0  0  0  0
    7.4729    9.4617    1.6526 C   0  0  0  0  0  0  0  0  0  0  0  0
  1  2  1  6  0  0  0
  1  6  1  0  0  0  0
  1 23  1  0  0  0  0
  3  4  1  6  0  0  0
  3  8  1  0  0  0  0
  3 30  1  0  0  0  0
  5  9  1  0  0  0  0
  5 27  1  0  0  0  0
  5 31  1  6  0  0  0
  6  7  1  6  0  0  0
  6 11  1  0  0  0  0
  8 13  1  0  0  0  0
  9 10  1  6  0  0  0
  9 15  1  0  0  0  0
 11 12  1  1  0  0  0
 11 17  1  0  0  0  0
 13 14  1  1  0  0  0
 13 19  1  0  0  0  0
 15 16  1  1  0  0  0
 15 20  1  0  0  0  0
 16 34  1  0  0  0  0
 17 18  1  6  0  0  0
 17 22  1  0  0  0  0
 19  2  1  1  0  0  0
 19 24  1  0  0  0  0
 20 21  1  1  0  0  0
 20 26  1  0  0  0  0
 20 33  1  0  0  0  0
 22 23  1  1  0  0  0
 22 28  1  0  0  0  0
 24 25  1  1  0  0  0
 24 30  1  0  0  0  0
 26 27  1  0  0  0  0
 28 29  1  6  0  0  0
 28 32  1  0  0  0  0
 30 31  1  6  0  0  0
M  END
>  <CHROM.1>
166.52061080,-128.69187233,-90.45133398,-59.54583615,-158.98274434,-131.09610249
3.53214824,5.83195082,6.18761609,-2.46070775,0.43485369,-0.77259729

>  <Name>
ligand

>  <RI>
0

>  <Rbt.Current_Directory>
/home/itssahil/PROJECTS/Mol_Feturizer/New_Systems/rnas/3TD1

>  <Rbt.Executable>
rbdock ($Id: //depot/dev/client3/rdock/2013.1/src/exe/rbdock.cxx#4 $)

>  <Rbt.Library>
libRbt.so (2013.1, Build901 2013/11/27)

>  <Rbt.Parameter_File>
/export/apps/rDock/src/rDock_2013.1_src/data/scripts/dock_solv.prm

>  <Rbt.Receptor>
prm/blind_docking_60.prm

>  <SCORE>
74.1733

>  <SCORE.INTER>
54.2801

>  <SCORE.INTER.CONST>
1

>  <SCORE.INTER.POLAR>
0

>  <SCORE.INTER.ROT>
6

>  <SCORE.INTER.SOLV>
36.1066

>  <SCORE.INTER.VDW>
16.5512

>  <SCORE.INTER.norm>
1.59647

>  <SCORE.INTRA>
9.46451

>  <SCORE.INTRA.DIHEDRAL>
-2.68208

>  <SCORE.INTRA.DIHEDRAL.0>
19.5869

>  <SCORE.INTRA.POLAR>
0

>  <SCORE.INTRA.POLAR.0>
0

>  <SCORE.INTRA.REPUL>
0

>  <SCORE.INTRA.REPUL.0>
0

>  <SCORE.INTRA.SOLV>
2.09663

>  <SCORE.INTRA.SOLV.lig_0>
-70.101

>  <SCORE.INTRA.VDW>
9.75724

>  <SCORE.INTRA.VDW.0>
-3.39718

>  <SCORE.INTRA.norm>
0.278368

>  <SCORE.RESTR>
10.4287

>  <SCORE.RESTR.CAVITY>
10.4287

>  <SCORE.RESTR.norm>
0.306727

>  <SCORE.SYSTEM>
0

>  <SCORE.SYSTEM.CONST>
0

>  <SCORE.SYSTEM.DIHEDRAL>
0

>  <SCORE.SYSTEM.SOLV>
0

>  <SCORE.SYSTEM.norm>
0

>  <SCORE.heavy>
34

>  <SCORE.norm>
2.18157

>  <RMSD>
6.231

$$$$
ligand
 OpenBabel11021811483D
libRbt.so/2013.1/901 2013/11/27
 34 36  0  0  0  0  0  0  0  0999 V2000
    1.8390    4.0396    9.3049 C   0  0  2  0  0  0  0  0  0  0  0  0
    1.1238    4.7094    8.2550 O   0  0  0  0  0  0  0  0  0  0  0  0
    3.1600    6.0644    4.7508 C   0  0  2  0  0  0  0  0  0  0  0  0
    3.8741    6.9131    3.8032 N   0  0  0  0  0  0  0  0  0  0  0  0
    6.4572    5.4474    6.4524 C   0  0  2  0  0  0  0  0  0  0  0  0
    2.1033    2.5614    8.8449 C   0  0  2  0  0  0  0  0  0  0  0  0
    2.9146    2.5240    7.6183 N   0  0  0  0  0  0  0  0  0  0  0  0
    1.8411    6.8095    5.1444 C   0  0  0  0  0  0  0  0  0  0  0  0
    6.7056    6.9749    6.1840 C   0  0  2  0  0  0  0  0  0  0  0  0
    5.6040    7.7325    6.6567 O   0  0  0  0  0  0  0  0  0  0  0  0
    0.7530    1.8522    8.6038 C   0  0  1  0  0  0  0  0  0  0  0  0
    0.9873    0.4962    8.1901 O   0  0  0  0  0  0  0  0  0  0  0  0
    1.0625    5.8887    6.1439 C   0  0  2  0  0  0  0  0  0  0  0  0
   -0.1949    6.5430    6.5589 N   0  0  0  0  0  0  0  0  0  0  0  0
    6.9167    7.1877    4.6349 C   0  0  1  0  0  0  0  0  0  0  0  0
    7.1419    8.6314    4.3243 N   0  0  0  0  0  0  0  0  0  0  0  0
   -0.0822    1.9140    9.9046 C   0  0  2  0  0  0  0  0  0  0  0  0
   -1.3486    1.2661    9.6920 O   0  0  0  0  0  0  0  0  0  0  0  0
    1.9145    5.5931    7.4046 C   0  0  2  0  0  0  0  0  0  0  0  0
    8.1424    6.3315    4.1657 C   0  0  1  0  0  0  0  0  0  0  0  0
    9.3177    6.7675    4.8437 O   0  0  0  0  0  0  0  0  0  0  0  0
   -0.2960    3.4182   10.3245 C   0  0  2  0  0  0  0  0  0  0  0  0
    1.0107    4.0759   10.5199 O   0  0  0  0  0  0  0  0  0  0  0  0
    3.2410    4.9144    6.9806 C   0  0  2  0  0  0  0  0  0  0  0  0
    4.0137    4.6695    8.1512 O   0  0  0  0  0  0  0  0  0  0  0  0
    7.8680    4.8345    4.5139 C   0  0  0  0  0  0  0  0  0  0  0  0
    7.6051    4.6710    5.9640 O   0  0  0  0  0  0  0  0  0  0  0  0
   -1.1078    3.5426   11.6403 C   0  0  2  0  0  0  0  0  0  0  0  0
   -0.6498    2.5683   12.5742 O   0  0  0  0  0  0  0  0  0  0  0  0
    4.0580    5.8234    6.0331 C   0  0  1  0  0  0  0  0  0  0  0  0
    5.2654    5.1022    5.6923 O   0  0  0  0  0  0  0  0  0  0  0  0
   -2.5912    3.3088   11.4065 C   0  0  0  0  0  0  0  0  0  0  0  0
    8.3956    6.4666    2.6692 C   0  0  0  0  0  0  0  0  0  0  0  0
    6.5978    8.9058    2.9806 C   0  0  0  0  0  0  0  0  0  0  0  0
  1  2  1  6  0  0  0
  1  6  1  0  0  0  0
  1 23  1  0  0  0  0
  3  4  1  6  0  0  0
  3  8  1  0  0  0  0
  3 30  1  0  0  0  0
  5  9  1  0  0  0  0
  5 27  1  0  0  0  0
  5 31  1  6  0  0  0
  6  7  1  6  0  0  0
  6 11  1  0  0  0  0
  8 13  1  0  0  0  0
  9 10  1  6  0  0  0
  9 15  1  0  0  0  0
 11 12  1  1  0  0  0
 11 17  1  0  0  0  0
 13 14  1  1  0  0  0
 13 19  1  0  0  0  0
 15 16  1  1  0  0  0
 15 20  1  0  0  0  0
 16 34  1  0  0  0  0
 17 18  1  6  0  0  0
 17 22  1  0  0  0  0
 19  2  1  1  0  0  0
 19 24  1  0  0  0  0
 20 21  1  1  0  0  0
 20 26  1  0  0  0  0
 20 33  1  0  0  0  0
 22 23  1  1  0  0  0
 22 28  1  0  0  0  0
 24 25  1  1  0  0  0
 24 30  1  0  0  0  0
 26 27  1  0  0  0  0
 28 29  1  1  0  0  0
 28 32  1  0  0  0  0
 30 31  1  6  0  0  0
M  END
>  <CHROM.1>
-101.65701525,164.75221046,-148.70818178,42.41970728,145.82438811,-59.95804501
3.34634155,4.93737379,7.11270004,-2.43887192,0.29026756,-0.62750213

>  <Name>
ligand

>  <RI>
0

>  <Rbt.Current_Directory>
/home/itssahil/PROJECTS/Mol_Feturizer/New_Systems/rnas/3TD1

>  <Rbt.Executable>
rbdock ($Id: //depot/dev/client3/rdock/2013.1/src/exe/rbdock.cxx#4 $)

>  <Rbt.Library>
libRbt.so (2013.1, Build901 2013/11/27)

>  <Rbt.Parameter_File>
/export/apps/rDock/src/rDock_2013.1_src/data/scripts/dock_solv.prm

>  <Rbt.Receptor>
prm/blind_docking_60.prm

>  <SCORE>
63.9572

>  <SCORE.INTER>
41.6132

>  <SCORE.INTER.CONST>
1

>  <SCORE.INTER.POLAR>
0

>  <SCORE.INTER.ROT>
6

>  <SCORE.INTER.SOLV>
27.4859

>  <SCORE.INTER.VDW>
10.9802

>  <SCORE.INTER.norm>
1.22392

>  <SCORE.INTRA>
7.73882

>  <SCORE.INTRA.DIHEDRAL>
-6.75916

>  <SCORE.INTRA.DIHEDRAL.0>
19.5869

>  <SCORE.INTRA.POLAR>
0

>  <SCORE.INTRA.POLAR.0>
0

>  <SCORE.INTRA.REPUL>
0

>  <SCORE.INTRA.REPUL.0>
0

>  <SCORE.INTRA.SOLV>
4.08272

>  <SCORE.INTRA.SOLV.lig_0>
-70.101

>  <SCORE.INTRA.VDW>
9.07704

>  <SCORE.INTRA.VDW.0>
-3.39718

>  <SCORE.INTRA.norm>
0.227612

>  <SCORE.RESTR>
14.6051

>  <SCORE.RESTR.CAVITY>
14.6051

>  <SCORE.RESTR.norm>
0.429562

>  <SCORE.SYSTEM>
0

>  <SCORE.SYSTEM.CONST>
0

>  <SCORE.SYSTEM.DIHEDRAL>
0

>  <SCORE.SYSTEM.SOLV>
0

>  <SCORE.SYSTEM.norm>
0

>  <SCORE.heavy>
34

>  <SCORE.norm>
1.88109

>  <RMSD>
6.259

$$$$
ligand
 OpenBabel11021811483D
libRbt.so/2013.1/901 2013/11/27
 34 36  0  0  0  0  0  0  0  0999 V2000
    1.8470    4.0749    9.2958 C   0  0  2  0  0  0  0  0  0  0  0  0
    1.1285    4.7264    8.2366 O   0  0  0  0  0  0  0  0  0  0  0  0
    3.1450    6.0771    4.7193 C   0  0  2  0  0  0  0  0  0  0  0  0
    3.8523    6.9251    3.7661 N   0  0  0  0  0  0  0  0  0  0  0  0
    6.4504    5.4707    6.4116 C   0  0  2  0  0  0  0  0  0  0  0  0
    2.1339    2.5968    8.8494 C   0  0  2  0  0  0  0  0  0  0  0  0
    2.9523    2.5605    7.6274 N   0  0  0  0  0  0  0  0  0  0  0  0
    1.8257    6.8195    5.1168 C   0  0  0  0  0  0  0  0  0  0  0  0
    6.6920    7.0002    6.1480 C   0  0  2  0  0  0  0  0  0  0  0  0
    5.5890    7.7517    6.6272 O   0  0  0  0  0  0  0  0  0  0  0  0
    0.7947    1.8673    8.6069 C   0  0  1  0  0  0  0  0  0  0  0  0
    1.0496    0.5113    8.2056 O   0  0  0  0  0  0  0  0  0  0  0  0
    1.0543    5.8993    6.1224 C   0  0  2  0  0  0  0  0  0  0  0  0
   -0.2032    6.5512    6.5411 N   0  0  0  0  0  0  0  0  0  0  0  0
    6.8971    7.2195    4.5990 C   0  0  1  0  0  0  0  0  0  0  0  0
    7.1157    8.6652    4.2931 N   0  0  0  0  0  0  0  0  0  0  0  0
   -0.0484    1.9283    9.9027 C   0  0  2  0  0  0  0  0  0  0  0  0
   -1.3046    1.2615    9.6886 O   0  0  0  0  0  0  0  0  0  0  0  0
    1.9128    5.6099    7.3801 C   0  0  2  0  0  0  0  0  0  0  0  0
    8.1245    6.3698    4.1226 C   0  0  1  0  0  0  0  0  0  0  0  0
    9.3003    6.8079    4.7983 O   0  0  0  0  0  0  0  0  0  0  0  0
   -0.2849    3.4328   10.3090 C   0  0  2  0  0  0  0  0  0  0  0  0
    1.0117    4.1098   10.5060 O   0  0  0  0  0  0  0  0  0  0  0  0
    3.2393    4.9338    6.9521 C   0  0  2  0  0  0  0  0  0  0  0  0
    4.0180    4.6946    8.1199 O   0  0  0  0  0  0  0  0  0  0  0  0
    7.8571    4.8705    4.4662 C   0  0  0  0  0  0  0  0  0  0  0  0
    7.5996    4.7006    5.9165 O   0  0  0  0  0  0  0  0  0  0  0  0
   -1.1055    3.5568   11.6194 C   0  0  2  0  0  0  0  0  0  0  0  0
   -0.5768    2.6640   12.5965 O   0  0  0  0  0  0  0  0  0  0  0  0
    4.0494    5.8424    5.9983 C   0  0  1  0  0  0  0  0  0  0  0  0
    5.2574    5.1238    5.6541 O   0  0  0  0  0  0  0  0  0  0  0  0
   -2.5668    3.2017   11.3999 C   0  0  0  0  0  0  0  0  0  0  0  0
    8.3722    6.5114    2.6259 C   0  0  0  0  0  0  0  0  0  0  0  0
    6.5588    8.9443    2.9556 C   0  0  0  0  0  0  0  0  0  0  0  0
  1  2  1  6  0  0  0
  1  6  1  0  0  0  0
  1 23  1  0  0  0  0
  3  4  1  6  0  0  0
  3  8  1  0  0  0  0
  3 30  1  0  0  0  0
  5  9  1  0  0  0  0
  5 27  1  0  0  0  0
  5 31  1  6  0  0  0
  6  7  1  6  0  0  0
  6 11  1  0  0  0  0
  8 13  1  0  0  0  0
  9 10  1  6  0  0  0
  9 15  1  0  0  0  0
 11 12  1  1  0  0  0
 11 17  1  0  0  0  0
 13 14  1  1  0  0  0
 13 19  1  0  0  0  0
 15 16  1  1  0  0  0
 15 20  1  0  0  0  0
 16 34  1  0  0  0  0
 17 18  1  6  0  0  0
 17 22  1  0  0  0  0
 19  2  1  1  0  0  0
 19 24  1  0  0  0  0
 20 21  1  1  0  0  0
 20 26  1  0  0  0  0
 20 33  1  0  0  0  0
 22 23  1  1  0  0  0
 22 28  1  0  0  0  0
 24 25  1  1  0  0  0
 24 30  1  0  0  0  0
 26 27  1  0  0  0  0
 28 29  1  1  0  0  0
 28 32  1  0  0  0  0
 30 31  1  6  0  0  0
M  END
>  <CHROM.1>
-101.43183678,165.51903804,-148.36986074,46.58791815,146.06616080,-59.74217435
3.34957603,4.95898740,7.09069707,-2.43137678,0.28859201,-0.63455953

>  <Name>
ligand

>  <RI>
0

>  <Rbt.Current_Directory>
/home/itssahil/PROJECTS/Mol_Feturizer/New_Systems/rnas/3TD1

>  <Rbt.Executable>
rbdock ($Id: //depot/dev/client3/rdock/2013.1/src/exe/rbdock.cxx#4 $)

>  <Rbt.Library>
libRbt.so (2013.1, Build901 2013/11/27)

>  <Rbt.Parameter_File>
/export/apps/rDock/src/rDock_2013.1_src/data/scripts/dock_solv.prm

>  <Rbt.Receptor>
prm/blind_docking_60.prm

>  <SCORE>
65.4418

>  <SCORE.INTER>
43.2643

>  <SCORE.INTER.CONST>
1

>  <SCORE.INTER.POLAR>
0

>  <SCORE.INTER.ROT>
6

>  <SCORE.INTER.SOLV>
27.7627

>  <SCORE.INTER.VDW>
11.9887

>  <SCORE.INTER.norm>
1.27248

>  <SCORE.INTRA>
7.93338

>  <SCORE.INTRA.DIHEDRAL>
-7.35135

>  <SCORE.INTRA.DIHEDRAL.0>
19.5869

>  <SCORE.INTRA.POLAR>
0

>  <SCORE.INTRA.POLAR.0>
0

>  <SCORE.INTRA.REPUL>
0

>  <SCORE.INTRA.REPUL.0>
0

>  <SCORE.INTRA.SOLV>
4.1028

>  <SCORE.INTRA.SOLV.lig_0>
-70.101

>  <SCORE.INTRA.VDW>
9.55766

>  <SCORE.INTRA.VDW.0>
-3.39718

>  <SCORE.INTRA.norm>
0.233335

>  <SCORE.RESTR>
14.2441

>  <SCORE.RESTR.CAVITY>
14.2441

>  <SCORE.RESTR.norm>
0.418944

>  <SCORE.SYSTEM>
0

>  <SCORE.SYSTEM.CONST>
0

>  <SCORE.SYSTEM.DIHEDRAL>
0

>  <SCORE.SYSTEM.SOLV>
0

>  <SCORE.SYSTEM.norm>
0

>  <SCORE.heavy>
34

>  <SCORE.norm>
1.92476

>  <RMSD>
6.262

$$$$
ligand
 OpenBabel11021811483D
libRbt.so/2013.1/901 2013/11/27
 34 36  0  0  0  0  0  0  0  0999 V2000
    2.0820    5.8405    5.3598 C   0  0  2  0  0  0  0  0  0  0  0  0
    3.1288    6.8201    5.4457 O   0  0  0  0  0  0  0  0  0  0  0  0
    7.3701    6.8847    5.9641 C   0  0  2  0  0  0  0  0  0  0  0  0
    8.7456    6.4556    6.1919 N   0  0  0  0  0  0  0  0  0  0  0  0
    8.2030    8.0974    3.6485 C   0  0  2  0  0  0  0  0  0  0  0  0
    0.7738    6.5693    4.8865 C   0  0  2  0  0  0  0  0  0  0  0  0
    0.9582    7.1851    3.5633 N   0  0  0  0  0  0  0  0  0  0  0  0
    6.5113    6.3579    7.1620 C   0  0  0  0  0  0  0  0  0  0  0  0
    7.7243    8.9480    2.4179 C   0  0  2  0  0  0  0  0  0  0  0  0
    6.3113    9.0665    2.4346 O   0  0  0  0  0  0  0  0  0  0  0  0
    0.3884    7.6498    5.9201 C   0  0  1  0  0  0  0  0  0  0  0  0
   -0.8127    8.3155    5.4971 O   0  0  0  0  0  0  0  0  0  0  0  0
    5.0387    6.8379    6.9301 C   0  0  2  0  0  0  0  0  0  0  0  0
    4.1739    6.3644    8.0299 N   0  0  0  0  0  0  0  0  0  0  0  0
    8.2184    8.2445    1.0948 C   0  0  1  0  0  0  0  0  0  0  0  0
    7.7736    9.0086   -0.1092 N   0  0  0  0  0  0  0  0  0  0  0  0
    0.2098    6.9773    7.3019 C   0  0  2  0  0  0  0  0  0  0  0  0
   -0.1392    7.9741    8.2782 O   0  0  0  0  0  0  0  0  0  0  0  0
    4.4840    6.2978    5.5872 C   0  0  2  0  0  0  0  0  0  0  0  0
    9.7815    8.1396    1.1273 C   0  0  1  0  0  0  0  0  0  0  0  0
   10.3474    9.4465    1.1798 O   0  0  0  0  0  0  0  0  0  0  0  0
    1.5460    6.2482    7.7115 C   0  0  2  0  0  0  0  0  0  0  0  0
    1.9027    5.2427    6.6918 O   0  0  0  0  0  0  0  0  0  0  0  0
    5.3889    6.7810    4.4263 C   0  0  2  0  0  0  0  0  0  0  0  0
    4.8714    6.2584    3.2071 O   0  0  0  0  0  0  0  0  0  0  0  0
   10.2018    7.3408    2.4012 C   0  0  0  0  0  0  0  0  0  0  0  0
    9.6678    7.9840    3.6258 O   0  0  0  0  0  0  0  0  0  0  0  0
    1.4186    5.5318    9.0813 C   0  0  2  0  0  0  0  0  0  0  0  0
    1.6328    6.4724   10.1304 O   0  0  0  0  0  0  0  0  0  0  0  0
    6.8407    6.2776    4.6004 C   0  0  1  0  0  0  0  0  0  0  0  0
    7.6011    6.7837    3.4779 O   0  0  0  0  0  0  0  0  0  0  0  0
    2.4452    4.4210    9.2291 C   0  0  0  0  0  0  0  0  0  0  0  0
   10.3344    7.4465   -0.1121 C   0  0  0  0  0  0  0  0  0  0  0  0
    7.2712    8.0461   -1.1082 C   0  0  0  0  0  0  0  0  0  0  0  0
  1  2  1  1  0  0  0
  1  6  1  0  0  0  0
  1 23  1  0  0  0  0
  3  4  1  1  0  0  0
  3  8  1  0  0  0  0
  3 30  1  0  0  0  0
  5  9  1  0  0  0  0
  5 27  1  0  0  0  0
  5 31  1  6  0  0  0
  6  7  1  6  0  0  0
  6 11  1  0  0  0  0
  8 13  1  0  0  0  0
  9 10  1  6  0  0  0
  9 15  1  0  0  0  0
 11 12  1  6  0  0  0
 11 17  1  0  0  0  0
 13 14  1  1  0  0  0
 13 19  1  0  0  0  0
 15 16  1  6  0  0  0
 15 20  1  0  0  0  0
 16 34  1  0  0  0  0
 17 18  1  1  0  0  0
 17 22  1  0  0  0  0
 19  2  1  6  0  0  0
 19 24  1  0  0  0  0
 20 21  1  1  0  0  0
 20 26  1  0  0  0  0
 20 33  1  0  0  0  0
 22 23  1  6  0  0  0
 22 28  1  0  0  0  0
 24 25  1  6  0  0  0
 24 30  1  0  0  0  0
 26 27  1  0  0  0  0
 28 29  1  1  0  0  0
 28 32  1  0  0  0  0
 30 31  1  6  0  0  0
M  END
>  <CHROM.1>
-167.18662533,-119.43054843,-136.19748505,-82.71723260,-27.37267247,-126.79675836
5.05910671,7.13765701,4.73808776,2.47415801,-0.05548988,1.90386874

>  <Name>
ligand

>  <RI>
0

>  <Rbt.Current_Directory>
/home/itssahil/PROJECTS/Mol_Feturizer/New_Systems/rnas/3TD1

>  <Rbt.Executable>
rbdock ($Id: //depot/dev/client3/rdock/2013.1/src/exe/rbdock.cxx#4 $)

>  <Rbt.Library>
libRbt.so (2013.1, Build901 2013/11/27)

>  <Rbt.Parameter_File>
/export/apps/rDock/src/rDock_2013.1_src/data/scripts/dock_solv.prm

>  <Rbt.Receptor>
prm/blind_docking_20.prm

>  <SCORE>
17.2951

>  <SCORE.INTER>
1.55259

>  <SCORE.INTER.CONST>
1

>  <SCORE.INTER.POLAR>
0

>  <SCORE.INTER.ROT>
6

>  <SCORE.INTER.SOLV>
22.9147

>  <SCORE.INTER.VDW>
-14.2032

>  <SCORE.INTER.norm>
0.0456643

>  <SCORE.INTRA>
5.97587

>  <SCORE.INTRA.DIHEDRAL>
2.11572

>  <SCORE.INTRA.DIHEDRAL.0>
19.5869

>  <SCORE.INTRA.POLAR>
0

>  <SCORE.INTRA.POLAR.0>
0

>  <SCORE.INTRA.REPUL>
0

>  <SCORE.INTRA.REPUL.0>
0

>  <SCORE.INTRA.SOLV>
3.25459

>  <SCORE.INTRA.SOLV.lig_0>
-70.101

>  <SCORE.INTRA.VDW>
3.29071

>  <SCORE.INTRA.VDW.0>
-3.39718

>  <SCORE.INTRA.norm>
0.175761

>  <SCORE.RESTR>
9.76662

>  <SCORE.RESTR.CAVITY>
9.76662

>  <SCORE.RESTR.norm>
0.287254

>  <SCORE.SYSTEM>
0

>  <SCORE.SYSTEM.CONST>
0

>  <SCORE.SYSTEM.DIHEDRAL>
0

>  <SCORE.SYSTEM.SOLV>
0

>  <SCORE.SYSTEM.norm>
0

>  <SCORE.heavy>
34

>  <SCORE.norm>
0.508679

>  <RMSD>
6.271

$$$$
ligand
 OpenBabel11021811483D
libRbt.so/2013.1/901 2013/11/27
 34 36  0  0  0  0  0  0  0  0999 V2000
    2.9961    5.0724    8.7070 C   0  0  2  0  0  0  0  0  0  0  0  0
    3.9240    4.9978    7.6134 O   0  0  0  0  0  0  0  0  0  0  0  0
    2.9222    6.5531    3.7612 C   0  0  2  0  0  0  0  0  0  0  0  0
    2.6403    7.4805    2.6710 N   0  0  0  0  0  0  0  0  0  0  0  0
    6.6108    5.7495    3.5092 C   0  0  2  0  0  0  0  0  0  0  0  0
    3.6596    4.3849    9.9535 C   0  0  2  0  0  0  0  0  0  0  0  0
    4.9035    5.0697   10.3381 N   0  0  0  0  0  0  0  0  0  0  0  0
    1.9791    6.9304    4.9520 C   0  0  0  0  0  0  0  0  0  0  0  0
    7.6633    6.8868    3.2523 C   0  0  2  0  0  0  0  0  0  0  0  0
    7.3662    8.0106    4.0644 O   0  0  0  0  0  0  0  0  0  0  0  0
    3.9544    2.9053    9.6243 C   0  0  1  0  0  0  0  0  0  0  0  0
    4.5545    2.2678   10.7637 O   0  0  0  0  0  0  0  0  0  0  0  0
    2.2647    5.9206    6.1146 C   0  0  2  0  0  0  0  0  0  0  0  0
    1.4052    6.2303    7.2752 N   0  0  0  0  0  0  0  0  0  0  0  0
    7.6305    7.2690    1.7219 C   0  0  1  0  0  0  0  0  0  0  0  0
    8.6060    8.3613    1.4276 N   0  0  0  0  0  0  0  0  0  0  0  0
    2.6330    2.2124    9.2150 C   0  0  2  0  0  0  0  0  0  0  0  0
    2.8938    0.8348    8.8948 O   0  0  0  0  0  0  0  0  0  0  0  0
    3.7489    5.9887    6.5566 C   0  0  2  0  0  0  0  0  0  0  0  0
    7.9650    5.9957    0.8718 C   0  0  1  0  0  0  0  0  0  0  0  0
    9.2758    5.5375    1.1928 O   0  0  0  0  0  0  0  0  0  0  0  0
    2.0072    2.9579    7.9752 C   0  0  2  0  0  0  0  0  0  0  0  0
    1.7634    4.3742    8.3110 O   0  0  0  0  0  0  0  0  0  0  0  0
    4.6607    5.6743    5.3444 C   0  0  2  0  0  0  0  0  0  0  0  0
    6.0170    5.7606    5.7691 O   0  0  0  0  0  0  0  0  0  0  0  0
    6.9274    4.8805    1.2140 C   0  0  0  0  0  0  0  0  0  0  0  0
    6.9292    4.5879    2.6676 O   0  0  0  0  0  0  0  0  0  0  0  0
    0.6632    2.3215    7.5342 C   0  0  2  0  0  0  0  0  0  0  0  0
   -0.2244    2.2682    8.6480 O   0  0  0  0  0  0  0  0  0  0  0  0
    4.4387    6.6882    4.1980 C   0  0  1  0  0  0  0  0  0  0  0  0
    5.3247    6.3072    3.1191 O   0  0  0  0  0  0  0  0  0  0  0  0
    0.8576    0.9046    7.0199 C   0  0  0  0  0  0  0  0  0  0  0  0
    7.9291    6.2810   -0.6245 C   0  0  0  0  0  0  0  0  0  0  0  0
    7.8810    9.6462    1.4460 C   0  0  0  0  0  0  0  0  0  0  0  0
  1  2  1  6  0  0  0
  1  6  1  0  0  0  0
  1 23  1  0  0  0  0
  3  4  1  6  0  0  0
  3  8  1  0  0  0  0
  3 30  1  0  0  0  0
  5  9  1  0  0  0  0
  5 27  1  0  0  0  0
  5 31  1  6  0  0  0
  6  7  1  6  0  0  0
  6 11  1  0  0  0  0
  8 13  1  0  0  0  0
  9 10  1  1  0  0  0
  9 15  1  0  0  0  0
 11 12  1  1  0  0  0
 11 17  1  0  0  0  0
 13 14  1  1  0  0  0
 13 19  1  0  0  0  0
 15 16  1  1  0  0  0
 15 20  1  0  0  0  0
 16 34  1  0  0  0  0
 17 18  1  6  0  0  0
 17 22  1  0  0  0  0
 19  2  1  1  0  0  0
 19 24  1  0  0  0  0
 20 21  1  1  0  0  0
 20 26  1  0  0  0  0
 20 33  1  0  0  0  0
 22 23  1  1  0  0  0
 22 28  1  0  0  0  0
 24 25  1  1  0  0  0
 24 30  1  0  0  0  0
 26 27  1  0  0  0  0
 28 29  1  1  0  0  0
 28 32  1  0  0  0  0
 30 31  1  6  0  0  0
M  END
>  <CHROM.1>
-157.08919471,-52.17561659,-96.33318338,54.37886045,-150.53683273,-104.88633224
4.57000480,5.18966369,5.44904461,2.14934133,-0.14411373,2.16567721

>  <Name>
ligand

>  <RI>
0

>  <Rbt.Current_Directory>
/home/itssahil/PROJECTS/Mol_Feturizer/New_Systems/rnas/3TD1

>  <Rbt.Executable>
rbdock ($Id: //depot/dev/client3/rdock/2013.1/src/exe/rbdock.cxx#4 $)

>  <Rbt.Library>
libRbt.so (2013.1, Build901 2013/11/27)

>  <Rbt.Parameter_File>
/export/apps/rDock/src/rDock_2013.1_src/data/scripts/dock_solv.prm

>  <Rbt.Receptor>
prm/blind_docking_100.prm

>  <SCORE>
94.0388

>  <SCORE.INTER>
70.8429

>  <SCORE.INTER.CONST>
1

>  <SCORE.INTER.POLAR>
0

>  <SCORE.INTER.ROT>
6

>  <SCORE.INTER.SOLV>
38.4652

>  <SCORE.INTER.VDW>
26.8068

>  <SCORE.INTER.norm>
2.08361

>  <SCORE.INTRA>
16.2627

>  <SCORE.INTRA.DIHEDRAL>
-6.45977

>  <SCORE.INTRA.DIHEDRAL.0>
19.5869

>  <SCORE.INTRA.POLAR>
0

>  <SCORE.INTRA.POLAR.0>
0

>  <SCORE.INTRA.REPUL>
0

>  <SCORE.INTRA.REPUL.0>
0

>  <SCORE.INTRA.SOLV>
0.269895

>  <SCORE.INTRA.SOLV.lig_0>
-70.101

>  <SCORE.INTRA.VDW>
19.3577

>  <SCORE.INTRA.VDW.0>
-3.39718

>  <SCORE.INTRA.norm>
0.478316

>  <SCORE.RESTR>
6.93313

>  <SCORE.RESTR.CAVITY>
6.93313

>  <SCORE.RESTR.norm>
0.203916

>  <SCORE.SYSTEM>
0

>  <SCORE.SYSTEM.CONST>
0

>  <SCORE.SYSTEM.DIHEDRAL>
0

>  <SCORE.SYSTEM.SOLV>
0

>  <SCORE.SYSTEM.norm>
0

>  <SCORE.heavy>
34

>  <SCORE.norm>
2.76585

>  <RMSD>
6.272

$$$$
ligand
 OpenBabel11021811483D
libRbt.so/2013.1/901 2013/11/27
 34 36  0  0  0  0  0  0  0  0999 V2000
    1.9579    5.4607    8.8810 C   0  0  2  0  0  0  0  0  0  0  0  0
    2.0753    5.0041    7.5244 O   0  0  0  0  0  0  0  0  0  0  0  0
    2.4684    6.7402    3.6395 C   0  0  2  0  0  0  0  0  0  0  0  0
    2.6078    7.7173    2.5653 N   0  0  0  0  0  0  0  0  0  0  0  0
    6.1585    6.1709    4.5578 C   0  0  2  0  0  0  0  0  0  0  0  0
    3.4001    5.5176    9.5000 C   0  0  2  0  0  0  0  0  0  0  0  0
    4.2604    6.4514    8.7569 N   0  0  0  0  0  0  0  0  0  0  0  0
    1.2111    7.1445    4.4794 C   0  0  0  0  0  0  0  0  0  0  0  0
    7.1278    7.3104    4.0790 C   0  0  2  0  0  0  0  0  0  0  0  0
    6.5652    8.5778    4.3758 O   0  0  0  0  0  0  0  0  0  0  0  0
    4.0203    4.1035    9.4813 C   0  0  1  0  0  0  0  0  0  0  0  0
    5.3375    4.1468   10.0537 O   0  0  0  0  0  0  0  0  0  0  0  0
    1.0471    6.0828    5.6190 C   0  0  2  0  0  0  0  0  0  0  0  0
   -0.1251    6.4149    6.4540 N   0  0  0  0  0  0  0  0  0  0  0  0
    7.3717    7.1477    2.5287 C   0  0  1  0  0  0  0  0  0  0  0  0
    8.2778    8.2205    2.0195 N   0  0  0  0  0  0  0  0  0  0  0  0
    3.0924    3.1416   10.2607 C   0  0  2  0  0  0  0  0  0  0  0  0
    3.6522    1.8169   10.2427 O   0  0  0  0  0  0  0  0  0  0  0  0
    2.3080    6.0362    6.5196 C   0  0  2  0  0  0  0  0  0  0  0  0
    7.9927    5.7349    2.2566 C   0  0  1  0  0  0  0  0  0  0  0  0
    9.2480    5.6282    2.9228 O   0  0  0  0  0  0  0  0  0  0  0  0
    1.6588    3.1434    9.6054 C   0  0  2  0  0  0  0  0  0  0  0  0
    1.1049    4.5114    9.6124 O   0  0  0  0  0  0  0  0  0  0  0  0
    3.5462    5.6974    5.6524 C   0  0  2  0  0  0  0  0  0  0  0  0
    4.6929    5.6782    6.4962 O   0  0  0  0  0  0  0  0  0  0  0  0
    7.0185    4.6468    2.8083 C   0  0  0  0  0  0  0  0  0  0  0  0
    6.7514    4.8621    4.2507 O   0  0  0  0  0  0  0  0  0  0  0  0
    0.6748    2.2134   10.3622 C   0  0  2  0  0  0  0  0  0  0  0  0
    0.0620    1.3184    9.4377 O   0  0  0  0  0  0  0  0  0  0  0  0
    3.7651    6.7584    4.5489 C   0  0  1  0  0  0  0  0  0  0  0  0
    4.9319    6.3509    3.7960 O   0  0  0  0  0  0  0  0  0  0  0  0
   -0.4254    3.0046   11.0501 C   0  0  0  0  0  0  0  0  0  0  0  0
    8.2360    5.4931    0.7719 C   0  0  0  0  0  0  0  0  0  0  0  0
    7.4452    9.2995    1.4542 C   0  0  0  0  0  0  0  0  0  0  0  0
  1  2  1  6  0  0  0
  1  6  1  0  0  0  0
  1 23  1  0  0  0  0
  3  4  1  6  0  0  0
  3  8  1  0  0  0  0
  3 30  1  0  0  0  0
  5  9  1  0  0  0  0
  5 27  1  0  0  0  0
  5 31  1  6  0  0  0
  6  7  1  6  0  0  0
  6 11  1  0  0  0  0
  8 13  1  0  0  0  0
  9 10  1  6  0  0  0
  9 15  1  0  0  0  0
 11 12  1  1  0  0  0
 11 17  1  0  0  0  0
 13 14  1  1  0  0  0
 13 19  1  0  0  0  0
 15 16  1  1  0  0  0
 15 20  1  0  0  0  0
 16 34  1  0  0  0  0
 17 18  1  6  0  0  0
 17 22  1  0  0  0  0
 19  2  1  1  0  0  0
 19 24  1  0  0  0  0
 20 21  1  1  0  0  0
 20 26  1  0  0  0  0
 20 33  1  0  0  0  0
 22 23  1  1  0  0  0
 22 28  1  0  0  0  0
 24 25  1  1  0  0  0
 24 30  1  0  0  0  0
 26 27  1  0  0  0  0
 28 29  1  6  0  0  0
 28 32  1  0  0  0  0
 30 31  1  6  0  0  0
M  END
>  <CHROM.1>
-87.58421158,-113.64488320,-96.63849771,-127.76087047,-172.85444737,-112.61715950
4.12571353,5.49138008,6.09245843,2.20670186,-0.21688011,2.17756226

>  <Name>
ligand

>  <RI>
0

>  <Rbt.Current_Directory>
/home/itssahil/PROJECTS/Mol_Feturizer/New_Systems/rnas/3TD1

>  <Rbt.Executable>
rbdock ($Id: //depot/dev/client3/rdock/2013.1/src/exe/rbdock.cxx#4 $)

>  <Rbt.Library>
libRbt.so (2013.1, Build901 2013/11/27)

>  <Rbt.Parameter_File>
/export/apps/rDock/src/rDock_2013.1_src/data/scripts/dock_solv.prm

>  <Rbt.Receptor>
prm/blind_docking_100.prm

>  <SCORE>
118.425

>  <SCORE.INTER>
102.201

>  <SCORE.INTER.CONST>
1

>  <SCORE.INTER.POLAR>
0

>  <SCORE.INTER.ROT>
6

>  <SCORE.INTER.SOLV>
35.7259

>  <SCORE.INTER.VDW>
48.6256

>  <SCORE.INTER.norm>
3.00592

>  <SCORE.INTRA>
8.03204

>  <SCORE.INTRA.DIHEDRAL>
3.76912

>  <SCORE.INTRA.DIHEDRAL.0>
19.5869

>  <SCORE.INTRA.POLAR>
0

>  <SCORE.INTRA.POLAR.0>
0

>  <SCORE.INTRA.REPUL>
0

>  <SCORE.INTRA.REPUL.0>
0

>  <SCORE.INTRA.SOLV>
-0.395792

>  <SCORE.INTRA.SOLV.lig_0>
-70.101

>  <SCORE.INTRA.VDW>
6.34538

>  <SCORE.INTRA.VDW.0>
-3.39718

>  <SCORE.INTRA.norm>
0.236236

>  <SCORE.RESTR>
8.19132

>  <SCORE.RESTR.CAVITY>
8.19132

>  <SCORE.RESTR.norm>
0.240921

>  <SCORE.SYSTEM>
0

>  <SCORE.SYSTEM.CONST>
0

>  <SCORE.SYSTEM.DIHEDRAL>
0

>  <SCORE.SYSTEM.SOLV>
0

>  <SCORE.SYSTEM.norm>
0

>  <SCORE.heavy>
34

>  <SCORE.norm>
3.48308

>  <RMSD>
6.292

$$$$
ligand
 OpenBabel11021811483D
libRbt.so/2013.1/901 2013/11/27
 34 36  0  0  0  0  0  0  0  0999 V2000
    0.5797    5.5882    7.1644 C   0  0  2  0  0  0  0  0  0  0  0  0
    1.6244    6.4173    7.6970 O   0  0  0  0  0  0  0  0  0  0  0  0
    5.8976    6.4530    7.6824 C   0  0  2  0  0  0  0  0  0  0  0  0
    7.2875    6.0116    7.6474 N   0  0  0  0  0  0  0  0  0  0  0  0
    7.2656    6.9070    5.2257 C   0  0  2  0  0  0  0  0  0  0  0  0
   -0.6076    5.5839    8.1924 C   0  0  2  0  0  0  0  0  0  0  0  0
   -1.1365    6.9412    8.3984 N   0  0  0  0  0  0  0  0  0  0  0  0
    5.1929    5.6875    8.8517 C   0  0  0  0  0  0  0  0  0  0  0  0
    7.6546    7.9360    4.1046 C   0  0  2  0  0  0  0  0  0  0  0  0
    7.1210    9.2124    4.4159 O   0  0  0  0  0  0  0  0  0  0  0  0
   -0.1180    5.0011    9.5360 C   0  0  1  0  0  0  0  0  0  0  0  0
   -1.2018    4.9869   10.4793 O   0  0  0  0  0  0  0  0  0  0  0  0
    3.7065    6.1779    8.9048 C   0  0  2  0  0  0  0  0  0  0  0  0
    2.9839    5.4837    9.9900 N   0  0  0  0  0  0  0  0  0  0  0  0
    7.1006    7.4116    2.7235 C   0  0  1  0  0  0  0  0  0  0  0  0
    7.4317    8.3660    1.6231 N   0  0  0  0  0  0  0  0  0  0  0  0
    0.4403    3.5795    9.2892 C   0  0  2  0  0  0  0  0  0  0  0  0
    0.9105    3.0273   10.5312 O   0  0  0  0  0  0  0  0  0  0  0  0
    2.9825    5.9011    7.5624 C   0  0  2  0  0  0  0  0  0  0  0  0
    7.7201    6.0028    2.4282 C   0  0  1  0  0  0  0  0  0  0  0  0
    9.1375    6.1149    2.3307 O   0  0  0  0  0  0  0  0  0  0  0  0
    1.6120    3.6471    8.2370 C   0  0  2  0  0  0  0  0  0  0  0  0
    1.1207    4.2336    6.9749 O   0  0  0  0  0  0  0  0  0  0  0  0
    3.7373    6.6174    6.4147 C   0  0  2  0  0  0  0  0  0  0  0  0
    3.0660    6.3344    5.1913 O   0  0  0  0  0  0  0  0  0  0  0  0
    7.3555    5.0412    3.6028 C   0  0  0  0  0  0  0  0  0  0  0  0
    7.8265    5.5892    4.8975 O   0  0  0  0  0  0  0  0  0  0  0  0
    2.1961    2.2435    7.9294 C   0  0  2  0  0  0  0  0  0  0  0  0
    1.3867    1.2469    8.5482 O   0  0  0  0  0  0  0  0  0  0  0  0
    5.1956    6.1150    6.3034 C   0  0  1  0  0  0  0  0  0  0  0  0
    5.8120    6.8439    5.2156 O   0  0  0  0  0  0  0  0  0  0  0  0
    3.6115    2.0975    8.4631 C   0  0  0  0  0  0  0  0  0  0  0  0
    7.2118    5.4177    1.1163 C   0  0  0  0  0  0  0  0  0  0  0  0
    8.8172    8.8343    1.8183 C   0  0  0  0  0  0  0  0  0  0  0  0
  1  2  1  1  0  0  0
  1  6  1  0  0  0  0
  1 23  1  0  0  0  0
  3  4  1  6  0  0  0
  3  8  1  0  0  0  0
  3 30  1  0  0  0  0
  5  9  1  0  0  0  0
  5 27  1  0  0  0  0
  5 31  1  6  0  0  0
  6  7  1  1  0  0  0
  6 11  1  0  0  0  0
  8 13  1  0  0  0  0
  9 10  1  1  0  0  0
  9 15  1  0  0  0  0
 11 12  1  1  0  0  0
 11 17  1  0  0  0  0
 13 14  1  1  0  0  0
 13 19  1  0  0  0  0
 15 16  1  6  0  0  0
 15 20  1  0  0  0  0
 16 34  1  0  0  0  0
 17 18  1  1  0  0  0
 17 22  1  0  0  0  0
 19  2  1  1  0  0  0
 19 24  1  0  0  0  0
 20 21  1  6  0  0  0
 20 26  1  0  0  0  0
 20 33  1  0  0  0  0
 22 23  1  6  0  0  0
 22 28  1  0  0  0  0
 24 25  1  6  0  0  0
 24 30  1  0  0  0  0
 26 27  1  0  0  0  0
 28 29  1  1  0  0  0
 28 32  1  0  0  0  0
 30 31  1  6  0  0  0
M  END
>  <CHROM.1>
137.24748504,-137.72854919,41.76739542,7.98090410,42.59781502,-170.73842525
4.14757346,5.66443170,6.44421413,2.59339993,-0.53821468,2.70954235

>  <Name>
ligand

>  <RI>
0

>  <Rbt.Current_Directory>
/home/itssahil/PROJECTS/Mol_Feturizer/New_Systems/rnas/3TD1

>  <Rbt.Executable>
rbdock ($Id: //depot/dev/client3/rdock/2013.1/src/exe/rbdock.cxx#4 $)

>  <Rbt.Library>
libRbt.so (2013.1, Build901 2013/11/27)

>  <Rbt.Parameter_File>
/export/apps/rDock/src/rDock_2013.1_src/data/scripts/dock_solv.prm

>  <Rbt.Receptor>
prm/blind_docking_60.prm

>  <SCORE>
24.2687

>  <SCORE.INTER>
-2.07434

>  <SCORE.INTER.CONST>
1

>  <SCORE.INTER.POLAR>
0

>  <SCORE.INTER.ROT>
6

>  <SCORE.INTER.SOLV>
22.583

>  <SCORE.INTER.VDW>
-16.5106

>  <SCORE.INTER.norm>
-0.0610101

>  <SCORE.INTRA>
11.6706

>  <SCORE.INTRA.DIHEDRAL>
-0.740327

>  <SCORE.INTRA.DIHEDRAL.0>
19.5869

>  <SCORE.INTRA.POLAR>
0

>  <SCORE.INTRA.POLAR.0>
0

>  <SCORE.INTRA.REPUL>
0

>  <SCORE.INTRA.REPUL.0>
0

>  <SCORE.INTRA.SOLV>
3.89868

>  <SCORE.INTRA.SOLV.lig_0>
-70.101

>  <SCORE.INTRA.VDW>
10.0914

>  <SCORE.INTRA.VDW.0>
-3.39718

>  <SCORE.INTRA.norm>
0.343252

>  <SCORE.RESTR>
14.6724

>  <SCORE.RESTR.CAVITY>
14.6724

>  <SCORE.RESTR.norm>
0.431542

>  <SCORE.SYSTEM>
0

>  <SCORE.SYSTEM.CONST>
0

>  <SCORE.SYSTEM.DIHEDRAL>
0

>  <SCORE.SYSTEM.SOLV>
0

>  <SCORE.SYSTEM.norm>
0

>  <SCORE.heavy>
34

>  <SCORE.norm>
0.713784

>  <RMSD>
6.304

$$$$
ligand
 OpenBabel11021811483D
libRbt.so/2013.1/901 2013/11/27
 34 36  0  0  0  0  0  0  0  0999 V2000
    0.8999    5.5621    7.2676 C   0  0  2  0  0  0  0  0  0  0  0  0
    1.9682    6.2735    7.9118 O   0  0  0  0  0  0  0  0  0  0  0  0
    6.2353    6.2970    7.6813 C   0  0  2  0  0  0  0  0  0  0  0  0
    7.6186    5.8554    7.5407 N   0  0  0  0  0  0  0  0  0  0  0  0
    7.4799    6.9469    5.2074 C   0  0  2  0  0  0  0  0  0  0  0  0
   -0.4058    5.7787    8.1131 C   0  0  2  0  0  0  0  0  0  0  0  0
   -0.7605    7.2046    8.1863 N   0  0  0  0  0  0  0  0  0  0  0  0
    5.5856    5.4442    8.8216 C   0  0  0  0  0  0  0  0  0  0  0  0
    7.8179    7.9698    4.0644 C   0  0  2  0  0  0  0  0  0  0  0  0
    7.2951    9.2470    4.3908 O   0  0  0  0  0  0  0  0  0  0  0  0
   -0.1928    5.2164    9.5353 C   0  0  1  0  0  0  0  0  0  0  0  0
   -1.3868    5.4042   10.3123 O   0  0  0  0  0  0  0  0  0  0  0  0
    4.1073    5.9335    8.9890 C   0  0  2  0  0  0  0  0  0  0  0  0
    3.4359    5.1585   10.0521 N   0  0  0  0  0  0  0  0  0  0  0  0
    7.2060    7.4360    2.7116 C   0  0  1  0  0  0  0  0  0  0  0  0
    7.4872    8.3843    1.5922 N   0  0  0  0  0  0  0  0  0  0  0  0
    0.1873    3.7205    9.4286 C   0  0  2  0  0  0  0  0  0  0  0  0
    0.3996    3.1851   10.7464 O   0  0  0  0  0  0  0  0  0  0  0  0
    3.3141    5.7653    7.6679 C   0  0  2  0  0  0  0  0  0  0  0  0
    7.8155    6.0267    2.3983 C   0  0  1  0  0  0  0  0  0  0  0  0
    9.2271    6.1411    2.2390 O   0  0  0  0  0  0  0  0  0  0  0  0
    1.4900    3.5672    8.5545 C   0  0  2  0  0  0  0  0  0  0  0  0
    1.2647    4.1382    7.2124 O   0  0  0  0  0  0  0  0  0  0  0  0
    4.0146    6.5672    6.5426 C   0  0  2  0  0  0  0  0  0  0  0  0
    3.2801    6.3831    5.3368 O   0  0  0  0  0  0  0  0  0  0  0  0
    7.5041    5.0714    3.5932 C   0  0  0  0  0  0  0  0  0  0  0  0
    8.0292    5.6283    4.8630 O   0  0  0  0  0  0  0  0  0  0  0  0
    1.9063    2.0820    8.3906 C   0  0  2  0  0  0  0  0  0  0  0  0
    3.1634    2.0127    7.7228 O   0  0  0  0  0  0  0  0  0  0  0  0
    5.4618    6.0706    6.3178 C   0  0  1  0  0  0  0  0  0  0  0  0
    6.0273    6.8807    5.2603 O   0  0  0  0  0  0  0  0  0  0  0  0
    0.8929    1.3049    7.5668 C   0  0  0  0  0  0  0  0  0  0  0  0
    7.2525    5.4326    1.1130 C   0  0  0  0  0  0  0  0  0  0  0  0
    6.6356    9.5759    1.7706 C   0  0  0  0  0  0  0  0  0  0  0  0
  1  2  1  1  0  0  0
  1  6  1  0  0  0  0
  1 23  1  0  0  0  0
  3  4  1  6  0  0  0
  3  8  1  0  0  0  0
  3 30  1  0  0  0  0
  5  9  1  0  0  0  0
  5 27  1  0  0  0  0
  5 31  1  6  0  0  0
  6  7  1  1  0  0  0
  6 11  1  0  0  0  0
  8 13  1  0  0  0  0
  9 10  1  1  0  0  0
  9 15  1  0  0  0  0
 11 12  1  1  0  0  0
 11 17  1  0  0  0  0
 13 14  1  1  0  0  0
 13 19  1  0  0  0  0
 15 16  1  6  0  0  0
 15 20  1  0  0  0  0
 16 34  1  0  0  0  0
 17 18  1  1  0  0  0
 17 22  1  0  0  0  0
 19  2  1  1  0  0  0
 19 24  1  0  0  0  0
 20 21  1  6  0  0  0
 20 26  1  0  0  0  0
 20 33  1  0  0  0  0
 22 23  1  6  0  0  0
 22 28  1  0  0  0  0
 24 25  1  6  0  0  0
 24 30  1  0  0  0  0
 26 27  1  0  0  0  0
 28 29  1  6  0  0  0
 28 32  1  0  0  0  0
 30 31  1  6  0  0  0
M  END
>  <CHROM.1>
154.18215300,-143.25412017,-72.68333090,-173.58927248,42.12743130,-175.39456856
4.18187538,5.68781887,6.42742128,2.57219251,-0.51695167,2.67714314

>  <Name>
ligand

>  <RI>
0

>  <Rbt.Current_Directory>
/home/itssahil/PROJECTS/Mol_Feturizer/New_Systems/rnas/3TD1

>  <Rbt.Executable>
rbdock ($Id: //depot/dev/client3/rdock/2013.1/src/exe/rbdock.cxx#4 $)

>  <Rbt.Library>
libRbt.so (2013.1, Build901 2013/11/27)

>  <Rbt.Parameter_File>
/export/apps/rDock/src/rDock_2013.1_src/data/scripts/dock_solv.prm

>  <Rbt.Receptor>
prm/blind_docking_100.prm

>  <SCORE>
11.0672

>  <SCORE.INTER>
-3.66353

>  <SCORE.INTER.CONST>
1

>  <SCORE.INTER.POLAR>
0

>  <SCORE.INTER.ROT>
6

>  <SCORE.INTER.SOLV>
22.9678

>  <SCORE.INTER.VDW>
-17.6983

>  <SCORE.INTER.norm>
-0.107751

>  <SCORE.INTRA>
1.25093

>  <SCORE.INTRA.DIHEDRAL>
-10.022

>  <SCORE.INTRA.DIHEDRAL.0>
19.5869

>  <SCORE.INTRA.POLAR>
0

>  <SCORE.INTRA.POLAR.0>
0

>  <SCORE.INTRA.REPUL>
0

>  <SCORE.INTRA.REPUL.0>
0

>  <SCORE.INTRA.SOLV>
2.35954

>  <SCORE.INTRA.SOLV.lig_0>
-70.101

>  <SCORE.INTRA.VDW>
5.08217

>  <SCORE.INTRA.VDW.0>
-3.39718

>  <SCORE.INTRA.norm>
0.0367921

>  <SCORE.RESTR>
13.4798

>  <SCORE.RESTR.CAVITY>
13.4798

>  <SCORE.RESTR.norm>
0.396466

>  <SCORE.SYSTEM>
0

>  <SCORE.SYSTEM.CONST>
0

>  <SCORE.SYSTEM.DIHEDRAL>
0

>  <SCORE.SYSTEM.SOLV>
0

>  <SCORE.SYSTEM.norm>
0

>  <SCORE.heavy>
34

>  <SCORE.norm>
0.325507

>  <RMSD>
6.315

$$$$
ligand
 OpenBabel11021811483D
libRbt.so/2013.1/901 2013/11/27
 34 36  0  0  0  0  0  0  0  0999 V2000
    0.9305    5.5361    7.2157 C   0  0  2  0  0  0  0  0  0  0  0  0
    1.9980    6.2514    7.8571 O   0  0  0  0  0  0  0  0  0  0  0  0
    6.2653    6.2681    7.6309 C   0  0  2  0  0  0  0  0  0  0  0  0
    7.6484    5.8233    7.4989 N   0  0  0  0  0  0  0  0  0  0  0  0
    7.5129    6.8864    5.1547 C   0  0  2  0  0  0  0  0  0  0  0  0
   -0.3816    5.7778    8.0441 C   0  0  2  0  0  0  0  0  0  0  0  0
   -0.7263    7.2074    8.0876 N   0  0  0  0  0  0  0  0  0  0  0  0
    5.6137    5.4339    8.7839 C   0  0  0  0  0  0  0  0  0  0  0  0
    7.8506    7.9531    4.0523 C   0  0  2  0  0  0  0  0  0  0  0  0
    7.3226    9.2152    4.4255 O   0  0  0  0  0  0  0  0  0  0  0  0
   -0.1865    5.2404    9.4785 C   0  0  1  0  0  0  0  0  0  0  0  0
   -1.3866    5.4512   10.2402 O   0  0  0  0  0  0  0  0  0  0  0  0
    4.1356    5.9270    8.9419 C   0  0  2  0  0  0  0  0  0  0  0  0
    3.4624    5.1693   10.0164 N   0  0  0  0  0  0  0  0  0  0  0  0
    7.2444    7.4689    2.6785 C   0  0  1  0  0  0  0  0  0  0  0  0
    7.5256    8.4600    1.5968 N   0  0  0  0  0  0  0  0  0  0  0  0
    0.1833    3.7400    9.4031 C   0  0  2  0  0  0  0  0  0  0  0  0
    0.3788    3.2274   10.7326 O   0  0  0  0  0  0  0  0  0  0  0  0
    3.3438    5.7384    7.6227 C   0  0  2  0  0  0  0  0  0  0  0  0
    7.8596    6.0746    2.3137 C   0  0  1  0  0  0  0  0  0  0  0  0
    9.2712    6.1995    2.1631 O   0  0  0  0  0  0  0  0  0  0  0  0
    1.4932    3.5610    8.5448 C   0  0  2  0  0  0  0  0  0  0  0  0
    1.2851    4.1087    7.1903 O   0  0  0  0  0  0  0  0  0  0  0  0
    4.0461    6.5218    6.4857 C   0  0  2  0  0  0  0  0  0  0  0  0
    3.3127    6.3192    5.2821 O   0  0  0  0  0  0  0  0  0  0  0  0
    7.5480    5.0736    3.4706 C   0  0  0  0  0  0  0  0  0  0  0  0
    8.0676    5.5836    4.7622 O   0  0  0  0  0  0  0  0  0  0  0  0
    1.8998    2.0700    8.4124 C   0  0  2  0  0  0  0  0  0  0  0  0
    3.1726    1.9800    7.7774 O   0  0  0  0  0  0  0  0  0  0  0  0
    5.4931    6.0206    6.2703 C   0  0  1  0  0  0  0  0  0  0  0  0
    6.0604    6.8135    5.2008 O   0  0  0  0  0  0  0  0  0  0  0  0
    0.9003    1.2901    7.5743 C   0  0  0  0  0  0  0  0  0  0  0  0
    7.3022    5.5279    1.0052 C   0  0  0  0  0  0  0  0  0  0  0  0
    6.6161    9.6083    1.7737 C   0  0  0  0  0  0  0  0  0  0  0  0
  1  2  1  1  0  0  0
  1  6  1  0  0  0  0
  1 23  1  0  0  0  0
  3  4  1  6  0  0  0
  3  8  1  0  0  0  0
  3 30  1  0  0  0  0
  5  9  1  0  0  0  0
  5 27  1  0  0  0  0
  5 31  1  6  0  0  0
  6  7  1  1  0  0  0
  6 11  1  0  0  0  0
  8 13  1  0  0  0  0
  9 10  1  1  0  0  0
  9 15  1  0  0  0  0
 11 12  1  1  0  0  0
 11 17  1  0  0  0  0
 13 14  1  1  0  0  0
 13 19  1  0  0  0  0
 15 16  1  6  0  0  0
 15 20  1  0  0  0  0
 16 34  1  0  0  0  0
 17 18  1  1  0  0  0
 17 22  1  0  0  0  0
 19  2  1  1  0  0  0
 19 24  1  0  0  0  0
 20 21  1  6  0  0  0
 20 26  1  0  0  0  0
 20 33  1  0  0  0  0
 22 23  1  6  0  0  0
 22 28  1  0  0  0  0
 24 25  1  6  0  0  0
 24 30  1  0  0  0  0
 26 27  1  0  0  0  0
 28 29  1  6  0  0  0
 28 32  1  0  0  0  0
 30 31  1  6  0  0  0
M  END
>  <CHROM.1>
154.89031415,-143.66360372,-75.81484709,-172.67041820,41.65831478,-172.12251481
4.20537471,5.68369156,6.38619744,2.55606511,-0.49826821,2.64485223

>  <Name>
ligand

>  <RI>
0

>  <Rbt.Current_Directory>
/home/itssahil/PROJECTS/Mol_Feturizer/New_Systems/rnas/3TD1

>  <Rbt.Executable>
rbdock ($Id: //depot/dev/client3/rdock/2013.1/src/exe/rbdock.cxx#4 $)

>  <Rbt.Library>
libRbt.so (2013.1, Build901 2013/11/27)

>  <Rbt.Parameter_File>
/export/apps/rDock/src/rDock_2013.1_src/data/scripts/dock_solv.prm

>  <Rbt.Receptor>
prm/blind_docking_100.prm

>  <SCORE>
10.9622

>  <SCORE.INTER>
-3.21867

>  <SCORE.INTER.CONST>
1

>  <SCORE.INTER.POLAR>
0

>  <SCORE.INTER.ROT>
6

>  <SCORE.INTER.SOLV>
22.7732

>  <SCORE.INTER.VDW>
-17.3368

>  <SCORE.INTER.norm>
-0.0946668

>  <SCORE.INTRA>
0.664995

>  <SCORE.INTRA.DIHEDRAL>
-9.84342

>  <SCORE.INTRA.DIHEDRAL.0>
19.5869

>  <SCORE.INTRA.POLAR>
0

>  <SCORE.INTRA.POLAR.0>
0

>  <SCORE.INTRA.REPUL>
0

>  <SCORE.INTRA.REPUL.0>
0

>  <SCORE.INTRA.SOLV>
2.21935

>  <SCORE.INTRA.SOLV.lig_0>
-70.101

>  <SCORE.INTRA.VDW>
4.47703

>  <SCORE.INTRA.VDW.0>
-3.39718

>  <SCORE.INTRA.norm>
0.0195587

>  <SCORE.RESTR>
13.5158

>  <SCORE.RESTR.CAVITY>
13.5158

>  <SCORE.RESTR.norm>
0.397525

>  <SCORE.SYSTEM>
0

>  <SCORE.SYSTEM.CONST>
0

>  <SCORE.SYSTEM.DIHEDRAL>
0

>  <SCORE.SYSTEM.SOLV>
0

>  <SCORE.SYSTEM.norm>
0

>  <SCORE.heavy>
34

>  <SCORE.norm>
0.322417

>  <RMSD>
6.317

$$$$
ligand
 OpenBabel11021811483D
libRbt.so/2013.1/901 2013/11/27
 34 36  0  0  0  0  0  0  0  0999 V2000
    6.2444    4.6909    9.1501 C   0  0  2  0  0  0  0  0  0  0  0  0
    6.7255    3.9273   10.2672 O   0  0  0  0  0  0  0  0  0  0  0  0
    9.0815    5.3842   13.5212 C   0  0  2  0  0  0  0  0  0  0  0  0
   10.2149    5.8504   14.3125 N   0  0  0  0  0  0  0  0  0  0  0  0
    8.2301    8.7760   11.9209 C   0  0  2  0  0  0  0  0  0  0  0  0
    4.8718    4.0761    8.6977 C   0  0  2  0  0  0  0  0  0  0  0  0
    3.8783    4.1408    9.7808 N   0  0  0  0  0  0  0  0  0  0  0  0
    9.4683    3.9889   12.9269 C   0  0  0  0  0  0  0  0  0  0  0  0
    9.6424    9.4528   11.8004 C   0  0  2  0  0  0  0  0  0  0  0  0
   10.5871    8.5132   11.3151 O   0  0  0  0  0  0  0  0  0  0  0  0
    5.0862    2.6085    8.2681 C   0  0  1  0  0  0  0  0  0  0  0  0
    3.8352    2.0419    7.8453 O   0  0  0  0  0  0  0  0  0  0  0  0
    8.2433    3.4770   12.0961 C   0  0  2  0  0  0  0  0  0  0  0  0
    8.5507    2.1602   11.5018 N   0  0  0  0  0  0  0  0  0  0  0  0
   10.0637    9.9987   13.2195 C   0  0  1  0  0  0  0  0  0  0  0  0
   11.4115   10.6400   13.1617 N   0  0  0  0  0  0  0  0  0  0  0  0
    6.1402    2.5689    7.1363 C   0  0  2  0  0  0  0  0  0  0  0  0
    6.3586    1.2058    6.7327 O   0  0  0  0  0  0  0  0  0  0  0  0
    7.8893    4.4703   10.9600 C   0  0  2  0  0  0  0  0  0  0  0  0
    8.9896   11.0301   13.7076 C   0  0  1  0  0  0  0  0  0  0  0  0
    8.9353   12.1287   12.8014 O   0  0  0  0  0  0  0  0  0  0  0  0
    7.4851    3.2159    7.6437 C   0  0  2  0  0  0  0  0  0  0  0  0
    7.2427    4.6070    8.0731 O   0  0  0  0  0  0  0  0  0  0  0  0
    7.5736    5.8583   11.5713 C   0  0  2  0  0  0  0  0  0  0  0  0
    7.2698    6.7572   10.5096 O   0  0  0  0  0  0  0  0  0  0  0  0
    7.5991   10.3215   13.7476 C   0  0  0  0  0  0  0  0  0  0  0  0
    7.2572    9.7577   12.4196 O   0  0  0  0  0  0  0  0  0  0  0  0
    8.5749    3.2276    6.5401 C   0  0  2  0  0  0  0  0  0  0  0  0
    8.8141    1.8947    6.0956 O   0  0  0  0  0  0  0  0  0  0  0  0
    8.7851    6.4144   12.3552 C   0  0  1  0  0  0  0  0  0  0  0  0
    8.3897    7.7005   12.8880 O   0  0  0  0  0  0  0  0  0  0  0  0
    9.8875    3.7936    7.0562 C   0  0  0  0  0  0  0  0  0  0  0  0
    9.3161   11.5862   15.0882 C   0  0  0  0  0  0  0  0  0  0  0  0
   12.3708    9.7642   13.8615 C   0  0  0  0  0  0  0  0  0  0  0  0
  1  2  1  1  0  0  0
  1  6  1  0  0  0  0
  1 23  1  0  0  0  0
  3  4  1  6  0  0  0
  3  8  1  0  0  0  0
  3 30  1  0  0  0  0
  5  9  1  0  0  0  0
  5 27  1  0  0  0  0
  5 31  1  1  0  0  0
  6  7  1  1  0  0  0
  6 11  1  0  0  0  0
  8 13  1  0  0  0  0
  9 10  1  1  0  0  0
  9 15  1  0  0  0  0
 11 12  1  6  0  0  0
 11 17  1  0  0  0  0
 13 14  1  6  0  0  0
 13 19  1  0  0  0  0
 15 16  1  6  0  0  0
 15 20  1  0  0  0  0
 16 34  1  0  0  0  0
 17 18  1  1  0  0  0
 17 22  1  0  0  0  0
 19  2  1  1  0  0  0
 19 24  1  0  0  0  0
 20 21  1  6  0  0  0
 20 26  1  0  0  0  0
 20 33  1  0  0  0  0
 22 23  1  6  0  0  0
 22 28  1  0  0  0  0
 24 25  1  6  0  0  0
 24 30  1  0  0  0  0
 26 27  1  0  0  0  0
 28 29  1  1  0  0  0
 28 32  1  0  0  0  0
 30 31  1  1  0  0  0
M  END
>  <CHROM.1>
-170.91755132,-178.85262570,-108.62861299,-57.85649564,173.55303870,-89.28855461
8.08882366,6.06725895,10.82283977,1.90159796,0.23081495,-2.57441861

>  <Name>
ligand

>  <RI>
0

>  <Rbt.Current_Directory>
/home/itssahil/PROJECTS/Mol_Feturizer/New_Systems/rnas/3TD1

>  <Rbt.Executable>
rbdock ($Id: //depot/dev/client3/rdock/2013.1/src/exe/rbdock.cxx#4 $)

>  <Rbt.Library>
libRbt.so (2013.1, Build901 2013/11/27)

>  <Rbt.Parameter_File>
/export/apps/rDock/src/rDock_2013.1_src/data/scripts/dock_solv.prm

>  <Rbt.Receptor>
prm/pocket_docking_8.prm

>  <SCORE>
-14.5873

>  <SCORE.INTER>
-7.99472

>  <SCORE.INTER.CONST>
1

>  <SCORE.INTER.POLAR>
0

>  <SCORE.INTER.ROT>
6

>  <SCORE.INTER.SOLV>
17.9479

>  <SCORE.INTER.VDW>
-18.9124

>  <SCORE.INTER.norm>
-0.235139

>  <SCORE.INTRA>
-6.5926

>  <SCORE.INTRA.DIHEDRAL>
-14.3373

>  <SCORE.INTRA.DIHEDRAL.0>
19.5869

>  <SCORE.INTRA.POLAR>
0

>  <SCORE.INTRA.POLAR.0>
0

>  <SCORE.INTRA.REPUL>
0

>  <SCORE.INTRA.REPUL.0>
0

>  <SCORE.INTRA.SOLV>
-2.59787

>  <SCORE.INTRA.SOLV.lig_0>
-70.101

>  <SCORE.INTRA.VDW>
1.875

>  <SCORE.INTRA.VDW.0>
-3.39718

>  <SCORE.INTRA.norm>
-0.1939

>  <SCORE.RESTR>
0

>  <SCORE.RESTR.CAVITY>
0

>  <SCORE.RESTR.norm>
0

>  <SCORE.SYSTEM>
0

>  <SCORE.SYSTEM.CONST>
0

>  <SCORE.SYSTEM.DIHEDRAL>
0

>  <SCORE.SYSTEM.SOLV>
0

>  <SCORE.SYSTEM.norm>
0

>  <SCORE.heavy>
34

>  <SCORE.norm>
-0.429039

>  <RMSD>
6.335

$$$$
ligand
 OpenBabel11021811483D
libRbt.so/2013.1/901 2013/11/27
 34 36  0  0  0  0  0  0  0  0999 V2000
    1.8409    5.3359    8.8941 C   0  0  2  0  0  0  0  0  0  0  0  0
    1.3335    5.1869    7.5589 O   0  0  0  0  0  0  0  0  0  0  0  0
    2.4034    6.7381    3.7234 C   0  0  2  0  0  0  0  0  0  0  0  0
    2.8064    7.6534    2.6613 N   0  0  0  0  0  0  0  0  0  0  0  0
    5.9968    6.1004    4.8864 C   0  0  2  0  0  0  0  0  0  0  0  0
    2.8954    4.1987    9.1418 C   0  0  2  0  0  0  0  0  0  0  0  0
    4.0160    4.2981    8.1937 N   0  0  0  0  0  0  0  0  0  0  0  0
    1.1416    7.3523    4.4164 C   0  0  0  0  0  0  0  0  0  0  0  0
    6.7188    7.3631    4.2934 C   0  0  2  0  0  0  0  0  0  0  0  0
    5.9264    8.5184    4.5129 O   0  0  0  0  0  0  0  0  0  0  0  0
    2.2071    2.8238    8.9996 C   0  0  1  0  0  0  0  0  0  0  0  0
    3.1648    1.7783    9.2328 O   0  0  0  0  0  0  0  0  0  0  0  0
    0.6943    6.3590    5.5417 C   0  0  2  0  0  0  0  0  0  0  0  0
   -0.4946    6.8886    6.2398 N   0  0  0  0  0  0  0  0  0  0  0  0
    6.9633    7.1279    2.7526 C   0  0  1  0  0  0  0  0  0  0  0  0
    7.6358    8.3109    2.1363 N   0  0  0  0  0  0  0  0  0  0  0  0
    1.0291    2.7498    9.9998 C   0  0  2  0  0  0  0  0  0  0  0  0
    0.3708    1.4775    9.8713 O   0  0  0  0  0  0  0  0  0  0  0  0
    1.8293    6.1441    6.5754 C   0  0  2  0  0  0  0  0  0  0  0  0
    7.8415    5.8435    2.5667 C   0  0  1  0  0  0  0  0  0  0  0  0
    9.1048    6.0325    3.1987 O   0  0  0  0  0  0  0  0  0  0  0  0
    0.0183    3.9250    9.7138 C   0  0  2  0  0  0  0  0  0  0  0  0
    0.7111    5.2230    9.8294 O   0  0  0  0  0  0  0  0  0  0  0  0
    3.0854    5.5968    5.8525 C   0  0  2  0  0  0  0  0  0  0  0  0
    4.1186    5.4250    6.8171 O   0  0  0  0  0  0  0  0  0  0  0  0
    7.1060    4.6359    3.2286 C   0  0  0  0  0  0  0  0  0  0  0  0
    6.8267    4.9094    4.6589 O   0  0  0  0  0  0  0  0  0  0  0  0
   -1.1746    3.9173   10.7052 C   0  0  2  0  0  0  0  0  0  0  0  0
   -1.5175    5.2583   11.0451 O   0  0  0  0  0  0  0  0  0  0  0  0
    3.5827    6.5820    4.7692 C   0  0  1  0  0  0  0  0  0  0  0  0
    4.7458    5.9808    4.1529 O   0  0  0  0  0  0  0  0  0  0  0  0
   -0.8301    3.1805   11.9889 C   0  0  0  0  0  0  0  0  0  0  0  0
    8.1019    5.5359    1.0971 C   0  0  0  0  0  0  0  0  0  0  0  0
    8.8190    8.6468    2.9512 C   0  0  0  0  0  0  0  0  0  0  0  0
  1  2  1  6  0  0  0
  1  6  1  0  0  0  0
  1 23  1  0  0  0  0
  3  4  1  6  0  0  0
  3  8  1  0  0  0  0
  3 30  1  0  0  0  0
  5  9  1  0  0  0  0
  5 27  1  0  0  0  0
  5 31  1  6  0  0  0
  6  7  1  6  0  0  0
  6 11  1  0  0  0  0
  8 13  1  0  0  0  0
  9 10  1  6  0  0  0
  9 15  1  0  0  0  0
 11 12  1  1  0  0  0
 11 17  1  0  0  0  0
 13 14  1  1  0  0  0
 13 19  1  0  0  0  0
 15 16  1  1  0  0  0
 15 20  1  0  0  0  0
 16 34  1  0  0  0  0
 17 18  1  6  0  0  0
 17 22  1  0  0  0  0
 19  2  1  1  0  0  0
 19 24  1  0  0  0  0
 20 21  1  1  0  0  0
 20 26  1  0  0  0  0
 20 33  1  0  0  0  0
 22 23  1  1  0  0  0
 22 28  1  0  0  0  0
 24 25  1  1  0  0  0
 24 30  1  0  0  0  0
 26 27  1  0  0  0  0
 28 29  1  1  0  0  0
 28 32  1  0  0  0  0
 30 31  1  6  0  0  0
M  END
>  <CHROM.1>
-104.75698607,-148.94177033,50.88482225,141.88042918,164.37367238,-95.08298619
3.51596326,5.48598249,6.26821119,2.37948327,-0.36390053,2.33233369

>  <Name>
ligand

>  <RI>
0

>  <Rbt.Current_Directory>
/home/itssahil/PROJECTS/Mol_Feturizer/New_Systems/rnas/3TD1

>  <Rbt.Executable>
rbdock ($Id: //depot/dev/client3/rdock/2013.1/src/exe/rbdock.cxx#4 $)

>  <Rbt.Library>
libRbt.so (2013.1, Build901 2013/11/27)

>  <Rbt.Parameter_File>
/export/apps/rDock/src/rDock_2013.1_src/data/scripts/dock_solv.prm

>  <Rbt.Receptor>
prm/blind_docking_60.prm

>  <SCORE>
128.456

>  <SCORE.INTER>
94.5389

>  <SCORE.INTER.CONST>
1

>  <SCORE.INTER.POLAR>
0

>  <SCORE.INTER.ROT>
6

>  <SCORE.INTER.SOLV>
32.1354

>  <SCORE.INTER.VDW>
44.7141

>  <SCORE.INTER.norm>
2.78056

>  <SCORE.INTRA>
24.6106

>  <SCORE.INTRA.DIHEDRAL>
-0.0932751

>  <SCORE.INTRA.DIHEDRAL.0>
19.5869

>  <SCORE.INTRA.POLAR>
0

>  <SCORE.INTRA.POLAR.0>
0

>  <SCORE.INTRA.REPUL>
0.0250043

>  <SCORE.INTRA.REPUL.0>
0

>  <SCORE.INTRA.SOLV>
1.0618

>  <SCORE.INTRA.SOLV.lig_0>
-70.101

>  <SCORE.INTRA.VDW>
24.0013

>  <SCORE.INTRA.VDW.0>
-3.39718

>  <SCORE.INTRA.norm>
0.723842

>  <SCORE.RESTR>
9.30646

>  <SCORE.RESTR.CAVITY>
9.30646

>  <SCORE.RESTR.norm>
0.273719

>  <SCORE.SYSTEM>
0

>  <SCORE.SYSTEM.CONST>
0

>  <SCORE.SYSTEM.DIHEDRAL>
0

>  <SCORE.SYSTEM.SOLV>
0

>  <SCORE.SYSTEM.norm>
0

>  <SCORE.heavy>
34

>  <SCORE.norm>
3.77812

>  <RMSD>
6.338

$$$$
ligand
 OpenBabel11021811483D
libRbt.so/2013.1/901 2013/11/27
 34 36  0  0  0  0  0  0  0  0999 V2000
    1.9848    4.2858    9.1455 C   0  0  2  0  0  0  0  0  0  0  0  0
    1.2286    4.7834    8.0306 O   0  0  0  0  0  0  0  0  0  0  0  0
    2.8269    6.5028    4.4598 C   0  0  2  0  0  0  0  0  0  0  0  0
    3.4165    7.4512    3.5213 N   0  0  0  0  0  0  0  0  0  0  0  0
    6.2817    5.6846    5.7878 C   0  0  2  0  0  0  0  0  0  0  0  0
    2.3985    2.8043    8.8282 C   0  0  2  0  0  0  0  0  0  0  0  0
    3.2327    2.7335    7.6185 N   0  0  0  0  0  0  0  0  0  0  0  0
    1.5556    7.1797    5.0724 C   0  0  0  0  0  0  0  0  0  0  0  0
    6.8066    7.1092    5.3854 C   0  0  2  0  0  0  0  0  0  0  0  0
    5.8708    8.0975    5.7833 O   0  0  0  0  0  0  0  0  0  0  0  0
    1.1274    1.9478    8.6408 C   0  0  1  0  0  0  0  0  0  0  0  0
    1.4986    0.5888    8.3579 O   0  0  0  0  0  0  0  0  0  0  0  0
    0.9087    6.1533    6.0627 C   0  0  2  0  0  0  0  0  0  0  0  0
   -0.2981    6.7392    6.6807 N   0  0  0  0  0  0  0  0  0  0  0  0
    7.0353    7.1410    3.8246 C   0  0  1  0  0  0  0  0  0  0  0  0
    7.5213    8.4842    3.3877 N   0  0  0  0  0  0  0  0  0  0  0  0
    0.2655    2.0473    9.9218 C   0  0  2  0  0  0  0  0  0  0  0  0
   -0.9284    1.2624    9.7580 O   0  0  0  0  0  0  0  0  0  0  0  0
    1.9054    5.7592    7.1826 C   0  0  2  0  0  0  0  0  0  0  0  0
    8.0748    6.0333    3.4397 C   0  0  1  0  0  0  0  0  0  0  0  0
    9.3186    6.3011    4.0819 O   0  0  0  0  0  0  0  0  0  0  0  0
   -0.0997    3.5558   10.1973 C   0  0  2  0  0  0  0  0  0  0  0  0
    1.1339    4.3527   10.3435 O   0  0  0  0  0  0  0  0  0  0  0  0
    3.1799    5.1513    6.5454 C   0  0  2  0  0  0  0  0  0  0  0  0
    4.0867    4.8145    7.5902 O   0  0  0  0  0  0  0  0  0  0  0  0
    7.5310    4.6505    3.9187 C   0  0  0  0  0  0  0  0  0  0  0  0
    7.2593    4.6678    5.3763 O   0  0  0  0  0  0  0  0  0  0  0  0
   -0.9445    3.7210   11.4876 C   0  0  2  0  0  0  0  0  0  0  0  0
   -0.4758    2.8128   12.4810 O   0  0  0  0  0  0  0  0  0  0  0  0
    3.8711    6.1620    5.6009 C   0  0  1  0  0  0  0  0  0  0  0  0
    5.0376    5.5015    5.0556 O   0  0  0  0  0  0  0  0  0  0  0  0
   -2.4137    3.4249   11.2358 C   0  0  0  0  0  0  0  0  0  0  0  0
    8.3311    5.9859    1.9385 C   0  0  0  0  0  0  0  0  0  0  0  0
    6.4204    9.1673    2.6817 C   0  0  0  0  0  0  0  0  0  0  0  0
  1  2  1  6  0  0  0
  1  6  1  0  0  0  0
  1 23  1  0  0  0  0
  3  4  1  6  0  0  0
  3  8  1  0  0  0  0
  3 30  1  0  0  0  0
  5  9  1  0  0  0  0
  5 27  1  0  0  0  0
  5 31  1  6  0  0  0
  6  7  1  6  0  0  0
  6 11  1  0  0  0  0
  8 13  1  0  0  0  0
  9 10  1  6  0  0  0
  9 15  1  0  0  0  0
 11 12  1  1  0  0  0
 11 17  1  0  0  0  0
 13 14  1  1  0  0  0
 13 19  1  0  0  0  0
 15 16  1  1  0  0  0
 15 20  1  0  0  0  0
 16 34  1  0  0  0  0
 17 18  1  6  0  0  0
 17 22  1  0  0  0  0
 19  2  1  1  0  0  0
 19 24  1  0  0  0  0
 20 21  1  1  0  0  0
 20 26  1  0  0  0  0
 20 33  1  0  0  0  0
 22 23  1  1  0  0  0
 22 28  1  0  0  0  0
 24 25  1  1  0  0  0
 24 30  1  0  0  0  0
 26 27  1  0  0  0  0
 28 29  1  1  0  0  0
 28 32  1  0  0  0  0
 30 31  1  6  0  0  0
M  END
>  <CHROM.1>
-107.41272318,-179.79250057,-107.25003726,38.08760923,152.20018745,-78.79004828
3.38714498,5.06794054,6.77299325,-2.42985666,0.39913288,-0.59757238

>  <Name>
ligand

>  <RI>
0

>  <Rbt.Current_Directory>
/home/itssahil/PROJECTS/Mol_Feturizer/New_Systems/rnas/3TD1

>  <Rbt.Executable>
rbdock ($Id: //depot/dev/client3/rdock/2013.1/src/exe/rbdock.cxx#4 $)

>  <Rbt.Library>
libRbt.so (2013.1, Build901 2013/11/27)

>  <Rbt.Parameter_File>
/export/apps/rDock/src/rDock_2013.1_src/data/scripts/dock_solv.prm

>  <Rbt.Receptor>
prm/blind_docking_60.prm

>  <SCORE>
108.374

>  <SCORE.INTER>
94.2792

>  <SCORE.INTER.CONST>
1

>  <SCORE.INTER.POLAR>
0

>  <SCORE.INTER.ROT>
6

>  <SCORE.INTER.SOLV>
30.5639

>  <SCORE.INTER.VDW>
45.0648

>  <SCORE.INTER.norm>
2.77292

>  <SCORE.INTRA>
3.50021

>  <SCORE.INTRA.DIHEDRAL>
-5.68698

>  <SCORE.INTRA.DIHEDRAL.0>
19.5869

>  <SCORE.INTRA.POLAR>
0

>  <SCORE.INTRA.POLAR.0>
0

>  <SCORE.INTRA.REPUL>
0

>  <SCORE.INTRA.REPUL.0>
0

>  <SCORE.INTRA.SOLV>
2.47297

>  <SCORE.INTRA.SOLV.lig_0>
-70.101

>  <SCORE.INTRA.VDW>
5.10722

>  <SCORE.INTRA.VDW.0>
-3.39718

>  <SCORE.INTRA.norm>
0.102947

>  <SCORE.RESTR>
10.5945

>  <SCORE.RESTR.CAVITY>
10.5945

>  <SCORE.RESTR.norm>
0.311603

>  <SCORE.SYSTEM>
0

>  <SCORE.SYSTEM.CONST>
0

>  <SCORE.SYSTEM.DIHEDRAL>
0

>  <SCORE.SYSTEM.SOLV>
0

>  <SCORE.SYSTEM.norm>
0

>  <SCORE.heavy>
34

>  <SCORE.norm>
3.18747

>  <RMSD>
6.339

$$$$
ligand
 OpenBabel11021811483D
libRbt.so/2013.1/901 2013/11/27
 34 36  0  0  0  0  0  0  0  0999 V2000
    8.5285    4.9671   10.4374 C   0  0  2  0  0  0  0  0  0  0  0  0
    9.9221    5.3139   10.4468 O   0  0  0  0  0  0  0  0  0  0  0  0
   12.6695    5.3391    7.1738 C   0  0  2  0  0  0  0  0  0  0  0  0
   13.5606    4.8933    6.1082 N   0  0  0  0  0  0  0  0  0  0  0  0
    9.9598    4.7590    4.6996 C   0  0  2  0  0  0  0  0  0  0  0  0
    7.8845    5.5117   11.7622 C   0  0  2  0  0  0  0  0  0  0  0  0
    8.0096    6.9749   11.8510 N   0  0  0  0  0  0  0  0  0  0  0  0
   13.1399    4.6477    8.4968 C   0  0  0  0  0  0  0  0  0  0  0  0
   10.1066    5.4595    3.3014 C   0  0  2  0  0  0  0  0  0  0  0  0
   11.4709    5.4833    2.9154 O   0  0  0  0  0  0  0  0  0  0  0  0
    8.5746    4.8507   12.9752 C   0  0  1  0  0  0  0  0  0  0  0  0
    7.9846    5.3388   14.1911 O   0  0  0  0  0  0  0  0  0  0  0  0
   12.1982    5.1438    9.6457 C   0  0  2  0  0  0  0  0  0  0  0  0
   12.5898    4.5185   10.9253 N   0  0  0  0  0  0  0  0  0  0  0  0
    9.5213    6.9211    3.4048 C   0  0  1  0  0  0  0  0  0  0  0  0
    9.6520    7.6376    2.1007 N   0  0  0  0  0  0  0  0  0  0  0  0
    8.4360    3.3147   12.8520 C   0  0  2  0  0  0  0  0  0  0  0  0
    9.0841    2.6842   13.9705 O   0  0  0  0  0  0  0  0  0  0  0  0
   10.7201    4.7874    9.3443 C   0  0  2  0  0  0  0  0  0  0  0  0
    8.0161    6.8376    3.8326 C   0  0  1  0  0  0  0  0  0  0  0  0
    7.2768    6.1262    2.8435 O   0  0  0  0  0  0  0  0  0  0  0  0
    9.0815    2.8327   11.4971 C   0  0  2  0  0  0  0  0  0  0  0  0
    8.4208    3.5022   10.3598 O   0  0  0  0  0  0  0  0  0  0  0  0
   10.3007    5.4309    7.9990 C   0  0  2  0  0  0  0  0  0  0  0  0
    8.9475    5.0754    7.7344 O   0  0  0  0  0  0  0  0  0  0  0  0
    7.9255    6.0783    5.1937 C   0  0  0  0  0  0  0  0  0  0  0  0
    8.5433    4.7345    5.0891 O   0  0  0  0  0  0  0  0  0  0  0  0
    8.9495    1.2992   11.3058 C   0  0  2  0  0  0  0  0  0  0  0  0
    9.6582    0.9046   10.1339 O   0  0  0  0  0  0  0  0  0  0  0  0
   11.1804    4.9194    6.8345 C   0  0  1  0  0  0  0  0  0  0  0  0
   10.7168    5.5793    5.6329 O   0  0  0  0  0  0  0  0  0  0  0  0
    7.4983    0.8789   11.1415 C   0  0  0  0  0  0  0  0  0  0  0  0
    7.3850    8.2169    3.9775 C   0  0  0  0  0  0  0  0  0  0  0  0
   10.6266    8.7323    2.2700 C   0  0  0  0  0  0  0  0  0  0  0  0
  1  2  1  1  0  0  0
  1  6  1  0  0  0  0
  1 23  1  0  0  0  0
  3  4  1  6  0  0  0
  3  8  1  0  0  0  0
  3 30  1  0  0  0  0
  5  9  1  0  0  0  0
  5 27  1  0  0  0  0
  5 31  1  1  0  0  0
  6  7  1  1  0  0  0
  6 11  1  0  0  0  0
  8 13  1  0  0  0  0
  9 10  1  1  0  0  0
  9 15  1  0  0  0  0
 11 12  1  1  0  0  0
 11 17  1  0  0  0  0
 13 14  1  1  0  0  0
 13 19  1  0  0  0  0
 15 16  1  6  0  0  0
 15 20  1  0  0  0  0
 16 34  1  0  0  0  0
 17 18  1  1  0  0  0
 17 22  1  0  0  0  0
 19  2  1  1  0  0  0
 19 24  1  0  0  0  0
 20 21  1  6  0  0  0
 20 26  1  0  0  0  0
 20 33  1  0  0  0  0
 22 23  1  6  0  0  0
 22 28  1  0  0  0  0
 24 25  1  6  0  0  0
 24 30  1  0  0  0  0
 26 27  1  0  0  0  0
 28 29  1  6  0  0  0
 28 32  1  0  0  0  0
 30 31  1  6  0  0  0
M  END
>  <CHROM.1>
174.80575665,-173.58031052,-112.41936246,-174.50797174,137.51033958,-156.66192438
9.63764557,4.97706039,8.00673746,1.65213091,-0.24217294,1.92485462

>  <Name>
ligand

>  <RI>
0

>  <Rbt.Current_Directory>
/home/itssahil/PROJECTS/Mol_Feturizer/New_Systems/rnas/3TD1

>  <Rbt.Executable>
rbdock ($Id: //depot/dev/client3/rdock/2013.1/src/exe/rbdock.cxx#4 $)

>  <Rbt.Library>
libRbt.so (2013.1, Build901 2013/11/27)

>  <Rbt.Parameter_File>
/export/apps/rDock/src/rDock_2013.1_src/data/scripts/dock_solv.prm

>  <Rbt.Receptor>
prm/pocket_docking_6.prm

>  <SCORE>
-7.47663

>  <SCORE.INTER>
-2.04721

>  <SCORE.INTER.CONST>
1

>  <SCORE.INTER.POLAR>
0

>  <SCORE.INTER.ROT>
6

>  <SCORE.INTER.SOLV>
8.4606

>  <SCORE.INTER.VDW>
-11.785

>  <SCORE.INTER.norm>
-0.060212

>  <SCORE.INTRA>
-5.42943

>  <SCORE.INTRA.DIHEDRAL>
-9.84578

>  <SCORE.INTRA.DIHEDRAL.0>
19.5869

>  <SCORE.INTRA.POLAR>
0

>  <SCORE.INTRA.POLAR.0>
0

>  <SCORE.INTRA.REPUL>
0

>  <SCORE.INTRA.REPUL.0>
0

>  <SCORE.INTRA.SOLV>
-2.85565

>  <SCORE.INTRA.SOLV.lig_0>
-70.101

>  <SCORE.INTRA.VDW>
0.921289

>  <SCORE.INTRA.VDW.0>
-3.39718

>  <SCORE.INTRA.norm>
-0.159689

>  <SCORE.RESTR>
0

>  <SCORE.RESTR.CAVITY>
0

>  <SCORE.RESTR.norm>
0

>  <SCORE.SYSTEM>
0

>  <SCORE.SYSTEM.CONST>
0

>  <SCORE.SYSTEM.DIHEDRAL>
0

>  <SCORE.SYSTEM.SOLV>
0

>  <SCORE.SYSTEM.norm>
0

>  <SCORE.heavy>
34

>  <SCORE.norm>
-0.219901

>  <RMSD>
6.344

$$$$
ligand
 OpenBabel11021811483D
libRbt.so/2013.1/901 2013/11/27
 34 36  0  0  0  0  0  0  0  0999 V2000
    6.2635    7.3440    4.2966 C   0  0  2  0  0  0  0  0  0  0  0  0
    7.5183    8.0285    4.4358 O   0  0  0  0  0  0  0  0  0  0  0  0
    8.1266    8.8367    0.2839 C   0  0  2  0  0  0  0  0  0  0  0  0
    8.4984    9.5048   -0.9585 N   0  0  0  0  0  0  0  0  0  0  0  0
   11.3752    8.2047   -0.3377 C   0  0  2  0  0  0  0  0  0  0  0  0
    6.2118    6.2023    5.3738 C   0  0  2  0  0  0  0  0  0  0  0  0
    6.3048    6.7522    6.7351 N   0  0  0  0  0  0  0  0  0  0  0  0
    7.1781    9.8030    1.0689 C   0  0  0  0  0  0  0  0  0  0  0  0
   12.4435    7.0684   -0.5235 C   0  0  2  0  0  0  0  0  0  0  0  0
   11.8768    5.9877   -1.2458 O   0  0  0  0  0  0  0  0  0  0  0  0
    7.3715    5.2133    5.1261 C   0  0  1  0  0  0  0  0  0  0  0  0
    7.3256    4.1612    6.1037 O   0  0  0  0  0  0  0  0  0  0  0  0
    6.7598    9.0771    2.3922 C   0  0  2  0  0  0  0  0  0  0  0  0
    5.8646    9.9455    3.1835 N   0  0  0  0  0  0  0  0  0  0  0  0
   12.9372    6.6015    0.9005 C   0  0  1  0  0  0  0  0  0  0  0  0
   13.9464    5.5070    0.7787 N   0  0  0  0  0  0  0  0  0  0  0  0
    7.2548    4.6580    3.6867 C   0  0  2  0  0  0  0  0  0  0  0  0
    8.3357    3.7425    3.4375 O   0  0  0  0  0  0  0  0  0  0  0  0
    8.0030    8.7245    3.2484 C   0  0  2  0  0  0  0  0  0  0  0  0
   13.5532    7.8298    1.6538 C   0  0  1  0  0  0  0  0  0  0  0  0
   14.6764    8.3217    0.9276 O   0  0  0  0  0  0  0  0  0  0  0  0
    7.2927    5.8498    2.6558 C   0  0  2  0  0  0  0  0  0  0  0  0
    6.1910    6.7912    2.9354 O   0  0  0  0  0  0  0  0  0  0  0  0
    8.9542    7.8207    2.4249 C   0  0  2  0  0  0  0  0  0  0  0  0
   10.0954    7.5253    3.2236 O   0  0  0  0  0  0  0  0  0  0  0  0
   12.4693    8.9490    1.7533 C   0  0  0  0  0  0  0  0  0  0  0  0
   11.9723    9.3217    0.4071 O   0  0  0  0  0  0  0  0  0  0  0  0
    7.1535    5.3546    1.1925 C   0  0  2  0  0  0  0  0  0  0  0  0
    6.7364    3.9918    1.1906 O   0  0  0  0  0  0  0  0  0  0  0  0
    9.4268    8.5319    1.1356 C   0  0  1  0  0  0  0  0  0  0  0  0
   10.2982    7.6099    0.4393 O   0  0  0  0  0  0  0  0  0  0  0  0
    8.4732    5.4433    0.4441 C   0  0  0  0  0  0  0  0  0  0  0  0
   14.0328    7.4615    3.0524 C   0  0  0  0  0  0  0  0  0  0  0  0
   13.5589    4.4165    1.6939 C   0  0  0  0  0  0  0  0  0  0  0  0
  1  2  1  6  0  0  0
  1  6  1  0  0  0  0
  1 23  1  0  0  0  0
  3  4  1  6  0  0  0
  3  8  1  0  0  0  0
  3 30  1  0  0  0  0
  5  9  1  0  0  0  0
  5 27  1  0  0  0  0
  5 31  1  1  0  0  0
  6  7  1  1  0  0  0
  6 11  1  0  0  0  0
  8 13  1  0  0  0  0
  9 10  1  1  0  0  0
  9 15  1  0  0  0  0
 11 12  1  1  0  0  0
 11 17  1  0  0  0  0
 13 14  1  1  0  0  0
 13 19  1  0  0  0  0
 15 16  1  6  0  0  0
 15 20  1  0  0  0  0
 16 34  1  0  0  0  0
 17 18  1  6  0  0  0
 17 22  1  0  0  0  0
 19  2  1  1  0  0  0
 19 24  1  0  0  0  0
 20 21  1  6  0  0  0
 20 26  1  0  0  0  0
 20 33  1  0  0  0  0
 22 23  1  1  0  0  0
 22 28  1  0  0  0  0
 24 25  1  1  0  0  0
 24 30  1  0  0  0  0
 26 27  1  0  0  0  0
 28 29  1  1  0  0  0
 28 32  1  0  0  0  0
 30 31  1  6  0  0  0
M  END
>  <CHROM.1>
155.92376808,25.82060196,-131.23314542,12.67548668,95.71593518,159.29308703
9.39597095,7.04207869,2.14763236,2.75857016,-0.36061034,2.55928992

>  <Name>
ligand

>  <RI>
0

>  <Rbt.Current_Directory>
/home/itssahil/PROJECTS/Mol_Feturizer/New_Systems/rnas/3TD1

>  <Rbt.Executable>
rbdock ($Id: //depot/dev/client3/rdock/2013.1/src/exe/rbdock.cxx#4 $)

>  <Rbt.Library>
libRbt.so (2013.1, Build901 2013/11/27)

>  <Rbt.Parameter_File>
/export/apps/rDock/src/rDock_2013.1_src/data/scripts/dock_solv.prm

>  <Rbt.Receptor>
prm/blind_docking_100.prm

>  <SCORE>
62.4212

>  <SCORE.INTER>
37.3113

>  <SCORE.INTER.CONST>
1

>  <SCORE.INTER.POLAR>
0

>  <SCORE.INTER.ROT>
6

>  <SCORE.INTER.SOLV>
28.3069

>  <SCORE.INTER.VDW>
7.83859

>  <SCORE.INTER.norm>
1.09739

>  <SCORE.INTRA>
11.873

>  <SCORE.INTRA.DIHEDRAL>
-0.226519

>  <SCORE.INTRA.DIHEDRAL.0>
19.5869

>  <SCORE.INTRA.POLAR>
0

>  <SCORE.INTRA.POLAR.0>
0

>  <SCORE.INTRA.REPUL>
0

>  <SCORE.INTRA.REPUL.0>
0

>  <SCORE.INTRA.SOLV>
0.625643

>  <SCORE.INTRA.SOLV.lig_0>
-70.101

>  <SCORE.INTRA.VDW>
11.6734

>  <SCORE.INTRA.VDW.0>
-3.39718

>  <SCORE.INTRA.norm>
0.349206

>  <SCORE.RESTR>
13.2368

>  <SCORE.RESTR.CAVITY>
13.2368

>  <SCORE.RESTR.norm>
0.389318

>  <SCORE.SYSTEM>
0

>  <SCORE.SYSTEM.CONST>
0

>  <SCORE.SYSTEM.DIHEDRAL>
0

>  <SCORE.SYSTEM.SOLV>
0

>  <SCORE.SYSTEM.norm>
0

>  <SCORE.heavy>
34

>  <SCORE.norm>
1.83592

>  <RMSD>
6.379

$$$$
ligand
 OpenBabel11021811483D
libRbt.so/2013.1/901 2013/11/27
 34 36  0  0  0  0  0  0  0  0999 V2000
    1.8609    5.6680    8.9675 C   0  0  2  0  0  0  0  0  0  0  0  0
    1.6454    5.2447    7.6122 O   0  0  0  0  0  0  0  0  0  0  0  0
    2.3919    6.7391    3.6789 C   0  0  2  0  0  0  0  0  0  0  0  0
    2.6793    7.6432    2.5707 N   0  0  0  0  0  0  0  0  0  0  0  0
    6.0320    6.0848    4.7402 C   0  0  2  0  0  0  0  0  0  0  0  0
    2.9725    4.7504    9.5912 C   0  0  2  0  0  0  0  0  0  0  0  0
    4.2372    4.8696    8.8492 N   0  0  0  0  0  0  0  0  0  0  0  0
    1.1449    7.3075    4.4350 C   0  0  0  0  0  0  0  0  0  0  0  0
    6.8471    7.3450    4.2773 C   0  0  2  0  0  0  0  0  0  0  0  0
    6.1260    8.5259    4.5877 O   0  0  0  0  0  0  0  0  0  0  0  0
    2.4912    3.2833    9.5771 C   0  0  1  0  0  0  0  0  0  0  0  0
    3.5006    2.4388   10.1538 O   0  0  0  0  0  0  0  0  0  0  0  0
    0.8213    6.3250    5.6109 C   0  0  2  0  0  0  0  0  0  0  0  0
   -0.3482    6.8129    6.3696 N   0  0  0  0  0  0  0  0  0  0  0  0
    7.1114    7.2337    2.7258 C   0  0  1  0  0  0  0  0  0  0  0  0
    7.8726    8.4202    2.2315 N   0  0  0  0  0  0  0  0  0  0  0  0
    1.1573    3.1884   10.3551 C   0  0  2  0  0  0  0  0  0  0  0  0
    0.6906    1.8280   10.3415 O   0  0  0  0  0  0  0  0  0  0  0  0
    2.0280    6.1976    6.5755 C   0  0  2  0  0  0  0  0  0  0  0  0
    7.9091    5.9159    2.4384 C   0  0  1  0  0  0  0  0  0  0  0  0
    9.1671    5.9633    3.1064 O   0  0  0  0  0  0  0  0  0  0  0  0
    0.0913    4.1437    9.6952 C   0  0  2  0  0  0  0  0  0  0  0  0
    0.5912    5.5323    9.6978 O   0  0  0  0  0  0  0  0  0  0  0  0
    3.2639    5.6949    5.7884 C   0  0  2  0  0  0  0  0  0  0  0  0
    4.3627    5.6034    6.6894 O   0  0  0  0  0  0  0  0  0  0  0  0
    7.0823    4.7050    2.9748 C   0  0  0  0  0  0  0  0  0  0  0  0
    6.7884    4.8667    4.4191 O   0  0  0  0  0  0  0  0  0  0  0  0
   -1.2631    4.1101   10.4504 C   0  0  2  0  0  0  0  0  0  0  0  0
   -1.6659    2.7564   10.6418 O   0  0  0  0  0  0  0  0  0  0  0  0
    3.6404    6.6730    4.6513 C   0  0  1  0  0  0  0  0  0  0  0  0
    4.7931    6.1147    3.9776 O   0  0  0  0  0  0  0  0  0  0  0  0
   -2.3567    4.8199    9.6694 C   0  0  0  0  0  0  0  0  0  0  0  0
    8.1827    5.7252    0.9516 C   0  0  0  0  0  0  0  0  0  0  0  0
    6.9030    9.4588    1.8337 C   0  0  0  0  0  0  0  0  0  0  0  0
  1  2  1  6  0  0  0
  1  6  1  0  0  0  0
  1 23  1  0  0  0  0
  3  4  1  6  0  0  0
  3  8  1  0  0  0  0
  3 30  1  0  0  0  0
  5  9  1  0  0  0  0
  5 27  1  0  0  0  0
  5 31  1  6  0  0  0
  6  7  1  6  0  0  0
  6 11  1  0  0  0  0
  8 13  1  0  0  0  0
  9 10  1  6  0  0  0
  9 15  1  0  0  0  0
 11 12  1  1  0  0  0
 11 17  1  0  0  0  0
 13 14  1  1  0  0  0
 13 19  1  0  0  0  0
 15 16  1  1  0  0  0
 15 20  1  0  0  0  0
 16 34  1  0  0  0  0
 17 18  1  6  0  0  0
 17 22  1  0  0  0  0
 19  2  1  1  0  0  0
 19 24  1  0  0  0  0
 20 21  1  1  0  0  0
 20 26  1  0  0  0  0
 20 33  1  0  0  0  0
 22 23  1  1  0  0  0
 22 28  1  0  0  0  0
 24 25  1  1  0  0  0
 24 30  1  0  0  0  0
 26 27  1  0  0  0  0
 28 29  1  6  0  0  0
 28 32  1  0  0  0  0
 30 31  1  6  0  0  0
M  END
>  <CHROM.1>
-113.63451419,-129.94649855,-89.62849489,-49.76028009,175.98721465,-98.07341581
3.50303045,5.62418241,6.20375372,-2.34341437,0.28679122,-0.89784427

>  <Name>
ligand

>  <RI>
0

>  <Rbt.Current_Directory>
/home/itssahil/PROJECTS/Mol_Feturizer/New_Systems/rnas/3TD1

>  <Rbt.Executable>
rbdock ($Id: //depot/dev/client3/rdock/2013.1/src/exe/rbdock.cxx#4 $)

>  <Rbt.Library>
libRbt.so (2013.1, Build901 2013/11/27)

>  <Rbt.Parameter_File>
/export/apps/rDock/src/rDock_2013.1_src/data/scripts/dock_solv.prm

>  <Rbt.Receptor>
prm/blind_docking_60.prm

>  <SCORE>
106.879

>  <SCORE.INTER>
92.7077

>  <SCORE.INTER.CONST>
1

>  <SCORE.INTER.POLAR>
0

>  <SCORE.INTER.ROT>
6

>  <SCORE.INTER.SOLV>
32.4967

>  <SCORE.INTER.VDW>
43.3729

>  <SCORE.INTER.norm>
2.7267

>  <SCORE.INTRA>
4.24043

>  <SCORE.INTRA.DIHEDRAL>
0.320873

>  <SCORE.INTRA.DIHEDRAL.0>
19.5869

>  <SCORE.INTRA.POLAR>
0

>  <SCORE.INTRA.POLAR.0>
0

>  <SCORE.INTRA.REPUL>
0.0194938

>  <SCORE.INTRA.REPUL.0>
0

>  <SCORE.INTRA.SOLV>
0.302494

>  <SCORE.INTRA.SOLV.lig_0>
-70.101

>  <SCORE.INTRA.VDW>
3.83128

>  <SCORE.INTRA.VDW.0>
-3.39718

>  <SCORE.INTRA.norm>
0.124718

>  <SCORE.RESTR>
9.93088

>  <SCORE.RESTR.CAVITY>
9.93088

>  <SCORE.RESTR.norm>
0.292085

>  <SCORE.SYSTEM>
0

>  <SCORE.SYSTEM.CONST>
0

>  <SCORE.SYSTEM.DIHEDRAL>
0

>  <SCORE.SYSTEM.SOLV>
0

>  <SCORE.SYSTEM.norm>
0

>  <SCORE.heavy>
34

>  <SCORE.norm>
3.1435

>  <RMSD>
6.379

$$$$
ligand
 OpenBabel11021811483D
libRbt.so/2013.1/901 2013/11/27
 34 36  0  0  0  0  0  0  0  0999 V2000
    1.7165    6.4342    5.8674 C   0  0  2  0  0  0  0  0  0  0  0  0
    2.8525    7.1400    6.3906 O   0  0  0  0  0  0  0  0  0  0  0  0
    7.0732    6.4782    6.2951 C   0  0  2  0  0  0  0  0  0  0  0  0
    8.3781    5.8335    6.3948 N   0  0  0  0  0  0  0  0  0  0  0  0
    8.2181    6.5486    3.8783 C   0  0  2  0  0  0  0  0  0  0  0  0
    0.4326    7.2837    6.1784 C   0  0  2  0  0  0  0  0  0  0  0  0
    0.5046    8.6075    5.5408 N   0  0  0  0  0  0  0  0  0  0  0  0
    6.3504    6.2863    7.6700 C   0  0  0  0  0  0  0  0  0  0  0  0
    8.0744    8.0632    3.4878 C   0  0  2  0  0  0  0  0  0  0  0  0
    7.2712    8.7334    4.4451 O   0  0  0  0  0  0  0  0  0  0  0  0
    0.2839    7.4439    7.7070 C   0  0  1  0  0  0  0  0  0  0  0  0
   -0.8937    8.2138    7.9991 O   0  0  0  0  0  0  0  0  0  0  0  0
    4.9588    6.9982    7.5716 C   0  0  2  0  0  0  0  0  0  0  0  0
    4.2226    6.8462    8.8430 N   0  0  0  0  0  0  0  0  0  0  0  0
    7.4358    8.1553    2.0480 C   0  0  1  0  0  0  0  0  0  0  0  0
    7.2630    9.5804    1.6352 N   0  0  0  0  0  0  0  0  0  0  0  0
    0.2198    6.0391    8.3520 C   0  0  2  0  0  0  0  0  0  0  0  0
    0.0919    6.1723    9.7783 O   0  0  0  0  0  0  0  0  0  0  0  0
    4.1079    6.3970    6.4238 C   0  0  2  0  0  0  0  0  0  0  0  0
    8.3604    7.4016    1.0318 C   0  0  1  0  0  0  0  0  0  0  0  0
    9.6408    8.0262    0.9964 O   0  0  0  0  0  0  0  0  0  0  0  0
    1.5231    5.2306    7.9883 C   0  0  2  0  0  0  0  0  0  0  0  0
    1.6523    5.1187    6.5223 O   0  0  0  0  0  0  0  0  0  0  0  0
    4.8746    6.5427    5.0856 C   0  0  2  0  0  0  0  0  0  0  0  0
    4.0833    5.9682    4.0506 O   0  0  0  0  0  0  0  0  0  0  0  0
    8.5181    5.9216    1.5033 C   0  0  0  0  0  0  0  0  0  0  0  0
    9.0554    5.8635    2.8840 O   0  0  0  0  0  0  0  0  0  0  0  0
    1.5039    3.8003    8.5882 C   0  0  2  0  0  0  0  0  0  0  0  0
    1.2128    3.8742    9.9814 O   0  0  0  0  0  0  0  0  0  0  0  0
    6.2325    5.8043    5.1342 C   0  0  1  0  0  0  0  0  0  0  0  0
    6.8688    6.0045    3.8499 O   0  0  0  0  0  0  0  0  0  0  0  0
    2.8465    3.1072    8.4246 C   0  0  0  0  0  0  0  0  0  0  0  0
    7.7953    7.4263   -0.3831 C   0  0  0  0  0  0  0  0  0  0  0  0
    5.8985   10.0058    2.0014 C   0  0  0  0  0  0  0  0  0  0  0  0
  1  2  1  1  0  0  0
  1  6  1  0  0  0  0
  1 23  1  0  0  0  0
  3  4  1  1  0  0  0
  3  8  1  0  0  0  0
  3 30  1  0  0  0  0
  5  9  1  0  0  0  0
  5 27  1  0  0  0  0
  5 31  1  6  0  0  0
  6  7  1  6  0  0  0
  6 11  1  0  0  0  0
  8 13  1  0  0  0  0
  9 10  1  1  0  0  0
  9 15  1  0  0  0  0
 11 12  1  6  0  0  0
 11 17  1  0  0  0  0
 13 14  1  1  0  0  0
 13 19  1  0  0  0  0
 15 16  1  6  0  0  0
 15 20  1  0  0  0  0
 16 34  1  0  0  0  0
 17 18  1  1  0  0  0
 17 22  1  0  0  0  0
 19  2  1  6  0  0  0
 19 24  1  0  0  0  0
 20 21  1  6  0  0  0
 20 26  1  0  0  0  0
 20 33  1  0  0  0  0
 22 23  1  6  0  0  0
 22 28  1  0  0  0  0
 24 25  1  6  0  0  0
 24 30  1  0  0  0  0
 26 27  1  0  0  0  0
 28 29  1  1  0  0  0
 28 32  1  0  0  0  0
 30 31  1  6  0  0  0
M  END
>  <CHROM.1>
168.90339070,-153.10666547,-93.45762716,-51.43305590,10.30091340,-102.98766710
4.65374227,6.68247028,5.41479707,2.49192793,-0.33892588,2.24268583

>  <Name>
ligand

>  <RI>
0

>  <Rbt.Current_Directory>
/home/itssahil/PROJECTS/Mol_Feturizer/New_Systems/rnas/3TD1

>  <Rbt.Executable>
rbdock ($Id: //depot/dev/client3/rdock/2013.1/src/exe/rbdock.cxx#4 $)

>  <Rbt.Library>
libRbt.so (2013.1, Build901 2013/11/27)

>  <Rbt.Parameter_File>
/export/apps/rDock/src/rDock_2013.1_src/data/scripts/dock_solv.prm

>  <Rbt.Receptor>
prm/blind_docking_80.prm

>  <SCORE>
22.5986

>  <SCORE.INTER>
5.76464

>  <SCORE.INTER.CONST>
1

>  <SCORE.INTER.POLAR>
0

>  <SCORE.INTER.ROT>
6

>  <SCORE.INTER.SOLV>
25.1791

>  <SCORE.INTER.VDW>
-12.1499

>  <SCORE.INTER.norm>
0.169548

>  <SCORE.INTRA>
2.37142

>  <SCORE.INTRA.DIHEDRAL>
-2.49199

>  <SCORE.INTRA.DIHEDRAL.0>
19.5869

>  <SCORE.INTRA.POLAR>
0

>  <SCORE.INTRA.POLAR.0>
0

>  <SCORE.INTRA.REPUL>
0

>  <SCORE.INTRA.REPUL.0>
0

>  <SCORE.INTRA.SOLV>
1.33681

>  <SCORE.INTRA.SOLV.lig_0>
-70.101

>  <SCORE.INTRA.VDW>
2.94901

>  <SCORE.INTRA.VDW.0>
-3.39718

>  <SCORE.INTRA.norm>
0.0697475

>  <SCORE.RESTR>
14.4626

>  <SCORE.RESTR.CAVITY>
14.4626

>  <SCORE.RESTR.norm>
0.425369

>  <SCORE.SYSTEM>
0

>  <SCORE.SYSTEM.CONST>
0

>  <SCORE.SYSTEM.DIHEDRAL>
0

>  <SCORE.SYSTEM.SOLV>
0

>  <SCORE.SYSTEM.norm>
0

>  <SCORE.heavy>
34

>  <SCORE.norm>
0.664665

>  <RMSD>
6.388

$$$$
ligand
 OpenBabel11021811483D
libRbt.so/2013.1/901 2013/11/27
 34 36  0  0  0  0  0  0  0  0999 V2000
    0.5229    5.6180    7.1303 C   0  0  2  0  0  0  0  0  0  0  0  0
    1.5354    6.4880    7.6598 O   0  0  0  0  0  0  0  0  0  0  0  0
    5.8056    6.5867    7.7911 C   0  0  2  0  0  0  0  0  0  0  0  0
    7.2015    6.1648    7.8328 N   0  0  0  0  0  0  0  0  0  0  0  0
    7.2579    6.8218    5.3124 C   0  0  2  0  0  0  0  0  0  0  0  0
   -0.6655    5.5764    8.1562 C   0  0  2  0  0  0  0  0  0  0  0  0
   -1.2442    6.9146    8.3529 N   0  0  0  0  0  0  0  0  0  0  0  0
    5.0697    5.8871    8.9821 C   0  0  0  0  0  0  0  0  0  0  0  0
    7.6877    7.8597    4.2147 C   0  0  2  0  0  0  0  0  0  0  0  0
    7.2061    9.1491    4.5558 O   0  0  0  0  0  0  0  0  0  0  0  0
   -0.1576    5.0200    9.5041 C   0  0  1  0  0  0  0  0  0  0  0  0
   -1.2422    4.9718   10.4455 O   0  0  0  0  0  0  0  0  0  0  0  0
    3.5761    6.3576    8.9520 C   0  0  2  0  0  0  0  0  0  0  0  0
    2.8244    5.7235   10.0539 N   0  0  0  0  0  0  0  0  0  0  0  0
    7.1125    7.3899    2.8226 C   0  0  1  0  0  0  0  0  0  0  0  0
    7.4815    8.3552    1.7439 N   0  0  0  0  0  0  0  0  0  0  0  0
    0.4529    3.6184    9.2671 C   0  0  2  0  0  0  0  0  0  0  0  0
    0.9405    3.0913   10.5133 O   0  0  0  0  0  0  0  0  0  0  0  0
    2.9040    5.9847    7.6059 C   0  0  2  0  0  0  0  0  0  0  0  0
    7.6745    5.9645    2.4943 C   0  0  1  0  0  0  0  0  0  0  0  0
    9.0952    6.0214    2.3976 O   0  0  0  0  0  0  0  0  0  0  0  0
    1.6235    3.7225    8.2167 C   0  0  2  0  0  0  0  0  0  0  0  0
    1.1137    4.2830    6.9501 O   0  0  0  0  0  0  0  0  0  0  0  0
    3.6899    6.6373    6.4412 C   0  0  2  0  0  0  0  0  0  0  0  0
    3.0662    6.2665    5.2161 O   0  0  0  0  0  0  0  0  0  0  0  0
    7.2718    4.9916    3.6470 C   0  0  0  0  0  0  0  0  0  0  0  0
    7.7650    5.4903    4.9533 O   0  0  0  0  0  0  0  0  0  0  0  0
    2.2593    2.3394    7.9187 C   0  0  2  0  0  0  0  0  0  0  0  0
    1.3965    1.3088    8.3927 O   0  0  0  0  0  0  0  0  0  0  0  0
    5.1575    6.1507    6.4132 C   0  0  1  0  0  0  0  0  0  0  0  0
    5.8029    6.8176    5.3028 O   0  0  0  0  0  0  0  0  0  0  0  0
    3.6038    2.1815    8.6093 C   0  0  0  0  0  0  0  0  0  0  0  0
    7.1426    5.4306    1.1700 C   0  0  0  0  0  0  0  0  0  0  0  0
    6.6195    9.5456    1.8738 C   0  0  0  0  0  0  0  0  0  0  0  0
  1  2  1  1  0  0  0
  1  6  1  0  0  0  0
  1 23  1  0  0  0  0
  3  4  1  6  0  0  0
  3  8  1  0  0  0  0
  3 30  1  0  0  0  0
  5  9  1  0  0  0  0
  5 27  1  0  0  0  0
  5 31  1  6  0  0  0
  6  7  1  1  0  0  0
  6 11  1  0  0  0  0
  8 13  1  0  0  0  0
  9 10  1  1  0  0  0
  9 15  1  0  0  0  0
 11 12  1  1  0  0  0
 11 17  1  0  0  0  0
 13 14  1  1  0  0  0
 13 19  1  0  0  0  0
 15 16  1  6  0  0  0
 15 20  1  0  0  0  0
 16 34  1  0  0  0  0
 17 18  1  1  0  0  0
 17 22  1  0  0  0  0
 19  2  1  1  0  0  0
 19 24  1  0  0  0  0
 20 21  1  6  0  0  0
 20 26  1  0  0  0  0
 20 33  1  0  0  0  0
 22 23  1  6  0  0  0
 22 28  1  0  0  0  0
 24 25  1  6  0  0  0
 24 30  1  0  0  0  0
 26 27  1  0  0  0  0
 28 29  1  1  0  0  0
 28 32  1  0  0  0  0
 30 31  1  6  0  0  0
M  END
>  <CHROM.1>
133.58317574,-138.48865496,-75.91667029,15.41340177,46.71540408,-167.53509345
4.04559887,5.71336366,6.48459474,2.55341339,-0.50471636,2.63765898

>  <Name>
ligand

>  <RI>
0

>  <Rbt.Current_Directory>
/home/itssahil/PROJECTS/Mol_Feturizer/New_Systems/rnas/3TD1

>  <Rbt.Executable>
rbdock ($Id: //depot/dev/client3/rdock/2013.1/src/exe/rbdock.cxx#4 $)

>  <Rbt.Library>
libRbt.so (2013.1, Build901 2013/11/27)

>  <Rbt.Parameter_File>
/export/apps/rDock/src/rDock_2013.1_src/data/scripts/dock_solv.prm

>  <Rbt.Receptor>
prm/blind_docking_60.prm

>  <SCORE>
18.8088

>  <SCORE.INTER>
-2.05012

>  <SCORE.INTER.CONST>
1

>  <SCORE.INTER.POLAR>
0

>  <SCORE.INTER.ROT>
6

>  <SCORE.INTER.SOLV>
23.854

>  <SCORE.INTER.VDW>
-16.9181

>  <SCORE.INTER.norm>
-0.0602977

>  <SCORE.INTRA>
7.11476

>  <SCORE.INTRA.DIHEDRAL>
-1.24563

>  <SCORE.INTRA.DIHEDRAL.0>
19.5869

>  <SCORE.INTRA.POLAR>
0

>  <SCORE.INTRA.POLAR.0>
0

>  <SCORE.INTRA.REPUL>
0

>  <SCORE.INTRA.REPUL.0>
0

>  <SCORE.INTRA.SOLV>
3.49865

>  <SCORE.INTRA.SOLV.lig_0>
-70.101

>  <SCORE.INTRA.VDW>
5.98825

>  <SCORE.INTRA.VDW.0>
-3.39718

>  <SCORE.INTRA.norm>
0.209258

>  <SCORE.RESTR>
13.7441

>  <SCORE.RESTR.CAVITY>
13.7441

>  <SCORE.RESTR.norm>
0.404239

>  <SCORE.SYSTEM>
0

>  <SCORE.SYSTEM.CONST>
0

>  <SCORE.SYSTEM.DIHEDRAL>
0

>  <SCORE.SYSTEM.SOLV>
0

>  <SCORE.SYSTEM.norm>
0

>  <SCORE.heavy>
34

>  <SCORE.norm>
0.553199

>  <RMSD>
6.399

$$$$
ligand
 OpenBabel11021811483D
libRbt.so/2013.1/901 2013/11/27
 34 36  0  0  0  0  0  0  0  0999 V2000
    9.4140    3.0557    8.0308 C   0  0  2  0  0  0  0  0  0  0  0  0
   10.5547    2.3376    7.5351 O   0  0  0  0  0  0  0  0  0  0  0  0
   14.7132    2.8629    8.3672 C   0  0  2  0  0  0  0  0  0  0  0  0
   16.0517    3.4392    8.4340 N   0  0  0  0  0  0  0  0  0  0  0  0
   15.3407    4.3577   10.9680 C   0  0  2  0  0  0  0  0  0  0  0  0
    8.1724    2.0958    7.9687 C   0  0  2  0  0  0  0  0  0  0  0  0
    8.3819    0.9022    8.8028 N   0  0  0  0  0  0  0  0  0  0  0  0
   14.2798    2.8597    6.8633 C   0  0  0  0  0  0  0  0  0  0  0  0
   15.5391    4.1078   12.5060 C   0  0  2  0  0  0  0  0  0  0  0  0
   15.6212    2.7154   12.7612 O   0  0  0  0  0  0  0  0  0  0  0  0
    7.9238    1.6763    6.5036 C   0  0  1  0  0  0  0  0  0  0  0  0
    6.7839    0.8039    6.4384 O   0  0  0  0  0  0  0  0  0  0  0  0
   12.8523    2.2198    6.7879 C   0  0  2  0  0  0  0  0  0  0  0  0
   12.3836    2.1940    5.3875 N   0  0  0  0  0  0  0  0  0  0  0  0
   14.3286    4.7560   13.2832 C   0  0  1  0  0  0  0  0  0  0  0  0
   14.4624    4.5317   14.7540 N   0  0  0  0  0  0  0  0  0  0  0  0
    7.7160    2.9488    5.6487 C   0  0  2  0  0  0  0  0  0  0  0  0
    7.4937    2.5740    4.2780 O   0  0  0  0  0  0  0  0  0  0  0  0
   11.8384    3.0231    7.6419 C   0  0  2  0  0  0  0  0  0  0  0  0
   14.2840    6.2903   12.9676 C   0  0  1  0  0  0  0  0  0  0  0  0
   15.4882    6.9060   13.4169 O   0  0  0  0  0  0  0  0  0  0  0  0
    8.9836    3.8782    5.7676 C   0  0  2  0  0  0  0  0  0  0  0  0
    9.2116    4.2387    7.1805 O   0  0  0  0  0  0  0  0  0  0  0  0
   12.3247    3.0647    9.1123 C   0  0  2  0  0  0  0  0  0  0  0  0
   11.3889    3.8219    9.8728 O   0  0  0  0  0  0  0  0  0  0  0  0
   14.1500    6.4786   11.4236 C   0  0  0  0  0  0  0  0  0  0  0  0
   15.2615    5.8025   10.7124 O   0  0  0  0  0  0  0  0  0  0  0  0
    8.8221    5.1858    4.9491 C   0  0  2  0  0  0  0  0  0  0  0  0
   10.0147    5.9595    5.0509 O   0  0  0  0  0  0  0  0  0  0  0  0
   13.7114    3.7398    9.2252 C   0  0  1  0  0  0  0  0  0  0  0  0
   14.0768    3.7234   10.6254 O   0  0  0  0  0  0  0  0  0  0  0  0
    7.6687    6.0300    5.4655 C   0  0  0  0  0  0  0  0  0  0  0  0
   13.1217    6.9848   13.6667 C   0  0  0  0  0  0  0  0  0  0  0  0
   13.4577    3.5313   15.1625 C   0  0  0  0  0  0  0  0  0  0  0  0
  1  2  1  6  0  0  0
  1  6  1  0  0  0  0
  1 23  1  0  0  0  0
  3  4  1  6  0  0  0
  3  8  1  0  0  0  0
  3 30  1  0  0  0  0
  5  9  1  0  0  0  0
  5 27  1  0  0  0  0
  5 31  1  1  0  0  0
  6  7  1  1  0  0  0
  6 11  1  0  0  0  0
  8 13  1  0  0  0  0
  9 10  1  6  0  0  0
  9 15  1  0  0  0  0
 11 12  1  1  0  0  0
 11 17  1  0  0  0  0
 13 14  1  6  0  0  0
 13 19  1  0  0  0  0
 15 16  1  1  0  0  0
 15 20  1  0  0  0  0
 16 34  1  0  0  0  0
 17 18  1  6  0  0  0
 17 22  1  0  0  0  0
 19  2  1  1  0  0  0
 19 24  1  0  0  0  0
 20 21  1  1  0  0  0
 20 26  1  0  0  0  0
 20 33  1  0  0  0  0
 22 23  1  1  0  0  0
 22 28  1  0  0  0  0
 24 25  1  1  0  0  0
 24 30  1  0  0  0  0
 26 27  1  0  0  0  0
 28 29  1  1  0  0  0
 28 32  1  0  0  0  0
 30 31  1  1  0  0  0
M  END
>  <CHROM.1>
-173.97491855,-168.02756828,-107.63713924,-177.72975070,66.12584902,-175.98683191
11.91977301,3.81410994,9.05442934,2.30064694,-0.06832849,-1.77945695

>  <Name>
ligand

>  <RI>
0

>  <Rbt.Current_Directory>
/home/itssahil/PROJECTS/Mol_Feturizer/New_Systems/rnas/3TD1

>  <Rbt.Executable>
rbdock ($Id: //depot/dev/client3/rdock/2013.1/src/exe/rbdock.cxx#4 $)

>  <Rbt.Library>
libRbt.so (2013.1, Build901 2013/11/27)

>  <Rbt.Parameter_File>
/export/apps/rDock/src/rDock_2013.1_src/data/scripts/dock_solv.prm

>  <Rbt.Receptor>
prm/pocket_docking_8.prm

>  <SCORE>
-8.22867

>  <SCORE.INTER>
0.36252

>  <SCORE.INTER.CONST>
1

>  <SCORE.INTER.POLAR>
0

>  <SCORE.INTER.ROT>
6

>  <SCORE.INTER.SOLV>
11.352

>  <SCORE.INTER.VDW>
-11.1423

>  <SCORE.INTER.norm>
0.0106624

>  <SCORE.INTRA>
-8.59119

>  <SCORE.INTRA.DIHEDRAL>
-17.2919

>  <SCORE.INTRA.DIHEDRAL.0>
19.5869

>  <SCORE.INTRA.POLAR>
0

>  <SCORE.INTRA.POLAR.0>
0

>  <SCORE.INTRA.REPUL>
0

>  <SCORE.INTRA.REPUL.0>
0

>  <SCORE.INTRA.SOLV>
-2.01709

>  <SCORE.INTRA.SOLV.lig_0>
-70.101

>  <SCORE.INTRA.VDW>
1.06333

>  <SCORE.INTRA.VDW.0>
-3.39718

>  <SCORE.INTRA.norm>
-0.252682

>  <SCORE.RESTR>
0

>  <SCORE.RESTR.CAVITY>
0

>  <SCORE.RESTR.norm>
0

>  <SCORE.SYSTEM>
0

>  <SCORE.SYSTEM.CONST>
0

>  <SCORE.SYSTEM.DIHEDRAL>
0

>  <SCORE.SYSTEM.SOLV>
0

>  <SCORE.SYSTEM.norm>
0

>  <SCORE.heavy>
34

>  <SCORE.norm>
-0.24202

>  <RMSD>
6.404

$$$$
ligand
 OpenBabel11021811483D
libRbt.so/2013.1/901 2013/11/27
 34 36  0  0  0  0  0  0  0  0999 V2000
    0.5077    5.5742    7.1329 C   0  0  2  0  0  0  0  0  0  0  0  0
    1.5486    6.4261    7.6360 O   0  0  0  0  0  0  0  0  0  0  0  0
    5.8206    6.4304    7.7470 C   0  0  2  0  0  0  0  0  0  0  0  0
    7.2075    5.9784    7.7584 N   0  0  0  0  0  0  0  0  0  0  0  0
    7.2655    6.7769    5.2832 C   0  0  2  0  0  0  0  0  0  0  0  0
   -0.6556    5.5553    8.1879 C   0  0  2  0  0  0  0  0  0  0  0  0
   -1.2048    6.9041    8.3969 N   0  0  0  0  0  0  0  0  0  0  0  0
    5.0760    5.6844    8.9041 C   0  0  0  0  0  0  0  0  0  0  0  0
    7.7082    7.8195    4.1950 C   0  0  2  0  0  0  0  0  0  0  0  0
    7.2435    9.1117    4.5486 O   0  0  0  0  0  0  0  0  0  0  0  0
   -0.1249    4.9911    9.5237 C   0  0  1  0  0  0  0  0  0  0  0  0
   -1.1865    4.9636   10.4916 O   0  0  0  0  0  0  0  0  0  0  0  0
    3.5924    6.1863    8.9075 C   0  0  2  0  0  0  0  0  0  0  0  0
    2.8330    5.5108    9.9792 N   0  0  0  0  0  0  0  0  0  0  0  0
    7.1263    7.3703    2.7989 C   0  0  1  0  0  0  0  0  0  0  0  0
    7.5073    8.3408    1.7292 N   0  0  0  0  0  0  0  0  0  0  0  0
    0.4539    3.5783    9.2736 C   0  0  2  0  0  0  0  0  0  0  0  0
    0.9624    3.0436   10.5081 O   0  0  0  0  0  0  0  0  0  0  0  0
    2.9062    5.8984    7.5478 C   0  0  2  0  0  0  0  0  0  0  0  0
    7.6697    5.9409    2.4569 C   0  0  1  0  0  0  0  0  0  0  0  0
    9.0910    5.9804    2.3598 O   0  0  0  0  0  0  0  0  0  0  0  0
    1.6000    3.6600    8.1945 C   0  0  2  0  0  0  0  0  0  0  0  0
    1.0693    4.2285    6.9401 O   0  0  0  0  0  0  0  0  0  0  0  0
    3.6998    6.5951    6.4143 C   0  0  2  0  0  0  0  0  0  0  0  0
    3.0626    6.3019    5.1751 O   0  0  0  0  0  0  0  0  0  0  0  0
    7.2550    4.9624    3.6006 C   0  0  0  0  0  0  0  0  0  0  0  0
    7.7552    5.4424    4.9112 O   0  0  0  0  0  0  0  0  0  0  0  0
    2.2028    2.2653    7.8828 C   0  0  2  0  0  0  0  0  0  0  0  0
    1.4046    1.2559    8.4954 O   0  0  0  0  0  0  0  0  0  0  0  0
    5.1569    6.0807    6.3521 C   0  0  1  0  0  0  0  0  0  0  0  0
    5.8105    6.7916    5.2743 O   0  0  0  0  0  0  0  0  0  0  0  0
    3.6186    2.1353    8.4199 C   0  0  0  0  0  0  0  0  0  0  0  0
    7.1303    5.4264    1.1279 C   0  0  0  0  0  0  0  0  0  0  0  0
    6.6442    9.5309    1.8556 C   0  0  0  0  0  0  0  0  0  0  0  0
  1  2  1  1  0  0  0
  1  6  1  0  0  0  0
  1 23  1  0  0  0  0
  3  4  1  6  0  0  0
  3  8  1  0  0  0  0
  3 30  1  0  0  0  0
  5  9  1  0  0  0  0
  5 27  1  0  0  0  0
  5 31  1  6  0  0  0
  6  7  1  1  0  0  0
  6 11  1  0  0  0  0
  8 13  1  0  0  0  0
  9 10  1  1  0  0  0
  9 15  1  0  0  0  0
 11 12  1  1  0  0  0
 11 17  1  0  0  0  0
 13 14  1  1  0  0  0
 13 19  1  0  0  0  0
 15 16  1  6  0  0  0
 15 20  1  0  0  0  0
 16 34  1  0  0  0  0
 17 18  1  1  0  0  0
 17 22  1  0  0  0  0
 19  2  1  1  0  0  0
 19 24  1  0  0  0  0
 20 21  1  6  0  0  0
 20 26  1  0  0  0  0
 20 33  1  0  0  0  0
 22 23  1  6  0  0  0
 22 28  1  0  0  0  0
 24 25  1  6  0  0  0
 24 30  1  0  0  0  0
 26 27  1  0  0  0  0
 28 29  1  1  0  0  0
 28 32  1  0  0  0  0
 30 31  1  6  0  0  0
M  END
>  <CHROM.1>
133.64786991,-135.24838643,-76.92710747,9.60533539,46.11496049,-169.73063166
4.05193339,5.65614431,6.45904923,2.54330585,-0.49843396,2.62353106

>  <Name>
ligand

>  <RI>
0

>  <Rbt.Current_Directory>
/home/itssahil/PROJECTS/Mol_Feturizer/New_Systems/rnas/3TD1

>  <Rbt.Executable>
rbdock ($Id: //depot/dev/client3/rdock/2013.1/src/exe/rbdock.cxx#4 $)

>  <Rbt.Library>
libRbt.so (2013.1, Build901 2013/11/27)

>  <Rbt.Parameter_File>
/export/apps/rDock/src/rDock_2013.1_src/data/scripts/dock_solv.prm

>  <Rbt.Receptor>
prm/blind_docking_60.prm

>  <SCORE>
19.6507

>  <SCORE.INTER>
-1.89033

>  <SCORE.INTER.CONST>
1

>  <SCORE.INTER.POLAR>
0

>  <SCORE.INTER.ROT>
6

>  <SCORE.INTER.SOLV>
23.2569

>  <SCORE.INTER.VDW>
-16.6125

>  <SCORE.INTER.norm>
-0.0555979

>  <SCORE.INTRA>
7.95157

>  <SCORE.INTRA.DIHEDRAL>
-0.414941

>  <SCORE.INTRA.DIHEDRAL.0>
19.5869

>  <SCORE.INTRA.POLAR>
0

>  <SCORE.INTRA.POLAR.0>
0

>  <SCORE.INTRA.REPUL>
0

>  <SCORE.INTRA.REPUL.0>
0

>  <SCORE.INTRA.SOLV>
3.99019

>  <SCORE.INTRA.SOLV.lig_0>
-70.101

>  <SCORE.INTRA.VDW>
6.16395

>  <SCORE.INTRA.VDW.0>
-3.39718

>  <SCORE.INTRA.norm>
0.23387

>  <SCORE.RESTR>
13.5895

>  <SCORE.RESTR.CAVITY>
13.5895

>  <SCORE.RESTR.norm>
0.39969

>  <SCORE.SYSTEM>
0

>  <SCORE.SYSTEM.CONST>
0

>  <SCORE.SYSTEM.DIHEDRAL>
0

>  <SCORE.SYSTEM.SOLV>
0

>  <SCORE.SYSTEM.norm>
0

>  <SCORE.heavy>
34

>  <SCORE.norm>
0.577962

>  <RMSD>
6.405

$$$$
ligand
 OpenBabel11021811483D
libRbt.so/2013.1/901 2013/11/27
 34 36  0  0  0  0  0  0  0  0999 V2000
    0.8238    5.2658    7.0439 C   0  0  2  0  0  0  0  0  0  0  0  0
    1.7696    6.1328    7.6891 O   0  0  0  0  0  0  0  0  0  0  0  0
    6.0237    6.5289    7.7770 C   0  0  2  0  0  0  0  0  0  0  0  0
    7.4461    6.2057    7.7898 N   0  0  0  0  0  0  0  0  0  0  0  0
    7.4255    6.8707    5.2425 C   0  0  2  0  0  0  0  0  0  0  0  0
   -0.5832    5.5116    7.6969 C   0  0  2  0  0  0  0  0  0  0  0  0
   -1.0162    6.9059    7.5160 N   0  0  0  0  0  0  0  0  0  0  0  0
    5.3545    5.7415    8.9525 C   0  0  0  0  0  0  0  0  0  0  0  0
    7.7853    7.8947    4.1071 C   0  0  2  0  0  0  0  0  0  0  0  0
    7.2934    9.1810    4.4448 O   0  0  0  0  0  0  0  0  0  0  0  0
   -0.5140    5.1739    9.2020 C   0  0  1  0  0  0  0  0  0  0  0  0
   -1.8006    5.3891    9.8045 O   0  0  0  0  0  0  0  0  0  0  0  0
    3.8313    6.1059    8.9541 C   0  0  2  0  0  0  0  0  0  0  0  0
    3.1406    5.3855   10.0429 N   0  0  0  0  0  0  0  0  0  0  0  0
    7.1587    7.3862    2.7512 C   0  0  1  0  0  0  0  0  0  0  0  0
    7.4602    8.3367    1.6390 N   0  0  0  0  0  0  0  0  0  0  0  0
   -0.0483    3.7073    9.3633 C   0  0  2  0  0  0  0  0  0  0  0  0
    0.0314    3.3811   10.7618 O   0  0  0  0  0  0  0  0  0  0  0  0
    3.1694    5.7295    7.6039 C   0  0  2  0  0  0  0  0  0  0  0  0
    7.7344    5.9656    2.4255 C   0  0  1  0  0  0  0  0  0  0  0  0
    9.1480    6.0481    2.2644 O   0  0  0  0  0  0  0  0  0  0  0  0
    1.3560    3.5197    8.6724 C   0  0  2  0  0  0  0  0  0  0  0  0
    1.2646    3.8767    7.2433 O   0  0  0  0  0  0  0  0  0  0  0  0
    3.8920    6.4728    6.4527 C   0  0  2  0  0  0  0  0  0  0  0  0
    3.2798    6.0980    5.2230 O   0  0  0  0  0  0  0  0  0  0  0  0
    7.4027    5.0083    3.6133 C   0  0  0  0  0  0  0  0  0  0  0  0
    7.9431    5.5424    4.8865 O   0  0  0  0  0  0  0  0  0  0  0  0
    1.8640    2.0581    8.7799 C   0  0  2  0  0  0  0  0  0  0  0  0
    3.1932    1.9793    8.2718 O   0  0  0  0  0  0  0  0  0  0  0  0
    5.3897    6.0923    6.3928 C   0  0  1  0  0  0  0  0  0  0  0  0
    5.9719    6.8382    5.2978 O   0  0  0  0  0  0  0  0  0  0  0  0
    0.9961    1.1040    7.9761 C   0  0  0  0  0  0  0  0  0  0  0  0
    7.1553    5.3953    1.1366 C   0  0  0  0  0  0  0  0  0  0  0  0
    6.6191    9.5361    1.8149 C   0  0  0  0  0  0  0  0  0  0  0  0
  1  2  1  1  0  0  0
  1  6  1  0  0  0  0
  1 23  1  0  0  0  0
  3  4  1  6  0  0  0
  3  8  1  0  0  0  0
  3 30  1  0  0  0  0
  5  9  1  0  0  0  0
  5 27  1  0  0  0  0
  5 31  1  6  0  0  0
  6  7  1  1  0  0  0
  6 11  1  0  0  0  0
  8 13  1  0  0  0  0
  9 10  1  1  0  0  0
  9 15  1  0  0  0  0
 11 12  1  6  0  0  0
 11 17  1  0  0  0  0
 13 14  1  1  0  0  0
 13 19  1  0  0  0  0
 15 16  1  6  0  0  0
 15 20  1  0  0  0  0
 16 34  1  0  0  0  0
 17 18  1  1  0  0  0
 17 22  1  0  0  0  0
 19  2  1  1  0  0  0
 19 24  1  0  0  0  0
 20 21  1  6  0  0  0
 20 26  1  0  0  0  0
 20 33  1  0  0  0  0
 22 23  1  6  0  0  0
 22 28  1  0  0  0  0
 24 25  1  6  0  0  0
 24 30  1  0  0  0  0
 26 27  1  0  0  0  0
 28 29  1  6  0  0  0
 28 32  1  0  0  0  0
 30 31  1  6  0  0  0
M  END
>  <CHROM.1>
157.82125468,-143.53008560,-73.69963705,-173.69033315,50.62962410,-172.16404223
4.05684004,5.64772846,6.42098468,2.49988026,-0.38413777,2.50412298

>  <Name>
ligand

>  <RI>
0

>  <Rbt.Current_Directory>
/home/itssahil/PROJECTS/Mol_Feturizer/New_Systems/rnas/3TD1

>  <Rbt.Executable>
rbdock ($Id: //depot/dev/client3/rdock/2013.1/src/exe/rbdock.cxx#4 $)

>  <Rbt.Library>
libRbt.so (2013.1, Build901 2013/11/27)

>  <Rbt.Parameter_File>
/export/apps/rDock/src/rDock_2013.1_src/data/scripts/dock_solv.prm

>  <Rbt.Receptor>
prm/blind_docking_100.prm

>  <SCORE>
10.1691

>  <SCORE.INTER>
-2.74253

>  <SCORE.INTER.CONST>
1

>  <SCORE.INTER.POLAR>
0

>  <SCORE.INTER.ROT>
6

>  <SCORE.INTER.SOLV>
22.5748

>  <SCORE.INTER.VDW>
-16.9533

>  <SCORE.INTER.norm>
-0.0806626

>  <SCORE.INTRA>
-0.90873

>  <SCORE.INTRA.DIHEDRAL>
-11.537

>  <SCORE.INTRA.DIHEDRAL.0>
19.5869

>  <SCORE.INTRA.POLAR>
0

>  <SCORE.INTRA.POLAR.0>
0

>  <SCORE.INTRA.REPUL>
0

>  <SCORE.INTRA.REPUL.0>
0

>  <SCORE.INTRA.SOLV>
1.85366

>  <SCORE.INTRA.SOLV.lig_0>
-70.101

>  <SCORE.INTRA.VDW>
3.93294

>  <SCORE.INTRA.VDW.0>
-3.39718

>  <SCORE.INTRA.norm>
-0.0267274

>  <SCORE.RESTR>
13.8204

>  <SCORE.RESTR.CAVITY>
13.8204

>  <SCORE.RESTR.norm>
0.406482

>  <SCORE.SYSTEM>
0

>  <SCORE.SYSTEM.CONST>
0

>  <SCORE.SYSTEM.DIHEDRAL>
0

>  <SCORE.SYSTEM.SOLV>
0

>  <SCORE.SYSTEM.norm>
0

>  <SCORE.heavy>
34

>  <SCORE.norm>
0.299092

>  <RMSD>
6.417

$$$$
ligand
 OpenBabel11021811483D
libRbt.so/2013.1/901 2013/11/27
 34 36  0  0  0  0  0  0  0  0999 V2000
    0.4639    5.6005    7.0985 C   0  0  2  0  0  0  0  0  0  0  0  0
    1.4737    6.4985    7.5847 O   0  0  0  0  0  0  0  0  0  0  0  0
    5.7416    6.6084    7.7700 C   0  0  2  0  0  0  0  0  0  0  0  0
    7.1377    6.1903    7.8346 N   0  0  0  0  0  0  0  0  0  0  0  0
    7.2255    6.7995    5.2966 C   0  0  2  0  0  0  0  0  0  0  0  0
   -0.6969    5.5582    8.1556 C   0  0  2  0  0  0  0  0  0  0  0  0
   -1.2945    6.8895    8.3416 N   0  0  0  0  0  0  0  0  0  0  0  0
    4.9918    5.9206    8.9593 C   0  0  0  0  0  0  0  0  0  0  0  0
    7.6722    7.8362    4.2043 C   0  0  2  0  0  0  0  0  0  0  0  0
    7.2029    9.1296    4.5472 O   0  0  0  0  0  0  0  0  0  0  0  0
   -0.1446    5.0374    9.5003 C   0  0  1  0  0  0  0  0  0  0  0  0
   -1.2036    4.9886   10.4704 O   0  0  0  0  0  0  0  0  0  0  0  0
    3.4978    6.3874    8.9046 C   0  0  2  0  0  0  0  0  0  0  0  0
    2.7332    5.7640   10.0038 N   0  0  0  0  0  0  0  0  0  0  0  0
    7.0990    7.3771    2.8078 C   0  0  1  0  0  0  0  0  0  0  0  0
    7.4841    8.3416    1.7342 N   0  0  0  0  0  0  0  0  0  0  0  0
    0.4849    3.6423    9.2744 C   0  0  2  0  0  0  0  0  0  0  0  0
    1.0137    3.1485   10.5173 O   0  0  0  0  0  0  0  0  0  0  0  0
    2.8439    5.9977    7.5542 C   0  0  2  0  0  0  0  0  0  0  0  0
    7.6472    5.9466    2.4779 C   0  0  1  0  0  0  0  0  0  0  0  0
    9.0690    5.9884    2.3885 O   0  0  0  0  0  0  0  0  0  0  0  0
    1.6261    3.7464    8.1920 C   0  0  2  0  0  0  0  0  0  0  0  0
    1.0739    4.2728    6.9287 O   0  0  0  0  0  0  0  0  0  0  0  0
    3.6434    6.6389    6.3925 C   0  0  2  0  0  0  0  0  0  0  0  0
    3.0364    6.2529    5.1637 O   0  0  0  0  0  0  0  0  0  0  0  0
    7.2281    4.9745    3.6254 C   0  0  0  0  0  0  0  0  0  0  0  0
    7.7200    5.4638    4.9358 O   0  0  0  0  0  0  0  0  0  0  0  0
    2.2789    2.3691    7.9042 C   0  0  2  0  0  0  0  0  0  0  0  0
    1.3991    1.3299    8.3251 O   0  0  0  0  0  0  0  0  0  0  0  0
    5.1123    6.1554    6.3889 C   0  0  1  0  0  0  0  0  0  0  0  0
    5.7706    6.8112    5.2794 O   0  0  0  0  0  0  0  0  0  0  0  0
    3.5917    2.2053    8.6521 C   0  0  0  0  0  0  0  0  0  0  0  0
    7.1163    5.4227    1.1492 C   0  0  0  0  0  0  0  0  0  0  0  0
    6.6330    9.5401    1.8622 C   0  0  0  0  0  0  0  0  0  0  0  0
  1  2  1  1  0  0  0
  1  6  1  0  0  0  0
  1 23  1  0  0  0  0
  3  4  1  6  0  0  0
  3  8  1  0  0  0  0
  3 30  1  0  0  0  0
  5  9  1  0  0  0  0
  5 27  1  0  0  0  0
  5 31  1  6  0  0  0
  6  7  1  1  0  0  0
  6 11  1  0  0  0  0
  8 13  1  0  0  0  0
  9 10  1  1  0  0  0
  9 15  1  0  0  0  0
 11 12  1  1  0  0  0
 11 17  1  0  0  0  0
 13 14  1  1  0  0  0
 13 19  1  0  0  0  0
 15 16  1  6  0  0  0
 15 20  1  0  0  0  0
 16 34  1  0  0  0  0
 17 18  1  1  0  0  0
 17 22  1  0  0  0  0
 19  2  1  1  0  0  0
 19 24  1  0  0  0  0
 20 21  1  6  0  0  0
 20 26  1  0  0  0  0
 20 33  1  0  0  0  0
 22 23  1  6  0  0  0
 22 28  1  0  0  0  0
 24 25  1  6  0  0  0
 24 30  1  0  0  0  0
 26 27  1  0  0  0  0
 28 29  1  1  0  0  0
 28 32  1  0  0  0  0
 30 31  1  6  0  0  0
M  END
>  <CHROM.1>
131.23521378,-136.23303345,-76.00163271,19.96113019,47.69820714,-167.14687739
4.02046306,5.71631000,6.46492356,2.55891123,-0.51163838,2.64291264

>  <Name>
ligand

>  <RI>
0

>  <Rbt.Current_Directory>
/home/itssahil/PROJECTS/Mol_Feturizer/New_Systems/rnas/3TD1

>  <Rbt.Executable>
rbdock ($Id: //depot/dev/client3/rdock/2013.1/src/exe/rbdock.cxx#4 $)

>  <Rbt.Library>
libRbt.so (2013.1, Build901 2013/11/27)

>  <Rbt.Parameter_File>
/export/apps/rDock/src/rDock_2013.1_src/data/scripts/dock_solv.prm

>  <Rbt.Receptor>
prm/blind_docking_60.prm

>  <SCORE>
19.6809

>  <SCORE.INTER>
-1.48629

>  <SCORE.INTER.CONST>
1

>  <SCORE.INTER.POLAR>
0

>  <SCORE.INTER.ROT>
6

>  <SCORE.INTER.SOLV>
23.7923

>  <SCORE.INTER.VDW>
-16.5216

>  <SCORE.INTER.norm>
-0.0437145

>  <SCORE.INTRA>
7.66196

>  <SCORE.INTRA.DIHEDRAL>
-1.2238

>  <SCORE.INTRA.DIHEDRAL.0>
19.5869

>  <SCORE.INTRA.POLAR>
0

>  <SCORE.INTRA.POLAR.0>
0

>  <SCORE.INTRA.REPUL>
0

>  <SCORE.INTRA.REPUL.0>
0

>  <SCORE.INTRA.SOLV>
3.78095

>  <SCORE.INTRA.SOLV.lig_0>
-70.101

>  <SCORE.INTRA.VDW>
6.38339

>  <SCORE.INTRA.VDW.0>
-3.39718

>  <SCORE.INTRA.norm>
0.225352

>  <SCORE.RESTR>
13.5052

>  <SCORE.RESTR.CAVITY>
13.5052

>  <SCORE.RESTR.norm>
0.397212

>  <SCORE.SYSTEM>
0

>  <SCORE.SYSTEM.CONST>
0

>  <SCORE.SYSTEM.DIHEDRAL>
0

>  <SCORE.SYSTEM.SOLV>
0

>  <SCORE.SYSTEM.norm>
0

>  <SCORE.heavy>
34

>  <SCORE.norm>
0.57885

>  <RMSD>
6.420

$$$$
ligand
 OpenBabel11021811483D
libRbt.so/2013.1/901 2013/11/27
 34 36  0  0  0  0  0  0  0  0999 V2000
    0.4812    5.6639    7.0935 C   0  0  2  0  0  0  0  0  0  0  0  0
    1.4553    6.5871    7.6048 O   0  0  0  0  0  0  0  0  0  0  0  0
    5.7187    6.7998    7.8036 C   0  0  2  0  0  0  0  0  0  0  0  0
    7.1222    6.4177    7.9149 N   0  0  0  0  0  0  0  0  0  0  0  0
    7.2174    6.7407    5.3081 C   0  0  2  0  0  0  0  0  0  0  0  0
   -0.6815    5.5550    8.1436 C   0  0  2  0  0  0  0  0  0  0  0  0
   -1.3285    6.8590    8.3566 N   0  0  0  0  0  0  0  0  0  0  0  0
    4.9734    6.2109    9.0475 C   0  0  0  0  0  0  0  0  0  0  0  0
    7.6660    7.7674    4.2072 C   0  0  2  0  0  0  0  0  0  0  0  0
    7.2159    9.0679    4.5492 O   0  0  0  0  0  0  0  0  0  0  0  0
   -0.1160    5.0245    9.4789 C   0  0  1  0  0  0  0  0  0  0  0  0
   -1.1764    4.9148   10.4424 O   0  0  0  0  0  0  0  0  0  0  0  0
    3.4711    6.6403    8.9409 C   0  0  2  0  0  0  0  0  0  0  0  0
    2.7104    6.1068   10.0891 N   0  0  0  0  0  0  0  0  0  0  0  0
    7.0735    7.3097    2.8183 C   0  0  1  0  0  0  0  0  0  0  0  0
    7.4598    8.2651    1.7369 N   0  0  0  0  0  0  0  0  0  0  0  0
    0.5654    3.6590    9.2247 C   0  0  2  0  0  0  0  0  0  0  0  0
    1.1070    3.1568   10.4589 O   0  0  0  0  0  0  0  0  0  0  0  0
    2.8352    6.1134    7.6290 C   0  0  2  0  0  0  0  0  0  0  0  0
    7.6009    5.8713    2.4890 C   0  0  1  0  0  0  0  0  0  0  0  0
    9.0221    5.8953    2.3855 O   0  0  0  0  0  0  0  0  0  0  0  0
    1.7065    3.8294    8.1507 C   0  0  2  0  0  0  0  0  0  0  0  0
    1.1404    4.3638    6.8968 O   0  0  0  0  0  0  0  0  0  0  0  0
    3.6308    6.6596    6.4172 C   0  0  2  0  0  0  0  0  0  0  0  0
    3.0409    6.1485    5.2263 O   0  0  0  0  0  0  0  0  0  0  0  0
    7.1812    4.9091    3.6446 C   0  0  0  0  0  0  0  0  0  0  0  0
    7.6919    5.3975    4.9480 O   0  0  0  0  0  0  0  0  0  0  0  0
    2.4108    2.4840    7.8351 C   0  0  2  0  0  0  0  0  0  0  0  0
    1.4810    1.4147    7.9877 O   0  0  0  0  0  0  0  0  0  0  0  0
    5.1089    6.2075    6.4672 C   0  0  1  0  0  0  0  0  0  0  0  0
    5.7626    6.7702    5.3051 O   0  0  0  0  0  0  0  0  0  0  0  0
    3.5778    2.2298    8.7748 C   0  0  0  0  0  0  0  0  0  0  0  0
    7.0506    5.3486    1.1677 C   0  0  0  0  0  0  0  0  0  0  0  0
    6.6433    9.4852    1.8843 C   0  0  0  0  0  0  0  0  0  0  0  0
  1  2  1  1  0  0  0
  1  6  1  0  0  0  0
  1 23  1  0  0  0  0
  3  4  1  1  0  0  0
  3  8  1  0  0  0  0
  3 30  1  0  0  0  0
  5  9  1  0  0  0  0
  5 27  1  0  0  0  0
  5 31  1  6  0  0  0
  6  7  1  1  0  0  0
  6 11  1  0  0  0  0
  8 13  1  0  0  0  0
  9 10  1  1  0  0  0
  9 15  1  0  0  0  0
 11 12  1  1  0  0  0
 11 17  1  0  0  0  0
 13 14  1  1  0  0  0
 13 19  1  0  0  0  0
 15 16  1  6  0  0  0
 15 20  1  0  0  0  0
 16 34  1  0  0  0  0
 17 18  1  1  0  0  0
 17 22  1  0  0  0  0
 19  2  1  6  0  0  0
 19 24  1  0  0  0  0
 20 21  1  6  0  0  0
 20 26  1  0  0  0  0
 20 33  1  0  0  0  0
 22 23  1  6  0  0  0
 22 28  1  0  0  0  0
 24 25  1  6  0  0  0
 24 30  1  0  0  0  0
 26 27  1  0  0  0  0
 28 29  1  1  0  0  0
 28 32  1  0  0  0  0
 30 31  1  6  0  0  0
M  END
>  <CHROM.1>
128.41318782,-141.21638680,-74.90604981,30.89228288,50.07593628,-163.10930082
4.02504140,5.74441229,6.46956835,2.64708886,-0.59110699,2.78752139

>  <Name>
ligand

>  <RI>
0

>  <Rbt.Current_Directory>
/home/itssahil/PROJECTS/Mol_Feturizer/New_Systems/rnas/3TD1

>  <Rbt.Executable>
rbdock ($Id: //depot/dev/client3/rdock/2013.1/src/exe/rbdock.cxx#4 $)

>  <Rbt.Library>
libRbt.so (2013.1, Build901 2013/11/27)

>  <Rbt.Parameter_File>
/export/apps/rDock/src/rDock_2013.1_src/data/scripts/dock_solv.prm

>  <Rbt.Receptor>
prm/blind_docking_60.prm

>  <SCORE>
20.4282

>  <SCORE.INTER>
0.22077

>  <SCORE.INTER.CONST>
1

>  <SCORE.INTER.POLAR>
0

>  <SCORE.INTER.ROT>
6

>  <SCORE.INTER.SOLV>
25.0953

>  <SCORE.INTER.VDW>
-15.8179

>  <SCORE.INTER.norm>
0.00649323

>  <SCORE.INTRA>
6.87957

>  <SCORE.INTRA.DIHEDRAL>
-2.95618

>  <SCORE.INTRA.DIHEDRAL.0>
19.5869

>  <SCORE.INTRA.POLAR>
0

>  <SCORE.INTRA.POLAR.0>
0

>  <SCORE.INTRA.REPUL>
0

>  <SCORE.INTRA.REPUL.0>
0

>  <SCORE.INTRA.SOLV>
2.9792

>  <SCORE.INTRA.SOLV.lig_0>
-70.101

>  <SCORE.INTRA.VDW>
6.86806

>  <SCORE.INTRA.VDW.0>
-3.39718

>  <SCORE.INTRA.norm>
0.20234

>  <SCORE.RESTR>
13.3278

>  <SCORE.RESTR.CAVITY>
13.3278

>  <SCORE.RESTR.norm>
0.391995

>  <SCORE.SYSTEM>
0

>  <SCORE.SYSTEM.CONST>
0

>  <SCORE.SYSTEM.DIHEDRAL>
0

>  <SCORE.SYSTEM.SOLV>
0

>  <SCORE.SYSTEM.norm>
0

>  <SCORE.heavy>
34

>  <SCORE.norm>
0.600829

>  <RMSD>
6.422

$$$$
ligand
 OpenBabel11021811483D
libRbt.so/2013.1/901 2013/11/27
 34 36  0  0  0  0  0  0  0  0999 V2000
    0.8900    5.8713    6.9166 C   0  0  2  0  0  0  0  0  0  0  0  0
    1.9076    6.5964    7.6245 O   0  0  0  0  0  0  0  0  0  0  0  0
    6.1808    6.5843    7.5864 C   0  0  2  0  0  0  0  0  0  0  0  0
    7.5659    6.1266    7.5877 N   0  0  0  0  0  0  0  0  0  0  0  0
    7.5359    6.6531    5.0195 C   0  0  2  0  0  0  0  0  0  0  0  0
   -0.5049    6.3059    7.4929 C   0  0  2  0  0  0  0  0  0  0  0  0
   -0.7309    7.7475    7.3054 N   0  0  0  0  0  0  0  0  0  0  0  0
    5.4750    5.9429    8.8275 C   0  0  0  0  0  0  0  0  0  0  0  0
    7.9649    7.6827    3.9136 C   0  0  2  0  0  0  0  0  0  0  0  0
    7.5827    8.9923    4.3004 O   0  0  0  0  0  0  0  0  0  0  0  0
   -0.5688    5.9549    8.9952 C   0  0  1  0  0  0  0  0  0  0  0  0
   -1.8459    6.3428    9.5274 O   0  0  0  0  0  0  0  0  0  0  0  0
    3.9940    6.4522    8.8400 C   0  0  2  0  0  0  0  0  0  0  0  0
    3.2706    5.8739    9.9905 N   0  0  0  0  0  0  0  0  0  0  0  0
    7.2840    7.2729    2.5506 C   0  0  1  0  0  0  0  0  0  0  0  0
    7.6491    8.2332    1.4662 N   0  0  0  0  0  0  0  0  0  0  0  0
   -0.3192    4.4374    9.1639 C   0  0  2  0  0  0  0  0  0  0  0  0
   -0.3652    4.0968   10.5605 O   0  0  0  0  0  0  0  0  0  0  0  0
    3.2596    6.0550    7.5340 C   0  0  2  0  0  0  0  0  0  0  0  0
    7.7389    5.8223    2.1702 C   0  0  1  0  0  0  0  0  0  0  0  0
    9.1526    5.7959    1.9923 O   0  0  0  0  0  0  0  0  0  0  0  0
    1.0831    4.0609    8.5504 C   0  0  2  0  0  0  0  0  0  0  0  0
    1.1234    4.4337    7.1229 O   0  0  0  0  0  0  0  0  0  0  0  0
    4.0151    6.6490    6.3189 C   0  0  2  0  0  0  0  0  0  0  0  0
    3.3340    6.2564    5.1318 O   0  0  0  0  0  0  0  0  0  0  0  0
    7.3440    4.8551    3.3303 C   0  0  0  0  0  0  0  0  0  0  0  0
    7.9400    5.3002    4.6128 O   0  0  0  0  0  0  0  0  0  0  0  0
    1.3781    2.5427    8.6679 C   0  0  2  0  0  0  0  0  0  0  0  0
    1.1544    2.1185   10.0100 O   0  0  0  0  0  0  0  0  0  0  0  0
    5.4675    6.1224    6.2498 C   0  0  1  0  0  0  0  0  0  0  0  0
    6.0851    6.7362    5.0939 O   0  0  0  0  0  0  0  0  0  0  0  0
    2.8199    2.2237    8.3083 C   0  0  0  0  0  0  0  0  0  0  0  0
    7.1011    5.3447    0.8714 C   0  0  0  0  0  0  0  0  0  0  0  0
    6.8752    9.4733    1.6668 C   0  0  0  0  0  0  0  0  0  0  0  0
  1  2  1  1  0  0  0
  1  6  1  0  0  0  0
  1 23  1  0  0  0  0
  3  4  1  6  0  0  0
  3  8  1  0  0  0  0
  3 30  1  0  0  0  0
  5  9  1  0  0  0  0
  5 27  1  0  0  0  0
  5 31  1  6  0  0  0
  6  7  1  1  0  0  0
  6 11  1  0  0  0  0
  8 13  1  0  0  0  0
  9 10  1  1  0  0  0
  9 15  1  0  0  0  0
 11 12  1  6  0  0  0
 11 17  1  0  0  0  0
 13 14  1  1  0  0  0
 13 19  1  0  0  0  0
 15 16  1  6  0  0  0
 15 20  1  0  0  0  0
 16 34  1  0  0  0  0
 17 18  1  1  0  0  0
 17 22  1  0  0  0  0
 19  2  1  1  0  0  0
 19 24  1  0  0  0  0
 20 21  1  6  0  0  0
 20 26  1  0  0  0  0
 20 33  1  0  0  0  0
 22 23  1  6  0  0  0
 22 28  1  0  0  0  0
 24 25  1  6  0  0  0
 24 30  1  0  0  0  0
 26 27  1  0  0  0  0
 28 29  1  1  0  0  0
 28 32  1  0  0  0  0
 30 31  1  6  0  0  0
M  END
>  <CHROM.1>
161.99470177,-151.09117710,-75.61744591,-50.24101826,49.16126289,-165.83941725
4.07800645,5.89952580,6.32444275,2.51024103,-0.36327461,2.35852887

>  <Name>
ligand

>  <RI>
0

>  <Rbt.Current_Directory>
/home/itssahil/PROJECTS/Mol_Feturizer/New_Systems/rnas/3TD1

>  <Rbt.Executable>
rbdock ($Id: //depot/dev/client3/rdock/2013.1/src/exe/rbdock.cxx#4 $)

>  <Rbt.Library>
libRbt.so (2013.1, Build901 2013/11/27)

>  <Rbt.Parameter_File>
/export/apps/rDock/src/rDock_2013.1_src/data/scripts/dock_solv.prm

>  <Rbt.Receptor>
prm/blind_docking_60.prm

>  <SCORE>
13.6999

>  <SCORE.INTER>
-0.849023

>  <SCORE.INTER.CONST>
1

>  <SCORE.INTER.POLAR>
0

>  <SCORE.INTER.ROT>
6

>  <SCORE.INTER.SOLV>
23.1626

>  <SCORE.INTER.VDW>
-15.8869

>  <SCORE.INTER.norm>
-0.0249713

>  <SCORE.INTRA>
-2.63627

>  <SCORE.INTRA.DIHEDRAL>
-12.5949

>  <SCORE.INTRA.DIHEDRAL.0>
19.5869

>  <SCORE.INTRA.POLAR>
0

>  <SCORE.INTRA.POLAR.0>
0

>  <SCORE.INTRA.REPUL>
0

>  <SCORE.INTRA.REPUL.0>
0

>  <SCORE.INTRA.SOLV>
1.07444

>  <SCORE.INTRA.SOLV.lig_0>
-70.101

>  <SCORE.INTRA.VDW>
3.12397

>  <SCORE.INTRA.VDW.0>
-3.39718

>  <SCORE.INTRA.norm>
-0.0775375

>  <SCORE.RESTR>
17.1852

>  <SCORE.RESTR.CAVITY>
17.1852

>  <SCORE.RESTR.norm>
0.505447

>  <SCORE.SYSTEM>
0

>  <SCORE.SYSTEM.CONST>
0

>  <SCORE.SYSTEM.DIHEDRAL>
0

>  <SCORE.SYSTEM.SOLV>
0

>  <SCORE.SYSTEM.norm>
0

>  <SCORE.heavy>
34

>  <SCORE.norm>
0.402938

>  <RMSD>
6.427

$$$$
ligand
 OpenBabel11021811483D
libRbt.so/2013.1/901 2013/11/27
 34 36  0  0  0  0  0  0  0  0999 V2000
    2.1557    4.9326    8.7520 C   0  0  2  0  0  0  0  0  0  0  0  0
    1.4910    4.9125    7.4790 O   0  0  0  0  0  0  0  0  0  0  0  0
    2.3543    6.7158    3.7022 C   0  0  2  0  0  0  0  0  0  0  0  0
    2.6613    7.7074    2.6772 N   0  0  0  0  0  0  0  0  0  0  0  0
    5.9802    6.1393    4.8446 C   0  0  2  0  0  0  0  0  0  0  0  0
    2.9913    3.6094    8.8835 C   0  0  2  0  0  0  0  0  0  0  0  0
    4.0035    3.5128    7.8202 N   0  0  0  0  0  0  0  0  0  0  0  0
    1.0626    7.1952    4.4448 C   0  0  0  0  0  0  0  0  0  0  0  0
    6.7971    7.3858    4.3486 C   0  0  2  0  0  0  0  0  0  0  0  0
    6.0620    8.5730    4.5958 O   0  0  0  0  0  0  0  0  0  0  0  0
    2.0397    2.3952    8.8152 C   0  0  1  0  0  0  0  0  0  0  0  0
    2.7971    1.1808    8.9429 O   0  0  0  0  0  0  0  0  0  0  0  0
    0.7190    6.1195    5.5301 C   0  0  2  0  0  0  0  0  0  0  0  0
   -0.4933    6.5204    6.2726 N   0  0  0  0  0  0  0  0  0  0  0  0
    7.0952    7.2142    2.8088 C   0  0  1  0  0  0  0  0  0  0  0  0
    7.8593    8.3853    2.2834 N   0  0  0  0  0  0  0  0  0  0  0  0
    0.9819    2.5267    9.9365 C   0  0  2  0  0  0  0  0  0  0  0  0
    0.0809    1.4072    9.8787 O   0  0  0  0  0  0  0  0  0  0  0  0
    1.8887    5.9497    6.5329 C   0  0  2  0  0  0  0  0  0  0  0  0
    7.9073    5.8916    2.5918 C   0  0  1  0  0  0  0  0  0  0  0  0
    9.1503    5.9749    3.2838 O   0  0  0  0  0  0  0  0  0  0  0  0
    0.1922    3.8797    9.7621 C   0  0  2  0  0  0  0  0  0  0  0  0
    1.1306    5.0181    9.8034 O   0  0  0  0  0  0  0  0  0  0  0  0
    3.1689    5.5378    5.7637 C   0  0  2  0  0  0  0  0  0  0  0  0
    4.2324    5.4059    6.7012 O   0  0  0  0  0  0  0  0  0  0  0  0
    7.0769    4.6974    3.1589 C   0  0  0  0  0  0  0  0  0  0  0  0
    6.7511    4.9149    4.5890 O   0  0  0  0  0  0  0  0  0  0  0  0
   -0.8682    4.0793   10.8764 C   0  0  2  0  0  0  0  0  0  0  0  0
   -0.5196    3.2890   12.0101 O   0  0  0  0  0  0  0  0  0  0  0  0
    3.5638    6.6075    4.7191 C   0  0  1  0  0  0  0  0  0  0  0  0
    4.7578    6.1297    4.0554 O   0  0  0  0  0  0  0  0  0  0  0  0
   -2.2520    3.6535   10.4142 C   0  0  0  0  0  0  0  0  0  0  0  0
    8.2139    5.6434    1.1200 C   0  0  0  0  0  0  0  0  0  0  0  0
    6.8922    9.4136    1.8540 C   0  0  0  0  0  0  0  0  0  0  0  0
  1  2  1  6  0  0  0
  1  6  1  0  0  0  0
  1 23  1  0  0  0  0
  3  4  1  6  0  0  0
  3  8  1  0  0  0  0
  3 30  1  0  0  0  0
  5  9  1  0  0  0  0
  5 27  1  0  0  0  0
  5 31  1  6  0  0  0
  6  7  1  6  0  0  0
  6 11  1  0  0  0  0
  8 13  1  0  0  0  0
  9 10  1  6  0  0  0
  9 15  1  0  0  0  0
 11 12  1  1  0  0  0
 11 17  1  0  0  0  0
 13 14  1  1  0  0  0
 13 19  1  0  0  0  0
 15 16  1  1  0  0  0
 15 20  1  0  0  0  0
 16 34  1  0  0  0  0
 17 18  1  6  0  0  0
 17 22  1  0  0  0  0
 19  2  1  1  0  0  0
 19 24  1  0  0  0  0
 20 21  1  1  0  0  0
 20 26  1  0  0  0  0
 20 33  1  0  0  0  0
 22 23  1  1  0  0  0
 22 28  1  0  0  0  0
 24 25  1  1  0  0  0
 24 30  1  0  0  0  0
 26 27  1  0  0  0  0
 28 29  1  1  0  0  0
 28 32  1  0  0  0  0
 30 31  1  6  0  0  0
M  END
>  <CHROM.1>
-115.85164074,-157.33366727,-88.26709591,22.04491945,172.86019708,-102.85677558
3.47986746,5.34750928,6.17994625,-2.34447813,0.35997396,-0.76626418

>  <Name>
ligand

>  <RI>
0

>  <Rbt.Current_Directory>
/home/itssahil/PROJECTS/Mol_Feturizer/New_Systems/rnas/3TD1

>  <Rbt.Executable>
rbdock ($Id: //depot/dev/client3/rdock/2013.1/src/exe/rbdock.cxx#4 $)

>  <Rbt.Library>
libRbt.so (2013.1, Build901 2013/11/27)

>  <Rbt.Parameter_File>
/export/apps/rDock/src/rDock_2013.1_src/data/scripts/dock_solv.prm

>  <Rbt.Receptor>
prm/blind_docking_60.prm

>  <SCORE>
106.595

>  <SCORE.INTER>
92.1922

>  <SCORE.INTER.CONST>
1

>  <SCORE.INTER.POLAR>
0

>  <SCORE.INTER.ROT>
6

>  <SCORE.INTER.SOLV>
34.1034

>  <SCORE.INTER.VDW>
42.4937

>  <SCORE.INTER.norm>
2.71153

>  <SCORE.INTRA>
5.50094

>  <SCORE.INTRA.DIHEDRAL>
0.23501

>  <SCORE.INTRA.DIHEDRAL.0>
19.5869

>  <SCORE.INTRA.POLAR>
0

>  <SCORE.INTRA.POLAR.0>
0

>  <SCORE.INTRA.REPUL>
0

>  <SCORE.INTRA.REPUL.0>
0

>  <SCORE.INTRA.SOLV>
-0.000472412

>  <SCORE.INTRA.SOLV.lig_0>
-70.101

>  <SCORE.INTRA.VDW>
5.38367

>  <SCORE.INTRA.VDW.0>
-3.39718

>  <SCORE.INTRA.norm>
0.161792

>  <SCORE.RESTR>
8.90217

>  <SCORE.RESTR.CAVITY>
8.90217

>  <SCORE.RESTR.norm>
0.261829

>  <SCORE.SYSTEM>
0

>  <SCORE.SYSTEM.CONST>
0

>  <SCORE.SYSTEM.DIHEDRAL>
0

>  <SCORE.SYSTEM.SOLV>
0

>  <SCORE.SYSTEM.norm>
0

>  <SCORE.heavy>
34

>  <SCORE.norm>
3.13516

>  <RMSD>
6.428

$$$$
ligand
 OpenBabel11021811483D
libRbt.so/2013.1/901 2013/11/27
 34 36  0  0  0  0  0  0  0  0999 V2000
    2.2063    4.4847    8.9761 C   0  0  2  0  0  0  0  0  0  0  0  0
    1.5032    4.7063    7.7436 O   0  0  0  0  0  0  0  0  0  0  0  0
    2.4665    6.9012    4.2057 C   0  0  2  0  0  0  0  0  0  0  0  0
    2.8454    7.9865    3.3076 N   0  0  0  0  0  0  0  0  0  0  0  0
    6.0874    6.0462    5.1181 C   0  0  2  0  0  0  0  0  0  0  0  0
    2.8519    3.0543    8.9156 C   0  0  2  0  0  0  0  0  0  0  0  0
    3.8045    2.9485    7.7995 N   0  0  0  0  0  0  0  0  0  0  0  0
    1.2347    7.3910    5.0379 C   0  0  0  0  0  0  0  0  0  0  0  0
    6.8784    7.3009    4.6012 C   0  0  2  0  0  0  0  0  0  0  0  0
    6.1727    8.4854    4.9325 O   0  0  0  0  0  0  0  0  0  0  0  0
    1.7376    1.9971    8.7577 C   0  0  1  0  0  0  0  0  0  0  0  0
    2.3210    0.6848    8.7096 O   0  0  0  0  0  0  0  0  0  0  0  0
    0.8127    6.2179    5.9859 C   0  0  2  0  0  0  0  0  0  0  0  0
   -0.3471    6.6233    6.8058 N   0  0  0  0  0  0  0  0  0  0  0  0
    7.0668    7.1713    3.0401 C   0  0  1  0  0  0  0  0  0  0  0  0
    7.8024    8.3519    2.4955 N   0  0  0  0  0  0  0  0  0  0  0  0
    0.7468    2.1364    9.9377 C   0  0  2  0  0  0  0  0  0  0  0  0
   -0.3038    1.1641    9.7983 O   0  0  0  0  0  0  0  0  0  0  0  0
    1.9778    5.8186    6.9270 C   0  0  2  0  0  0  0  0  0  0  0  0
    7.8502    5.8501    2.7297 C   0  0  1  0  0  0  0  0  0  0  0  0
    9.1392    5.9053    3.3350 O   0  0  0  0  0  0  0  0  0  0  0  0
    0.1493    3.5949    9.9567 C   0  0  2  0  0  0  0  0  0  0  0  0
    1.2390    4.5827   10.0800 O   0  0  0  0  0  0  0  0  0  0  0  0
    3.2038    5.3999    6.0775 C   0  0  2  0  0  0  0  0  0  0  0  0
    4.2655    5.0556    6.9616 O   0  0  0  0  0  0  0  0  0  0  0  0
    7.0512    4.6457    3.3200 C   0  0  0  0  0  0  0  0  0  0  0  0
    6.8279    4.8244    4.7748 O   0  0  0  0  0  0  0  0  0  0  0  0
   -0.8348    3.8025   11.1375 C   0  0  2  0  0  0  0  0  0  0  0  0
   -0.4332    2.9909   12.2380 O   0  0  0  0  0  0  0  0  0  0  0  0
    3.6770    6.5573    5.1676 C   0  0  1  0  0  0  0  0  0  0  0  0
    4.8128    6.0673    4.4165 O   0  0  0  0  0  0  0  0  0  0  0  0
   -2.2536    3.4115   10.7582 C   0  0  0  0  0  0  0  0  0  0  0  0
    8.0511    5.6420    1.2337 C   0  0  0  0  0  0  0  0  0  0  0  0
    6.8110    9.3305    2.0093 C   0  0  0  0  0  0  0  0  0  0  0  0
  1  2  1  6  0  0  0
  1  6  1  0  0  0  0
  1 23  1  0  0  0  0
  3  4  1  6  0  0  0
  3  8  1  0  0  0  0
  3 30  1  0  0  0  0
  5  9  1  0  0  0  0
  5 27  1  0  0  0  0
  5 31  1  6  0  0  0
  6  7  1  6  0  0  0
  6 11  1  0  0  0  0
  8 13  1  0  0  0  0
  9 10  1  6  0  0  0
  9 15  1  0  0  0  0
 11 12  1  1  0  0  0
 11 17  1  0  0  0  0
 13 14  1  1  0  0  0
 13 19  1  0  0  0  0
 15 16  1  1  0  0  0
 15 20  1  0  0  0  0
 16 34  1  0  0  0  0
 17 18  1  6  0  0  0
 17 22  1  0  0  0  0
 19  2  1  6  0  0  0
 19 24  1  0  0  0  0
 20 21  1  1  0  0  0
 20 26  1  0  0  0  0
 20 33  1  0  0  0  0
 22 23  1  1  0  0  0
 22 28  1  0  0  0  0
 24 25  1  1  0  0  0
 24 30  1  0  0  0  0
 26 27  1  0  0  0  0
 28 29  1  1  0  0  0
 28 32  1  0  0  0  0
 30 31  1  6  0  0  0
M  END
>  <CHROM.1>
-118.17477642,-158.69467672,-95.18174724,31.13657106,164.51788705,-101.74922718
3.46346900,5.18657226,6.41322965,-2.38301203,0.44822917,-0.62895399

>  <Name>
ligand

>  <RI>
0

>  <Rbt.Current_Directory>
/home/itssahil/PROJECTS/Mol_Feturizer/New_Systems/rnas/3TD1

>  <Rbt.Executable>
rbdock ($Id: //depot/dev/client3/rdock/2013.1/src/exe/rbdock.cxx#4 $)

>  <Rbt.Library>
libRbt.so (2013.1, Build901 2013/11/27)

>  <Rbt.Parameter_File>
/export/apps/rDock/src/rDock_2013.1_src/data/scripts/dock_solv.prm

>  <Rbt.Receptor>
prm/blind_docking_60.prm

>  <SCORE>
112.07

>  <SCORE.INTER>
101.071

>  <SCORE.INTER.CONST>
1

>  <SCORE.INTER.POLAR>
0

>  <SCORE.INTER.ROT>
6

>  <SCORE.INTER.SOLV>
34.0173

>  <SCORE.INTER.VDW>
48.4418

>  <SCORE.INTER.norm>
2.97268

>  <SCORE.INTRA>
2.46854

>  <SCORE.INTRA.DIHEDRAL>
-0.276593

>  <SCORE.INTRA.DIHEDRAL.0>
19.5869

>  <SCORE.INTRA.POLAR>
0

>  <SCORE.INTRA.POLAR.0>
0

>  <SCORE.INTRA.REPUL>
0

>  <SCORE.INTRA.REPUL.0>
0

>  <SCORE.INTRA.SOLV>
0.303694

>  <SCORE.INTRA.SOLV.lig_0>
-70.101

>  <SCORE.INTRA.VDW>
2.45499

>  <SCORE.INTRA.VDW.0>
-3.39718

>  <SCORE.INTRA.norm>
0.072604

>  <SCORE.RESTR>
8.53057

>  <SCORE.RESTR.CAVITY>
8.53057

>  <SCORE.RESTR.norm>
0.250899

>  <SCORE.SYSTEM>
0

>  <SCORE.SYSTEM.CONST>
0

>  <SCORE.SYSTEM.DIHEDRAL>
0

>  <SCORE.SYSTEM.SOLV>
0

>  <SCORE.SYSTEM.norm>
0

>  <SCORE.heavy>
34

>  <SCORE.norm>
3.29619

>  <RMSD>
6.430

$$$$
ligand
 OpenBabel11021811483D
libRbt.so/2013.1/901 2013/11/27
 34 36  0  0  0  0  0  0  0  0999 V2000
    2.2168    4.4949    8.9796 C   0  0  2  0  0  0  0  0  0  0  0  0
    1.5147    4.7120    7.7457 O   0  0  0  0  0  0  0  0  0  0  0  0
    2.4636    6.9079    4.2046 C   0  0  2  0  0  0  0  0  0  0  0  0
    2.8399    7.9932    3.3054 N   0  0  0  0  0  0  0  0  0  0  0  0
    6.0867    6.0410    5.0987 C   0  0  2  0  0  0  0  0  0  0  0  0
    2.8695    3.0676    8.9214 C   0  0  2  0  0  0  0  0  0  0  0  0
    3.8244    2.9655    7.8069 N   0  0  0  0  0  0  0  0  0  0  0  0
    1.2372    7.3994    5.0436 C   0  0  0  0  0  0  0  0  0  0  0  0
    6.8769    7.2994    4.5897 C   0  0  2  0  0  0  0  0  0  0  0  0
    6.1736    8.4816    4.9342 O   0  0  0  0  0  0  0  0  0  0  0  0
    1.7606    2.0048    8.7625 C   0  0  1  0  0  0  0  0  0  0  0  0
    2.3504    0.6953    8.7164 O   0  0  0  0  0  0  0  0  0  0  0  0
    0.8179    6.2264    5.9929 C   0  0  2  0  0  0  0  0  0  0  0  0
   -0.3368    6.6334    6.8192 N   0  0  0  0  0  0  0  0  0  0  0  0
    7.0589    7.1834    3.0267 C   0  0  1  0  0  0  0  0  0  0  0  0
    7.7935    8.3680    2.4895 N   0  0  0  0  0  0  0  0  0  0  0  0
    0.7672    2.1404    9.9407 C   0  0  2  0  0  0  0  0  0  0  0  0
   -0.2784    1.1628    9.8005 O   0  0  0  0  0  0  0  0  0  0  0  0
    1.9872    5.8241    6.9276 C   0  0  2  0  0  0  0  0  0  0  0  0
    7.8399    5.8643    2.7017 C   0  0  1  0  0  0  0  0  0  0  0  0
    9.1314    5.9130    3.3023 O   0  0  0  0  0  0  0  0  0  0  0  0
    0.1626    3.5960    9.9575 C   0  0  2  0  0  0  0  0  0  0  0  0
    1.2473    4.5891   10.0818 O   0  0  0  0  0  0  0  0  0  0  0  0
    3.2078    5.4037    6.0713 C   0  0  2  0  0  0  0  0  0  0  0  0
    4.2735    5.0566    6.9495 O   0  0  0  0  0  0  0  0  0  0  0  0
    7.0421    4.6555    3.2845 C   0  0  0  0  0  0  0  0  0  0  0  0
    6.8248    4.8216    4.7418 O   0  0  0  0  0  0  0  0  0  0  0  0
   -0.8245    3.7998   11.1365 C   0  0  2  0  0  0  0  0  0  0  0  0
   -0.4126    3.0019   12.2433 O   0  0  0  0  0  0  0  0  0  0  0  0
    3.6785    6.5609    5.1598 C   0  0  1  0  0  0  0  0  0  0  0  0
    4.8094    6.0694    4.4024 O   0  0  0  0  0  0  0  0  0  0  0  0
   -2.2380    3.3874   10.7601 C   0  0  0  0  0  0  0  0  0  0  0  0
    8.0347    5.6690    1.2031 C   0  0  0  0  0  0  0  0  0  0  0  0
    6.8013    9.3477    2.0072 C   0  0  0  0  0  0  0  0  0  0  0  0
  1  2  1  6  0  0  0
  1  6  1  0  0  0  0
  1 23  1  0  0  0  0
  3  4  1  6  0  0  0
  3  8  1  0  0  0  0
  3 30  1  0  0  0  0
  5  9  1  0  0  0  0
  5 27  1  0  0  0  0
  5 31  1  6  0  0  0
  6  7  1  6  0  0  0
  6 11  1  0  0  0  0
  8 13  1  0  0  0  0
  9 10  1  6  0  0  0
  9 15  1  0  0  0  0
 11 12  1  1  0  0  0
 11 17  1  0  0  0  0
 13 14  1  1  0  0  0
 13 19  1  0  0  0  0
 15 16  1  1  0  0  0
 15 20  1  0  0  0  0
 16 34  1  0  0  0  0
 17 18  1  6  0  0  0
 17 22  1  0  0  0  0
 19  2  1  1  0  0  0
 19 24  1  0  0  0  0
 20 21  1  1  0  0  0
 20 26  1  0  0  0  0
 20 33  1  0  0  0  0
 22 23  1  1  0  0  0
 22 28  1  0  0  0  0
 24 25  1  1  0  0  0
 24 30  1  0  0  0  0
 26 27  1  0  0  0  0
 28 29  1  1  0  0  0
 28 32  1  0  0  0  0
 30 31  1  6  0  0  0
M  END
>  <CHROM.1>
-118.04317959,-158.20246326,-95.57508390,31.75215542,164.71819138,-101.40938218
3.46887396,5.19253981,6.40775138,-2.38044051,0.45085231,-0.62960995

>  <Name>
ligand

>  <RI>
0

>  <Rbt.Current_Directory>
/home/itssahil/PROJECTS/Mol_Feturizer/New_Systems/rnas/3TD1

>  <Rbt.Executable>
rbdock ($Id: //depot/dev/client3/rdock/2013.1/src/exe/rbdock.cxx#4 $)

>  <Rbt.Library>
libRbt.so (2013.1, Build901 2013/11/27)

>  <Rbt.Parameter_File>
/export/apps/rDock/src/rDock_2013.1_src/data/scripts/dock_solv.prm

>  <Rbt.Receptor>
prm/blind_docking_60.prm

>  <SCORE>
112.615

>  <SCORE.INTER>
101.643

>  <SCORE.INTER.CONST>
1

>  <SCORE.INTER.POLAR>
0

>  <SCORE.INTER.ROT>
6

>  <SCORE.INTER.SOLV>
34.1017

>  <SCORE.INTER.VDW>
48.7945

>  <SCORE.INTER.norm>
2.98949

>  <SCORE.INTRA>
2.5604

>  <SCORE.INTRA.DIHEDRAL>
-0.349221

>  <SCORE.INTRA.DIHEDRAL.0>
19.5869

>  <SCORE.INTRA.POLAR>
0

>  <SCORE.INTRA.POLAR.0>
0

>  <SCORE.INTRA.REPUL>
0

>  <SCORE.INTRA.REPUL.0>
0

>  <SCORE.INTRA.SOLV>
0.317217

>  <SCORE.INTRA.SOLV.lig_0>
-70.101

>  <SCORE.INTRA.VDW>
2.5764

>  <SCORE.INTRA.VDW.0>
-3.39718

>  <SCORE.INTRA.norm>
0.0753059

>  <SCORE.RESTR>
8.4124

>  <SCORE.RESTR.CAVITY>
8.4124

>  <SCORE.RESTR.norm>
0.247423

>  <SCORE.SYSTEM>
0

>  <SCORE.SYSTEM.CONST>
0

>  <SCORE.SYSTEM.DIHEDRAL>
0

>  <SCORE.SYSTEM.SOLV>
0

>  <SCORE.SYSTEM.norm>
0

>  <SCORE.heavy>
34

>  <SCORE.norm>
3.31222

>  <RMSD>
6.433

$$$$
ligand
 OpenBabel11021811483D
libRbt.so/2013.1/901 2013/11/27
 34 36  0  0  0  0  0  0  0  0999 V2000
    2.7022    5.6603    6.0254 C   0  0  2  0  0  0  0  0  0  0  0  0
    3.6510    6.7364    6.0917 O   0  0  0  0  0  0  0  0  0  0  0  0
    7.8206    7.2666    5.3206 C   0  0  2  0  0  0  0  0  0  0  0  0
    9.2503    7.0074    5.1899 N   0  0  0  0  0  0  0  0  0  0  0  0
    8.7550    6.5671    2.5308 C   0  0  2  0  0  0  0  0  0  0  0  0
    1.2616    6.2770    6.1290 C   0  0  2  0  0  0  0  0  0  0  0  0
    1.0019    7.2086    5.0204 N   0  0  0  0  0  0  0  0  0  0  0  0
    7.4068    6.8809    6.7799 C   0  0  0  0  0  0  0  0  0  0  0  0
    9.1840    7.8976    1.8146 C   0  0  2  0  0  0  0  0  0  0  0  0
    9.0865    8.9849    2.7196 O   0  0  0  0  0  0  0  0  0  0  0  0
    1.1167    7.0128    7.4788 C   0  0  1  0  0  0  0  0  0  0  0  0
   -0.2024    7.5730    7.5837 O   0  0  0  0  0  0  0  0  0  0  0  0
    5.8767    7.1807    6.9283 C   0  0  2  0  0  0  0  0  0  0  0  0
    5.4228    6.8298    8.2894 N   0  0  0  0  0  0  0  0  0  0  0  0
    8.2527    8.1190    0.5603 C   0  0  1  0  0  0  0  0  0  0  0  0
    8.6109    9.3840   -0.1488 N   0  0  0  0  0  0  0  0  0  0  0  0
    1.4034    6.0138    8.6248 C   0  0  2  0  0  0  0  0  0  0  0  0
    1.2826    6.6882    9.8894 O   0  0  0  0  0  0  0  0  0  0  0  0
    5.0499    6.3691    5.8985 C   0  0  2  0  0  0  0  0  0  0  0  0
    8.3984    6.8930   -0.4047 C   0  0  1  0  0  0  0  0  0  0  0  0
    9.7466    6.7981   -0.8569 O   0  0  0  0  0  0  0  0  0  0  0  0
    2.8520    5.4160    8.4548 C   0  0  2  0  0  0  0  0  0  0  0  0
    2.9680    4.7447    7.1456 O   0  0  0  0  0  0  0  0  0  0  0  0
    5.5238    6.7225    4.4665 C   0  0  2  0  0  0  0  0  0  0  0  0
    4.7642    5.9528    3.5402 O   0  0  0  0  0  0  0  0  0  0  0  0
    8.0210    5.5951    0.3767 C   0  0  0  0  0  0  0  0  0  0  0  0
    8.8637    5.4457    1.5874 O   0  0  0  0  0  0  0  0  0  0  0  0
    3.1873    4.3853    9.5644 C   0  0  2  0  0  0  0  0  0  0  0  0
    4.5620    4.0204    9.4730 O   0  0  0  0  0  0  0  0  0  0  0  0
    7.0211    6.3879    4.2730 C   0  0  1  0  0  0  0  0  0  0  0  0
    7.3651    6.7576    2.9168 O   0  0  0  0  0  0  0  0  0  0  0  0
    2.3551    3.1215    9.4236 C   0  0  0  0  0  0  0  0  0  0  0  0
    7.5072    7.0231   -1.6338 C   0  0  0  0  0  0  0  0  0  0  0  0
    7.9129   10.5007    0.5166 C   0  0  0  0  0  0  0  0  0  0  0  0
  1  2  1  1  0  0  0
  1  6  1  0  0  0  0
  1 23  1  0  0  0  0
  3  4  1  1  0  0  0
  3  8  1  0  0  0  0
  3 30  1  0  0  0  0
  5  9  1  0  0  0  0
  5 27  1  0  0  0  0
  5 31  1  6  0  0  0
  6  7  1  6  0  0  0
  6 11  1  0  0  0  0
  8 13  1  0  0  0  0
  9 10  1  1  0  0  0
  9 15  1  0  0  0  0
 11 12  1  1  0  0  0
 11 17  1  0  0  0  0
 13 14  1  1  0  0  0
 13 19  1  0  0  0  0
 15 16  1  6  0  0  0
 15 20  1  0  0  0  0
 16 34  1  0  0  0  0
 17 18  1  1  0  0  0
 17 22  1  0  0  0  0
 19  2  1  6  0  0  0
 19 24  1  0  0  0  0
 20 21  1  6  0  0  0
 20 26  1  0  0  0  0
 20 33  1  0  0  0  0
 22 23  1  6  0  0  0
 22 28  1  0  0  0  0
 24 25  1  6  0  0  0
 24 30  1  0  0  0  0
 26 27  1  0  0  0  0
 28 29  1  6  0  0  0
 28 32  1  0  0  0  0
 30 31  1  6  0  0  0
M  END
>  <CHROM.1>
-175.05313918,-138.86733022,-84.55700760,-171.94103487,62.05532721,-132.99829034
5.52164343,6.62297733,4.74758818,2.26819715,-0.14148267,1.92756137

>  <Name>
ligand

>  <RI>
0

>  <Rbt.Current_Directory>
/home/itssahil/PROJECTS/Mol_Feturizer/New_Systems/rnas/3TD1

>  <Rbt.Executable>
rbdock ($Id: //depot/dev/client3/rdock/2013.1/src/exe/rbdock.cxx#4 $)

>  <Rbt.Library>
libRbt.so (2013.1, Build901 2013/11/27)

>  <Rbt.Parameter_File>
/export/apps/rDock/src/rDock_2013.1_src/data/scripts/dock_solv.prm

>  <Rbt.Receptor>
prm/blind_docking_40.prm

>  <SCORE>
5.6933

>  <SCORE.INTER>
-2.20181

>  <SCORE.INTER.CONST>
1

>  <SCORE.INTER.POLAR>
0

>  <SCORE.INTER.ROT>
6

>  <SCORE.INTER.SOLV>
21.1954

>  <SCORE.INTER.VDW>
-16.133

>  <SCORE.INTER.norm>
-0.0647591

>  <SCORE.INTRA>
-1.42891

>  <SCORE.INTRA.DIHEDRAL>
-6.74226

>  <SCORE.INTRA.DIHEDRAL.0>
19.5869

>  <SCORE.INTRA.POLAR>
0

>  <SCORE.INTRA.POLAR.0>
0

>  <SCORE.INTRA.REPUL>
0

>  <SCORE.INTRA.REPUL.0>
0

>  <SCORE.INTRA.SOLV>
1.70738

>  <SCORE.INTRA.SOLV.lig_0>
-70.101

>  <SCORE.INTRA.VDW>
1.08853

>  <SCORE.INTRA.VDW.0>
-3.39718

>  <SCORE.INTRA.norm>
-0.0420268

>  <SCORE.RESTR>
9.32402

>  <SCORE.RESTR.CAVITY>
9.32402

>  <SCORE.RESTR.norm>
0.274236

>  <SCORE.SYSTEM>
0

>  <SCORE.SYSTEM.CONST>
0

>  <SCORE.SYSTEM.DIHEDRAL>
0

>  <SCORE.SYSTEM.SOLV>
0

>  <SCORE.SYSTEM.norm>
0

>  <SCORE.heavy>
34

>  <SCORE.norm>
0.16745

>  <RMSD>
6.444

$$$$
ligand
 OpenBabel11021811483D
libRbt.so/2013.1/901 2013/11/27
 34 36  0  0  0  0  0  0  0  0999 V2000
    0.2125    4.7133    7.8583 C   0  0  2  0  0  0  0  0  0  0  0  0
    1.2701    5.5598    8.3351 O   0  0  0  0  0  0  0  0  0  0  0  0
    3.1164    6.2086    4.5362 C   0  0  2  0  0  0  0  0  0  0  0  0
    3.8194    6.8435    3.4267 N   0  0  0  0  0  0  0  0  0  0  0  0
    6.4416    5.4337    6.1812 C   0  0  2  0  0  0  0  0  0  0  0  0
   -0.9122    4.6788    8.9539 C   0  0  2  0  0  0  0  0  0  0  0  0
   -1.4546    6.0239    9.2005 N   0  0  0  0  0  0  0  0  0  0  0  0
    1.9036    7.1255    4.9076 C   0  0  0  0  0  0  0  0  0  0  0  0
    6.7649    6.9557    5.9664 C   0  0  2  0  0  0  0  0  0  0  0  0
    5.7278    7.7508    6.5169 O   0  0  0  0  0  0  0  0  0  0  0  0
   -0.3334    4.0976   10.2622 C   0  0  1  0  0  0  0  0  0  0  0  0
   -1.3596    4.0557   11.2671 O   0  0  0  0  0  0  0  0  0  0  0  0
    1.1348    6.4331    6.0833 C   0  0  2  0  0  0  0  0  0  0  0  0
   -0.0230    7.2576    6.4848 N   0  0  0  0  0  0  0  0  0  0  0  0
    6.9251    7.2246    4.4200 C   0  0  1  0  0  0  0  0  0  0  0  0
    7.2188    8.6661    4.1606 N   0  0  0  0  0  0  0  0  0  0  0  0
    0.2373    2.6890    9.9727 C   0  0  2  0  0  0  0  0  0  0  0  0
    0.7902    2.1386   11.1809 O   0  0  0  0  0  0  0  0  0  0  0  0
    2.0602    6.2353    7.3110 C   0  0  2  0  0  0  0  0  0  0  0  0
    8.0806    6.3241    3.8637 C   0  0  1  0  0  0  0  0  0  0  0  0
    9.3050    6.6649    4.5085 O   0  0  0  0  0  0  0  0  0  0  0  0
    1.3438    2.7866    8.8543 C   0  0  2  0  0  0  0  0  0  0  0  0
    0.7680    3.3710    7.6275 O   0  0  0  0  0  0  0  0  0  0  0  0
    3.2837    5.3789    6.8993 C   0  0  2  0  0  0  0  0  0  0  0  0
    4.1272    5.2262    8.0362 O   0  0  0  0  0  0  0  0  0  0  0  0
    7.7364    4.8305    4.1605 C   0  0  0  0  0  0  0  0  0  0  0  0
    7.5232    4.6179    5.6123 O   0  0  0  0  0  0  0  0  0  0  0  0
    1.9363    1.3969    8.5027 C   0  0  2  0  0  0  0  0  0  0  0  0
    3.0832    1.5662    7.6738 O   0  0  0  0  0  0  0  0  0  0  0  0
    4.0940    6.0633    5.7739 C   0  0  1  0  0  0  0  0  0  0  0  0
    5.2026    5.1881    5.4589 O   0  0  0  0  0  0  0  0  0  0  0  0
    0.9351    0.5364    7.7498 C   0  0  0  0  0  0  0  0  0  0  0  0
    8.2806    6.5110    2.3647 C   0  0  0  0  0  0  0  0  0  0  0  0
    6.5780    9.0468    2.8873 C   0  0  0  0  0  0  0  0  0  0  0  0
  1  2  1  1  0  0  0
  1  6  1  0  0  0  0
  1 23  1  0  0  0  0
  3  4  1  6  0  0  0
  3  8  1  0  0  0  0
  3 30  1  0  0  0  0
  5  9  1  0  0  0  0
  5 27  1  0  0  0  0
  5 31  1  6  0  0  0
  6  7  1  1  0  0  0
  6 11  1  0  0  0  0
  8 13  1  0  0  0  0
  9 10  1  6  0  0  0
  9 15  1  0  0  0  0
 11 12  1  1  0  0  0
 11 17  1  0  0  0  0
 13 14  1  1  0  0  0
 13 19  1  0  0  0  0
 15 16  1  1  0  0  0
 15 20  1  0  0  0  0
 16 34  1  0  0  0  0
 17 18  1  1  0  0  0
 17 22  1  0  0  0  0
 19  2  1  1  0  0  0
 19 24  1  0  0  0  0
 20 21  1  1  0  0  0
 20 26  1  0  0  0  0
 20 33  1  0  0  0  0
 22 23  1  6  0  0  0
 22 28  1  0  0  0  0
 24 25  1  1  0  0  0
 24 30  1  0  0  0  0
 26 27  1  0  0  0  0
 28 29  1  6  0  0  0
 28 32  1  0  0  0  0
 30 31  1  6  0  0  0
M  END
>  <CHROM.1>
-151.62836343,28.51414889,-145.82564386,-169.68767365,152.03021918,-53.10268618
3.43212138,5.25856128,6.69533334,2.53373402,-0.38883087,2.64504038

>  <Name>
ligand

>  <RI>
0

>  <Rbt.Current_Directory>
/home/itssahil/PROJECTS/Mol_Feturizer/New_Systems/rnas/3TD1

>  <Rbt.Executable>
rbdock ($Id: //depot/dev/client3/rdock/2013.1/src/exe/rbdock.cxx#4 $)

>  <Rbt.Library>
libRbt.so (2013.1, Build901 2013/11/27)

>  <Rbt.Parameter_File>
/export/apps/rDock/src/rDock_2013.1_src/data/scripts/dock_solv.prm

>  <Rbt.Receptor>
prm/blind_docking_100.prm

>  <SCORE>
49.4976

>  <SCORE.INTER>
31.1571

>  <SCORE.INTER.CONST>
1

>  <SCORE.INTER.POLAR>
0

>  <SCORE.INTER.ROT>
6

>  <SCORE.INTER.SOLV>
28.0146

>  <SCORE.INTER.VDW>
3.83322

>  <SCORE.INTER.norm>
0.916387

>  <SCORE.INTRA>
4.69685

>  <SCORE.INTRA.DIHEDRAL>
-7.8181

>  <SCORE.INTRA.DIHEDRAL.0>
19.5869

>  <SCORE.INTRA.POLAR>
0

>  <SCORE.INTRA.POLAR.0>
0

>  <SCORE.INTRA.REPUL>
0

>  <SCORE.INTRA.REPUL.0>
0

>  <SCORE.INTRA.SOLV>
2.91167

>  <SCORE.INTRA.SOLV.lig_0>
-70.101

>  <SCORE.INTRA.VDW>
7.15007

>  <SCORE.INTRA.VDW.0>
-3.39718

>  <SCORE.INTRA.norm>
0.138143

>  <SCORE.RESTR>
13.6436

>  <SCORE.RESTR.CAVITY>
13.6436

>  <SCORE.RESTR.norm>
0.401283

>  <SCORE.SYSTEM>
0

>  <SCORE.SYSTEM.CONST>
0

>  <SCORE.SYSTEM.DIHEDRAL>
0

>  <SCORE.SYSTEM.SOLV>
0

>  <SCORE.SYSTEM.norm>
0

>  <SCORE.heavy>
34

>  <SCORE.norm>
1.45581

>  <RMSD>
6.449

$$$$
ligand
 OpenBabel11021811483D
libRbt.so/2013.1/901 2013/11/27
 34 36  0  0  0  0  0  0  0  0999 V2000
    8.5034    6.1206    4.3656 C   0  0  2  0  0  0  0  0  0  0  0  0
    9.3358    4.9531    4.2844 O   0  0  0  0  0  0  0  0  0  0  0  0
    9.0131    4.0265    8.4436 C   0  0  2  0  0  0  0  0  0  0  0  0
    9.1676    3.3584    9.7312 N   0  0  0  0  0  0  0  0  0  0  0  0
   11.7499    5.1027    9.9598 C   0  0  2  0  0  0  0  0  0  0  0  0
    7.7340    6.2632    3.0039 C   0  0  2  0  0  0  0  0  0  0  0  0
    6.8838    5.0900    2.7491 N   0  0  0  0  0  0  0  0  0  0  0  0
    8.4621    2.9684    7.4305 C   0  0  0  0  0  0  0  0  0  0  0  0
   11.8547    6.3015   10.9691 C   0  0  2  0  0  0  0  0  0  0  0  0
   10.5654    6.6357   11.4557 O   0  0  0  0  0  0  0  0  0  0  0  0
    8.7534    6.4327    1.8565 C   0  0  1  0  0  0  0  0  0  0  0  0
    8.0558    6.5718    0.6080 O   0  0  0  0  0  0  0  0  0  0  0  0
    8.2740    3.6907    6.0537 C   0  0  2  0  0  0  0  0  0  0  0  0
    7.7593    2.7378    5.0494 N   0  0  0  0  0  0  0  0  0  0  0  0
   12.5168    7.5280   10.2297 C   0  0  1  0  0  0  0  0  0  0  0  0
   12.6251    8.7032   11.1454 N   0  0  0  0  0  0  0  0  0  0  0  0
    9.6388    7.6660    2.1540 C   0  0  2  0  0  0  0  0  0  0  0  0
   10.6013    7.8306    1.0981 O   0  0  0  0  0  0  0  0  0  0  0  0
    9.6162    4.2778    5.5472 C   0  0  2  0  0  0  0  0  0  0  0  0
   13.9352    7.1062    9.7139 C   0  0  1  0  0  0  0  0  0  0  0  0
   14.7597    6.7499   10.8204 O   0  0  0  0  0  0  0  0  0  0  0  0
   10.3669    7.4723    3.5386 C   0  0  2  0  0  0  0  0  0  0  0  0
    9.3686    7.2849    4.6093 O   0  0  0  0  0  0  0  0  0  0  0  0
   10.1705    5.2727    6.5974 C   0  0  2  0  0  0  0  0  0  0  0  0
   11.4105    5.7843    6.1197 O   0  0  0  0  0  0  0  0  0  0  0  0
   13.7763    5.8747    8.7676 C   0  0  0  0  0  0  0  0  0  0  0  0
   13.0903    4.7603    9.4647 O   0  0  0  0  0  0  0  0  0  0  0  0
   11.2521    8.6927    3.9034 C   0  0  2  0  0  0  0  0  0  0  0  0
   12.2628    8.8587    2.9124 O   0  0  0  0  0  0  0  0  0  0  0  0
   10.4165    4.5750    7.9554 C   0  0  1  0  0  0  0  0  0  0  0  0
   10.9234    5.5823    8.8625 O   0  0  0  0  0  0  0  0  0  0  0  0
   11.9373    8.5048    5.2468 C   0  0  0  0  0  0  0  0  0  0  0  0
   14.6309    8.2360    8.9646 C   0  0  0  0  0  0  0  0  0  0  0  0
   11.6299    9.7089   10.7268 C   0  0  0  0  0  0  0  0  0  0  0  0
  1  2  1  6  0  0  0
  1  6  1  0  0  0  0
  1 23  1  0  0  0  0
  3  4  1  1  0  0  0
  3  8  1  0  0  0  0
  3 30  1  0  0  0  0
  5  9  1  0  0  0  0
  5 27  1  0  0  0  0
  5 31  1  6  0  0  0
  6  7  1  6  0  0  0
  6 11  1  0  0  0  0
  8 13  1  0  0  0  0
  9 10  1  6  0  0  0
  9 15  1  0  0  0  0
 11 12  1  6  0  0  0
 11 17  1  0  0  0  0
 13 14  1  6  0  0  0
 13 19  1  0  0  0  0
 15 16  1  1  0  0  0
 15 20  1  0  0  0  0
 16 34  1  0  0  0  0
 17 18  1  6  0  0  0
 17 22  1  0  0  0  0
 19  2  1  6  0  0  0
 19 24  1  0  0  0  0
 20 21  1  1  0  0  0
 20 26  1  0  0  0  0
 20 33  1  0  0  0  0
 22 23  1  1  0  0  0
 22 28  1  0  0  0  0
 24 25  1  6  0  0  0
 24 30  1  0  0  0  0
 26 27  1  0  0  0  0
 28 29  1  6  0  0  0
 28 32  1  0  0  0  0
 30 31  1  1  0  0  0
M  END
>  <CHROM.1>
-151.48746241,66.66824942,-107.60491065,-61.17007845,89.88431846,-165.97082239
10.65394280,6.22986821,6.58862582,2.23159912,-0.79434647,-1.11226091

>  <Name>
ligand

>  <RI>
0

>  <Rbt.Current_Directory>
/home/itssahil/PROJECTS/Mol_Feturizer/New_Systems/rnas/3TD1

>  <Rbt.Executable>
rbdock ($Id: //depot/dev/client3/rdock/2013.1/src/exe/rbdock.cxx#4 $)

>  <Rbt.Library>
libRbt.so (2013.1, Build901 2013/11/27)

>  <Rbt.Parameter_File>
/export/apps/rDock/src/rDock_2013.1_src/data/scripts/dock_solv.prm

>  <Rbt.Receptor>
prm/pocket_docking_5.prm

>  <SCORE>
-5.97369

>  <SCORE.INTER>
-1.10636

>  <SCORE.INTER.CONST>
1

>  <SCORE.INTER.POLAR>
0

>  <SCORE.INTER.ROT>
6

>  <SCORE.INTER.SOLV>
13.225

>  <SCORE.INTER.VDW>
-12.7459

>  <SCORE.INTER.norm>
-0.0325399

>  <SCORE.INTRA>
-4.86734

>  <SCORE.INTRA.DIHEDRAL>
-10.445

>  <SCORE.INTRA.DIHEDRAL.0>
19.5869

>  <SCORE.INTRA.POLAR>
0

>  <SCORE.INTRA.POLAR.0>
0

>  <SCORE.INTRA.REPUL>
0

>  <SCORE.INTRA.REPUL.0>
0

>  <SCORE.INTRA.SOLV>
0.174525

>  <SCORE.INTRA.SOLV.lig_0>
-70.101

>  <SCORE.INTRA.VDW>
0.267916

>  <SCORE.INTRA.VDW.0>
-3.39718

>  <SCORE.INTRA.norm>
-0.143157

>  <SCORE.RESTR>
0

>  <SCORE.RESTR.CAVITY>
0

>  <SCORE.RESTR.norm>
0

>  <SCORE.SYSTEM>
0

>  <SCORE.SYSTEM.CONST>
0

>  <SCORE.SYSTEM.DIHEDRAL>
0

>  <SCORE.SYSTEM.SOLV>
0

>  <SCORE.SYSTEM.norm>
0

>  <SCORE.heavy>
34

>  <SCORE.norm>
-0.175697

>  <RMSD>
6.461

$$$$
ligand
 OpenBabel11021811483D
libRbt.so/2013.1/901 2013/11/27
 34 36  0  0  0  0  0  0  0  0999 V2000
    2.3248    5.8474    5.6825 C   0  0  2  0  0  0  0  0  0  0  0  0
    3.3741    6.8276    5.7081 O   0  0  0  0  0  0  0  0  0  0  0  0
    7.6177    6.9172    5.2129 C   0  0  2  0  0  0  0  0  0  0  0  0
    9.0155    6.5040    5.1521 N   0  0  0  0  0  0  0  0  0  0  0  0
    8.6885    6.4145    2.5123 C   0  0  2  0  0  0  0  0  0  0  0  0
    0.9547    6.6067    5.5694 C   0  0  2  0  0  0  0  0  0  0  0  0
    0.8901    7.4044    4.3350 N   0  0  0  0  0  0  0  0  0  0  0  0
    7.0708    6.5114    6.6221 C   0  0  0  0  0  0  0  0  0  0  0  0
    9.2028    7.8208    2.0381 C   0  0  2  0  0  0  0  0  0  0  0  0
    9.0080    8.7770    3.0669 O   0  0  0  0  0  0  0  0  0  0  0  0
    0.7762    7.5246    6.7982 C   0  0  1  0  0  0  0  0  0  0  0  0
   -0.4795    8.2168    6.7052 O   0  0  0  0  0  0  0  0  0  0  0  0
    5.5768    6.9756    6.6968 C   0  0  2  0  0  0  0  0  0  0  0  0
    5.0003    6.6136    8.0076 N   0  0  0  0  0  0  0  0  0  0  0  0
    8.4218    8.2293    0.7294 C   0  0  1  0  0  0  0  0  0  0  0  0
    8.8647    9.5712    0.2453 N   0  0  0  0  0  0  0  0  0  0  0  0
    0.8573    6.6628    8.0805 C   0  0  2  0  0  0  0  0  0  0  0  0
    0.7033    7.5064    9.2351 O   0  0  0  0  0  0  0  0  0  0  0  0
    4.7335    6.3135    5.5773 C   0  0  2  0  0  0  0  0  0  0  0  0
    8.6706    7.1429   -0.3721 C   0  0  1  0  0  0  0  0  0  0  0  0
   10.0611    7.0827   -0.6787 O   0  0  0  0  0  0  0  0  0  0  0  0
    2.2428    5.9126    8.1265 C   0  0  2  0  0  0  0  0  0  0  0  0
    2.3961    5.0665    6.9270 O   0  0  0  0  0  0  0  0  0  0  0  0
    5.3346    6.6791    4.1971 C   0  0  2  0  0  0  0  0  0  0  0  0
    4.5560    6.0461    3.1870 O   0  0  0  0  0  0  0  0  0  0  0  0
    8.2002    5.7590    0.1766 C   0  0  0  0  0  0  0  0  0  0  0  0
    8.8985    5.4295    1.4424 O   0  0  0  0  0  0  0  0  0  0  0  0
    2.3716    5.0100    9.3814 C   0  0  2  0  0  0  0  0  0  0  0  0
    3.6921    4.4782    9.4497 O   0  0  0  0  0  0  0  0  0  0  0  0
    6.7953    6.1864    4.0735 C   0  0  1  0  0  0  0  0  0  0  0  0
    7.2645    6.5793    2.7622 O   0  0  0  0  0  0  0  0  0  0  0  0
    1.3974    3.8446    9.3344 C   0  0  0  0  0  0  0  0  0  0  0  0
    7.9261    7.4567   -1.6640 C   0  0  0  0  0  0  0  0  0  0  0  0
   10.3389    9.6146    0.2874 C   0  0  0  0  0  0  0  0  0  0  0  0
  1  2  1  1  0  0  0
  1  6  1  0  0  0  0
  1 23  1  0  0  0  0
  3  4  1  1  0  0  0
  3  8  1  0  0  0  0
  3 30  1  0  0  0  0
  5  9  1  0  0  0  0
  5 27  1  0  0  0  0
  5 31  1  6  0  0  0
  6  7  1  6  0  0  0
  6 11  1  0  0  0  0
  8 13  1  0  0  0  0
  9 10  1  1  0  0  0
  9 15  1  0  0  0  0
 11 12  1  6  0  0  0
 11 17  1  0  0  0  0
 13 14  1  1  0  0  0
 13 19  1  0  0  0  0
 15 16  1  6  0  0  0
 15 20  1  0  0  0  0
 16 34  1  0  0  0  0
 17 18  1  1  0  0  0
 17 22  1  0  0  0  0
 19  2  1  6  0  0  0
 19 24  1  0  0  0  0
 20 21  1  6  0  0  0
 20 26  1  0  0  0  0
 20 33  1  0  0  0  0
 22 23  1  6  0  0  0
 22 28  1  0  0  0  0
 24 25  1  6  0  0  0
 24 30  1  0  0  0  0
 26 27  1  0  0  0  0
 28 29  1  6  0  0  0
 28 32  1  0  0  0  0
 30 31  1  6  0  0  0
M  END
>  <CHROM.1>
-169.76364156,-131.88871426,45.54680558,-173.48827294,54.12437487,-125.63895401
5.37050524,6.74741810,4.54244378,2.37252744,-0.14429668,1.91240902

>  <Name>
ligand

>  <RI>
0

>  <Rbt.Current_Directory>
/home/itssahil/PROJECTS/Mol_Feturizer/New_Systems/rnas/3TD1

>  <Rbt.Executable>
rbdock ($Id: //depot/dev/client3/rdock/2013.1/src/exe/rbdock.cxx#4 $)

>  <Rbt.Library>
libRbt.so (2013.1, Build901 2013/11/27)

>  <Rbt.Parameter_File>
/export/apps/rDock/src/rDock_2013.1_src/data/scripts/dock_solv.prm

>  <Rbt.Receptor>
prm/blind_docking_20.prm

>  <SCORE>
15.0903

>  <SCORE.INTER>
1.45344

>  <SCORE.INTER.CONST>
1

>  <SCORE.INTER.POLAR>
0

>  <SCORE.INTER.ROT>
6

>  <SCORE.INTER.SOLV>
21.7005

>  <SCORE.INTER.VDW>
-13.8645

>  <SCORE.INTER.norm>
0.0427484

>  <SCORE.INTRA>
5.39196

>  <SCORE.INTRA.DIHEDRAL>
-4.97496

>  <SCORE.INTRA.DIHEDRAL.0>
19.5869

>  <SCORE.INTRA.POLAR>
0

>  <SCORE.INTRA.POLAR.0>
0

>  <SCORE.INTRA.REPUL>
0

>  <SCORE.INTRA.REPUL.0>
0

>  <SCORE.INTRA.SOLV>
2.74083

>  <SCORE.INTRA.SOLV.lig_0>
-70.101

>  <SCORE.INTRA.VDW>
6.50902

>  <SCORE.INTRA.VDW.0>
-3.39718

>  <SCORE.INTRA.norm>
0.158587

>  <SCORE.RESTR>
8.24487

>  <SCORE.RESTR.CAVITY>
8.24487

>  <SCORE.RESTR.norm>
0.242496

>  <SCORE.SYSTEM>
0

>  <SCORE.SYSTEM.CONST>
0

>  <SCORE.SYSTEM.DIHEDRAL>
0

>  <SCORE.SYSTEM.SOLV>
0

>  <SCORE.SYSTEM.norm>
0

>  <SCORE.heavy>
34

>  <SCORE.norm>
0.443832

>  <RMSD>
6.462

$$$$
ligand
 OpenBabel11021811483D
libRbt.so/2013.1/901 2013/11/27
 34 36  0  0  0  0  0  0  0  0999 V2000
    9.5278    2.9267    8.1648 C   0  0  2  0  0  0  0  0  0  0  0  0
   10.6708    2.2134    7.6675 O   0  0  0  0  0  0  0  0  0  0  0  0
   14.8191    2.7900    8.5164 C   0  0  2  0  0  0  0  0  0  0  0  0
   16.1540    3.3755    8.5745 N   0  0  0  0  0  0  0  0  0  0  0  0
   15.3895    4.4244   11.0741 C   0  0  2  0  0  0  0  0  0  0  0  0
    8.2830    1.9737    8.0709 C   0  0  2  0  0  0  0  0  0  0  0  0
    8.4786    0.7633    8.8840 N   0  0  0  0  0  0  0  0  0  0  0  0
   14.3990    2.7318    7.0098 C   0  0  0  0  0  0  0  0  0  0  0  0
   15.5447    4.2871   12.6311 C   0  0  2  0  0  0  0  0  0  0  0  0
   15.6628    2.9189   12.9846 O   0  0  0  0  0  0  0  0  0  0  0  0
    8.0484    1.5835    6.5954 C   0  0  1  0  0  0  0  0  0  0  0  0
    6.9056    0.7174    6.5013 O   0  0  0  0  0  0  0  0  0  0  0  0
   12.9755    2.0819    6.9446 C   0  0  2  0  0  0  0  0  0  0  0  0
   12.5192    2.0046    5.5420 N   0  0  0  0  0  0  0  0  0  0  0  0
   14.2891    4.9452   13.3238 C   0  0  1  0  0  0  0  0  0  0  0  0
   14.3812    4.8264   14.8100 N   0  0  0  0  0  0  0  0  0  0  0  0
    7.8551    2.8732    5.7630 C   0  0  2  0  0  0  0  0  0  0  0  0
    7.6460    2.5257    4.3831 O   0  0  0  0  0  0  0  0  0  0  0  0
   11.9500    2.9092    7.7613 C   0  0  2  0  0  0  0  0  0  0  0  0
   14.2060    6.4519   12.9014 C   0  0  1  0  0  0  0  0  0  0  0  0
   15.3744    7.1376   13.3438 O   0  0  0  0  0  0  0  0  0  0  0  0
    9.1252    3.7945    5.9133 C   0  0  2  0  0  0  0  0  0  0  0  0
    9.3395    4.1268    7.3353 O   0  0  0  0  0  0  0  0  0  0  0  0
   12.4231    3.0048    9.2333 C   0  0  2  0  0  0  0  0  0  0  0  0
   11.4769    3.7830    9.9588 O   0  0  0  0  0  0  0  0  0  0  0  0
   14.1172    6.5296   11.3447 C   0  0  0  0  0  0  0  0  0  0  0  0
   15.2727    5.8449   10.7166 O   0  0  0  0  0  0  0  0  0  0  0  0
    8.9779    5.1184    5.1185 C   0  0  2  0  0  0  0  0  0  0  0  0
   10.1840    5.8706    5.2223 O   0  0  0  0  0  0  0  0  0  0  0  0
   13.8053    3.6909    9.3345 C   0  0  1  0  0  0  0  0  0  0  0  0
   14.1585    3.7255   10.7375 O   0  0  0  0  0  0  0  0  0  0  0  0
    7.8432    5.9723    5.6599 C   0  0  0  0  0  0  0  0  0  0  0  0
   12.9996    7.1524   13.5145 C   0  0  0  0  0  0  0  0  0  0  0  0
   13.5625    3.6743   15.2336 C   0  0  0  0  0  0  0  0  0  0  0  0
  1  2  1  6  0  0  0
  1  6  1  0  0  0  0
  1 23  1  0  0  0  0
  3  4  1  6  0  0  0
  3  8  1  0  0  0  0
  3 30  1  0  0  0  0
  5  9  1  0  0  0  0
  5 27  1  0  0  0  0
  5 31  1  1  0  0  0
  6  7  1  1  0  0  0
  6 11  1  0  0  0  0
  8 13  1  0  0  0  0
  9 10  1  6  0  0  0
  9 15  1  0  0  0  0
 11 12  1  1  0  0  0
 11 17  1  0  0  0  0
 13 14  1  6  0  0  0
 13 19  1  0  0  0  0
 15 16  1  1  0  0  0
 15 20  1  0  0  0  0
 16 34  1  0  0  0  0
 17 18  1  6  0  0  0
 17 22  1  0  0  0  0
 19  2  1  1  0  0  0
 19 24  1  0  0  0  0
 20 21  1  1  0  0  0
 20 26  1  0  0  0  0
 20 33  1  0  0  0  0
 22 23  1  1  0  0  0
 22 28  1  0  0  0  0
 24 25  1  1  0  0  0
 24 30  1  0  0  0  0
 26 27  1  0  0  0  0
 28 29  1  1  0  0  0
 28 32  1  0  0  0  0
 30 31  1  1  0  0  0
M  END
>  <CHROM.1>
-175.90800066,-169.81967907,-98.47019223,-176.38988192,68.48093024,-178.93083388
11.99482874,3.80499336,9.14855743,2.29098252,0.06322496,-1.93646129

>  <Name>
ligand

>  <RI>
0

>  <Rbt.Current_Directory>
/home/itssahil/PROJECTS/Mol_Feturizer/New_Systems/rnas/3TD1

>  <Rbt.Executable>
rbdock ($Id: //depot/dev/client3/rdock/2013.1/src/exe/rbdock.cxx#4 $)

>  <Rbt.Library>
libRbt.so (2013.1, Build901 2013/11/27)

>  <Rbt.Parameter_File>
/export/apps/rDock/src/rDock_2013.1_src/data/scripts/dock_solv.prm

>  <Rbt.Receptor>
prm/pocket_docking_8.prm

>  <SCORE>
-8.42409

>  <SCORE.INTER>
0.31964

>  <SCORE.INTER.CONST>
1

>  <SCORE.INTER.POLAR>
0

>  <SCORE.INTER.ROT>
6

>  <SCORE.INTER.SOLV>
10.8037

>  <SCORE.INTER.VDW>
-10.9881

>  <SCORE.INTER.norm>
0.00940119

>  <SCORE.INTRA>
-8.74373

>  <SCORE.INTRA.DIHEDRAL>
-17.6732

>  <SCORE.INTRA.DIHEDRAL.0>
19.5869

>  <SCORE.INTRA.POLAR>
0

>  <SCORE.INTRA.POLAR.0>
0

>  <SCORE.INTRA.REPUL>
0

>  <SCORE.INTRA.REPUL.0>
0

>  <SCORE.INTRA.SOLV>
-2.10772

>  <SCORE.INTRA.SOLV.lig_0>
-70.101

>  <SCORE.INTRA.VDW>
1.14674

>  <SCORE.INTRA.VDW.0>
-3.39718

>  <SCORE.INTRA.norm>
-0.257169

>  <SCORE.RESTR>
0

>  <SCORE.RESTR.CAVITY>
0

>  <SCORE.RESTR.norm>
0

>  <SCORE.SYSTEM>
0

>  <SCORE.SYSTEM.CONST>
0

>  <SCORE.SYSTEM.DIHEDRAL>
0

>  <SCORE.SYSTEM.SOLV>
0

>  <SCORE.SYSTEM.norm>
0

>  <SCORE.heavy>
34

>  <SCORE.norm>
-0.247767

>  <RMSD>
6.483

$$$$
ligand
 OpenBabel11021811483D
libRbt.so/2013.1/901 2013/11/27
 34 36  0  0  0  0  0  0  0  0999 V2000
    1.5091    5.2224    8.2955 C   0  0  2  0  0  0  0  0  0  0  0  0
    1.7604    4.9071    6.9171 O   0  0  0  0  0  0  0  0  0  0  0  0
    2.2416    7.0253    3.2370 C   0  0  2  0  0  0  0  0  0  0  0  0
    2.3533    8.1065    2.2641 N   0  0  0  0  0  0  0  0  0  0  0  0
    5.8923    6.7029    4.3943 C   0  0  2  0  0  0  0  0  0  0  0  0
    2.8941    5.4411    9.0030 C   0  0  2  0  0  0  0  0  0  0  0  0
    3.6345    6.5538    8.3883 N   0  0  0  0  0  0  0  0  0  0  0  0
    0.8932    7.2253    4.0061 C   0  0  0  0  0  0  0  0  0  0  0  0
    6.9475    7.7324    3.8522 C   0  0  2  0  0  0  0  0  0  0  0  0
    6.4462    9.0520    3.9866 O   0  0  0  0  0  0  0  0  0  0  0  0
    3.7251    4.1429    8.9118 C   0  0  1  0  0  0  0  0  0  0  0  0
    4.9910    4.3335    9.5644 O   0  0  0  0  0  0  0  0  0  0  0  0
    0.7614    6.0518    5.0348 C   0  0  2  0  0  0  0  0  0  0  0  0
   -0.4947    6.1891    5.7996 N   0  0  0  0  0  0  0  0  0  0  0  0
    7.2540    7.3936    2.3419 C   0  0  1  0  0  0  0  0  0  0  0  0
    8.2438    8.3570    1.7732 N   0  0  0  0  0  0  0  0  0  0  0  0
    2.9206    2.9893    9.5565 C   0  0  2  0  0  0  0  0  0  0  0  0
    3.6783    1.7699    9.4694 O   0  0  0  0  0  0  0  0  0  0  0  0
    1.9540    6.0455    6.0251 C   0  0  2  0  0  0  0  0  0  0  0  0
    7.8039    5.9291    2.2501 C   0  0  1  0  0  0  0  0  0  0  0  0
    9.0182    5.8272    2.9891 O   0  0  0  0  0  0  0  0  0  0  0  0
    1.5369    2.8327    8.8179 C   0  0  2  0  0  0  0  0  0  0  0  0
    0.7789    4.0965    8.8979 O   0  0  0  0  0  0  0  0  0  0  0  0
    3.2785    5.9110    5.2330 C   0  0  2  0  0  0  0  0  0  0  0  0
    4.3590    5.9260    6.1603 O   0  0  0  0  0  0  0  0  0  0  0  0
    6.7433    4.9586    2.8591 C   0  0  0  0  0  0  0  0  0  0  0  0
    6.4218    5.3393    4.2556 O   0  0  0  0  0  0  0  0  0  0  0  0
    0.6730    1.7041    9.4392 C   0  0  2  0  0  0  0  0  0  0  0  0
    0.9248    0.4812    8.7518 O   0  0  0  0  0  0  0  0  0  0  0  0
    3.4624    7.0859    4.2444 C   0  0  1  0  0  0  0  0  0  0  0  0
    4.7153    6.8657    3.5544 O   0  0  0  0  0  0  0  0  0  0  0  0
   -0.8114    2.0097    9.3264 C   0  0  0  0  0  0  0  0  0  0  0  0
    8.1019    5.5187    0.8133 C   0  0  0  0  0  0  0  0  0  0  0  0
    7.5149    9.5599    1.3275 C   0  0  0  0  0  0  0  0  0  0  0  0
  1  2  1  6  0  0  0
  1  6  1  0  0  0  0
  1 23  1  0  0  0  0
  3  4  1  6  0  0  0
  3  8  1  0  0  0  0
  3 30  1  0  0  0  0
  5  9  1  0  0  0  0
  5 27  1  0  0  0  0
  5 31  1  6  0  0  0
  6  7  1  6  0  0  0
  6 11  1  0  0  0  0
  8 13  1  0  0  0  0
  9 10  1  6  0  0  0
  9 15  1  0  0  0  0
 11 12  1  1  0  0  0
 11 17  1  0  0  0  0
 13 14  1  1  0  0  0
 13 19  1  0  0  0  0
 15 16  1  1  0  0  0
 15 20  1  0  0  0  0
 16 34  1  0  0  0  0
 17 18  1  6  0  0  0
 17 22  1  0  0  0  0
 19  2  1  1  0  0  0
 19 24  1  0  0  0  0
 20 21  1  1  0  0  0
 20 26  1  0  0  0  0
 20 33  1  0  0  0  0
 22 23  1  1  0  0  0
 22 28  1  0  0  0  0
 24 25  1  1  0  0  0
 24 30  1  0  0  0  0
 26 27  1  0  0  0  0
 28 29  1  6  0  0  0
 28 32  1  0  0  0  0
 30 31  1  6  0  0  0
M  END
>  <CHROM.1>
-84.24943022,-114.00844671,-83.98464171,-92.08458679,-171.34598656,-127.59193871
3.91317226,5.54087286,5.65598458,2.21543138,-0.18455349,2.28606211

>  <Name>
ligand

>  <RI>
0

>  <Rbt.Current_Directory>
/home/itssahil/PROJECTS/Mol_Feturizer/New_Systems/rnas/3TD1

>  <Rbt.Executable>
rbdock ($Id: //depot/dev/client3/rdock/2013.1/src/exe/rbdock.cxx#4 $)

>  <Rbt.Library>
libRbt.so (2013.1, Build901 2013/11/27)

>  <Rbt.Parameter_File>
/export/apps/rDock/src/rDock_2013.1_src/data/scripts/dock_solv.prm

>  <Rbt.Receptor>
prm/blind_docking_80.prm

>  <SCORE>
135.279

>  <SCORE.INTER>
123.665

>  <SCORE.INTER.CONST>
1

>  <SCORE.INTER.POLAR>
0

>  <SCORE.INTER.ROT>
6

>  <SCORE.INTER.SOLV>
33.7496

>  <SCORE.INTER.VDW>
63.5932

>  <SCORE.INTER.norm>
3.63719

>  <SCORE.INTRA>
6.44423

>  <SCORE.INTRA.DIHEDRAL>
0.677086

>  <SCORE.INTRA.DIHEDRAL.0>
19.5869

>  <SCORE.INTRA.POLAR>
0

>  <SCORE.INTRA.POLAR.0>
0

>  <SCORE.INTRA.REPUL>
0

>  <SCORE.INTRA.REPUL.0>
0

>  <SCORE.INTRA.SOLV>
-0.117697

>  <SCORE.INTRA.SOLV.lig_0>
-70.101

>  <SCORE.INTRA.VDW>
6.16453

>  <SCORE.INTRA.VDW.0>
-3.39718

>  <SCORE.INTRA.norm>
0.189536

>  <SCORE.RESTR>
5.17072

>  <SCORE.RESTR.CAVITY>
5.17072

>  <SCORE.RESTR.norm>
0.15208

>  <SCORE.SYSTEM>
0

>  <SCORE.SYSTEM.CONST>
0

>  <SCORE.SYSTEM.DIHEDRAL>
0

>  <SCORE.SYSTEM.SOLV>
0

>  <SCORE.SYSTEM.norm>
0

>  <SCORE.heavy>
34

>  <SCORE.norm>
3.97881

>  <RMSD>
6.484

$$$$
ligand
 OpenBabel11021811483D
libRbt.so/2013.1/901 2013/11/27
 34 36  0  0  0  0  0  0  0  0999 V2000
    0.1308    4.6621    8.0432 C   0  0  2  0  0  0  0  0  0  0  0  0
    1.1772    5.5075    8.5461 O   0  0  0  0  0  0  0  0  0  0  0  0
    3.0741    6.1824    4.7768 C   0  0  2  0  0  0  0  0  0  0  0  0
    3.8022    6.8208    3.6858 N   0  0  0  0  0  0  0  0  0  0  0  0
    6.3843    5.3402    6.3892 C   0  0  2  0  0  0  0  0  0  0  0  0
   -1.0182    4.6242    9.1132 C   0  0  2  0  0  0  0  0  0  0  0  0
   -1.5664    5.9684    9.3515 N   0  0  0  0  0  0  0  0  0  0  0  0
    1.8797    7.1208    5.1543 C   0  0  0  0  0  0  0  0  0  0  0  0
    6.7192    6.8544    6.1403 C   0  0  2  0  0  0  0  0  0  0  0  0
    5.7034    7.6707    6.6995 O   0  0  0  0  0  0  0  0  0  0  0  0
   -0.4688    4.0392   10.4324 C   0  0  1  0  0  0  0  0  0  0  0  0
   -1.5173    3.9941   11.4139 O   0  0  0  0  0  0  0  0  0  0  0  0
    1.0837    6.4251    6.3099 C   0  0  2  0  0  0  0  0  0  0  0  0
   -0.0581    7.2692    6.7163 N   0  0  0  0  0  0  0  0  0  0  0  0
    6.8476    7.0945    4.5861 C   0  0  1  0  0  0  0  0  0  0  0  0
    7.1511    8.5278    4.2948 N   0  0  0  0  0  0  0  0  0  0  0  0
    0.1087    2.6316   10.1516 C   0  0  2  0  0  0  0  0  0  0  0  0
    0.6345    2.0777   11.3704 O   0  0  0  0  0  0  0  0  0  0  0  0
    1.9926    6.1829    7.5420 C   0  0  2  0  0  0  0  0  0  0  0  0
    7.9805    6.1714    4.0203 C   0  0  1  0  0  0  0  0  0  0  0  0
    9.2227    6.5097    4.6316 O   0  0  0  0  0  0  0  0  0  0  0  0
    1.2400    2.7327    9.0587 C   0  0  2  0  0  0  0  0  0  0  0  0
    0.6918    3.3206    7.8210 O   0  0  0  0  0  0  0  0  0  0  0  0
    3.1994    5.3054    7.1254 C   0  0  2  0  0  0  0  0  0  0  0  0
    4.0284    5.1119    8.2669 O   0  0  0  0  0  0  0  0  0  0  0  0
    7.6268    4.6872    4.3512 C   0  0  0  0  0  0  0  0  0  0  0  0
    7.4440    4.5025    5.8109 O   0  0  0  0  0  0  0  0  0  0  0  0
    1.8407    1.3442    8.7164 C   0  0  2  0  0  0  0  0  0  0  0  0
    3.0308    1.5177    7.9517 O   0  0  0  0  0  0  0  0  0  0  0  0
    4.0362    5.9911    6.0203 C   0  0  1  0  0  0  0  0  0  0  0  0
    5.1269    5.0959    5.6990 O   0  0  0  0  0  0  0  0  0  0  0  0
    0.8747    0.5034    7.8981 C   0  0  0  0  0  0  0  0  0  0  0  0
    8.1489    6.3298    2.5142 C   0  0  0  0  0  0  0  0  0  0  0  0
    6.5514    8.8718    2.9913 C   0  0  0  0  0  0  0  0  0  0  0  0
  1  2  1  1  0  0  0
  1  6  1  0  0  0  0
  1 23  1  0  0  0  0
  3  4  1  6  0  0  0
  3  8  1  0  0  0  0
  3 30  1  0  0  0  0
  5  9  1  0  0  0  0
  5 27  1  0  0  0  0
  5 31  1  6  0  0  0
  6  7  1  1  0  0  0
  6 11  1  0  0  0  0
  8 13  1  0  0  0  0
  9 10  1  6  0  0  0
  9 15  1  0  0  0  0
 11 12  1  1  0  0  0
 11 17  1  0  0  0  0
 13 14  1  1  0  0  0
 13 19  1  0  0  0  0
 15 16  1  1  0  0  0
 15 20  1  0  0  0  0
 16 34  1  0  0  0  0
 17 18  1  1  0  0  0
 17 22  1  0  0  0  0
 19  2  1  1  0  0  0
 19 24  1  0  0  0  0
 20 21  1  1  0  0  0
 20 26  1  0  0  0  0
 20 33  1  0  0  0  0
 22 23  1  6  0  0  0
 22 28  1  0  0  0  0
 24 25  1  1  0  0  0
 24 30  1  0  0  0  0
 26 27  1  0  0  0  0
 28 29  1  6  0  0  0
 28 32  1  0  0  0  0
 30 31  1  6  0  0  0
M  END
>  <CHROM.1>
-151.81526581,30.38981533,-149.04611186,-167.75758988,149.11799765,-52.93987983
3.35205053,5.18108134,6.88907715,2.54447484,-0.39712046,2.64938021

>  <Name>
ligand

>  <RI>
0

>  <Rbt.Current_Directory>
/home/itssahil/PROJECTS/Mol_Feturizer/New_Systems/rnas/3TD1

>  <Rbt.Executable>
rbdock ($Id: //depot/dev/client3/rdock/2013.1/src/exe/rbdock.cxx#4 $)

>  <Rbt.Library>
libRbt.so (2013.1, Build901 2013/11/27)

>  <Rbt.Parameter_File>
/export/apps/rDock/src/rDock_2013.1_src/data/scripts/dock_solv.prm

>  <Rbt.Receptor>
prm/blind_docking_60.prm

>  <SCORE>
47.2936

>  <SCORE.INTER>
26.1078

>  <SCORE.INTER.CONST>
1

>  <SCORE.INTER.POLAR>
0

>  <SCORE.INTER.ROT>
6

>  <SCORE.INTER.SOLV>
26.9916

>  <SCORE.INTER.VDW>
0.80797

>  <SCORE.INTER.norm>
0.767876

>  <SCORE.INTRA>
5.2172

>  <SCORE.INTRA.DIHEDRAL>
-7.60235

>  <SCORE.INTRA.DIHEDRAL.0>
19.5869

>  <SCORE.INTRA.POLAR>
0

>  <SCORE.INTRA.POLAR.0>
0

>  <SCORE.INTRA.REPUL>
0

>  <SCORE.INTRA.REPUL.0>
0

>  <SCORE.INTRA.SOLV>
3.2565

>  <SCORE.INTRA.SOLV.lig_0>
-70.101

>  <SCORE.INTRA.VDW>
7.39013

>  <SCORE.INTRA.VDW.0>
-3.39718

>  <SCORE.INTRA.norm>
0.153447

>  <SCORE.RESTR>
15.9686

>  <SCORE.RESTR.CAVITY>
15.9686

>  <SCORE.RESTR.norm>
0.469665

>  <SCORE.SYSTEM>
0

>  <SCORE.SYSTEM.CONST>
0

>  <SCORE.SYSTEM.DIHEDRAL>
0

>  <SCORE.SYSTEM.SOLV>
0

>  <SCORE.SYSTEM.norm>
0

>  <SCORE.heavy>
34

>  <SCORE.norm>
1.39099

>  <RMSD>
6.506

$$$$
ligand
 OpenBabel11021811483D
libRbt.so/2013.1/901 2013/11/27
 34 36  0  0  0  0  0  0  0  0999 V2000
    1.5189    5.0807    8.1926 C   0  0  2  0  0  0  0  0  0  0  0  0
    1.7656    4.8152    6.8029 O   0  0  0  0  0  0  0  0  0  0  0  0
    2.2218    7.0582    3.1942 C   0  0  2  0  0  0  0  0  0  0  0  0
    2.3117    8.1715    2.2557 N   0  0  0  0  0  0  0  0  0  0  0  0
    5.8669    6.7928    4.3807 C   0  0  2  0  0  0  0  0  0  0  0  0
    2.8228    4.7257    8.9929 C   0  0  2  0  0  0  0  0  0  0  0  0
    3.9594    5.5463    8.5468 N   0  0  0  0  0  0  0  0  0  0  0  0
    0.8606    7.1957    3.9542 C   0  0  0  0  0  0  0  0  0  0  0  0
    6.9401    7.7968    3.8264 C   0  0  2  0  0  0  0  0  0  0  0  0
    6.4589    9.1261    3.9374 O   0  0  0  0  0  0  0  0  0  0  0  0
    3.1482    3.2285    8.8013 C   0  0  1  0  0  0  0  0  0  0  0  0
    4.3362    2.8949    9.5377 O   0  0  0  0  0  0  0  0  0  0  0  0
    0.7527    5.9879    4.9454 C   0  0  2  0  0  0  0  0  0  0  0  0
   -0.5145    6.0655    5.7003 N   0  0  0  0  0  0  0  0  0  0  0  0
    7.2470    7.4289    2.3231 C   0  0  1  0  0  0  0  0  0  0  0  0
    8.2539    8.3676    1.7430 N   0  0  0  0  0  0  0  0  0  0  0  0
    1.9347    2.3904    9.2690 C   0  0  2  0  0  0  0  0  0  0  0  0
    2.2192    0.9925    9.0865 O   0  0  0  0  0  0  0  0  0  0  0  0
    1.9349    5.9856    5.9480 C   0  0  2  0  0  0  0  0  0  0  0  0
    7.7744    5.9548    2.2571 C   0  0  1  0  0  0  0  0  0  0  0  0
    8.9842    5.8461    3.0026 O   0  0  0  0  0  0  0  0  0  0  0  0
    0.6567    2.8054    8.4450 C   0  0  2  0  0  0  0  0  0  0  0  0
    0.3882    4.2453    8.6254 O   0  0  0  0  0  0  0  0  0  0  0  0
    3.2707    5.9136    5.1667 C   0  0  2  0  0  0  0  0  0  0  0  0
    4.3409    5.9312    6.1056 O   0  0  0  0  0  0  0  0  0  0  0  0
    6.6965    5.0109    2.8773 C   0  0  0  0  0  0  0  0  0  0  0  0
    6.3756    5.4191    4.2661 O   0  0  0  0  0  0  0  0  0  0  0  0
   -0.6012    2.0139    8.8891 C   0  0  2  0  0  0  0  0  0  0  0  0
   -0.2390    0.6632    9.1645 O   0  0  0  0  0  0  0  0  0  0  0  0
    3.4301    7.1230    4.2162 C   0  0  1  0  0  0  0  0  0  0  0  0
    4.6957    6.9602    3.5335 O   0  0  0  0  0  0  0  0  0  0  0  0
   -1.6667    2.0032    7.8054 C   0  0  0  0  0  0  0  0  0  0  0  0
    8.0716    5.5167    0.8283 C   0  0  0  0  0  0  0  0  0  0  0  0
    7.5456    9.5746    1.2756 C   0  0  0  0  0  0  0  0  0  0  0  0
  1  2  1  6  0  0  0
  1  6  1  0  0  0  0
  1 23  1  0  0  0  0
  3  4  1  6  0  0  0
  3  8  1  0  0  0  0
  3 30  1  0  0  0  0
  5  9  1  0  0  0  0
  5 27  1  0  0  0  0
  5 31  1  6  0  0  0
  6  7  1  6  0  0  0
  6 11  1  0  0  0  0
  8 13  1  0  0  0  0
  9 10  1  6  0  0  0
  9 15  1  0  0  0  0
 11 12  1  1  0  0  0
 11 17  1  0  0  0  0
 13 14  1  1  0  0  0
 13 19  1  0  0  0  0
 15 16  1  1  0  0  0
 15 20  1  0  0  0  0
 16 34  1  0  0  0  0
 17 18  1  6  0  0  0
 17 22  1  0  0  0  0
 19  2  1  1  0  0  0
 19 24  1  0  0  0  0
 20 21  1  1  0  0  0
 20 26  1  0  0  0  0
 20 33  1  0  0  0  0
 22 23  1  1  0  0  0
 22 28  1  0  0  0  0
 24 25  1  1  0  0  0
 24 30  1  0  0  0  0
 26 27  1  0  0  0  0
 28 29  1  6  0  0  0
 28 32  1  0  0  0  0
 30 31  1  6  0  0  0
M  END
>  <CHROM.1>
-106.87287042,-115.24373477,-83.95656783,-38.89383260,-170.77499773,-131.51977470
3.66156818,5.40285957,5.54292720,2.26556437,-0.14864072,2.33318545

>  <Name>
ligand

>  <RI>
0

>  <Rbt.Current_Directory>
/home/itssahil/PROJECTS/Mol_Feturizer/New_Systems/rnas/3TD1

>  <Rbt.Executable>
rbdock ($Id: //depot/dev/client3/rdock/2013.1/src/exe/rbdock.cxx#4 $)

>  <Rbt.Library>
libRbt.so (2013.1, Build901 2013/11/27)

>  <Rbt.Parameter_File>
/export/apps/rDock/src/rDock_2013.1_src/data/scripts/dock_solv.prm

>  <Rbt.Receptor>
prm/blind_docking_80.prm

>  <SCORE>
141.792

>  <SCORE.INTER>
130.535

>  <SCORE.INTER.CONST>
1

>  <SCORE.INTER.POLAR>
0

>  <SCORE.INTER.ROT>
6

>  <SCORE.INTER.SOLV>
31.3985

>  <SCORE.INTER.VDW>
68.9572

>  <SCORE.INTER.norm>
3.83926

>  <SCORE.INTRA>
6.1218

>  <SCORE.INTRA.DIHEDRAL>
2.81699

>  <SCORE.INTRA.DIHEDRAL.0>
19.5869

>  <SCORE.INTRA.POLAR>
0

>  <SCORE.INTRA.POLAR.0>
0

>  <SCORE.INTRA.REPUL>
0

>  <SCORE.INTRA.REPUL.0>
0

>  <SCORE.INTRA.SOLV>
-0.32743

>  <SCORE.INTRA.SOLV.lig_0>
-70.101

>  <SCORE.INTRA.VDW>
4.87702

>  <SCORE.INTRA.VDW.0>
-3.39718

>  <SCORE.INTRA.norm>
0.180053

>  <SCORE.RESTR>
5.13553

>  <SCORE.RESTR.CAVITY>
5.13553

>  <SCORE.RESTR.norm>
0.151045

>  <SCORE.SYSTEM>
0

>  <SCORE.SYSTEM.CONST>
0

>  <SCORE.SYSTEM.DIHEDRAL>
0

>  <SCORE.SYSTEM.SOLV>
0

>  <SCORE.SYSTEM.norm>
0

>  <SCORE.heavy>
34

>  <SCORE.norm>
4.17036

>  <RMSD>
6.514

$$$$
ligand
 OpenBabel11021811483D
libRbt.so/2013.1/901 2013/11/27
 34 36  0  0  0  0  0  0  0  0999 V2000
    1.5133    5.0699    8.1931 C   0  0  2  0  0  0  0  0  0  0  0  0
    1.7448    4.8080    6.8001 O   0  0  0  0  0  0  0  0  0  0  0  0
    2.2321    7.0617    3.2022 C   0  0  2  0  0  0  0  0  0  0  0  0
    2.3381    8.1781    2.2692 N   0  0  0  0  0  0  0  0  0  0  0  0
    5.8766    6.7552    4.3842 C   0  0  2  0  0  0  0  0  0  0  0  0
    2.8266    4.7151    8.9779 C   0  0  2  0  0  0  0  0  0  0  0  0
    3.9570    5.5383    8.5210 N   0  0  0  0  0  0  0  0  0  0  0  0
    0.8737    7.2161    3.9642 C   0  0  0  0  0  0  0  0  0  0  0  0
    6.9441    7.7707    3.8397 C   0  0  2  0  0  0  0  0  0  0  0  0
    6.4554    9.0961    3.9637 O   0  0  0  0  0  0  0  0  0  0  0  0
    3.1520    3.2187    8.7794 C   0  0  1  0  0  0  0  0  0  0  0  0
    4.3486    2.8852    9.5015 O   0  0  0  0  0  0  0  0  0  0  0  0
    0.7483    6.0052    4.9495 C   0  0  2  0  0  0  0  0  0  0  0  0
   -0.5169    6.0983    5.7059 N   0  0  0  0  0  0  0  0  0  0  0  0
    7.2530    7.4193    2.3328 C   0  0  1  0  0  0  0  0  0  0  0  0
    8.2544    8.3692    1.7619 N   0  0  0  0  0  0  0  0  0  0  0  0
    1.9450    2.3778    9.2587 C   0  0  2  0  0  0  0  0  0  0  0  0
    2.2294    0.9807    9.0698 O   0  0  0  0  0  0  0  0  0  0  0  0
    1.9312    5.9799    5.9509 C   0  0  2  0  0  0  0  0  0  0  0  0
    7.7887    5.9489    2.2525 C   0  0  1  0  0  0  0  0  0  0  0  0
    8.9991    5.8398    2.9968 O   0  0  0  0  0  0  0  0  0  0  0  0
    0.6572    2.7928    8.4500 C   0  0  2  0  0  0  0  0  0  0  0  0
    0.3887    4.2319    8.6367 O   0  0  0  0  0  0  0  0  0  0  0  0
    3.2651    5.8914    5.1680 C   0  0  2  0  0  0  0  0  0  0  0  0
    4.3362    5.8881    6.1061 O   0  0  0  0  0  0  0  0  0  0  0  0
    6.7162    4.9929    2.8634 C   0  0  0  0  0  0  0  0  0  0  0  0
    6.3932    5.3856    4.2562 O   0  0  0  0  0  0  0  0  0  0  0  0
   -0.5944    1.9984    8.9063 C   0  0  2  0  0  0  0  0  0  0  0  0
   -0.4758    1.6806   10.2906 O   0  0  0  0  0  0  0  0  0  0  0  0
    3.4421    7.1030    4.2234 C   0  0  1  0  0  0  0  0  0  0  0  0
    4.7045    6.9243    3.5387 O   0  0  0  0  0  0  0  0  0  0  0  0
   -0.7421    0.6967    8.1361 C   0  0  0  0  0  0  0  0  0  0  0  0
    8.0882    5.5264    0.8194 C   0  0  0  0  0  0  0  0  0  0  0  0
    7.5296    9.5329    1.2165 C   0  0  0  0  0  0  0  0  0  0  0  0
  1  2  1  6  0  0  0
  1  6  1  0  0  0  0
  1 23  1  0  0  0  0
  3  4  1  6  0  0  0
  3  8  1  0  0  0  0
  3 30  1  0  0  0  0
  5  9  1  0  0  0  0
  5 27  1  0  0  0  0
  5 31  1  6  0  0  0
  6  7  1  6  0  0  0
  6 11  1  0  0  0  0
  8 13  1  0  0  0  0
  9 10  1  6  0  0  0
  9 15  1  0  0  0  0
 11 12  1  1  0  0  0
 11 17  1  0  0  0  0
 13 14  1  1  0  0  0
 13 19  1  0  0  0  0
 15 16  1  1  0  0  0
 15 20  1  0  0  0  0
 16 34  1  0  0  0  0
 17 18  1  6  0  0  0
 17 22  1  0  0  0  0
 19  2  1  1  0  0  0
 19 24  1  0  0  0  0
 20 21  1  1  0  0  0
 20 26  1  0  0  0  0
 20 33  1  0  0  0  0
 22 23  1  1  0  0  0
 22 28  1  0  0  0  0
 24 25  1  1  0  0  0
 24 30  1  0  0  0  0
 26 27  1  0  0  0  0
 28 29  1  1  0  0  0
 28 32  1  0  0  0  0
 30 31  1  6  0  0  0
M  END
>  <CHROM.1>
-105.61626675,-115.69288461,-88.06355618,31.05883183,-171.67942934,-130.19669944
3.68691492,5.38483513,5.58824785,2.25088543,-0.17834135,2.33967781

>  <Name>
ligand

>  <RI>
0

>  <Rbt.Current_Directory>
/home/itssahil/PROJECTS/Mol_Feturizer/New_Systems/rnas/3TD1

>  <Rbt.Executable>
rbdock ($Id: //depot/dev/client3/rdock/2013.1/src/exe/rbdock.cxx#4 $)

>  <Rbt.Library>
libRbt.so (2013.1, Build901 2013/11/27)

>  <Rbt.Parameter_File>
/export/apps/rDock/src/rDock_2013.1_src/data/scripts/dock_solv.prm

>  <Rbt.Receptor>
prm/blind_docking_80.prm

>  <SCORE>
140.791

>  <SCORE.INTER>
129.791

>  <SCORE.INTER.CONST>
1

>  <SCORE.INTER.POLAR>
0

>  <SCORE.INTER.ROT>
6

>  <SCORE.INTER.SOLV>
31.514

>  <SCORE.INTER.VDW>
68.4225

>  <SCORE.INTER.norm>
3.81737

>  <SCORE.INTRA>
5.94105

>  <SCORE.INTRA.DIHEDRAL>
3.89123

>  <SCORE.INTRA.DIHEDRAL.0>
19.5869

>  <SCORE.INTRA.POLAR>
0

>  <SCORE.INTRA.POLAR.0>
0

>  <SCORE.INTRA.REPUL>
0.000141694

>  <SCORE.INTRA.REPUL.0>
0

>  <SCORE.INTRA.SOLV>
-0.307444

>  <SCORE.INTRA.SOLV.lig_0>
-70.101

>  <SCORE.INTRA.VDW>
4.14845

>  <SCORE.INTRA.VDW.0>
-3.39718

>  <SCORE.INTRA.norm>
0.174737

>  <SCORE.RESTR>
5.05974

>  <SCORE.RESTR.CAVITY>
5.05974

>  <SCORE.RESTR.norm>
0.148816

>  <SCORE.SYSTEM>
0

>  <SCORE.SYSTEM.CONST>
0

>  <SCORE.SYSTEM.DIHEDRAL>
0

>  <SCORE.SYSTEM.SOLV>
0

>  <SCORE.SYSTEM.norm>
0

>  <SCORE.heavy>
34

>  <SCORE.norm>
4.14093

>  <RMSD>
6.516

$$$$
ligand
 OpenBabel11021811483D
libRbt.so/2013.1/901 2013/11/27
 34 36  0  0  0  0  0  0  0  0999 V2000
    0.5744    5.7865    6.7445 C   0  0  2  0  0  0  0  0  0  0  0  0
    1.5504    6.6412    7.3605 O   0  0  0  0  0  0  0  0  0  0  0  0
    5.8160    6.7393    7.5983 C   0  0  2  0  0  0  0  0  0  0  0  0
    7.2077    6.3195    7.7212 N   0  0  0  0  0  0  0  0  0  0  0  0
    7.3330    6.6094    5.0972 C   0  0  2  0  0  0  0  0  0  0  0  0
   -0.8265    6.1197    7.3714 C   0  0  2  0  0  0  0  0  0  0  0  0
   -1.1988    7.5214    7.1246 N   0  0  0  0  0  0  0  0  0  0  0  0
    5.0440    6.1672    8.8338 C   0  0  0  0  0  0  0  0  0  0  0  0
    7.8330    7.6472    4.0295 C   0  0  2  0  0  0  0  0  0  0  0  0
    7.4524    8.9574    4.4161 O   0  0  0  0  0  0  0  0  0  0  0  0
   -0.7843    5.8468    8.8907 C   0  0  1  0  0  0  0  0  0  0  0  0
   -2.0657    6.1421    9.4697 O   0  0  0  0  0  0  0  0  0  0  0  0
    3.5547    6.6369    8.7148 C   0  0  2  0  0  0  0  0  0  0  0  0
    2.7697    6.1209    9.8546 N   0  0  0  0  0  0  0  0  0  0  0  0
    7.2150    7.2678    2.6282 C   0  0  1  0  0  0  0  0  0  0  0  0
    7.6490    8.2372    1.5779 N   0  0  0  0  0  0  0  0  0  0  0  0
   -0.3822    4.3707    9.1214 C   0  0  2  0  0  0  0  0  0  0  0  0
   -0.3281    4.1042   10.5337 O   0  0  0  0  0  0  0  0  0  0  0  0
    2.9169    6.1306    7.3958 C   0  0  2  0  0  0  0  0  0  0  0  0
    7.6656    5.8155    2.2495 C   0  0  1  0  0  0  0  0  0  0  0  0
    9.0859    5.7685    2.1420 O   0  0  0  0  0  0  0  0  0  0  0  0
    1.0188    4.0941    8.4539 C   0  0  2  0  0  0  0  0  0  0  0  0
    0.9545    4.3905    7.0096 O   0  0  0  0  0  0  0  0  0  0  0  0
    3.7378    6.6586    6.1927 C   0  0  2  0  0  0  0  0  0  0  0  0
    3.1453    6.1666    4.9951 O   0  0  0  0  0  0  0  0  0  0  0  0
    7.1979    4.8386    3.3739 C   0  0  0  0  0  0  0  0  0  0  0  0
    7.7358    5.2559    4.6911 O   0  0  0  0  0  0  0  0  0  0  0  0
    1.4637    2.6187    8.6312 C   0  0  2  0  0  0  0  0  0  0  0  0
    1.3988    2.2662   10.0106 O   0  0  0  0  0  0  0  0  0  0  0  0
    5.2028    6.1670    6.2547 C   0  0  1  0  0  0  0  0  0  0  0  0
    5.8818    6.7151    5.1003 O   0  0  0  0  0  0  0  0  0  0  0  0
    2.8920    2.4047    8.1580 C   0  0  0  0  0  0  0  0  0  0  0  0
    7.0863    5.3668    0.9135 C   0  0  0  0  0  0  0  0  0  0  0  0
    6.8678    9.4780    1.7425 C   0  0  0  0  0  0  0  0  0  0  0  0
  1  2  1  1  0  0  0
  1  6  1  0  0  0  0
  1 23  1  0  0  0  0
  3  4  1  1  0  0  0
  3  8  1  0  0  0  0
  3 30  1  0  0  0  0
  5  9  1  0  0  0  0
  5 27  1  0  0  0  0
  5 31  1  6  0  0  0
  6  7  1  1  0  0  0
  6 11  1  0  0  0  0
  8 13  1  0  0  0  0
  9 10  1  1  0  0  0
  9 15  1  0  0  0  0
 11 12  1  6  0  0  0
 11 17  1  0  0  0  0
 13 14  1  1  0  0  0
 13 19  1  0  0  0  0
 15 16  1  6  0  0  0
 15 20  1  0  0  0  0
 16 34  1  0  0  0  0
 17 18  1  1  0  0  0
 17 22  1  0  0  0  0
 19  2  1  6  0  0  0
 19 24  1  0  0  0  0
 20 21  1  6  0  0  0
 20 26  1  0  0  0  0
 20 33  1  0  0  0  0
 22 23  1  6  0  0  0
 22 28  1  0  0  0  0
 24 25  1  6  0  0  0
 24 30  1  0  0  0  0
 26 27  1  0  0  0  0
 28 29  1  1  0  0  0
 28 32  1  0  0  0  0
 30 31  1  6  0  0  0
M  END
>  <CHROM.1>
153.42647466,-145.80802776,-76.64114381,-52.61034708,51.92052558,-162.20707750
3.90048959,5.91080511,6.29838637,2.51722162,-0.33478266,2.33465267

>  <Name>
ligand

>  <RI>
0

>  <Rbt.Current_Directory>
/home/itssahil/PROJECTS/Mol_Feturizer/New_Systems/rnas/3TD1

>  <Rbt.Executable>
rbdock ($Id: //depot/dev/client3/rdock/2013.1/src/exe/rbdock.cxx#4 $)

>  <Rbt.Library>
libRbt.so (2013.1, Build901 2013/11/27)

>  <Rbt.Parameter_File>
/export/apps/rDock/src/rDock_2013.1_src/data/scripts/dock_solv.prm

>  <Rbt.Receptor>
prm/blind_docking_60.prm

>  <SCORE>
14.0193

>  <SCORE.INTER>
-2.07895

>  <SCORE.INTER.CONST>
1

>  <SCORE.INTER.POLAR>
0

>  <SCORE.INTER.ROT>
6

>  <SCORE.INTER.SOLV>
22.8815

>  <SCORE.INTER.VDW>
-16.6131

>  <SCORE.INTER.norm>
-0.0611456

>  <SCORE.INTRA>
-1.07058

>  <SCORE.INTRA.DIHEDRAL>
-9.99396

>  <SCORE.INTRA.DIHEDRAL.0>
19.5869

>  <SCORE.INTRA.POLAR>
0

>  <SCORE.INTRA.POLAR.0>
0

>  <SCORE.INTRA.REPUL>
0

>  <SCORE.INTRA.REPUL.0>
0

>  <SCORE.INTRA.SOLV>
1.91075

>  <SCORE.INTRA.SOLV.lig_0>
-70.101

>  <SCORE.INTRA.VDW>
2.97102

>  <SCORE.INTRA.VDW.0>
-3.39718

>  <SCORE.INTRA.norm>
-0.0314878

>  <SCORE.RESTR>
17.1688

>  <SCORE.RESTR.CAVITY>
17.1688

>  <SCORE.RESTR.norm>
0.504965

>  <SCORE.SYSTEM>
0

>  <SCORE.SYSTEM.CONST>
0

>  <SCORE.SYSTEM.DIHEDRAL>
0

>  <SCORE.SYSTEM.SOLV>
0

>  <SCORE.SYSTEM.norm>
0

>  <SCORE.heavy>
34

>  <SCORE.norm>
0.412331

>  <RMSD>
6.526

$$$$
ligand
 OpenBabel11021811483D
libRbt.so/2013.1/901 2013/11/27
 34 36  0  0  0  0  0  0  0  0999 V2000
    1.4439    5.0626    8.1301 C   0  0  2  0  0  0  0  0  0  0  0  0
    1.6900    4.8105    6.7378 O   0  0  0  0  0  0  0  0  0  0  0  0
    2.2180    7.0902    3.1621 C   0  0  2  0  0  0  0  0  0  0  0  0
    2.3364    8.2134    2.2388 N   0  0  0  0  0  0  0  0  0  0  0  0
    5.8528    6.7788    4.3753 C   0  0  2  0  0  0  0  0  0  0  0  0
    2.8186    4.9915    8.8861 C   0  0  2  0  0  0  0  0  0  0  0  0
    3.7568    6.0046    8.3783 N   0  0  0  0  0  0  0  0  0  0  0  0
    0.8532    7.2434    3.9127 C   0  0  0  0  0  0  0  0  0  0  0  0
    6.9254    7.7879    3.8291 C   0  0  2  0  0  0  0  0  0  0  0  0
    6.4377    9.1150    3.9378 O   0  0  0  0  0  0  0  0  0  0  0  0
    3.4240    3.5815    8.7141 C   0  0  1  0  0  0  0  0  0  0  0  0
    4.6789    3.5069    9.4102 O   0  0  0  0  0  0  0  0  0  0  0  0
    0.7146    6.0254    4.8874 C   0  0  2  0  0  0  0  0  0  0  0  0
   -0.5573    6.1170    5.6328 N   0  0  0  0  0  0  0  0  0  0  0  0
    7.2441    7.4225    2.3276 C   0  0  1  0  0  0  0  0  0  0  0  0
    8.2508    8.3660    1.7550 N   0  0  0  0  0  0  0  0  0  0  0  0
    2.4148    2.5369    9.2469 C   0  0  2  0  0  0  0  0  0  0  0  0
    2.9609    1.2164    9.0833 O   0  0  0  0  0  0  0  0  0  0  0  0
    1.8881    5.9883    5.8994 C   0  0  2  0  0  0  0  0  0  0  0  0
    7.7783    5.9507    2.2642 C   0  0  1  0  0  0  0  0  0  0  0  0
    8.9835    5.8468    3.0177 O   0  0  0  0  0  0  0  0  0  0  0  0
    1.0528    2.6711    8.4649 C   0  0  2  0  0  0  0  0  0  0  0  0
    0.5140    4.0358    8.6248 O   0  0  0  0  0  0  0  0  0  0  0  0
    3.2289    5.9013    5.1282 C   0  0  2  0  0  0  0  0  0  0  0  0
    4.2913    5.8871    6.0761 O   0  0  0  0  0  0  0  0  0  0  0  0
    6.7004    5.0017    2.8763 C   0  0  0  0  0  0  0  0  0  0  0  0
    6.3683    5.4074    4.2632 O   0  0  0  0  0  0  0  0  0  0  0  0
   -0.0098    1.6628    8.9749 C   0  0  2  0  0  0  0  0  0  0  0  0
   -0.0067    1.6507   10.4001 O   0  0  0  0  0  0  0  0  0  0  0  0
    3.4187    7.1195    4.1947 C   0  0  1  0  0  0  0  0  0  0  0  0
    4.6867    6.9418    3.5204 O   0  0  0  0  0  0  0  0  0  0  0  0
    0.2813    0.2515    8.4922 C   0  0  0  0  0  0  0  0  0  0  0  0
    8.0871    5.5150    0.8370 C   0  0  0  0  0  0  0  0  0  0  0  0
    7.5390    9.5648    1.2722 C   0  0  0  0  0  0  0  0  0  0  0  0
  1  2  1  6  0  0  0
  1  6  1  0  0  0  0
  1 23  1  0  0  0  0
  3  4  1  6  0  0  0
  3  8  1  0  0  0  0
  3 30  1  0  0  0  0
  5  9  1  0  0  0  0
  5 27  1  0  0  0  0
  5 31  1  6  0  0  0
  6  7  1  6  0  0  0
  6 11  1  0  0  0  0
  8 13  1  0  0  0  0
  9 10  1  6  0  0  0
  9 15  1  0  0  0  0
 11 12  1  1  0  0  0
 11 17  1  0  0  0  0
 13 14  1  1  0  0  0
 13 19  1  0  0  0  0
 15 16  1  1  0  0  0
 15 20  1  0  0  0  0
 16 34  1  0  0  0  0
 17 18  1  6  0  0  0
 17 22  1  0  0  0  0
 19  2  1  1  0  0  0
 19 24  1  0  0  0  0
 20 21  1  1  0  0  0
 20 26  1  0  0  0  0
 20 33  1  0  0  0  0
 22 23  1  1  0  0  0
 22 28  1  0  0  0  0
 24 25  1  1  0  0  0
 24 30  1  0  0  0  0
 26 27  1  0  0  0  0
 28 29  1  1  0  0  0
 28 32  1  0  0  0  0
 30 31  1  6  0  0  0
M  END
>  <CHROM.1>
-93.94485366,-115.57599344,-84.48536579,44.58439391,-172.41600260,-130.58808365
3.79841198,5.42322236,5.57986948,2.21759096,-0.19683674,2.34278274

>  <Name>
ligand

>  <RI>
0

>  <Rbt.Current_Directory>
/home/itssahil/PROJECTS/Mol_Feturizer/New_Systems/rnas/3TD1

>  <Rbt.Executable>
rbdock ($Id: //depot/dev/client3/rdock/2013.1/src/exe/rbdock.cxx#4 $)

>  <Rbt.Library>
libRbt.so (2013.1, Build901 2013/11/27)

>  <Rbt.Parameter_File>
/export/apps/rDock/src/rDock_2013.1_src/data/scripts/dock_solv.prm

>  <Rbt.Receptor>
prm/blind_docking_80.prm

>  <SCORE>
142.184

>  <SCORE.INTER>
132.155

>  <SCORE.INTER.CONST>
1

>  <SCORE.INTER.POLAR>
0

>  <SCORE.INTER.ROT>
6

>  <SCORE.INTER.SOLV>
32.3788

>  <SCORE.INTER.VDW>
69.7106

>  <SCORE.INTER.norm>
3.88692

>  <SCORE.INTRA>
5.27103

>  <SCORE.INTRA.DIHEDRAL>
0.0858058

>  <SCORE.INTRA.DIHEDRAL.0>
19.5869

>  <SCORE.INTRA.POLAR>
0

>  <SCORE.INTRA.POLAR.0>
0

>  <SCORE.INTRA.REPUL>
0

>  <SCORE.INTRA.REPUL.0>
0

>  <SCORE.INTRA.SOLV>
-0.0371833

>  <SCORE.INTRA.SOLV.lig_0>
-70.101

>  <SCORE.INTRA.VDW>
5.24672

>  <SCORE.INTRA.VDW.0>
-3.39718

>  <SCORE.INTRA.norm>
0.15503

>  <SCORE.RESTR>
4.75756

>  <SCORE.RESTR.CAVITY>
4.75756

>  <SCORE.RESTR.norm>
0.139928

>  <SCORE.SYSTEM>
0

>  <SCORE.SYSTEM.CONST>
0

>  <SCORE.SYSTEM.DIHEDRAL>
0

>  <SCORE.SYSTEM.SOLV>
0

>  <SCORE.SYSTEM.norm>
0

>  <SCORE.heavy>
34

>  <SCORE.norm>
4.18188

>  <RMSD>
6.528

$$$$
ligand
 OpenBabel11021811483D
libRbt.so/2013.1/901 2013/11/27
 34 36  0  0  0  0  0  0  0  0999 V2000
    0.2490    5.6219    6.7742 C   0  0  2  0  0  0  0  0  0  0  0  0
    1.1831    6.5761    7.3028 O   0  0  0  0  0  0  0  0  0  0  0  0
    5.4198    6.8381    7.7962 C   0  0  2  0  0  0  0  0  0  0  0  0
    6.8157    6.4731    8.0117 N   0  0  0  0  0  0  0  0  0  0  0  0
    7.0908    6.7141    5.3924 C   0  0  2  0  0  0  0  0  0  0  0  0
   -1.0532    5.6817    7.6501 C   0  0  2  0  0  0  0  0  0  0  0  0
   -1.6631    7.0197    7.6040 N   0  0  0  0  0  0  0  0  0  0  0  0
    4.5949    6.2606    8.9943 C   0  0  0  0  0  0  0  0  0  0  0  0
    7.6188    7.7554    4.3417 C   0  0  2  0  0  0  0  0  0  0  0  0
    7.1720    9.0563    4.6864 O   0  0  0  0  0  0  0  0  0  0  0  0
   -0.7053    5.3126    9.1086 C   0  0  1  0  0  0  0  0  0  0  0  0
   -1.8941    5.3576    9.9144 O   0  0  0  0  0  0  0  0  0  0  0  0
    3.0996    6.6719    8.7758 C   0  0  2  0  0  0  0  0  0  0  0  0
    2.2655    6.1482    9.8765 N   0  0  0  0  0  0  0  0  0  0  0  0
    7.0988    7.3380    2.9117 C   0  0  1  0  0  0  0  0  0  0  0  0
    7.5622    8.3088    1.8753 N   0  0  0  0  0  0  0  0  0  0  0  0
   -0.0584    3.9073    9.1268 C   0  0  2  0  0  0  0  0  0  0  0  0
    0.2813    3.5539   10.4789 O   0  0  0  0  0  0  0  0  0  0  0  0
    2.5625    6.1178    7.4314 C   0  0  2  0  0  0  0  0  0  0  0  0
    7.6197    5.8975    2.5811 C   0  0  1  0  0  0  0  0  0  0  0  0
    9.0447    5.8978    2.5589 O   0  0  0  0  0  0  0  0  0  0  0  0
    1.2285    3.9061    8.2166 C   0  0  2  0  0  0  0  0  0  0  0  0
    0.8689    4.2895    6.8375 O   0  0  0  0  0  0  0  0  0  0  0  0
    3.4359    6.6536    6.2695 C   0  0  2  0  0  0  0  0  0  0  0  0
    2.9359    6.1177    5.0487 O   0  0  0  0  0  0  0  0  0  0  0  0
    7.1185    4.9189    3.6895 C   0  0  0  0  0  0  0  0  0  0  0  0
    7.5623    5.3704    5.0303 O   0  0  0  0  0  0  0  0  0  0  0  0
    1.9076    2.5121    8.1754 C   0  0  2  0  0  0  0  0  0  0  0  0
    1.1205    1.5791    8.9109 O   0  0  0  0  0  0  0  0  0  0  0  0
    4.9111    6.2184    6.4302 C   0  0  1  0  0  0  0  0  0  0  0  0
    5.6393    6.7700    5.3078 O   0  0  0  0  0  0  0  0  0  0  0  0
    3.2952    2.5475    8.7944 C   0  0  0  0  0  0  0  0  0  0  0  0
    7.1368    5.4129    1.2195 C   0  0  0  0  0  0  0  0  0  0  0  0
    6.6626    9.4780    1.9017 C   0  0  0  0  0  0  0  0  0  0  0  0
  1  2  1  1  0  0  0
  1  6  1  0  0  0  0
  1 23  1  0  0  0  0
  3  4  1  1  0  0  0
  3  8  1  0  0  0  0
  3 30  1  0  0  0  0
  5  9  1  0  0  0  0
  5 27  1  0  0  0  0
  5 31  1  6  0  0  0
  6  7  1  1  0  0  0
  6 11  1  0  0  0  0
  8 13  1  0  0  0  0
  9 10  1  1  0  0  0
  9 15  1  0  0  0  0
 11 12  1  1  0  0  0
 11 17  1  0  0  0  0
 13 14  1  1  0  0  0
 13 19  1  0  0  0  0
 15 16  1  6  0  0  0
 15 20  1  0  0  0  0
 16 34  1  0  0  0  0
 17 18  1  1  0  0  0
 17 22  1  0  0  0  0
 19  2  1  6  0  0  0
 19 24  1  0  0  0  0
 20 21  1  1  0  0  0
 20 26  1  0  0  0  0
 20 33  1  0  0  0  0
 22 23  1  6  0  0  0
 22 28  1  0  0  0  0
 24 25  1  6  0  0  0
 24 30  1  0  0  0  0
 26 27  1  0  0  0  0
 28 29  1  1  0  0  0
 28 32  1  0  0  0  0
 30 31  1  6  0  0  0
M  END
>  <CHROM.1>
135.64671308,-139.55777128,-81.18251277,3.89730540,52.14153405,-161.94136184
3.76983142,5.81677720,6.43213542,2.55010979,-0.39182523,2.50068137

>  <Name>
ligand

>  <RI>
0

>  <Rbt.Current_Directory>
/home/itssahil/PROJECTS/Mol_Feturizer/New_Systems/rnas/3TD1

>  <Rbt.Executable>
rbdock ($Id: //depot/dev/client3/rdock/2013.1/src/exe/rbdock.cxx#4 $)

>  <Rbt.Library>
libRbt.so (2013.1, Build901 2013/11/27)

>  <Rbt.Parameter_File>
/export/apps/rDock/src/rDock_2013.1_src/data/scripts/dock_solv.prm

>  <Rbt.Receptor>
prm/blind_docking_80.prm

>  <SCORE>
13.403

>  <SCORE.INTER>
-4.81291

>  <SCORE.INTER.CONST>
1

>  <SCORE.INTER.POLAR>
0

>  <SCORE.INTER.ROT>
6

>  <SCORE.INTER.SOLV>
22.8084

>  <SCORE.INTER.VDW>
-18.4114

>  <SCORE.INTER.norm>
-0.141556

>  <SCORE.INTRA>
5.99375

>  <SCORE.INTRA.DIHEDRAL>
-0.540427

>  <SCORE.INTRA.DIHEDRAL.0>
19.5869

>  <SCORE.INTRA.POLAR>
0

>  <SCORE.INTRA.POLAR.0>
0

>  <SCORE.INTRA.REPUL>
0

>  <SCORE.INTRA.REPUL.0>
0

>  <SCORE.INTRA.SOLV>
3.08844

>  <SCORE.INTRA.SOLV.lig_0>
-70.101

>  <SCORE.INTRA.VDW>
4.71975

>  <SCORE.INTRA.VDW.0>
-3.39718

>  <SCORE.INTRA.norm>
0.176287

>  <SCORE.RESTR>
12.2222

>  <SCORE.RESTR.CAVITY>
12.2222

>  <SCORE.RESTR.norm>
0.359476

>  <SCORE.SYSTEM>
0

>  <SCORE.SYSTEM.CONST>
0

>  <SCORE.SYSTEM.DIHEDRAL>
0

>  <SCORE.SYSTEM.SOLV>
0

>  <SCORE.SYSTEM.norm>
0

>  <SCORE.heavy>
34

>  <SCORE.norm>
0.394206

>  <RMSD>
6.550

$$$$
ligand
 OpenBabel11021811483D
libRbt.so/2013.1/901 2013/11/27
 34 36  0  0  0  0  0  0  0  0999 V2000
    9.3430    1.5879    8.3410 C   0  0  2  0  0  0  0  0  0  0  0  0
    9.9495    2.6160    7.5424 O   0  0  0  0  0  0  0  0  0  0  0  0
   12.9300    2.6727    4.4806 C   0  0  2  0  0  0  0  0  0  0  0  0
   13.7924    2.2631    3.3775 N   0  0  0  0  0  0  0  0  0  0  0  0
   11.6432    5.0718    3.3001 C   0  0  2  0  0  0  0  0  0  0  0  0
    8.1458    0.9825    7.5244 C   0  0  2  0  0  0  0  0  0  0  0  0
    8.6108    0.3904    6.2605 N   0  0  0  0  0  0  0  0  0  0  0  0
   13.0991    1.6168    5.6235 C   0  0  0  0  0  0  0  0  0  0  0  0
   10.5520    6.0085    2.6683 C   0  0  2  0  0  0  0  0  0  0  0  0
    9.2859    5.7286    3.2423 O   0  0  0  0  0  0  0  0  0  0  0  0
    7.1114    2.0920    7.2358 C   0  0  1  0  0  0  0  0  0  0  0  0
    6.0090    1.5431    6.4954 O   0  0  0  0  0  0  0  0  0  0  0  0
   12.1912    2.0682    6.8172 C   0  0  2  0  0  0  0  0  0  0  0  0
   12.3033    1.1036    7.9301 N   0  0  0  0  0  0  0  0  0  0  0  0
   10.5303    5.7775    1.1077 C   0  0  1  0  0  0  0  0  0  0  0  0
    9.4946    6.6367    0.4593 N   0  0  0  0  0  0  0  0  0  0  0  0
    6.6468    2.7026    8.5793 C   0  0  2  0  0  0  0  0  0  0  0  0
    5.6899    3.7460    8.3257 O   0  0  0  0  0  0  0  0  0  0  0  0
   10.7067    2.1612    6.3809 C   0  0  2  0  0  0  0  0  0  0  0  0
   11.9489    6.1003    0.5254 C   0  0  1  0  0  0  0  0  0  0  0  0
   12.2676    7.4671    0.7732 O   0  0  0  0  0  0  0  0  0  0  0  0
    7.8920    3.2738    9.3590 C   0  0  2  0  0  0  0  0  0  0  0  0
    8.8740    2.1976    9.5948 O   0  0  0  0  0  0  0  0  0  0  0  0
   10.5781    3.1641    5.2072 C   0  0  2  0  0  0  0  0  0  0  0  0
    9.2113    3.2190    4.8120 O   0  0  0  0  0  0  0  0  0  0  0  0
   12.9986    5.1866    1.2329 C   0  0  0  0  0  0  0  0  0  0  0  0
   12.9519    5.3719    2.7033 O   0  0  0  0  0  0  0  0  0  0  0  0
    7.4898    3.8780   10.7298 C   0  0  2  0  0  0  0  0  0  0  0  0
    6.5631    4.9414   10.5260 O   0  0  0  0  0  0  0  0  0  0  0  0
   11.4239    2.7167    3.9923 C   0  0  1  0  0  0  0  0  0  0  0  0
   11.2425    3.7149    2.9603 O   0  0  0  0  0  0  0  0  0  0  0  0
    8.6938    4.4388   11.4685 C   0  0  0  0  0  0  0  0  0  0  0  0
   12.0139    5.8767   -0.9804 C   0  0  0  0  0  0  0  0  0  0  0  0
    8.3608    5.7779    0.0668 C   0  0  0  0  0  0  0  0  0  0  0  0
  1  2  1  6  0  0  0
  1  6  1  0  0  0  0
  1 23  1  0  0  0  0
  3  4  1  6  0  0  0
  3  8  1  0  0  0  0
  3 30  1  0  0  0  0
  5  9  1  0  0  0  0
  5 27  1  0  0  0  0
  5 31  1  6  0  0  0
  6  7  1  6  0  0  0
  6 11  1  0  0  0  0
  8 13  1  0  0  0  0
  9 10  1  1  0  0  0
  9 15  1  0  0  0  0
 11 12  1  1  0  0  0
 11 17  1  0  0  0  0
 13 14  1  1  0  0  0
 13 19  1  0  0  0  0
 15 16  1  6  0  0  0
 15 20  1  0  0  0  0
 16 34  1  0  0  0  0
 17 18  1  6  0  0  0
 17 22  1  0  0  0  0
 19  2  1  1  0  0  0
 19 24  1  0  0  0  0
 20 21  1  1  0  0  0
 20 26  1  0  0  0  0
 20 33  1  0  0  0  0
 22 23  1  1  0  0  0
 22 28  1  0  0  0  0
 24 25  1  6  0  0  0
 24 30  1  0  0  0  0
 26 27  1  0  0  0  0
 28 29  1  6  0  0  0
 28 32  1  0  0  0  0
 30 31  1  6  0  0  0
M  END
>  <CHROM.1>
-71.31539919,-95.14426106,-106.20479645,-59.92774820,-56.16527429,-140.42037501
9.97896972,3.68149458,5.25649896,-2.02844020,0.42659011,-1.02651503

>  <Name>
ligand

>  <RI>
0

>  <Rbt.Current_Directory>
/home/itssahil/PROJECTS/Mol_Feturizer/New_Systems/rnas/3TD1

>  <Rbt.Executable>
rbdock ($Id: //depot/dev/client3/rdock/2013.1/src/exe/rbdock.cxx#4 $)

>  <Rbt.Library>
libRbt.so (2013.1, Build901 2013/11/27)

>  <Rbt.Parameter_File>
/export/apps/rDock/src/rDock_2013.1_src/data/scripts/dock_solv.prm

>  <Rbt.Receptor>
prm/pocket_docking_7.prm

>  <SCORE>
-10.0568

>  <SCORE.INTER>
-8.0212

>  <SCORE.INTER.CONST>
1

>  <SCORE.INTER.POLAR>
0

>  <SCORE.INTER.ROT>
6

>  <SCORE.INTER.SOLV>
14.9587

>  <SCORE.INTER.VDW>
-17.9337

>  <SCORE.INTER.norm>
-0.235918

>  <SCORE.INTRA>
-2.0356

>  <SCORE.INTRA.DIHEDRAL>
-7.90995

>  <SCORE.INTRA.DIHEDRAL.0>
19.5869

>  <SCORE.INTRA.POLAR>
0

>  <SCORE.INTRA.POLAR.0>
0

>  <SCORE.INTRA.REPUL>
0

>  <SCORE.INTRA.REPUL.0>
0

>  <SCORE.INTRA.SOLV>
2.27705

>  <SCORE.INTRA.SOLV.lig_0>
-70.101

>  <SCORE.INTRA.VDW>
0.780853

>  <SCORE.INTRA.VDW.0>
-3.39718

>  <SCORE.INTRA.norm>
-0.0598705

>  <SCORE.RESTR>
0

>  <SCORE.RESTR.CAVITY>
0

>  <SCORE.RESTR.norm>
0

>  <SCORE.SYSTEM>
0

>  <SCORE.SYSTEM.CONST>
0

>  <SCORE.SYSTEM.DIHEDRAL>
0

>  <SCORE.SYSTEM.SOLV>
0

>  <SCORE.SYSTEM.norm>
0

>  <SCORE.heavy>
34

>  <SCORE.norm>
-0.295788

>  <RMSD>
6.610

$$$$
ligand
 OpenBabel11021811483D
libRbt.so/2013.1/901 2013/11/27
 34 36  0  0  0  0  0  0  0  0999 V2000
    1.8846    6.3401    5.8519 C   0  0  2  0  0  0  0  0  0  0  0  0
    3.1069    7.0853    5.9666 O   0  0  0  0  0  0  0  0  0  0  0  0
    7.2527    6.4305    5.1631 C   0  0  2  0  0  0  0  0  0  0  0  0
    8.5429    5.7745    4.9817 N   0  0  0  0  0  0  0  0  0  0  0  0
    8.0306    5.8833    2.3680 C   0  0  2  0  0  0  0  0  0  0  0  0
    0.7463    7.1650    6.5522 C   0  0  2  0  0  0  0  0  0  0  0  0
    0.5665    8.4750    5.9074 N   0  0  0  0  0  0  0  0  0  0  0  0
    6.7327    6.0534    6.5904 C   0  0  0  0  0  0  0  0  0  0  0  0
    8.8305    7.2104    2.1112 C   0  0  2  0  0  0  0  0  0  0  0  0
    8.8770    7.9825    3.2997 O   0  0  0  0  0  0  0  0  0  0  0  0
    1.0979    7.3570    8.0434 C   0  0  1  0  0  0  0  0  0  0  0  0
    0.0564    8.1046    8.6924 O   0  0  0  0  0  0  0  0  0  0  0  0
    5.3584    6.7761    6.7951 C   0  0  2  0  0  0  0  0  0  0  0  0
    4.8112    6.4527    8.1283 N   0  0  0  0  0  0  0  0  0  0  0  0
    8.1266    8.0068    0.9451 C   0  0  1  0  0  0  0  0  0  0  0  0
    8.8424    9.2891    0.6720 N   0  0  0  0  0  0  0  0  0  0  0  0
    1.2900    5.9664    8.6938 C   0  0  2  0  0  0  0  0  0  0  0  0
    1.6289    6.1296   10.0820 O   0  0  0  0  0  0  0  0  0  0  0  0
    4.3364    6.3411    5.7139 C   0  0  2  0  0  0  0  0  0  0  0  0
    8.1023    7.1113   -0.3407 C   0  0  1  0  0  0  0  0  0  0  0  0
    9.4372    6.8139   -0.7413 O   0  0  0  0  0  0  0  0  0  0  0  0
    2.4283    5.1816    7.9368 C   0  0  2  0  0  0  0  0  0  0  0  0
    2.0771    5.0389    6.5104 O   0  0  0  0  0  0  0  0  0  0  0  0
    4.9039    6.6674    4.3098 C   0  0  2  0  0  0  0  0  0  0  0  0
    3.9577    6.2431    3.3340 O   0  0  0  0  0  0  0  0  0  0  0  0
    7.3520    5.7829   -0.0096 C   0  0  0  0  0  0  0  0  0  0  0  0
    7.9917    5.0878    1.1333 O   0  0  0  0  0  0  0  0  0  0  0  0
    2.6490    3.7657    8.5302 C   0  0  2  0  0  0  0  0  0  0  0  0
    1.3914    3.2029    8.8948 O   0  0  0  0  0  0  0  0  0  0  0  0
    6.2370    5.9253    4.0577 C   0  0  1  0  0  0  0  0  0  0  0  0
    6.6847    6.2986    2.7331 O   0  0  0  0  0  0  0  0  0  0  0  0
    3.5222    3.8101    9.7733 C   0  0  0  0  0  0  0  0  0  0  0  0
    7.4135    7.8060   -1.5089 C   0  0  0  0  0  0  0  0  0  0  0  0
    7.8653   10.3914    0.7565 C   0  0  0  0  0  0  0  0  0  0  0  0
  1  2  1  1  0  0  0
  1  6  1  0  0  0  0
  1 23  1  0  0  0  0
  3  4  1  6  0  0  0
  3  8  1  0  0  0  0
  3 30  1  0  0  0  0
  5  9  1  0  0  0  0
  5 27  1  0  0  0  0
  5 31  1  6  0  0  0
  6  7  1  6  0  0  0
  6 11  1  0  0  0  0
  8 13  1  0  0  0  0
  9 10  1  1  0  0  0
  9 15  1  0  0  0  0
 11 12  1  1  0  0  0
 11 17  1  0  0  0  0
 13 14  1  1  0  0  0
 13 19  1  0  0  0  0
 15 16  1  6  0  0  0
 15 20  1  0  0  0  0
 16 34  1  0  0  0  0
 17 18  1  1  0  0  0
 17 22  1  0  0  0  0
 19  2  1  1  0  0  0
 19 24  1  0  0  0  0
 20 21  1  6  0  0  0
 20 26  1  0  0  0  0
 20 33  1  0  0  0  0
 22 23  1  6  0  0  0
 22 28  1  0  0  0  0
 24 25  1  6  0  0  0
 24 30  1  0  0  0  0
 26 27  1  0  0  0  0
 28 29  1  1  0  0  0
 28 32  1  0  0  0  0
 30 31  1  6  0  0  0
M  END
>  <CHROM.1>
163.68642318,-137.57672402,-125.77185798,38.16223712,54.58069384,-118.00166857
5.05142628,6.52192439,4.76047541,2.37308023,-0.44954713,2.19241260

>  <Name>
ligand

>  <RI>
0

>  <Rbt.Current_Directory>
/home/itssahil/PROJECTS/Mol_Feturizer/New_Systems/rnas/3TD1

>  <Rbt.Executable>
rbdock ($Id: //depot/dev/client3/rdock/2013.1/src/exe/rbdock.cxx#4 $)

>  <Rbt.Library>
libRbt.so (2013.1, Build901 2013/11/27)

>  <Rbt.Parameter_File>
/export/apps/rDock/src/rDock_2013.1_src/data/scripts/dock_solv.prm

>  <Rbt.Receptor>
prm/blind_docking_20.prm

>  <SCORE>
18.5338

>  <SCORE.INTER>
8.42068

>  <SCORE.INTER.CONST>
1

>  <SCORE.INTER.POLAR>
0

>  <SCORE.INTER.ROT>
6

>  <SCORE.INTER.SOLV>
23.3898

>  <SCORE.INTER.VDW>
-9.78281

>  <SCORE.INTER.norm>
0.247667

>  <SCORE.INTRA>
2.26644

>  <SCORE.INTRA.DIHEDRAL>
-2.46988

>  <SCORE.INTRA.DIHEDRAL.0>
19.5869

>  <SCORE.INTRA.POLAR>
0

>  <SCORE.INTRA.POLAR.0>
0

>  <SCORE.INTRA.REPUL>
0

>  <SCORE.INTRA.REPUL.0>
0

>  <SCORE.INTRA.SOLV>
3.71986

>  <SCORE.INTRA.SOLV.lig_0>
-70.101

>  <SCORE.INTRA.VDW>
1.64145

>  <SCORE.INTRA.VDW.0>
-3.39718

>  <SCORE.INTRA.norm>
0.06666

>  <SCORE.RESTR>
7.84666

>  <SCORE.RESTR.CAVITY>
7.84666

>  <SCORE.RESTR.norm>
0.230784

>  <SCORE.SYSTEM>
0

>  <SCORE.SYSTEM.CONST>
0

>  <SCORE.SYSTEM.DIHEDRAL>
0

>  <SCORE.SYSTEM.SOLV>
0

>  <SCORE.SYSTEM.norm>
0

>  <SCORE.heavy>
34

>  <SCORE.norm>
0.545111

>  <RMSD>
6.623

$$$$
ligand
 OpenBabel11021811483D
libRbt.so/2013.1/901 2013/11/27
 34 36  0  0  0  0  0  0  0  0999 V2000
    0.5364    2.9981    9.4397 C   0  0  2  0  0  0  0  0  0  0  0  0
    0.9648    3.6664    8.2428 O   0  0  0  0  0  0  0  0  0  0  0  0
    4.5533    5.6740    7.0794 C   0  0  2  0  0  0  0  0  0  0  0  0
    5.7091    6.5640    7.0880 N   0  0  0  0  0  0  0  0  0  0  0  0
    7.1418    4.3395    8.3377 C   0  0  2  0  0  0  0  0  0  0  0  0
   -0.3084    1.7430    9.0182 C   0  0  2  0  0  0  0  0  0  0  0  0
    0.4940    0.8088    8.2134 N   0  0  0  0  0  0  0  0  0  0  0  0
    3.2811    6.5572    7.3056 C   0  0  0  0  0  0  0  0  0  0  0  0
    8.2071    3.2953    7.8457 C   0  0  2  0  0  0  0  0  0  0  0  0
    8.0914    3.1128    6.4443 O   0  0  0  0  0  0  0  0  0  0  0  0
   -1.5423    2.2047    8.2128 C   0  0  1  0  0  0  0  0  0  0  0  0
   -2.3244    1.0614    7.8305 O   0  0  0  0  0  0  0  0  0  0  0  0
    2.0376    5.6056    7.2733 C   0  0  2  0  0  0  0  0  0  0  0  0
    0.8005    6.3833    7.4883 N   0  0  0  0  0  0  0  0  0  0  0  0
    7.9759    1.9373    8.6150 C   0  0  1  0  0  0  0  0  0  0  0  0
    8.9573    0.9027    8.1701 N   0  0  0  0  0  0  0  0  0  0  0  0
   -2.3620    3.1914    9.0777 C   0  0  2  0  0  0  0  0  0  0  0  0
   -3.5101    3.6389    8.3359 O   0  0  0  0  0  0  0  0  0  0  0  0
    2.1435    4.5169    8.3717 C   0  0  2  0  0  0  0  0  0  0  0  0
    8.1149    2.1942   10.1546 C   0  0  1  0  0  0  0  0  0  0  0  0
    9.4312    2.6571   10.4451 O   0  0  0  0  0  0  0  0  0  0  0  0
   -1.4566    4.4159    9.4843 C   0  0  2  0  0  0  0  0  0  0  0  0
   -0.2729    3.9409   10.2269 O   0  0  0  0  0  0  0  0  0  0  0  0
    3.4429    3.7000    8.1615 C   0  0  2  0  0  0  0  0  0  0  0  0
    3.5278    2.7198    9.1909 O   0  0  0  0  0  0  0  0  0  0  0  0
    7.0778    3.2831   10.5745 C   0  0  0  0  0  0  0  0  0  0  0  0
    7.2721    4.5257    9.7893 O   0  0  0  0  0  0  0  0  0  0  0  0
   -2.2195    5.4295   10.3766 C   0  0  2  0  0  0  0  0  0  0  0  0
   -1.4095    6.5840   10.5824 O   0  0  0  0  0  0  0  0  0  0  0  0
    4.6937    4.6060    8.2406 C   0  0  1  0  0  0  0  0  0  0  0  0
    5.8454    3.7563    8.0268 O   0  0  0  0  0  0  0  0  0  0  0  0
   -2.5500    4.8386   11.7373 C   0  0  0  0  0  0  0  0  0  0  0  0
    7.8803    0.9283   10.9695 C   0  0  0  0  0  0  0  0  0  0  0  0
    8.3041    0.0504    7.1583 C   0  0  0  0  0  0  0  0  0  0  0  0
  1  2  1  6  0  0  0
  1  6  1  0  0  0  0
  1 23  1  0  0  0  0
  3  4  1  1  0  0  0
  3  8  1  0  0  0  0
  3 30  1  0  0  0  0
  5  9  1  0  0  0  0
  5 27  1  0  0  0  0
  5 31  1  1  0  0  0
  6  7  1  6  0  0  0
  6 11  1  0  0  0  0
  8 13  1  0  0  0  0
  9 10  1  6  0  0  0
  9 15  1  0  0  0  0
 11 12  1  1  0  0  0
 11 17  1  0  0  0  0
 13 14  1  1  0  0  0
 13 19  1  0  0  0  0
 15 16  1  6  0  0  0
 15 20  1  0  0  0  0
 16 34  1  0  0  0  0
 17 18  1  6  0  0  0
 17 22  1  0  0  0  0
 19  2  1  6  0  0  0
 19 24  1  0  0  0  0
 20 21  1  1  0  0  0
 20 26  1  0  0  0  0
 20 33  1  0  0  0  0
 22 23  1  1  0  0  0
 22 28  1  0  0  0  0
 24 25  1  1  0  0  0
 24 30  1  0  0  0  0
 26 27  1  0  0  0  0
 28 29  1  1  0  0  0
 28 32  1  0  0  0  0
 30 31  1  6  0  0  0
M  END
>  <CHROM.1>
-157.30263714,-153.45901925,-97.54008712,-173.24703423,76.66975451,-172.80431933
3.18693544,3.57078588,8.76487343,3.02155845,0.07242556,-0.13678024

>  <Name>
ligand

>  <RI>
0

>  <Rbt.Current_Directory>
/home/itssahil/PROJECTS/Mol_Feturizer/New_Systems/rnas/3TD1

>  <Rbt.Executable>
rbdock ($Id: //depot/dev/client3/rdock/2013.1/src/exe/rbdock.cxx#4 $)

>  <Rbt.Library>
libRbt.so (2013.1, Build901 2013/11/27)

>  <Rbt.Parameter_File>
/export/apps/rDock/src/rDock_2013.1_src/data/scripts/dock_solv.prm

>  <Rbt.Receptor>
prm/pocket_docking_6.prm

>  <SCORE>
-14.2282

>  <SCORE.INTER>
-8.26008

>  <SCORE.INTER.CONST>
1

>  <SCORE.INTER.POLAR>
0

>  <SCORE.INTER.ROT>
6

>  <SCORE.INTER.SOLV>
13.4557

>  <SCORE.INTER.VDW>
-17.592

>  <SCORE.INTER.norm>
-0.242943

>  <SCORE.INTRA>
-5.96815

>  <SCORE.INTRA.DIHEDRAL>
-11.784

>  <SCORE.INTRA.DIHEDRAL.0>
19.5869

>  <SCORE.INTRA.POLAR>
0

>  <SCORE.INTRA.POLAR.0>
0

>  <SCORE.INTRA.REPUL>
0

>  <SCORE.INTRA.REPUL.0>
0

>  <SCORE.INTRA.SOLV>
-0.698489

>  <SCORE.INTRA.SOLV.lig_0>
-70.101

>  <SCORE.INTRA.VDW>
0.273089

>  <SCORE.INTRA.VDW.0>
-3.39718

>  <SCORE.INTRA.norm>
-0.175534

>  <SCORE.RESTR>
0

>  <SCORE.RESTR.CAVITY>
0

>  <SCORE.RESTR.norm>
0

>  <SCORE.SYSTEM>
0

>  <SCORE.SYSTEM.CONST>
0

>  <SCORE.SYSTEM.DIHEDRAL>
0

>  <SCORE.SYSTEM.SOLV>
0

>  <SCORE.SYSTEM.norm>
0

>  <SCORE.heavy>
34

>  <SCORE.norm>
-0.418477

>  <RMSD>
6.629

$$$$
ligand
 OpenBabel11021811483D
libRbt.so/2013.1/901 2013/11/27
 34 36  0  0  0  0  0  0  0  0999 V2000
    8.7142    2.2299    8.2268 C   0  0  2  0  0  0  0  0  0  0  0  0
    9.6962    3.1222    8.7764 O   0  0  0  0  0  0  0  0  0  0  0  0
   13.5508    4.2946    7.3519 C   0  0  2  0  0  0  0  0  0  0  0  0
   14.9418    4.2441    6.9155 N   0  0  0  0  0  0  0  0  0  0  0  0
   12.0239    3.3595    3.9508 C   0  0  2  0  0  0  0  0  0  0  0  0
    7.2983    2.7138    8.7039 C   0  0  2  0  0  0  0  0  0  0  0  0
    7.0170    4.0786    8.2324 N   0  0  0  0  0  0  0  0  0  0  0  0
   13.4820    3.6401    8.7720 C   0  0  0  0  0  0  0  0  0  0  0  0
   12.8796    3.6419    2.6643 C   0  0  2  0  0  0  0  0  0  0  0  0
   14.2018    3.1645    2.8509 O   0  0  0  0  0  0  0  0  0  0  0  0
    7.2352    2.6669   10.2460 C   0  0  1  0  0  0  0  0  0  0  0  0
    5.9392    3.1011   10.6893 O   0  0  0  0  0  0  0  0  0  0  0  0
   11.9928    3.7149    9.2513 C   0  0  2  0  0  0  0  0  0  0  0  0
   11.8616    3.1043   10.5898 N   0  0  0  0  0  0  0  0  0  0  0  0
   12.8720    5.1944    2.3833 C   0  0  1  0  0  0  0  0  0  0  0  0
   13.6879    5.5180    1.1746 N   0  0  0  0  0  0  0  0  0  0  0  0
    7.5432    1.2249   10.7143 C   0  0  2  0  0  0  0  0  0  0  0  0
    7.4986    1.1680   12.1508 O   0  0  0  0  0  0  0  0  0  0  0  0
   11.0549    2.9714    8.2662 C   0  0  2  0  0  0  0  0  0  0  0  0
   11.3917    5.6686    2.1849 C   0  0  1  0  0  0  0  0  0  0  0  0
   10.8241    5.0051    1.0585 O   0  0  0  0  0  0  0  0  0  0  0  0
    8.9646    0.7909   10.1891 C   0  0  2  0  0  0  0  0  0  0  0  0
    9.0025    0.8730    8.7160 O   0  0  0  0  0  0  0  0  0  0  0  0
   11.1909    3.5977    6.8558 C   0  0  2  0  0  0  0  0  0  0  0  0
   10.3356    2.8881    5.9657 O   0  0  0  0  0  0  0  0  0  0  0  0
   10.5757    5.3065    3.4657 C   0  0  0  0  0  0  0  0  0  0  0  0
   10.6550    3.8529    3.7469 O   0  0  0  0  0  0  0  0  0  0  0  0
    9.3185   -0.6602   10.6074 C   0  0  2  0  0  0  0  0  0  0  0  0
   10.6496   -0.9611   10.1963 O   0  0  0  0  0  0  0  0  0  0  0  0
   12.6423    3.4916    6.3328 C   0  0  1  0  0  0  0  0  0  0  0  0
   12.6655    4.1057    5.0226 O   0  0  0  0  0  0  0  0  0  0  0  0
    8.3868   -1.6717    9.9604 C   0  0  0  0  0  0  0  0  0  0  0  0
   11.3003    7.1684    1.9317 C   0  0  0  0  0  0  0  0  0  0  0  0
   14.9134    6.2111    1.6158 C   0  0  0  0  0  0  0  0  0  0  0  0
  1  2  1  1  0  0  0
  1  6  1  0  0  0  0
  1 23  1  0  0  0  0
  3  4  1  6  0  0  0
  3  8  1  0  0  0  0
  3 30  1  0  0  0  0
  5  9  1  0  0  0  0
  5 27  1  0  0  0  0
  5 31  1  1  0  0  0
  6  7  1  1  0  0  0
  6 11  1  0  0  0  0
  8 13  1  0  0  0  0
  9 10  1  1  0  0  0
  9 15  1  0  0  0  0
 11 12  1  6  0  0  0
 11 17  1  0  0  0  0
 13 14  1  1  0  0  0
 13 19  1  0  0  0  0
 15 16  1  6  0  0  0
 15 20  1  0  0  0  0
 16 34  1  0  0  0  0
 17 18  1  1  0  0  0
 17 22  1  0  0  0  0
 19  2  1  1  0  0  0
 19 24  1  0  0  0  0
 20 21  1  6  0  0  0
 20 26  1  0  0  0  0
 20 33  1  0  0  0  0
 22 23  1  6  0  0  0
 22 28  1  0  0  0  0
 24 25  1  6  0  0  0
 24 30  1  0  0  0  0
 26 27  1  0  0  0  0
 28 29  1  6  0  0  0
 28 32  1  0  0  0  0
 30 31  1  6  0  0  0
M  END
>  <CHROM.1>
-170.13748723,-164.16908553,-109.32188600,-175.54692494,171.61502014,-144.94589528
10.75757084,3.18291919,6.74591775,2.04143644,-0.06034149,2.06280664

>  <Name>
ligand

>  <RI>
0

>  <Rbt.Current_Directory>
/home/itssahil/PROJECTS/Mol_Feturizer/New_Systems/rnas/3TD1

>  <Rbt.Executable>
rbdock ($Id: //depot/dev/client3/rdock/2013.1/src/exe/rbdock.cxx#4 $)

>  <Rbt.Library>
libRbt.so (2013.1, Build901 2013/11/27)

>  <Rbt.Parameter_File>
/export/apps/rDock/src/rDock_2013.1_src/data/scripts/dock_solv.prm

>  <Rbt.Receptor>
prm/pocket_docking_7.prm

>  <SCORE>
-12.4461

>  <SCORE.INTER>
-7.08759

>  <SCORE.INTER.CONST>
1

>  <SCORE.INTER.POLAR>
0

>  <SCORE.INTER.ROT>
6

>  <SCORE.INTER.SOLV>
14.4312

>  <SCORE.INTER.VDW>
-17.1355

>  <SCORE.INTER.norm>
-0.208458

>  <SCORE.INTRA>
-5.35855

>  <SCORE.INTRA.DIHEDRAL>
-11.8287

>  <SCORE.INTRA.DIHEDRAL.0>
19.5869

>  <SCORE.INTRA.POLAR>
0

>  <SCORE.INTRA.POLAR.0>
0

>  <SCORE.INTRA.REPUL>
0

>  <SCORE.INTRA.REPUL.0>
0

>  <SCORE.INTRA.SOLV>
-2.93963

>  <SCORE.INTRA.SOLV.lig_0>
-70.101

>  <SCORE.INTRA.VDW>
2.0256

>  <SCORE.INTRA.VDW.0>
-3.39718

>  <SCORE.INTRA.norm>
-0.157604

>  <SCORE.RESTR>
0

>  <SCORE.RESTR.CAVITY>
0

>  <SCORE.RESTR.norm>
0

>  <SCORE.SYSTEM>
0

>  <SCORE.SYSTEM.CONST>
0

>  <SCORE.SYSTEM.DIHEDRAL>
0

>  <SCORE.SYSTEM.SOLV>
0

>  <SCORE.SYSTEM.norm>
0

>  <SCORE.heavy>
34

>  <SCORE.norm>
-0.366063

>  <RMSD>
6.692

$$$$
ligand
 OpenBabel11021811483D
libRbt.so/2013.1/901 2013/11/27
 34 36  0  0  0  0  0  0  0  0999 V2000
    8.6405    3.5112    8.0874 C   0  0  2  0  0  0  0  0  0  0  0  0
    8.1497    3.0045    9.3383 O   0  0  0  0  0  0  0  0  0  0  0  0
    8.7648    4.7556   13.1876 C   0  0  2  0  0  0  0  0  0  0  0  0
    9.3840    5.1509   14.4479 N   0  0  0  0  0  0  0  0  0  0  0  0
   10.2585    7.6204   11.1080 C   0  0  2  0  0  0  0  0  0  0  0  0
    7.6294    3.0880    6.9626 C   0  0  2  0  0  0  0  0  0  0  0  0
    6.2928    3.6501    7.2114 N   0  0  0  0  0  0  0  0  0  0  0  0
    8.8616    3.1967   13.0876 C   0  0  0  0  0  0  0  0  0  0  0  0
   11.6490    7.7812   11.8206 C   0  0  2  0  0  0  0  0  0  0  0  0
   12.2212    6.5049   12.0539 O   0  0  0  0  0  0  0  0  0  0  0  0
    7.5485    1.5472    6.9015 C   0  0  1  0  0  0  0  0  0  0  0  0
    6.6306    1.1528    5.8687 O   0  0  0  0  0  0  0  0  0  0  0  0
    8.1763    2.7693   11.7457 C   0  0  2  0  0  0  0  0  0  0  0  0
    8.2412    1.3020   11.5902 N   0  0  0  0  0  0  0  0  0  0  0  0
   11.4353    8.5626   13.1745 C   0  0  1  0  0  0  0  0  0  0  0  0
   12.7302    8.7284   13.9006 N   0  0  0  0  0  0  0  0  0  0  0  0
    8.9666    0.9829    6.6484 C   0  0  2  0  0  0  0  0  0  0  0  0
    8.9089   -0.4533    6.5996 O   0  0  0  0  0  0  0  0  0  0  0  0
    8.8726    3.4342   10.5308 C   0  0  2  0  0  0  0  0  0  0  0  0
   10.8033    9.9618   12.8606 C   0  0  1  0  0  0  0  0  0  0  0  0
   11.6936   10.7157   12.0421 O   0  0  0  0  0  0  0  0  0  0  0  0
    9.9369    1.4572    7.7965 C   0  0  2  0  0  0  0  0  0  0  0  0
    9.9712    2.9317    7.8482 O   0  0  0  0  0  0  0  0  0  0  0  0
    8.8186    4.9745   10.6876 C   0  0  2  0  0  0  0  0  0  0  0  0
    9.4790    5.5623    9.5715 O   0  0  0  0  0  0  0  0  0  0  0  0
    9.4585    9.7423   12.0986 C   0  0  0  0  0  0  0  0  0  0  0  0
    9.6755    8.9473   10.8660 O   0  0  0  0  0  0  0  0  0  0  0  0
   11.3840    0.9415    7.5820 C   0  0  2  0  0  0  0  0  0  0  0  0
   12.1939    1.3265    8.6897 O   0  0  0  0  0  0  0  0  0  0  0  0
    9.5345    5.4320   11.9798 C   0  0  1  0  0  0  0  0  0  0  0  0
    9.4236    6.8737   12.0367 O   0  0  0  0  0  0  0  0  0  0  0  0
   12.0038    1.5230    6.3220 C   0  0  0  0  0  0  0  0  0  0  0  0
   10.5438   10.7695   14.1263 C   0  0  0  0  0  0  0  0  0  0  0  0
   12.7561    7.7724   15.0242 C   0  0  0  0  0  0  0  0  0  0  0  0
  1  2  1  1  0  0  0
  1  6  1  0  0  0  0
  1 23  1  0  0  0  0
  3  4  1  1  0  0  0
  3  8  1  0  0  0  0
  3 30  1  0  0  0  0
  5  9  1  0  0  0  0
  5 27  1  0  0  0  0
  5 31  1  1  0  0  0
  6  7  1  1  0  0  0
  6 11  1  0  0  0  0
  8 13  1  0  0  0  0
  9 10  1  1  0  0  0
  9 15  1  0  0  0  0
 11 12  1  6  0  0  0
 11 17  1  0  0  0  0
 13 14  1  6  0  0  0
 13 19  1  0  0  0  0
 15 16  1  6  0  0  0
 15 20  1  0  0  0  0
 16 34  1  0  0  0  0
 17 18  1  1  0  0  0
 17 22  1  0  0  0  0
 19  2  1  6  0  0  0
 19 24  1  0  0  0  0
 20 21  1  6  0  0  0
 20 26  1  0  0  0  0
 20 33  1  0  0  0  0
 22 23  1  6  0  0  0
 22 28  1  0  0  0  0
 24 25  1  6  0  0  0
 24 30  1  0  0  0  0
 26 27  1  0  0  0  0
 28 29  1  1  0  0  0
 28 32  1  0  0  0  0
 30 31  1  1  0  0  0
M  END
>  <CHROM.1>
-172.86469595,-179.85844447,-104.28459107,-176.28100177,170.66249896,-85.49888426
9.75857049,4.86465120,10.38246738,2.24303703,1.19942259,-3.11833494

>  <Name>
ligand

>  <RI>
0

>  <Rbt.Current_Directory>
/home/itssahil/PROJECTS/Mol_Feturizer/New_Systems/rnas/3TD1

>  <Rbt.Executable>
rbdock ($Id: //depot/dev/client3/rdock/2013.1/src/exe/rbdock.cxx#4 $)

>  <Rbt.Library>
libRbt.so (2013.1, Build901 2013/11/27)

>  <Rbt.Parameter_File>
/export/apps/rDock/src/rDock_2013.1_src/data/scripts/dock_solv.prm

>  <Rbt.Receptor>
prm/pocket_docking_8.prm

>  <SCORE>
-9.25618

>  <SCORE.INTER>
-2.65759

>  <SCORE.INTER.CONST>
1

>  <SCORE.INTER.POLAR>
0

>  <SCORE.INTER.ROT>
6

>  <SCORE.INTER.SOLV>
11.8206

>  <SCORE.INTER.VDW>
-13.3119

>  <SCORE.INTER.norm>
-0.0781645

>  <SCORE.INTRA>
-6.59858

>  <SCORE.INTRA.DIHEDRAL>
-15.0368

>  <SCORE.INTRA.DIHEDRAL.0>
19.5869

>  <SCORE.INTRA.POLAR>
0

>  <SCORE.INTRA.POLAR.0>
0

>  <SCORE.INTRA.REPUL>
0

>  <SCORE.INTRA.REPUL.0>
0

>  <SCORE.INTRA.SOLV>
-2.55317

>  <SCORE.INTRA.SOLV.lig_0>
-70.101

>  <SCORE.INTRA.VDW>
2.19639

>  <SCORE.INTRA.VDW.0>
-3.39718

>  <SCORE.INTRA.norm>
-0.194076

>  <SCORE.RESTR>
0

>  <SCORE.RESTR.CAVITY>
0

>  <SCORE.RESTR.norm>
0

>  <SCORE.SYSTEM>
0

>  <SCORE.SYSTEM.CONST>
0

>  <SCORE.SYSTEM.DIHEDRAL>
0

>  <SCORE.SYSTEM.SOLV>
0

>  <SCORE.SYSTEM.norm>
0

>  <SCORE.heavy>
34

>  <SCORE.norm>
-0.27224

>  <RMSD>
6.774

$$$$
ligand
 OpenBabel11021811483D
libRbt.so/2013.1/901 2013/11/27
 34 36  0  0  0  0  0  0  0  0999 V2000
    8.3597    1.5308    7.2936 C   0  0  2  0  0  0  0  0  0  0  0  0
    9.6400    2.1793    7.3472 O   0  0  0  0  0  0  0  0  0  0  0  0
   12.9332    2.7050    4.6751 C   0  0  2  0  0  0  0  0  0  0  0  0
   13.9424    2.4534    3.6522 N   0  0  0  0  0  0  0  0  0  0  0  0
   11.2206    5.1092    3.6042 C   0  0  2  0  0  0  0  0  0  0  0  0
    7.3644    2.3477    8.1927 C   0  0  2  0  0  0  0  0  0  0  0  0
    7.2188    3.7280    7.7049 N   0  0  0  0  0  0  0  0  0  0  0  0
   13.0514    1.5638    5.7397 C   0  0  0  0  0  0  0  0  0  0  0  0
   10.9306    6.0440    2.3757 C   0  0  2  0  0  0  0  0  0  0  0  0
    9.7145    5.6607    1.7552 O   0  0  0  0  0  0  0  0  0  0  0  0
    7.8801    2.3563    9.6482 C   0  0  1  0  0  0  0  0  0  0  0  0
    6.9697    3.0957   10.4783 O   0  0  0  0  0  0  0  0  0  0  0  0
   11.9838    1.8460    6.8503 C   0  0  2  0  0  0  0  0  0  0  0  0
   12.0421    0.7944    7.8859 N   0  0  0  0  0  0  0  0  0  0  0  0
   12.1389    5.9410    1.3663 C   0  0  1  0  0  0  0  0  0  0  0  0
   11.9037    6.8025    0.1689 N   0  0  0  0  0  0  0  0  0  0  0  0
    8.0324    0.8947   10.1321 C   0  0  2  0  0  0  0  0  0  0  0  0
    8.5227    0.8865   11.4842 O   0  0  0  0  0  0  0  0  0  0  0  0
   10.5550    1.8811    6.2503 C   0  0  2  0  0  0  0  0  0  0  0  0
   13.4538    6.3747    2.1002 C   0  0  1  0  0  0  0  0  0  0  0  0
   13.3385    7.7296    2.5267 O   0  0  0  0  0  0  0  0  0  0  0  0
    9.0249    0.1237    9.1808 C   0  0  2  0  0  0  0  0  0  0  0  0
    8.5200    0.1571    7.7944 O   0  0  0  0  0  0  0  0  0  0  0  0
   10.4843    2.9751    5.1557 C   0  0  2  0  0  0  0  0  0  0  0  0
    9.1703    2.9764    4.6072 O   0  0  0  0  0  0  0  0  0  0  0  0
   13.6572    5.4546    3.3450 C   0  0  0  0  0  0  0  0  0  0  0  0
   12.4793    5.5164    4.2435 O   0  0  0  0  0  0  0  0  0  0  0  0
    9.1978   -1.3589    9.6028 C   0  0  2  0  0  0  0  0  0  0  0  0
    7.9328   -1.8946    9.9823 O   0  0  0  0  0  0  0  0  0  0  0  0
   11.4925    2.6948    4.0171 C   0  0  1  0  0  0  0  0  0  0  0  0
   11.3540    3.7679    3.0561 O   0  0  0  0  0  0  0  0  0  0  0  0
   10.1409   -1.4970   10.7865 C   0  0  0  0  0  0  0  0  0  0  0  0
   14.6740    6.2785    1.1927 C   0  0  0  0  0  0  0  0  0  0  0  0
   11.3822    5.9516   -0.9179 C   0  0  0  0  0  0  0  0  0  0  0  0
  1  2  1  1  0  0  0
  1  6  1  0  0  0  0
  1 23  1  0  0  0  0
  3  4  1  6  0  0  0
  3  8  1  0  0  0  0
  3 30  1  0  0  0  0
  5  9  1  0  0  0  0
  5 27  1  0  0  0  0
  5 31  1  6  0  0  0
  6  7  1  6  0  0  0
  6 11  1  0  0  0  0
  8 13  1  0  0  0  0
  9 10  1  6  0  0  0
  9 15  1  0  0  0  0
 11 12  1  1  0  0  0
 11 17  1  0  0  0  0
 13 14  1  1  0  0  0
 13 19  1  0  0  0  0
 15 16  1  6  0  0  0
 15 20  1  0  0  0  0
 16 34  1  0  0  0  0
 17 18  1  1  0  0  0
 17 22  1  0  0  0  0
 19  2  1  1  0  0  0
 19 24  1  0  0  0  0
 20 21  1  1  0  0  0
 20 26  1  0  0  0  0
 20 33  1  0  0  0  0
 22 23  1  6  0  0  0
 22 28  1  0  0  0  0
 24 25  1  6  0  0  0
 24 30  1  0  0  0  0
 26 27  1  0  0  0  0
 28 29  1  1  0  0  0
 28 32  1  0  0  0  0
 30 31  1  6  0  0  0
M  END
>  <CHROM.1>
-159.12243239,-144.29564648,-98.22309574,41.01869439,-73.52729289,-173.94662709
10.58612770,3.03522600,5.69520789,1.99377783,-0.39674288,2.34571693

>  <Name>
ligand

>  <RI>
0

>  <Rbt.Current_Directory>
/home/itssahil/PROJECTS/Mol_Feturizer/New_Systems/rnas/3TD1

>  <Rbt.Executable>
rbdock ($Id: //depot/dev/client3/rdock/2013.1/src/exe/rbdock.cxx#4 $)

>  <Rbt.Library>
libRbt.so (2013.1, Build901 2013/11/27)

>  <Rbt.Parameter_File>
/export/apps/rDock/src/rDock_2013.1_src/data/scripts/dock_solv.prm

>  <Rbt.Receptor>
prm/pocket_docking_7.prm

>  <SCORE>
-12.0785

>  <SCORE.INTER>
-9.42536

>  <SCORE.INTER.CONST>
1

>  <SCORE.INTER.POLAR>
0

>  <SCORE.INTER.ROT>
6

>  <SCORE.INTER.SOLV>
13.383

>  <SCORE.INTER.VDW>
-18.3446

>  <SCORE.INTER.norm>
-0.277217

>  <SCORE.INTRA>
-2.65312

>  <SCORE.INTRA.DIHEDRAL>
-9.82031

>  <SCORE.INTRA.DIHEDRAL.0>
19.5869

>  <SCORE.INTRA.POLAR>
0

>  <SCORE.INTRA.POLAR.0>
0

>  <SCORE.INTRA.REPUL>
0

>  <SCORE.INTRA.REPUL.0>
0

>  <SCORE.INTRA.SOLV>
1.28816

>  <SCORE.INTRA.SOLV.lig_0>
-70.101

>  <SCORE.INTRA.VDW>
1.61295

>  <SCORE.INTRA.VDW.0>
-3.39718

>  <SCORE.INTRA.norm>
-0.0780331

>  <SCORE.RESTR>
0

>  <SCORE.RESTR.CAVITY>
0

>  <SCORE.RESTR.norm>
0

>  <SCORE.SYSTEM>
0

>  <SCORE.SYSTEM.CONST>
0

>  <SCORE.SYSTEM.DIHEDRAL>
0

>  <SCORE.SYSTEM.SOLV>
0

>  <SCORE.SYSTEM.norm>
0

>  <SCORE.heavy>
34

>  <SCORE.norm>
-0.35525

>  <RMSD>
6.827

$$$$
ligand
 OpenBabel11021811483D
libRbt.so/2013.1/901 2013/11/27
 34 36  0  0  0  0  0  0  0  0999 V2000
    0.3347    4.0394    8.4647 C   0  0  2  0  0  0  0  0  0  0  0  0
    1.6495    3.5713    8.1261 O   0  0  0  0  0  0  0  0  0  0  0  0
    5.4015    5.2159    9.3424 C   0  0  2  0  0  0  0  0  0  0  0  0
    6.4904    5.7211   10.1715 N   0  0  0  0  0  0  0  0  0  0  0  0
    7.5834    3.1975    9.9748 C   0  0  2  0  0  0  0  0  0  0  0  0
   -0.6018    2.7877    8.6151 C   0  0  2  0  0  0  0  0  0  0  0  0
   -0.1260    1.8938    9.6824 N   0  0  0  0  0  0  0  0  0  0  0  0
    4.1123    6.0170    9.7243 C   0  0  0  0  0  0  0  0  0  0  0  0
    8.7549    2.6476    9.0846 C   0  0  2  0  0  0  0  0  0  0  0  0
    8.7768    3.3300    7.8418 O   0  0  0  0  0  0  0  0  0  0  0  0
   -0.6533    2.0240    7.2740 C   0  0  1  0  0  0  0  0  0  0  0  0
   -1.5151    0.8814    7.4022 O   0  0  0  0  0  0  0  0  0  0  0  0
    2.9479    5.4913    8.8183 C   0  0  2  0  0  0  0  0  0  0  0  0
    1.6965    6.2082    9.1373 N   0  0  0  0  0  0  0  0  0  0  0  0
    8.5462    1.0975    8.8764 C   0  0  1  0  0  0  0  0  0  0  0  0
    9.6295    0.5275    8.0202 N   0  0  0  0  0  0  0  0  0  0  0  0
   -1.1474    2.9883    6.1696 C   0  0  2  0  0  0  0  0  0  0  0  0
   -1.1903    2.2933    4.9111 O   0  0  0  0  0  0  0  0  0  0  0  0
    2.7237    3.9720    9.0287 C   0  0  2  0  0  0  0  0  0  0  0  0
    8.5303    0.3934   10.2762 C   0  0  1  0  0  0  0  0  0  0  0  0
    9.7820    0.5951   10.9271 O   0  0  0  0  0  0  0  0  0  0  0  0
   -0.1806    4.2302    6.0810 C   0  0  2  0  0  0  0  0  0  0  0  0
   -0.1306    4.9219    7.3838 O   0  0  0  0  0  0  0  0  0  0  0  0
    4.0333    3.2101    8.7056 C   0  0  2  0  0  0  0  0  0  0  0  0
    3.8092    1.8209    8.9232 O   0  0  0  0  0  0  0  0  0  0  0  0
    7.3903    1.0219   11.1381 C   0  0  0  0  0  0  0  0  0  0  0  0
    7.5713    2.4883   11.2617 O   0  0  0  0  0  0  0  0  0  0  0  0
   -0.6414    5.2474    5.0045 C   0  0  2  0  0  0  0  0  0  0  0  0
   -0.7937    4.5792    3.7549 O   0  0  0  0  0  0  0  0  0  0  0  0
    5.1908    3.6711    9.6216 C   0  0  1  0  0  0  0  0  0  0  0  0
    6.3612    2.9108    9.2390 O   0  0  0  0  0  0  0  0  0  0  0  0
    0.3728    6.3641    4.8198 C   0  0  0  0  0  0  0  0  0  0  0  0
    8.3080   -1.1095   10.1583 C   0  0  0  0  0  0  0  0  0  0  0  0
    9.0361    0.1246    6.7308 C   0  0  0  0  0  0  0  0  0  0  0  0
  1  2  1  6  0  0  0
  1  6  1  0  0  0  0
  1 23  1  0  0  0  0
  3  4  1  1  0  0  0
  3  8  1  0  0  0  0
  3 30  1  0  0  0  0
  5  9  1  0  0  0  0
  5 27  1  0  0  0  0
  5 31  1  6  0  0  0
  6  7  1  1  0  0  0
  6 11  1  0  0  0  0
  8 13  1  0  0  0  0
  9 10  1  6  0  0  0
  9 15  1  0  0  0  0
 11 12  1  1  0  0  0
 11 17  1  0  0  0  0
 13 14  1  1  0  0  0
 13 19  1  0  0  0  0
 15 16  1  6  0  0  0
 15 20  1  0  0  0  0
 16 34  1  0  0  0  0
 17 18  1  6  0  0  0
 17 22  1  0  0  0  0
 19  2  1  6  0  0  0
 19 24  1  0  0  0  0
 20 21  1  1  0  0  0
 20 26  1  0  0  0  0
 20 33  1  0  0  0  0
 22 23  1  1  0  0  0
 22 28  1  0  0  0  0
 24 25  1  1  0  0  0
 24 30  1  0  0  0  0
 26 27  1  0  0  0  0
 28 29  1  6  0  0  0
 28 32  1  0  0  0  0
 30 31  1  6  0  0  0
M  END
>  <CHROM.1>
-122.81382368,-70.77815976,-111.51602431,-54.33983477,63.54310064,-161.16532808
3.88382422,3.04516114,8.34642595,-2.95361620,0.36721790,-2.98609993

>  <Name>
ligand

>  <RI>
0

>  <Rbt.Current_Directory>
/home/itssahil/PROJECTS/Mol_Feturizer/New_Systems/rnas/3TD1

>  <Rbt.Executable>
rbdock ($Id: //depot/dev/client3/rdock/2013.1/src/exe/rbdock.cxx#4 $)

>  <Rbt.Library>
libRbt.so (2013.1, Build901 2013/11/27)

>  <Rbt.Parameter_File>
/export/apps/rDock/src/rDock_2013.1_src/data/scripts/dock_solv.prm

>  <Rbt.Receptor>
prm/pocket_docking_6.prm

>  <SCORE>
-16.8619

>  <SCORE.INTER>
-14.3832

>  <SCORE.INTER.CONST>
1

>  <SCORE.INTER.POLAR>
0

>  <SCORE.INTER.ROT>
6

>  <SCORE.INTER.SOLV>
14.9775

>  <SCORE.INTER.VDW>
-22.1813

>  <SCORE.INTER.norm>
-0.423035

>  <SCORE.INTRA>
-2.48659

>  <SCORE.INTRA.DIHEDRAL>
-8.86177

>  <SCORE.INTRA.DIHEDRAL.0>
19.5869

>  <SCORE.INTRA.POLAR>
0

>  <SCORE.INTRA.POLAR.0>
0

>  <SCORE.INTRA.REPUL>
0

>  <SCORE.INTRA.REPUL.0>
0

>  <SCORE.INTRA.SOLV>
0.60999

>  <SCORE.INTRA.SOLV.lig_0>
-70.101

>  <SCORE.INTRA.VDW>
1.6393

>  <SCORE.INTRA.VDW.0>
-3.39718

>  <SCORE.INTRA.norm>
-0.0731351

>  <SCORE.RESTR>
0.00791073

>  <SCORE.RESTR.CAVITY>
0.00791073

>  <SCORE.RESTR.norm>
0.000232669

>  <SCORE.SYSTEM>
0

>  <SCORE.SYSTEM.CONST>
0

>  <SCORE.SYSTEM.DIHEDRAL>
0

>  <SCORE.SYSTEM.SOLV>
0

>  <SCORE.SYSTEM.norm>
0

>  <SCORE.heavy>
34

>  <SCORE.norm>
-0.495938

>  <RMSD>
6.889

$$$$
ligand
 OpenBabel11021811483D
libRbt.so/2013.1/901 2013/11/27
 34 36  0  0  0  0  0  0  0  0999 V2000
    9.9796    5.8607   10.7182 C   0  0  2  0  0  0  0  0  0  0  0  0
   11.1809    5.1794   10.3244 O   0  0  0  0  0  0  0  0  0  0  0  0
   12.1875    3.3732    6.5845 C   0  0  2  0  0  0  0  0  0  0  0  0
   12.1978    2.4690    5.4399 N   0  0  0  0  0  0  0  0  0  0  0  0
   10.1836    4.3279    4.2605 C   0  0  2  0  0  0  0  0  0  0  0  0
   10.3373    6.8294   11.9015 C   0  0  2  0  0  0  0  0  0  0  0  0
   11.3358    7.8273   11.4875 N   0  0  0  0  0  0  0  0  0  0  0  0
   12.3684    2.5010    7.8714 C   0  0  0  0  0  0  0  0  0  0  0  0
   10.3333    5.3885    3.1116 C   0  0  2  0  0  0  0  0  0  0  0  0
   11.6961    5.7531    2.9672 O   0  0  0  0  0  0  0  0  0  0  0  0
   10.8790    6.0057   13.0901 C   0  0  1  0  0  0  0  0  0  0  0  0
   11.2010    6.8853   14.1797 O   0  0  0  0  0  0  0  0  0  0  0  0
   12.3808    3.4733    9.0992 C   0  0  2  0  0  0  0  0  0  0  0  0
   12.5433    2.7052   10.3503 N   0  0  0  0  0  0  0  0  0  0  0  0
    9.4450    6.6439    3.4641 C   0  0  1  0  0  0  0  0  0  0  0  0
    9.5653    7.6918    2.4064 N   0  0  0  0  0  0  0  0  0  0  0  0
    9.8146    4.9599   13.4985 C   0  0  2  0  0  0  0  0  0  0  0  0
   10.3097    4.1771   14.5988 O   0  0  0  0  0  0  0  0  0  0  0  0
   11.0632    4.2861    9.1766 C   0  0  2  0  0  0  0  0  0  0  0  0
    7.9534    6.1869    3.6117 C   0  0  1  0  0  0  0  0  0  0  0  0
    7.4951    5.6446    2.3760 O   0  0  0  0  0  0  0  0  0  0  0  0
    9.4843    4.0331   12.2669 C   0  0  2  0  0  0  0  0  0  0  0  0
    8.9965    4.8509   11.1394 O   0  0  0  0  0  0  0  0  0  0  0  0
   10.8774    5.0893    7.8650 C   0  0  2  0  0  0  0  0  0  0  0  0
    9.6538    5.8123    7.9514 O   0  0  0  0  0  0  0  0  0  0  0  0
    7.8747    5.0903    4.7202 C   0  0  0  0  0  0  0  0  0  0  0  0
    8.7698    3.9526    4.3997 O   0  0  0  0  0  0  0  0  0  0  0  0
    8.4009    2.9776   12.6103 C   0  0  2  0  0  0  0  0  0  0  0  0
    8.8572    2.1622   13.6865 O   0  0  0  0  0  0  0  0  0  0  0  0
   10.8087    4.1508    6.6378 C   0  0  1  0  0  0  0  0  0  0  0  0
   10.6422    4.9914    5.4716 O   0  0  0  0  0  0  0  0  0  0  0  0
    8.1076    2.0716   11.4258 C   0  0  0  0  0  0  0  0  0  0  0  0
    7.0334    7.3453    3.9771 C   0  0  0  0  0  0  0  0  0  0  0  0
   10.6112    8.6473    2.8189 C   0  0  0  0  0  0  0  0  0  0  0  0
  1  2  1  1  0  0  0
  1  6  1  0  0  0  0
  1 23  1  0  0  0  0
  3  4  1  6  0  0  0
  3  8  1  0  0  0  0
  3 30  1  0  0  0  0
  5  9  1  0  0  0  0
  5 27  1  0  0  0  0
  5 31  1  1  0  0  0
  6  7  1  6  0  0  0
  6 11  1  0  0  0  0
  8 13  1  0  0  0  0
  9 10  1  1  0  0  0
  9 15  1  0  0  0  0
 11 12  1  1  0  0  0
 11 17  1  0  0  0  0
 13 14  1  1  0  0  0
 13 19  1  0  0  0  0
 15 16  1  6  0  0  0
 15 20  1  0  0  0  0
 16 34  1  0  0  0  0
 17 18  1  1  0  0  0
 17 22  1  0  0  0  0
 19  2  1  1  0  0  0
 19 24  1  0  0  0  0
 20 21  1  6  0  0  0
 20 26  1  0  0  0  0
 20 33  1  0  0  0  0
 22 23  1  6  0  0  0
 22 28  1  0  0  0  0
 24 25  1  1  0  0  0
 24 30  1  0  0  0  0
 26 27  1  0  0  0  0
 28 29  1  1  0  0  0
 28 32  1  0  0  0  0
 30 31  1  6  0  0  0
M  END
>  <CHROM.1>
-176.54412378,-169.64078396,-94.35993907,-59.41799355,80.66693088,-170.22972881
10.11423829,4.98539209,8.11090864,1.39355503,-1.17285628,1.55979714

>  <Name>
ligand

>  <RI>
0

>  <Rbt.Current_Directory>
/home/itssahil/PROJECTS/Mol_Feturizer/New_Systems/rnas/3TD1

>  <Rbt.Executable>
rbdock ($Id: //depot/dev/client3/rdock/2013.1/src/exe/rbdock.cxx#4 $)

>  <Rbt.Library>
libRbt.so (2013.1, Build901 2013/11/27)

>  <Rbt.Parameter_File>
/export/apps/rDock/src/rDock_2013.1_src/data/scripts/dock_solv.prm

>  <Rbt.Receptor>
prm/pocket_docking_6.prm

>  <SCORE>
-7.55183

>  <SCORE.INTER>
0.984344

>  <SCORE.INTER.CONST>
1

>  <SCORE.INTER.POLAR>
0

>  <SCORE.INTER.ROT>
6

>  <SCORE.INTER.SOLV>
5.7697

>  <SCORE.INTER.VDW>
-8.867

>  <SCORE.INTER.norm>
0.0289513

>  <SCORE.INTRA>
-8.54365

>  <SCORE.INTRA.DIHEDRAL>
-15.8597

>  <SCORE.INTRA.DIHEDRAL.0>
19.5869

>  <SCORE.INTRA.POLAR>
0

>  <SCORE.INTRA.POLAR.0>
0

>  <SCORE.INTRA.REPUL>
0

>  <SCORE.INTRA.REPUL.0>
0

>  <SCORE.INTRA.SOLV>
-1.98337

>  <SCORE.INTRA.SOLV.lig_0>
-70.101

>  <SCORE.INTRA.VDW>
0.377911

>  <SCORE.INTRA.VDW.0>
-3.39718

>  <SCORE.INTRA.norm>
-0.251284

>  <SCORE.RESTR>
0.00747608

>  <SCORE.RESTR.CAVITY>
0.00747608

>  <SCORE.RESTR.norm>
0.000219885

>  <SCORE.SYSTEM>
0

>  <SCORE.SYSTEM.CONST>
0

>  <SCORE.SYSTEM.DIHEDRAL>
0

>  <SCORE.SYSTEM.SOLV>
0

>  <SCORE.SYSTEM.norm>
0

>  <SCORE.heavy>
34

>  <SCORE.norm>
-0.222113

>  <RMSD>
6.910

$$$$
ligand
 OpenBabel11021811483D
libRbt.so/2013.1/901 2013/11/27
 34 36  0  0  0  0  0  0  0  0999 V2000
    0.2887    2.8507    9.7937 C   0  0  2  0  0  0  0  0  0  0  0  0
    0.5530    3.5980    8.5960 O   0  0  0  0  0  0  0  0  0  0  0  0
    4.0160    5.6651    7.1832 C   0  0  2  0  0  0  0  0  0  0  0  0
    5.1451    6.5854    7.1039 N   0  0  0  0  0  0  0  0  0  0  0  0
    6.7047    4.4551    8.2800 C   0  0  2  0  0  0  0  0  0  0  0  0
   -0.3920    1.4971    9.3803 C   0  0  2  0  0  0  0  0  0  0  0  0
    0.4895    0.7037    8.5098 N   0  0  0  0  0  0  0  0  0  0  0  0
    2.7334    6.5204    7.4532 C   0  0  0  0  0  0  0  0  0  0  0  0
    7.7573    3.4574    7.6769 C   0  0  2  0  0  0  0  0  0  0  0  0
    7.4988    3.2606    6.2966 O   0  0  0  0  0  0  0  0  0  0  0  0
   -1.7206    1.7949    8.6518 C   0  0  1  0  0  0  0  0  0  0  0  0
   -2.3529    0.5601    8.2775 O   0  0  0  0  0  0  0  0  0  0  0  0
    1.5173    5.5354    7.5153 C   0  0  2  0  0  0  0  0  0  0  0  0
    0.2720    6.2859    7.7751 N   0  0  0  0  0  0  0  0  0  0  0  0
    7.6738    2.0954    8.4690 C   0  0  1  0  0  0  0  0  0  0  0  0
    8.6477    1.1037    7.9218 N   0  0  0  0  0  0  0  0  0  0  0  0
   -2.6233    2.6366    9.5847 C   0  0  2  0  0  0  0  0  0  0  0  0
   -3.8615    2.9312    8.9149 O   0  0  0  0  0  0  0  0  0  0  0  0
    1.7124    4.4830    8.6366 C   0  0  2  0  0  0  0  0  0  0  0  0
    7.9671    2.3686    9.9839 C   0  0  1  0  0  0  0  0  0  0  0  0
    9.2843    2.8929   10.1289 O   0  0  0  0  0  0  0  0  0  0  0  0
   -1.8791    3.9689    9.9792 C   0  0  2  0  0  0  0  0  0  0  0  0
   -0.6018    3.6521   10.6472 O   0  0  0  0  0  0  0  0  0  0  0  0
    3.0212    3.6951    8.3794 C   0  0  2  0  0  0  0  0  0  0  0  0
    3.1887    2.7487    9.4299 O   0  0  0  0  0  0  0  0  0  0  0  0
    6.9326    3.4118   10.5123 C   0  0  0  0  0  0  0  0  0  0  0  0
    6.9831    4.6568    9.7086 O   0  0  0  0  0  0  0  0  0  0  0  0
   -2.7281    4.8447   10.9374 C   0  0  2  0  0  0  0  0  0  0  0  0
   -4.0000    5.0983   10.3465 O   0  0  0  0  0  0  0  0  0  0  0  0
    4.2484    4.6361    8.3648 C   0  0  1  0  0  0  0  0  0  0  0  0
    5.4106    3.8114    8.1129 O   0  0  0  0  0  0  0  0  0  0  0  0
   -2.0614    6.1829   11.2102 C   0  0  0  0  0  0  0  0  0  0  0  0
    7.8808    1.0987   10.8216 C   0  0  0  0  0  0  0  0  0  0  0  0
    7.9555    0.2878    6.9059 C   0  0  0  0  0  0  0  0  0  0  0  0
  1  2  1  6  0  0  0
  1  6  1  0  0  0  0
  1 23  1  0  0  0  0
  3  4  1  1  0  0  0
  3  8  1  0  0  0  0
  3 30  1  0  0  0  0
  5  9  1  0  0  0  0
  5 27  1  0  0  0  0
  5 31  1  1  0  0  0
  6  7  1  6  0  0  0
  6 11  1  0  0  0  0
  8 13  1  0  0  0  0
  9 10  1  6  0  0  0
  9 15  1  0  0  0  0
 11 12  1  1  0  0  0
 11 17  1  0  0  0  0
 13 14  1  1  0  0  0
 13 19  1  0  0  0  0
 15 16  1  6  0  0  0
 15 20  1  0  0  0  0
 16 34  1  0  0  0  0
 17 18  1  6  0  0  0
 17 22  1  0  0  0  0
 19  2  1  6  0  0  0
 19 24  1  0  0  0  0
 20 21  1  1  0  0  0
 20 26  1  0  0  0  0
 20 33  1  0  0  0  0
 22 23  1  1  0  0  0
 22 28  1  0  0  0  0
 24 25  1  1  0  0  0
 24 30  1  0  0  0  0
 26 27  1  0  0  0  0
 28 29  1  6  0  0  0
 28 32  1  0  0  0  0
 30 31  1  6  0  0  0
M  END
>  <CHROM.1>
-149.84011676,-159.53875358,-92.92909000,-55.21756082,74.08607115,-168.89019604
2.80301534,3.49668343,8.87773097,3.07429939,0.10942099,-0.12999534

>  <Name>
ligand

>  <RI>
0

>  <Rbt.Current_Directory>
/home/itssahil/PROJECTS/Mol_Feturizer/New_Systems/rnas/3TD1

>  <Rbt.Executable>
rbdock ($Id: //depot/dev/client3/rdock/2013.1/src/exe/rbdock.cxx#4 $)

>  <Rbt.Library>
libRbt.so (2013.1, Build901 2013/11/27)

>  <Rbt.Parameter_File>
/export/apps/rDock/src/rDock_2013.1_src/data/scripts/dock_solv.prm

>  <Rbt.Receptor>
prm/pocket_docking_7.prm

>  <SCORE>
-14.9305

>  <SCORE.INTER>
-9.18229

>  <SCORE.INTER.CONST>
1

>  <SCORE.INTER.POLAR>
0

>  <SCORE.INTER.ROT>
6

>  <SCORE.INTER.SOLV>
12.7881

>  <SCORE.INTER.VDW>
-17.9842

>  <SCORE.INTER.norm>
-0.270067

>  <SCORE.INTRA>
-5.74819

>  <SCORE.INTRA.DIHEDRAL>
-11.7166

>  <SCORE.INTRA.DIHEDRAL.0>
19.5869

>  <SCORE.INTRA.POLAR>
0

>  <SCORE.INTRA.POLAR.0>
0

>  <SCORE.INTRA.REPUL>
0

>  <SCORE.INTRA.REPUL.0>
0

>  <SCORE.INTRA.SOLV>
-0.385511

>  <SCORE.INTRA.SOLV.lig_0>
-70.101

>  <SCORE.INTRA.VDW>
0.302856

>  <SCORE.INTRA.VDW.0>
-3.39718

>  <SCORE.INTRA.norm>
-0.169064

>  <SCORE.RESTR>
0

>  <SCORE.RESTR.CAVITY>
0

>  <SCORE.RESTR.norm>
0

>  <SCORE.SYSTEM>
0

>  <SCORE.SYSTEM.CONST>
0

>  <SCORE.SYSTEM.DIHEDRAL>
0

>  <SCORE.SYSTEM.SOLV>
0

>  <SCORE.SYSTEM.norm>
0

>  <SCORE.heavy>
34

>  <SCORE.norm>
-0.439132

>  <RMSD>
6.910

$$$$
ligand
 OpenBabel11021811483D
libRbt.so/2013.1/901 2013/11/27
 34 36  0  0  0  0  0  0  0  0999 V2000
   10.8125    8.4267    9.2725 C   0  0  2  0  0  0  0  0  0  0  0  0
   11.5406    7.1991    9.1127 O   0  0  0  0  0  0  0  0  0  0  0  0
   11.3698    4.3664    5.9176 C   0  0  2  0  0  0  0  0  0  0  0  0
   10.8970    3.3254    5.0116 N   0  0  0  0  0  0  0  0  0  0  0  0
   10.0632    5.4106    3.3347 C   0  0  2  0  0  0  0  0  0  0  0  0
   11.6044    9.3320   10.2824 C   0  0  2  0  0  0  0  0  0  0  0  0
   12.9507    9.6405    9.7759 N   0  0  0  0  0  0  0  0  0  0  0  0
   11.2486    3.8086    7.3749 C   0  0  0  0  0  0  0  0  0  0  0  0
   10.5395    6.1053    2.0090 C   0  0  2  0  0  0  0  0  0  0  0  0
   11.9560    6.0969    1.9427 O   0  0  0  0  0  0  0  0  0  0  0  0
   11.7074    8.6100   11.6434 C   0  0  1  0  0  0  0  0  0  0  0  0
   12.4242    9.4365   12.5750 O   0  0  0  0  0  0  0  0  0  0  0  0
   11.7777    4.9168    8.3469 C   0  0  2  0  0  0  0  0  0  0  0  0
   11.6828    4.4499    9.7450 N   0  0  0  0  0  0  0  0  0  0  0  0
    9.9796    7.5802    1.9823 C   0  0  1  0  0  0  0  0  0  0  0  0
   10.4193    8.2914    0.7444 N   0  0  0  0  0  0  0  0  0  0  0  0
   10.2803    8.2900   12.1477 C   0  0  2  0  0  0  0  0  0  0  0  0
   10.3606    7.6071   13.4109 O   0  0  0  0  0  0  0  0  0  0  0  0
   10.9576    6.2237    8.1973 C   0  0  2  0  0  0  0  0  0  0  0  0
    8.4151    7.5323    2.0570 C   0  0  1  0  0  0  0  0  0  0  0  0
    7.9035    6.8366    0.9232 O   0  0  0  0  0  0  0  0  0  0  0  0
    9.5318    7.3981   11.0852 C   0  0  2  0  0  0  0  0  0  0  0  0
    9.4742    8.1022    9.7894 O   0  0  0  0  0  0  0  0  0  0  0  0
   11.0425    6.7183    6.7316 C   0  0  2  0  0  0  0  0  0  0  0  0
   10.2682    7.9074    6.6141 O   0  0  0  0  0  0  0  0  0  0  0  0
    8.0005    6.7774    3.3592 C   0  0  0  0  0  0  0  0  0  0  0  0
    8.5950    5.4195    3.3925 O   0  0  0  0  0  0  0  0  0  0  0  0
    8.0823    7.0655   11.5260 C   0  0  2  0  0  0  0  0  0  0  0  0
    8.1088    6.4249   12.7989 O   0  0  0  0  0  0  0  0  0  0  0  0
   10.4777    5.6645    5.7508 C   0  0  1  0  0  0  0  0  0  0  0  0
   10.6072    6.2147    4.4185 O   0  0  0  0  0  0  0  0  0  0  0  0
    7.3998    6.1291   10.5427 C   0  0  0  0  0  0  0  0  0  0  0  0
    7.7994    8.9261    2.0600 C   0  0  0  0  0  0  0  0  0  0  0  0
   11.4780    9.2506    1.1134 C   0  0  0  0  0  0  0  0  0  0  0  0
  1  2  1  1  0  0  0
  1  6  1  0  0  0  0
  1 23  1  0  0  0  0
  3  4  1  6  0  0  0
  3  8  1  0  0  0  0
  3 30  1  0  0  0  0
  5  9  1  0  0  0  0
  5 27  1  0  0  0  0
  5 31  1  1  0  0  0
  6  7  1  6  0  0  0
  6 11  1  0  0  0  0
  8 13  1  0  0  0  0
  9 10  1  1  0  0  0
  9 15  1  0  0  0  0
 11 12  1  1  0  0  0
 11 17  1  0  0  0  0
 13 14  1  1  0  0  0
 13 19  1  0  0  0  0
 15 16  1  6  0  0  0
 15 20  1  0  0  0  0
 16 34  1  0  0  0  0
 17 18  1  1  0  0  0
 17 22  1  0  0  0  0
 19  2  1  1  0  0  0
 19 24  1  0  0  0  0
 20 21  1  6  0  0  0
 20 26  1  0  0  0  0
 20 33  1  0  0  0  0
 22 23  1  6  0  0  0
 22 28  1  0  0  0  0
 24 25  1  1  0  0  0
 24 30  1  0  0  0  0
 26 27  1  0  0  0  0
 28 29  1  1  0  0  0
 28 32  1  0  0  0  0
 30 31  1  6  0  0  0
M  END
>  <CHROM.1>
-179.71228375,-171.50439824,-105.52566434,-56.65272304,67.36804982,-170.89025632
10.27038568,6.94080621,6.91717603,-1.14594453,-1.39565229,-1.23004773

>  <Name>
ligand

>  <RI>
0

>  <Rbt.Current_Directory>
/home/itssahil/PROJECTS/Mol_Feturizer/New_Systems/rnas/3TD1

>  <Rbt.Executable>
rbdock ($Id: //depot/dev/client3/rdock/2013.1/src/exe/rbdock.cxx#4 $)

>  <Rbt.Library>
libRbt.so (2013.1, Build901 2013/11/27)

>  <Rbt.Parameter_File>
/export/apps/rDock/src/rDock_2013.1_src/data/scripts/dock_solv.prm

>  <Rbt.Receptor>
prm/pocket_docking_5.prm

>  <SCORE>
-8.44759

>  <SCORE.INTER>
0.488802

>  <SCORE.INTER.CONST>
1

>  <SCORE.INTER.POLAR>
0

>  <SCORE.INTER.ROT>
6

>  <SCORE.INTER.SOLV>
9.04736

>  <SCORE.INTER.VDW>
-10.2899

>  <SCORE.INTER.norm>
0.0143765

>  <SCORE.INTRA>
-8.93639

>  <SCORE.INTRA.DIHEDRAL>
-17.4213

>  <SCORE.INTRA.DIHEDRAL.0>
19.5869

>  <SCORE.INTRA.POLAR>
0

>  <SCORE.INTRA.POLAR.0>
0

>  <SCORE.INTRA.REPUL>
0

>  <SCORE.INTRA.REPUL.0>
0

>  <SCORE.INTRA.SOLV>
-1.86062

>  <SCORE.INTRA.SOLV.lig_0>
-70.101

>  <SCORE.INTRA.VDW>
0.704592

>  <SCORE.INTRA.VDW.0>
-3.39718

>  <SCORE.INTRA.norm>
-0.262835

>  <SCORE.RESTR>
0

>  <SCORE.RESTR.CAVITY>
0

>  <SCORE.RESTR.norm>
0

>  <SCORE.SYSTEM>
0

>  <SCORE.SYSTEM.CONST>
0

>  <SCORE.SYSTEM.DIHEDRAL>
0

>  <SCORE.SYSTEM.SOLV>
0

>  <SCORE.SYSTEM.norm>
0

>  <SCORE.heavy>
34

>  <SCORE.norm>
-0.248458

>  <RMSD>
6.933

$$$$
ligand
 OpenBabel11021811483D
libRbt.so/2013.1/901 2013/11/27
 34 36  0  0  0  0  0  0  0  0999 V2000
   11.1870    8.7628   10.0151 C   0  0  2  0  0  0  0  0  0  0  0  0
   12.2736    7.8749   10.3209 O   0  0  0  0  0  0  0  0  0  0  0  0
   14.1430    5.0152    7.7539 C   0  0  2  0  0  0  0  0  0  0  0  0
   14.3835    3.8206    6.9519 N   0  0  0  0  0  0  0  0  0  0  0  0
   12.1952    6.7663    4.9642 C   0  0  2  0  0  0  0  0  0  0  0  0
   11.2450    9.9653   11.0236 C   0  0  2  0  0  0  0  0  0  0  0  0
   12.5114   10.7032   10.8978 N   0  0  0  0  0  0  0  0  0  0  0  0
   13.7660    4.5416    9.1973 C   0  0  0  0  0  0  0  0  0  0  0  0
   11.7847    5.5126    4.1117 C   0  0  2  0  0  0  0  0  0  0  0  0
   11.3497    4.4692    4.9678 O   0  0  0  0  0  0  0  0  0  0  0  0
   11.0884    9.4319   12.4643 C   0  0  1  0  0  0  0  0  0  0  0  0
   11.1326   10.5282   13.3921 O   0  0  0  0  0  0  0  0  0  0  0  0
   13.5303    5.8239   10.0651 C   0  0  2  0  0  0  0  0  0  0  0  0
   13.1633    5.4406   11.4435 N   0  0  0  0  0  0  0  0  0  0  0  0
   13.0265    5.0587    3.2507 C   0  0  1  0  0  0  0  0  0  0  0  0
   12.6915    3.8559    2.4308 N   0  0  0  0  0  0  0  0  0  0  0  0
    9.7550    8.6538   12.5659 C   0  0  2  0  0  0  0  0  0  0  0  0
    9.6002    8.1412   13.9008 O   0  0  0  0  0  0  0  0  0  0  0  0
   12.3971    6.6971    9.4683 C   0  0  2  0  0  0  0  0  0  0  0  0
   13.4651    6.2446    2.3250 C   0  0  1  0  0  0  0  0  0  0  0  0
   12.4005    6.5775    1.4379 O   0  0  0  0  0  0  0  0  0  0  0  0
    9.7494    7.4757   11.5187 C   0  0  2  0  0  0  0  0  0  0  0  0
    9.9290    8.0137   10.1562 O   0  0  0  0  0  0  0  0  0  0  0  0
   12.7670    7.0980    8.0183 C   0  0  2  0  0  0  0  0  0  0  0  0
   11.7052    7.8827    7.4853 O   0  0  0  0  0  0  0  0  0  0  0  0
   13.7994    7.4792    3.2202 C   0  0  0  0  0  0  0  0  0  0  0  0
   12.6397    7.8435    4.0692 O   0  0  0  0  0  0  0  0  0  0  0  0
    8.4227    6.6730   11.5568 C   0  0  2  0  0  0  0  0  0  0  0  0
    8.2405    6.1191   12.8573 O   0  0  0  0  0  0  0  0  0  0  0  0
   12.9550    5.8513    7.1227 C   0  0  1  0  0  0  0  0  0  0  0  0
   13.3019    6.3285    5.8013 O   0  0  0  0  0  0  0  0  0  0  0  0
    8.4320    5.5295   10.5559 C   0  0  0  0  0  0  0  0  0  0  0  0
   14.6795    5.8891    1.4761 C   0  0  0  0  0  0  0  0  0  0  0  0
   13.5493    2.7403    2.8742 C   0  0  0  0  0  0  0  0  0  0  0  0
  1  2  1  1  0  0  0
  1  6  1  0  0  0  0
  1 23  1  0  0  0  0
  3  4  1  6  0  0  0
  3  8  1  0  0  0  0
  3 30  1  0  0  0  0
  5  9  1  0  0  0  0
  5 27  1  0  0  0  0
  5 31  1  1  0  0  0
  6  7  1  1  0  0  0
  6 11  1  0  0  0  0
  8 13  1  0  0  0  0
  9 10  1  1  0  0  0
  9 15  1  0  0  0  0
 11 12  1  1  0  0  0
 11 17  1  0  0  0  0
 13 14  1  1  0  0  0
 13 19  1  0  0  0  0
 15 16  1  6  0  0  0
 15 20  1  0  0  0  0
 16 34  1  0  0  0  0
 17 18  1  1  0  0  0
 17 22  1  0  0  0  0
 19  2  1  1  0  0  0
 19 24  1  0  0  0  0
 20 21  1  6  0  0  0
 20 26  1  0  0  0  0
 20 33  1  0  0  0  0
 22 23  1  6  0  0  0
 22 28  1  0  0  0  0
 24 25  1  6  0  0  0
 24 30  1  0  0  0  0
 26 27  1  0  0  0  0
 28 29  1  1  0  0  0
 28 32  1  0  0  0  0
 30 31  1  6  0  0  0
M  END
>  <CHROM.1>
-179.10434898,-174.35782673,-116.77243674,-59.83355428,162.84598489,-93.32068494
11.95112077,6.73617370,7.92995555,-2.62112533,-1.22688101,-2.89622969

>  <Name>
ligand

>  <RI>
0

>  <Rbt.Current_Directory>
/home/itssahil/PROJECTS/Mol_Feturizer/New_Systems/rnas/3TD1

>  <Rbt.Executable>
rbdock ($Id: //depot/dev/client3/rdock/2013.1/src/exe/rbdock.cxx#4 $)

>  <Rbt.Library>
libRbt.so (2013.1, Build901 2013/11/27)

>  <Rbt.Parameter_File>
/export/apps/rDock/src/rDock_2013.1_src/data/scripts/dock_solv.prm

>  <Rbt.Receptor>
prm/pocket_docking_6.prm

>  <SCORE>
-9.74377

>  <SCORE.INTER>
-3.04185

>  <SCORE.INTER.CONST>
1

>  <SCORE.INTER.POLAR>
0

>  <SCORE.INTER.ROT>
6

>  <SCORE.INTER.SOLV>
11.3113

>  <SCORE.INTER.VDW>
-13.3983

>  <SCORE.INTER.norm>
-0.0894661

>  <SCORE.INTRA>
-6.70193

>  <SCORE.INTRA.DIHEDRAL>
-12.6167

>  <SCORE.INTRA.DIHEDRAL.0>
19.5869

>  <SCORE.INTRA.POLAR>
0

>  <SCORE.INTRA.POLAR.0>
0

>  <SCORE.INTRA.REPUL>
0

>  <SCORE.INTRA.REPUL.0>
0

>  <SCORE.INTRA.SOLV>
-2.11384

>  <SCORE.INTRA.SOLV.lig_0>
-70.101

>  <SCORE.INTRA.VDW>
0.663323

>  <SCORE.INTRA.VDW.0>
-3.39718

>  <SCORE.INTRA.norm>
-0.197116

>  <SCORE.RESTR>
0

>  <SCORE.RESTR.CAVITY>
0

>  <SCORE.RESTR.norm>
0

>  <SCORE.SYSTEM>
0

>  <SCORE.SYSTEM.CONST>
0

>  <SCORE.SYSTEM.DIHEDRAL>
0

>  <SCORE.SYSTEM.SOLV>
0

>  <SCORE.SYSTEM.norm>
0

>  <SCORE.heavy>
34

>  <SCORE.norm>
-0.286582

>  <RMSD>
6.973

$$$$
ligand
 OpenBabel11021811483D
libRbt.so/2013.1/901 2013/11/27
 34 36  0  0  0  0  0  0  0  0999 V2000
    8.8652    1.4786   10.6521 C   0  0  2  0  0  0  0  0  0  0  0  0
   10.1598    1.9984   10.3107 O   0  0  0  0  0  0  0  0  0  0  0  0
   10.9108    3.5949   14.2029 C   0  0  2  0  0  0  0  0  0  0  0  0
   11.5983    4.1313   15.3723 N   0  0  0  0  0  0  0  0  0  0  0  0
   11.0162    6.6853   14.3174 C   0  0  2  0  0  0  0  0  0  0  0  0
    8.5133    0.3422    9.6269 C   0  0  2  0  0  0  0  0  0  0  0  0
    9.4957   -0.7511    9.6882 N   0  0  0  0  0  0  0  0  0  0  0  0
   11.5886    2.2298   13.8470 C   0  0  0  0  0  0  0  0  0  0  0  0
   10.1379    7.9839   14.4139 C   0  0  2  0  0  0  0  0  0  0  0  0
    8.8194    7.6454   14.8114 O   0  0  0  0  0  0  0  0  0  0  0  0
    8.4742    0.9343    8.2013 C   0  0  1  0  0  0  0  0  0  0  0  0
    8.1447   -0.0989    7.2586 O   0  0  0  0  0  0  0  0  0  0  0  0
   10.8360    1.6419   12.6057 C   0  0  2  0  0  0  0  0  0  0  0  0
   11.4366    0.3499   12.2160 N   0  0  0  0  0  0  0  0  0  0  0  0
   10.1396    8.7005   13.0082 C   0  0  1  0  0  0  0  0  0  0  0  0
    9.3026    9.9372   13.0430 N   0  0  0  0  0  0  0  0  0  0  0  0
    7.4414    2.0857    8.1675 C   0  0  2  0  0  0  0  0  0  0  0  0
    7.4015    2.6548    6.8473 O   0  0  0  0  0  0  0  0  0  0  0  0
   10.9101    2.6138   11.4004 C   0  0  2  0  0  0  0  0  0  0  0  0
   11.6160    9.0522   12.6180 C   0  0  1  0  0  0  0  0  0  0  0  0
   12.1641    9.9490   13.5804 O   0  0  0  0  0  0  0  0  0  0  0  0
    7.8371    3.1820    9.2288 C   0  0  2  0  0  0  0  0  0  0  0  0
    7.8937    2.5804   10.5753 O   0  0  0  0  0  0  0  0  0  0  0  0
   10.2908    3.9763   11.8005 C   0  0  2  0  0  0  0  0  0  0  0  0
   10.3865    4.8570   10.6858 O   0  0  0  0  0  0  0  0  0  0  0  0
   12.4545    7.7355   12.5994 C   0  0  0  0  0  0  0  0  0  0  0  0
   12.3810    7.0460   13.9099 O   0  0  0  0  0  0  0  0  0  0  0  0
    6.8205    4.3531    9.2587 C   0  0  2  0  0  0  0  0  0  0  0  0
    7.2581    5.3374   10.1920 O   0  0  0  0  0  0  0  0  0  0  0  0
   11.0472    4.6075   12.9926 C   0  0  1  0  0  0  0  0  0  0  0  0
   10.3930    5.8633   13.2912 O   0  0  0  0  0  0  0  0  0  0  0  0
    5.4389    3.8837    9.6836 C   0  0  0  0  0  0  0  0  0  0  0  0
   11.7021    9.7284   11.2552 C   0  0  0  0  0  0  0  0  0  0  0  0
    8.0247    9.6499   12.3637 C   0  0  0  0  0  0  0  0  0  0  0  0
  1  2  1  6  0  0  0
  1  6  1  0  0  0  0
  1 23  1  0  0  0  0
  3  4  1  1  0  0  0
  3  8  1  0  0  0  0
  3 30  1  0  0  0  0
  5  9  1  0  0  0  0
  5 27  1  0  0  0  0
  5 31  1  6  0  0  0
  6  7  1  6  0  0  0
  6 11  1  0  0  0  0
  8 13  1  0  0  0  0
  9 10  1  6  0  0  0
  9 15  1  0  0  0  0
 11 12  1  6  0  0  0
 11 17  1  0  0  0  0
 13 14  1  6  0  0  0
 13 19  1  0  0  0  0
 15 16  1  1  0  0  0
 15 20  1  0  0  0  0
 16 34  1  0  0  0  0
 17 18  1  6  0  0  0
 17 22  1  0  0  0  0
 19  2  1  6  0  0  0
 19 24  1  0  0  0  0
 20 21  1  1  0  0  0
 20 26  1  0  0  0  0
 20 33  1  0  0  0  0
 22 23  1  1  0  0  0
 22 28  1  0  0  0  0
 24 25  1  6  0  0  0
 24 30  1  0  0  0  0
 26 27  1  0  0  0  0
 28 29  1  1  0  0  0
 28 32  1  0  0  0  0
 30 31  1  1  0  0  0
M  END
>  <CHROM.1>
-154.65907470,47.31564921,-103.65466636,-177.54843974,69.06200927,178.60080056
9.71278556,4.62153096,11.56835763,-1.99631710,-0.81575929,0.22784021

>  <Name>
ligand

>  <RI>
0

>  <Rbt.Current_Directory>
/home/itssahil/PROJECTS/Mol_Feturizer/New_Systems/rnas/3TD1

>  <Rbt.Executable>
rbdock ($Id: //depot/dev/client3/rdock/2013.1/src/exe/rbdock.cxx#4 $)

>  <Rbt.Library>
libRbt.so (2013.1, Build901 2013/11/27)

>  <Rbt.Parameter_File>
/export/apps/rDock/src/rDock_2013.1_src/data/scripts/dock_solv.prm

>  <Rbt.Receptor>
prm/pocket_docking_8.prm

>  <SCORE>
-9.16619

>  <SCORE.INTER>
-3.48232

>  <SCORE.INTER.CONST>
1

>  <SCORE.INTER.POLAR>
0

>  <SCORE.INTER.ROT>
6

>  <SCORE.INTER.SOLV>
5.13229

>  <SCORE.INTER.VDW>
-11.6323

>  <SCORE.INTER.norm>
-0.102421

>  <SCORE.INTRA>
-5.68387

>  <SCORE.INTRA.DIHEDRAL>
-14.599

>  <SCORE.INTRA.DIHEDRAL.0>
19.5869

>  <SCORE.INTRA.POLAR>
0

>  <SCORE.INTRA.POLAR.0>
0

>  <SCORE.INTRA.REPUL>
0

>  <SCORE.INTRA.REPUL.0>
0

>  <SCORE.INTRA.SOLV>
0.586474

>  <SCORE.INTRA.SOLV.lig_0>
-70.101

>  <SCORE.INTRA.VDW>
1.32238

>  <SCORE.INTRA.VDW.0>
-3.39718

>  <SCORE.INTRA.norm>
-0.167173

>  <SCORE.RESTR>
0

>  <SCORE.RESTR.CAVITY>
0

>  <SCORE.RESTR.norm>
0

>  <SCORE.SYSTEM>
0

>  <SCORE.SYSTEM.CONST>
0

>  <SCORE.SYSTEM.DIHEDRAL>
0

>  <SCORE.SYSTEM.SOLV>
0

>  <SCORE.SYSTEM.norm>
0

>  <SCORE.heavy>
34

>  <SCORE.norm>
-0.269594

>  <RMSD>
7.001

$$$$
ligand
 OpenBabel11021811483D
libRbt.so/2013.1/901 2013/11/27
 34 36  0  0  0  0  0  0  0  0999 V2000
    0.5723    2.4474    8.8591 C   0  0  2  0  0  0  0  0  0  0  0  0
    1.4236    3.4514    8.2849 O   0  0  0  0  0  0  0  0  0  0  0  0
    5.1894    5.2182    9.2641 C   0  0  2  0  0  0  0  0  0  0  0  0
    6.3034    5.7769   10.0225 N   0  0  0  0  0  0  0  0  0  0  0  0
    7.4435    3.2738    9.8653 C   0  0  2  0  0  0  0  0  0  0  0  0
    0.0333    1.5441    7.6929 C   0  0  2  0  0  0  0  0  0  0  0  0
    1.1370    0.8811    6.9813 N   0  0  0  0  0  0  0  0  0  0  0  0
    3.9013    6.0063    9.6757 C   0  0  0  0  0  0  0  0  0  0  0  0
    8.5835    2.6977    8.9511 C   0  0  2  0  0  0  0  0  0  0  0  0
    8.5377    3.3167    7.6762 O   0  0  0  0  0  0  0  0  0  0  0  0
   -0.7805    2.4120    6.7086 C   0  0  1  0  0  0  0  0  0  0  0  0
   -1.2835    1.5901    5.6427 O   0  0  0  0  0  0  0  0  0  0  0  0
    2.7088    5.4227    8.8448 C   0  0  2  0  0  0  0  0  0  0  0  0
    1.4576    6.1251    9.1951 N   0  0  0  0  0  0  0  0  0  0  0  0
    8.3934    1.1361    8.8302 C   0  0  1  0  0  0  0  0  0  0  0  0
    9.4472    0.5404    7.9550 N   0  0  0  0  0  0  0  0  0  0  0  0
   -1.9271    3.1035    7.4837 C   0  0  2  0  0  0  0  0  0  0  0  0
   -2.6882    3.9248    6.5811 O   0  0  0  0  0  0  0  0  0  0  0  0
    2.5287    3.9082    9.1213 C   0  0  2  0  0  0  0  0  0  0  0  0
    8.4526    0.5035   10.2627 C   0  0  1  0  0  0  0  0  0  0  0  0
    9.7284    0.7573   10.8449 O   0  0  0  0  0  0  0  0  0  0  0  0
   -1.3253    3.9769    8.6497 C   0  0  2  0  0  0  0  0  0  0  0  0
   -0.5310    3.1256    9.5566 O   0  0  0  0  0  0  0  0  0  0  0  0
    3.8389    3.1618    8.7659 C   0  0  2  0  0  0  0  0  0  0  0  0
    3.6562    1.7775    9.0447 O   0  0  0  0  0  0  0  0  0  0  0  0
    7.3414    1.1572   11.1432 C   0  0  0  0  0  0  0  0  0  0  0  0
    7.5016    2.6306   11.1851 O   0  0  0  0  0  0  0  0  0  0  0  0
   -2.4328    4.6764    9.4805 C   0  0  2  0  0  0  0  0  0  0  0  0
   -3.2009    5.5230    8.6293 O   0  0  0  0  0  0  0  0  0  0  0  0
    5.0264    3.6811    9.6095 C   0  0  1  0  0  0  0  0  0  0  0  0
    6.1949    2.9313    9.2012 O   0  0  0  0  0  0  0  0  0  0  0  0
   -1.8435    5.5336   10.5884 C   0  0  0  0  0  0  0  0  0  0  0  0
    8.2521   -1.0066   10.2301 C   0  0  0  0  0  0  0  0  0  0  0  0
    8.8230    0.1588    6.6737 C   0  0  0  0  0  0  0  0  0  0  0  0
  1  2  1  6  0  0  0
  1  6  1  0  0  0  0
  1 23  1  0  0  0  0
  3  4  1  1  0  0  0
  3  8  1  0  0  0  0
  3 30  1  0  0  0  0
  5  9  1  0  0  0  0
  5 27  1  0  0  0  0
  5 31  1  6  0  0  0
  6  7  1  6  0  0  0
  6 11  1  0  0  0  0
  8 13  1  0  0  0  0
  9 10  1  6  0  0  0
  9 15  1  0  0  0  0
 11 12  1  6  0  0  0
 11 17  1  0  0  0  0
 13 14  1  1  0  0  0
 13 19  1  0  0  0  0
 15 16  1  6  0  0  0
 15 20  1  0  0  0  0
 16 34  1  0  0  0  0
 17 18  1  6  0  0  0
 17 22  1  0  0  0  0
 19  2  1  6  0  0  0
 19 24  1  0  0  0  0
 20 21  1  1  0  0  0
 20 26  1  0  0  0  0
 20 33  1  0  0  0  0
 22 23  1  1  0  0  0
 22 28  1  0  0  0  0
 24 25  1  1  0  0  0
 24 30  1  0  0  0  0
 26 27  1  0  0  0  0
 28 29  1  6  0  0  0
 28 32  1  0  0  0  0
 30 31  1  6  0  0  0
M  END
>  <CHROM.1>
-148.66942252,-143.99225450,-107.18358191,-59.59616293,63.35442265,-161.85882695
3.53162626,2.96923834,8.85969365,3.00120896,-0.22026467,0.50037416

>  <Name>
ligand

>  <RI>
0

>  <Rbt.Current_Directory>
/home/itssahil/PROJECTS/Mol_Feturizer/New_Systems/rnas/3TD1

>  <Rbt.Executable>
rbdock ($Id: //depot/dev/client3/rdock/2013.1/src/exe/rbdock.cxx#4 $)

>  <Rbt.Library>
libRbt.so (2013.1, Build901 2013/11/27)

>  <Rbt.Parameter_File>
/export/apps/rDock/src/rDock_2013.1_src/data/scripts/dock_solv.prm

>  <Rbt.Receptor>
prm/pocket_docking_7.prm

>  <SCORE>
-15.9883

>  <SCORE.INTER>
-12.4112

>  <SCORE.INTER.CONST>
1

>  <SCORE.INTER.POLAR>
0

>  <SCORE.INTER.ROT>
6

>  <SCORE.INTER.SOLV>
16.904

>  <SCORE.INTER.VDW>
-21.5088

>  <SCORE.INTER.norm>
-0.365036

>  <SCORE.INTRA>
-3.57707

>  <SCORE.INTRA.DIHEDRAL>
-8.32592

>  <SCORE.INTRA.DIHEDRAL.0>
19.5869

>  <SCORE.INTRA.POLAR>
0

>  <SCORE.INTRA.POLAR.0>
0

>  <SCORE.INTRA.REPUL>
0

>  <SCORE.INTRA.REPUL.0>
0

>  <SCORE.INTRA.SOLV>
0.955546

>  <SCORE.INTRA.SOLV.lig_0>
-70.101

>  <SCORE.INTRA.VDW>
0.10812

>  <SCORE.INTRA.VDW.0>
-3.39718

>  <SCORE.INTRA.norm>
-0.105208

>  <SCORE.RESTR>
0

>  <SCORE.RESTR.CAVITY>
0

>  <SCORE.RESTR.norm>
0

>  <SCORE.SYSTEM>
0

>  <SCORE.SYSTEM.CONST>
0

>  <SCORE.SYSTEM.DIHEDRAL>
0

>  <SCORE.SYSTEM.SOLV>
0

>  <SCORE.SYSTEM.norm>
0

>  <SCORE.heavy>
34

>  <SCORE.norm>
-0.470244

>  <RMSD>
7.044

$$$$
ligand
 OpenBabel11021811483D
libRbt.so/2013.1/901 2013/11/27
 34 36  0  0  0  0  0  0  0  0999 V2000
   11.3244    3.1588   10.0011 C   0  0  2  0  0  0  0  0  0  0  0  0
   12.5934    3.7277    9.6424 O   0  0  0  0  0  0  0  0  0  0  0  0
   13.8870    7.8005    9.6341 C   0  0  2  0  0  0  0  0  0  0  0  0
   14.0097    9.2155    9.3010 N   0  0  0  0  0  0  0  0  0  0  0  0
   11.9481    9.6453   11.3984 C   0  0  2  0  0  0  0  0  0  0  0  0
   11.5634    1.6630   10.4158 C   0  0  2  0  0  0  0  0  0  0  0  0
   12.4693    1.5706   11.5712 N   0  0  0  0  0  0  0  0  0  0  0  0
   14.0677    6.9902    8.3073 C   0  0  0  0  0  0  0  0  0  0  0  0
   11.7235   10.1414   12.8717 C   0  0  2  0  0  0  0  0  0  0  0  0
   12.9211    9.9960   13.6169 O   0  0  0  0  0  0  0  0  0  0  0  0
   12.1578    0.8897    9.2187 C   0  0  1  0  0  0  0  0  0  0  0  0
   12.3718   -0.4822    9.5888 O   0  0  0  0  0  0  0  0  0  0  0  0
   13.9593    5.4699    8.6677 C   0  0  2  0  0  0  0  0  0  0  0  0
   14.1164    4.6495    7.4495 N   0  0  0  0  0  0  0  0  0  0  0  0
   10.5511    9.3031   13.5138 C   0  0  1  0  0  0  0  0  0  0  0  0
   10.3079    9.7273   14.9252 N   0  0  0  0  0  0  0  0  0  0  0  0
   11.1910    1.0108    8.0169 C   0  0  2  0  0  0  0  0  0  0  0  0
   11.7370    0.3036    6.8898 O   0  0  0  0  0  0  0  0  0  0  0  0
   12.5879    5.1497    9.3153 C   0  0  2  0  0  0  0  0  0  0  0  0
    9.2554    9.4989   12.6546 C   0  0  1  0  0  0  0  0  0  0  0  0
    8.8807   10.8739   12.6611 O   0  0  0  0  0  0  0  0  0  0  0  0
   10.9763    2.5316    7.6624 C   0  0  2  0  0  0  0  0  0  0  0  0
   10.4348    3.2488    8.8332 O   0  0  0  0  0  0  0  0  0  0  0  0
   12.4080    6.0116   10.5899 C   0  0  2  0  0  0  0  0  0  0  0  0
   11.1359    5.7144   11.1564 O   0  0  0  0  0  0  0  0  0  0  0  0
    9.5553    9.0500   11.1897 C   0  0  0  0  0  0  0  0  0  0  0  0
   10.7041    9.8041   10.6328 O   0  0  0  0  0  0  0  0  0  0  0  0
    9.9928    2.7169    6.4774 C   0  0  2  0  0  0  0  0  0  0  0  0
    9.8235    4.1074    6.2146 O   0  0  0  0  0  0  0  0  0  0  0  0
   12.4580    7.5211   10.2575 C   0  0  1  0  0  0  0  0  0  0  0  0
   12.2883    8.2346   11.5051 O   0  0  0  0  0  0  0  0  0  0  0  0
    8.6267    2.1273    6.7869 C   0  0  0  0  0  0  0  0  0  0  0  0
    8.0801    8.6974   13.2007 C   0  0  0  0  0  0  0  0  0  0  0  0
   10.8392    8.6817   15.8205 C   0  0  0  0  0  0  0  0  0  0  0  0
  1  2  1  6  0  0  0
  1  6  1  0  0  0  0
  1 23  1  0  0  0  0
  3  4  1  6  0  0  0
  3  8  1  0  0  0  0
  3 30  1  0  0  0  0
  5  9  1  0  0  0  0
  5 27  1  0  0  0  0
  5 31  1  1  0  0  0
  6  7  1  1  0  0  0
  6 11  1  0  0  0  0
  8 13  1  0  0  0  0
  9 10  1  1  0  0  0
  9 15  1  0  0  0  0
 11 12  1  1  0  0  0
 11 17  1  0  0  0  0
 13 14  1  6  0  0  0
 13 19  1  0  0  0  0
 15 16  1  1  0  0  0
 15 20  1  0  0  0  0
 16 34  1  0  0  0  0
 17 18  1  6  0  0  0
 17 22  1  0  0  0  0
 19  2  1  1  0  0  0
 19 24  1  0  0  0  0
 20 21  1  6  0  0  0
 20 26  1  0  0  0  0
 20 33  1  0  0  0  0
 22 23  1  1  0  0  0
 22 28  1  0  0  0  0
 24 25  1  6  0  0  0
 24 30  1  0  0  0  0
 26 27  1  0  0  0  0
 28 29  1  1  0  0  0
 28 32  1  0  0  0  0
 30 31  1  1  0  0  0
M  END
>  <CHROM.1>
-175.86002674,-167.74519107,-105.99796335,179.20412372,79.86513586,176.02915398
11.47255801,5.84085007,10.29781099,1.47877697,-0.73436853,-2.65999496

>  <Name>
ligand

>  <RI>
0

>  <Rbt.Current_Directory>
/home/itssahil/PROJECTS/Mol_Feturizer/New_Systems/rnas/3TD1

>  <Rbt.Executable>
rbdock ($Id: //depot/dev/client3/rdock/2013.1/src/exe/rbdock.cxx#4 $)

>  <Rbt.Library>
libRbt.so (2013.1, Build901 2013/11/27)

>  <Rbt.Parameter_File>
/export/apps/rDock/src/rDock_2013.1_src/data/scripts/dock_solv.prm

>  <Rbt.Receptor>
prm/pocket_docking_8.prm

>  <SCORE>
-8.40942

>  <SCORE.INTER>
0.00967315

>  <SCORE.INTER.CONST>
1

>  <SCORE.INTER.POLAR>
0

>  <SCORE.INTER.ROT>
6

>  <SCORE.INTER.SOLV>
8.36041

>  <SCORE.INTER.VDW>
-10.3804

>  <SCORE.INTER.norm>
0.000284504

>  <SCORE.INTRA>
-8.41909

>  <SCORE.INTRA.DIHEDRAL>
-15.8374

>  <SCORE.INTRA.DIHEDRAL.0>
19.5869

>  <SCORE.INTRA.POLAR>
0

>  <SCORE.INTRA.POLAR.0>
0

>  <SCORE.INTRA.REPUL>
0

>  <SCORE.INTRA.REPUL.0>
0

>  <SCORE.INTRA.SOLV>
-2.28641

>  <SCORE.INTRA.SOLV.lig_0>
-70.101

>  <SCORE.INTRA.VDW>
0.642833

>  <SCORE.INTRA.VDW.0>
-3.39718

>  <SCORE.INTRA.norm>
-0.24762

>  <SCORE.RESTR>
0

>  <SCORE.RESTR.CAVITY>
0

>  <SCORE.RESTR.norm>
0

>  <SCORE.SYSTEM>
0

>  <SCORE.SYSTEM.CONST>
0

>  <SCORE.SYSTEM.DIHEDRAL>
0

>  <SCORE.SYSTEM.SOLV>
0

>  <SCORE.SYSTEM.norm>
0

>  <SCORE.heavy>
34

>  <SCORE.norm>
-0.247336

>  <RMSD>
7.065

$$$$
ligand
 OpenBabel11021811483D
libRbt.so/2013.1/901 2013/11/27
 34 36  0  0  0  0  0  0  0  0999 V2000
    9.7179    6.4410    1.5257 C   0  0  2  0  0  0  0  0  0  0  0  0
   10.8513    7.0221    2.1893 O   0  0  0  0  0  0  0  0  0  0  0  0
   12.8290    3.2797    2.7764 C   0  0  2  0  0  0  0  0  0  0  0  0
   13.8575    2.2844    3.0587 N   0  0  0  0  0  0  0  0  0  0  0  0
   12.9062    2.3142    5.7070 C   0  0  2  0  0  0  0  0  0  0  0  0
    8.8921    7.6040    0.8684 C   0  0  2  0  0  0  0  0  0  0  0  0
    9.6991    8.3347   -0.1211 N   0  0  0  0  0  0  0  0  0  0  0  0
   13.3736    4.2053    1.6379 C   0  0  0  0  0  0  0  0  0  0  0  0
   12.1317    1.6691    6.9117 C   0  0  2  0  0  0  0  0  0  0  0  0
   10.9654    1.0151    6.4397 O   0  0  0  0  0  0  0  0  0  0  0  0
    8.4074    8.5721    1.9694 C   0  0  1  0  0  0  0  0  0  0  0  0
    7.6441    9.6348    1.3756 O   0  0  0  0  0  0  0  0  0  0  0  0
   12.2607    5.2598    1.3180 C   0  0  2  0  0  0  0  0  0  0  0  0
   12.7199    6.1708    0.2499 N   0  0  0  0  0  0  0  0  0  0  0  0
   11.7660    2.8052    7.9436 C   0  0  1  0  0  0  0  0  0  0  0  0
   11.0120    2.2438    9.1045 N   0  0  0  0  0  0  0  0  0  0  0  0
    7.5705    7.7772    2.9996 C   0  0  2  0  0  0  0  0  0  0  0  0
    7.1206    8.6646    4.0381 O   0  0  0  0  0  0  0  0  0  0  0  0
   11.9110    6.0963    2.5753 C   0  0  2  0  0  0  0  0  0  0  0  0
   13.0864    3.4932    8.4324 C   0  0  1  0  0  0  0  0  0  0  0  0
   13.9091    2.5345    9.0921 O   0  0  0  0  0  0  0  0  0  0  0  0
    8.4452    6.6154    3.6076 C   0  0  2  0  0  0  0  0  0  0  0  0
    8.9164    5.7243    2.5295 O   0  0  0  0  0  0  0  0  0  0  0  0
   11.4364    5.1498    3.7061 C   0  0  2  0  0  0  0  0  0  0  0  0
   11.1389    5.9371    4.8546 O   0  0  0  0  0  0  0  0  0  0  0  0
   13.8437    4.0592    7.1901 C   0  0  0  0  0  0  0  0  0  0  0  0
   14.1150    2.9852    6.2046 O   0  0  0  0  0  0  0  0  0  0  0  0
    7.6485    5.7653    4.6315 C   0  0  2  0  0  0  0  0  0  0  0  0
    7.2885    6.5787    5.7451 O   0  0  0  0  0  0  0  0  0  0  0  0
   12.5357    4.1287    4.0809 C   0  0  1  0  0  0  0  0  0  0  0  0
   11.9962    3.2935    5.1325 O   0  0  0  0  0  0  0  0  0  0  0  0
    8.4714    4.5972    5.1492 C   0  0  0  0  0  0  0  0  0  0  0  0
   12.8123    4.6225    9.4180 C   0  0  0  0  0  0  0  0  0  0  0  0
    9.5775    2.5248    8.9037 C   0  0  0  0  0  0  0  0  0  0  0  0
  1  2  1  1  0  0  0
  1  6  1  0  0  0  0
  1 23  1  0  0  0  0
  3  4  1  1  0  0  0
  3  8  1  0  0  0  0
  3 30  1  0  0  0  0
  5  9  1  0  0  0  0
  5 27  1  0  0  0  0
  5 31  1  1  0  0  0
  6  7  1  6  0  0  0
  6 11  1  0  0  0  0
  8 13  1  0  0  0  0
  9 10  1  6  0  0  0
  9 15  1  0  0  0  0
 11 12  1  6  0  0  0
 11 17  1  0  0  0  0
 13 14  1  6  0  0  0
 13 19  1  0  0  0  0
 15 16  1  1  0  0  0
 15 20  1  0  0  0  0
 16 34  1  0  0  0  0
 17 18  1  1  0  0  0
 17 22  1  0  0  0  0
 19  2  1  6  0  0  0
 19 24  1  0  0  0  0
 20 21  1  1  0  0  0
 20 26  1  0  0  0  0
 20 33  1  0  0  0  0
 22 23  1  6  0  0  0
 22 28  1  0  0  0  0
 24 25  1  1  0  0  0
 24 30  1  0  0  0  0
 26 27  1  0  0  0  0
 28 29  1  1  0  0  0
 28 32  1  0  0  0  0
 30 31  1  1  0  0  0
M  END
>  <CHROM.1>
-165.35923368,50.82172832,-100.52893803,-63.97946892,68.29312323,173.79400143
10.88235940,4.98881725,4.49015097,-2.10270986,-0.54705035,1.99582664

>  <Name>
ligand

>  <RI>
0

>  <Rbt.Current_Directory>
/home/itssahil/PROJECTS/Mol_Feturizer/New_Systems/rnas/3TD1

>  <Rbt.Executable>
rbdock ($Id: //depot/dev/client3/rdock/2013.1/src/exe/rbdock.cxx#4 $)

>  <Rbt.Library>
libRbt.so (2013.1, Build901 2013/11/27)

>  <Rbt.Parameter_File>
/export/apps/rDock/src/rDock_2013.1_src/data/scripts/dock_solv.prm

>  <Rbt.Receptor>
prm/pocket_docking_6.prm

>  <SCORE>
-11.6413

>  <SCORE.INTER>
-4.48609

>  <SCORE.INTER.CONST>
1

>  <SCORE.INTER.POLAR>
0

>  <SCORE.INTER.ROT>
6

>  <SCORE.INTER.SOLV>
9.6764

>  <SCORE.INTER.VDW>
-13.8162

>  <SCORE.INTER.norm>
-0.131944

>  <SCORE.INTRA>
-7.15523

>  <SCORE.INTRA.DIHEDRAL>
-16.6133

>  <SCORE.INTRA.DIHEDRAL.0>
19.5869

>  <SCORE.INTRA.POLAR>
0

>  <SCORE.INTRA.POLAR.0>
0

>  <SCORE.INTRA.REPUL>
0

>  <SCORE.INTRA.REPUL.0>
0

>  <SCORE.INTRA.SOLV>
0.29939

>  <SCORE.INTRA.SOLV.lig_0>
-70.101

>  <SCORE.INTRA.VDW>
1.00171

>  <SCORE.INTRA.VDW.0>
-3.39718

>  <SCORE.INTRA.norm>
-0.210448

>  <SCORE.RESTR>
0

>  <SCORE.RESTR.CAVITY>
0

>  <SCORE.RESTR.norm>
0

>  <SCORE.SYSTEM>
0

>  <SCORE.SYSTEM.CONST>
0

>  <SCORE.SYSTEM.DIHEDRAL>
0

>  <SCORE.SYSTEM.SOLV>
0

>  <SCORE.SYSTEM.norm>
0

>  <SCORE.heavy>
34

>  <SCORE.norm>
-0.342392

>  <RMSD>
7.126

$$$$
ligand
 OpenBabel11021811483D
libRbt.so/2013.1/901 2013/11/27
 34 36  0  0  0  0  0  0  0  0999 V2000
    0.9159    2.0081    8.5819 C   0  0  2  0  0  0  0  0  0  0  0  0
    1.3132    3.3637    8.3232 O   0  0  0  0  0  0  0  0  0  0  0  0
    5.0407    5.2769    9.1644 C   0  0  2  0  0  0  0  0  0  0  0  0
    6.1577    5.8818    9.8816 N   0  0  0  0  0  0  0  0  0  0  0  0
    7.3859    3.4244    9.6965 C   0  0  2  0  0  0  0  0  0  0  0  0
   -0.2778    1.6611    7.6222 C   0  0  2  0  0  0  0  0  0  0  0  0
    0.1238    1.7777    6.2117 N   0  0  0  0  0  0  0  0  0  0  0  0
    3.7384    6.0187    9.6156 C   0  0  0  0  0  0  0  0  0  0  0  0
    8.5151    2.8240    8.7846 C   0  0  2  0  0  0  0  0  0  0  0  0
    8.4291    3.3794    7.4827 O   0  0  0  0  0  0  0  0  0  0  0  0
   -1.4596    2.6115    7.9125 C   0  0  1  0  0  0  0  0  0  0  0  0
   -2.5587    2.2944    7.0429 O   0  0  0  0  0  0  0  0  0  0  0  0
    2.5414    5.3854    8.8288 C   0  0  2  0  0  0  0  0  0  0  0  0
    1.2771    6.0426    9.2177 N   0  0  0  0  0  0  0  0  0  0  0  0
    8.3506    1.2554    8.7436 C   0  0  1  0  0  0  0  0  0  0  0  0
    9.3948    0.6357    7.8735 N   0  0  0  0  0  0  0  0  0  0  0  0
   -1.8550    2.4755    9.4020 C   0  0  2  0  0  0  0  0  0  0  0  0
   -2.9489    3.3637    9.6903 O   0  0  0  0  0  0  0  0  0  0  0  0
    2.4279    3.8670    9.1191 C   0  0  2  0  0  0  0  0  0  0  0  0
    8.4537    0.6943   10.2031 C   0  0  1  0  0  0  0  0  0  0  0  0
    9.7376    0.9977   10.7422 O   0  0  0  0  0  0  0  0  0  0  0  0
   -0.6135    2.8162   10.3116 C   0  0  2  0  0  0  0  0  0  0  0  0
    0.5073    1.9109    9.9916 O   0  0  0  0  0  0  0  0  0  0  0  0
    3.7526    3.1681    8.7232 C   0  0  2  0  0  0  0  0  0  0  0  0
    3.6317    1.7797    9.0153 O   0  0  0  0  0  0  0  0  0  0  0  0
    7.3511    1.3709   11.0770 C   0  0  0  0  0  0  0  0  0  0  0  0
    7.4856    2.8472   11.0440 O   0  0  0  0  0  0  0  0  0  0  0  0
   -0.9436    2.6716   11.8203 C   0  0  2  0  0  0  0  0  0  0  0  0
   -1.5842    1.4189   12.0478 O   0  0  0  0  0  0  0  0  0  0  0  0
    4.9475    3.7370    9.5232 C   0  0  1  0  0  0  0  0  0  0  0  0
    6.1289    3.0289    9.0793 O   0  0  0  0  0  0  0  0  0  0  0  0
   -1.8789    3.7710   12.2959 C   0  0  0  0  0  0  0  0  0  0  0  0
    8.2799   -0.8189   10.2481 C   0  0  0  0  0  0  0  0  0  0  0  0
    8.7628    0.2457    6.5986 C   0  0  0  0  0  0  0  0  0  0  0  0
  1  2  1  6  0  0  0
  1  6  1  0  0  0  0
  1 23  1  0  0  0  0
  3  4  1  1  0  0  0
  3  8  1  0  0  0  0
  3 30  1  0  0  0  0
  5  9  1  0  0  0  0
  5 27  1  0  0  0  0
  5 31  1  6  0  0  0
  6  7  1  6  0  0  0
  6 11  1  0  0  0  0
  8 13  1  0  0  0  0
  9 10  1  6  0  0  0
  9 15  1  0  0  0  0
 11 12  1  6  0  0  0
 11 17  1  0  0  0  0
 13 14  1  1  0  0  0
 13 19  1  0  0  0  0
 15 16  1  6  0  0  0
 15 20  1  0  0  0  0
 16 34  1  0  0  0  0
 17 18  1  1  0  0  0
 17 22  1  0  0  0  0
 19  2  1  6  0  0  0
 19 24  1  0  0  0  0
 20 21  1  1  0  0  0
 20 26  1  0  0  0  0
 20 33  1  0  0  0  0
 22 23  1  6  0  0  0
 22 28  1  0  0  0  0
 24 25  1  1  0  0  0
 24 30  1  0  0  0  0
 26 27  1  0  0  0  0
 28 29  1  6  0  0  0
 28 32  1  0  0  0  0
 30 31  1  6  0  0  0
M  END
>  <CHROM.1>
-179.49437885,-171.75943900,-104.26836906,48.80316877,63.21914254,-164.56298959
3.53493168,2.71631605,9.30080058,3.02877107,-0.00437623,0.26882992

>  <Name>
ligand

>  <RI>
0

>  <Rbt.Current_Directory>
/home/itssahil/PROJECTS/Mol_Feturizer/New_Systems/rnas/3TD1

>  <Rbt.Executable>
rbdock ($Id: //depot/dev/client3/rdock/2013.1/src/exe/rbdock.cxx#4 $)

>  <Rbt.Library>
libRbt.so (2013.1, Build901 2013/11/27)

>  <Rbt.Parameter_File>
/export/apps/rDock/src/rDock_2013.1_src/data/scripts/dock_solv.prm

>  <Rbt.Receptor>
prm/pocket_docking_8.prm

>  <SCORE>
-21.3276

>  <SCORE.INTER>
-13.8855

>  <SCORE.INTER.CONST>
1

>  <SCORE.INTER.POLAR>
0

>  <SCORE.INTER.ROT>
6

>  <SCORE.INTER.SOLV>
16.5665

>  <SCORE.INTER.VDW>
-22.3791

>  <SCORE.INTER.norm>
-0.408396

>  <SCORE.INTRA>
-7.44209

>  <SCORE.INTRA.DIHEDRAL>
-16.5751

>  <SCORE.INTRA.DIHEDRAL.0>
19.5869

>  <SCORE.INTRA.POLAR>
0

>  <SCORE.INTRA.POLAR.0>
0

>  <SCORE.INTRA.REPUL>
0

>  <SCORE.INTRA.REPUL.0>
0

>  <SCORE.INTRA.SOLV>
-1.64729

>  <SCORE.INTRA.SOLV.lig_0>
-70.101

>  <SCORE.INTRA.VDW>
1.66912

>  <SCORE.INTRA.VDW.0>
-3.39718

>  <SCORE.INTRA.norm>
-0.218885

>  <SCORE.RESTR>
0

>  <SCORE.RESTR.CAVITY>
0

>  <SCORE.RESTR.norm>
0

>  <SCORE.SYSTEM>
0

>  <SCORE.SYSTEM.CONST>
0

>  <SCORE.SYSTEM.DIHEDRAL>
0

>  <SCORE.SYSTEM.SOLV>
0

>  <SCORE.SYSTEM.norm>
0

>  <SCORE.heavy>
34

>  <SCORE.norm>
-0.627281

>  <RMSD>
7.203

$$$$
ligand
 OpenBabel11021811483D
libRbt.so/2013.1/901 2013/11/27
 34 36  0  0  0  0  0  0  0  0999 V2000
    9.6486    6.9320    4.1275 C   0  0  2  0  0  0  0  0  0  0  0  0
   10.2822    5.6468    4.2251 O   0  0  0  0  0  0  0  0  0  0  0  0
   12.9169    4.1377    7.2321 C   0  0  2  0  0  0  0  0  0  0  0  0
   14.0917    3.9411    8.0743 N   0  0  0  0  0  0  0  0  0  0  0  0
   12.8607    5.6743    9.8925 C   0  0  2  0  0  0  0  0  0  0  0  0
    8.4060    6.7890    3.1777 C   0  0  2  0  0  0  0  0  0  0  0  0
    7.4368    5.8207    3.7136 N   0  0  0  0  0  0  0  0  0  0  0  0
   13.3815    4.0067    5.7433 C   0  0  0  0  0  0  0  0  0  0  0  0
   12.0839    5.7280   11.2566 C   0  0  2  0  0  0  0  0  0  0  0  0
   11.2491    4.5884   11.3807 O   0  0  0  0  0  0  0  0  0  0  0  0
    8.8810    6.3382    1.7793 C   0  0  1  0  0  0  0  0  0  0  0  0
    7.7494    6.2129    0.9026 O   0  0  0  0  0  0  0  0  0  0  0  0
   12.1166    4.1944    4.8390 C   0  0  2  0  0  0  0  0  0  0  0  0
   12.4933    4.0872    3.4148 N   0  0  0  0  0  0  0  0  0  0  0  0
   11.2372    7.0586   11.3037 C   0  0  1  0  0  0  0  0  0  0  0  0
   10.4649    7.1501   12.5790 N   0  0  0  0  0  0  0  0  0  0  0  0
    9.9043    7.3677    1.2441 C   0  0  2  0  0  0  0  0  0  0  0  0
   10.3643    6.9551   -0.0546 O   0  0  0  0  0  0  0  0  0  0  0  0
   11.4612    5.5780    5.0821 C   0  0  2  0  0  0  0  0  0  0  0  0
   12.2050    8.2830   11.1633 C   0  0  1  0  0  0  0  0  0  0  0  0
   13.1222    8.2949   12.2540 O   0  0  0  0  0  0  0  0  0  0  0  0
   11.1146    7.4806    2.2476 C   0  0  2  0  0  0  0  0  0  0  0  0
   10.6263    7.8851    3.5803 O   0  0  0  0  0  0  0  0  0  0  0  0
   11.0698    5.7055    6.5756 C   0  0  2  0  0  0  0  0  0  0  0  0
   10.4876    6.9890    6.7785 O   0  0  0  0  0  0  0  0  0  0  0  0
   12.9943    8.1443    9.8234 C   0  0  0  0  0  0  0  0  0  0  0  0
   13.7262    6.8558    9.7746 O   0  0  0  0  0  0  0  0  0  0  0  0
   12.1640    8.5204    1.7749 C   0  0  2  0  0  0  0  0  0  0  0  0
   11.4959    9.6853    1.2976 O   0  0  0  0  0  0  0  0  0  0  0  0
   12.3083    5.5766    7.4927 C   0  0  1  0  0  0  0  0  0  0  0  0
   11.8397    5.7021    8.8561 O   0  0  0  0  0  0  0  0  0  0  0  0
   13.0224    7.9749    0.6456 C   0  0  0  0  0  0  0  0  0  0  0  0
   11.4552    9.6095   11.1761 C   0  0  0  0  0  0  0  0  0  0  0  0
    9.0463    6.8747   12.2813 C   0  0  0  0  0  0  0  0  0  0  0  0
  1  2  1  6  0  0  0
  1  6  1  0  0  0  0
  1 23  1  0  0  0  0
  3  4  1  1  0  0  0
  3  8  1  0  0  0  0
  3 30  1  0  0  0  0
  5  9  1  0  0  0  0
  5 27  1  0  0  0  0
  5 31  1  6  0  0  0
  6  7  1  1  0  0  0
  6 11  1  0  0  0  0
  8 13  1  0  0  0  0
  9 10  1  6  0  0  0
  9 15  1  0  0  0  0
 11 12  1  6  0  0  0
 11 17  1  0  0  0  0
 13 14  1  6  0  0  0
 13 19  1  0  0  0  0
 15 16  1  1  0  0  0
 15 20  1  0  0  0  0
 16 34  1  0  0  0  0
 17 18  1  6  0  0  0
 17 22  1  0  0  0  0
 19  2  1  6  0  0  0
 19 24  1  0  0  0  0
 20 21  1  1  0  0  0
 20 26  1  0  0  0  0
 20 33  1  0  0  0  0
 22 23  1  1  0  0  0
 22 28  1  0  0  0  0
 24 25  1  6  0  0  0
 24 30  1  0  0  0  0
 26 27  1  0  0  0  0
 28 29  1  6  0  0  0
 28 32  1  0  0  0  0
 30 31  1  1  0  0  0
M  END
>  <CHROM.1>
-179.51491950,-170.03759205,-105.77149488,43.07724473,66.93127515,-176.25168022
11.27701647,6.54973788,6.33696219,1.80413406,0.75426989,-1.70996335

>  <Name>
ligand

>  <RI>
0

>  <Rbt.Current_Directory>
/home/itssahil/PROJECTS/Mol_Feturizer/New_Systems/rnas/3TD1

>  <Rbt.Executable>
rbdock ($Id: //depot/dev/client3/rdock/2013.1/src/exe/rbdock.cxx#4 $)

>  <Rbt.Library>
libRbt.so (2013.1, Build901 2013/11/27)

>  <Rbt.Parameter_File>
/export/apps/rDock/src/rDock_2013.1_src/data/scripts/dock_solv.prm

>  <Rbt.Receptor>
prm/pocket_docking_5.prm

>  <SCORE>
-6.45913

>  <SCORE.INTER>
1.73548

>  <SCORE.INTER.CONST>
1

>  <SCORE.INTER.POLAR>
0

>  <SCORE.INTER.ROT>
6

>  <SCORE.INTER.SOLV>
5.66389

>  <SCORE.INTER.VDW>
-8.33098

>  <SCORE.INTER.norm>
0.0510435

>  <SCORE.INTRA>
-8.19461

>  <SCORE.INTRA.DIHEDRAL>
-16.7168

>  <SCORE.INTRA.DIHEDRAL.0>
19.5869

>  <SCORE.INTRA.POLAR>
0

>  <SCORE.INTRA.POLAR.0>
0

>  <SCORE.INTRA.REPUL>
0

>  <SCORE.INTRA.REPUL.0>
0

>  <SCORE.INTRA.SOLV>
-1.72582

>  <SCORE.INTRA.SOLV.lig_0>
-70.101

>  <SCORE.INTRA.VDW>
1.0267

>  <SCORE.INTRA.VDW.0>
-3.39718

>  <SCORE.INTRA.norm>
-0.241018

>  <SCORE.RESTR>
0

>  <SCORE.RESTR.CAVITY>
0

>  <SCORE.RESTR.norm>
0

>  <SCORE.SYSTEM>
0

>  <SCORE.SYSTEM.CONST>
0

>  <SCORE.SYSTEM.DIHEDRAL>
0

>  <SCORE.SYSTEM.SOLV>
0

>  <SCORE.SYSTEM.norm>
0

>  <SCORE.heavy>
34

>  <SCORE.norm>
-0.189974

>  <RMSD>
7.205

$$$$
ligand
 OpenBabel11021811483D
libRbt.so/2013.1/901 2013/11/27
 34 36  0  0  0  0  0  0  0  0999 V2000
   11.9812    8.3467    8.0717 C   0  0  2  0  0  0  0  0  0  0  0  0
   12.6029    7.0956    8.4046 O   0  0  0  0  0  0  0  0  0  0  0  0
   13.5916    3.9327    5.7065 C   0  0  2  0  0  0  0  0  0  0  0  0
   13.4763    2.7808    4.8187 N   0  0  0  0  0  0  0  0  0  0  0  0
   13.3804    4.5943    2.7563 C   0  0  2  0  0  0  0  0  0  0  0  0
   12.2790    9.3604    9.2337 C   0  0  2  0  0  0  0  0  0  0  0  0
   13.7256    9.5760    9.3924 N   0  0  0  0  0  0  0  0  0  0  0  0
   12.9607    3.5291    7.0808 C   0  0  0  0  0  0  0  0  0  0  0  0
   14.0285    5.3062    1.5152 C   0  0  2  0  0  0  0  0  0  0  0  0
   15.3716    5.6552    1.8071 O   0  0  0  0  0  0  0  0  0  0  0  0
   11.6808    8.8188   10.5502 C   0  0  1  0  0  0  0  0  0  0  0  0
   11.9429    9.7456   11.6165 O   0  0  0  0  0  0  0  0  0  0  0  0
   13.1049    4.7573    8.0419 C   0  0  2  0  0  0  0  0  0  0  0  0
   12.5194    4.4388    9.3599 N   0  0  0  0  0  0  0  0  0  0  0  0
   13.1742    6.5853    1.1636 C   0  0  1  0  0  0  0  0  0  0  0  0
   13.7602    7.3091   -0.0044 N   0  0  0  0  0  0  0  0  0  0  0  0
   10.1630    8.5930   10.3527 C   0  0  2  0  0  0  0  0  0  0  0  0
    9.5932    8.0779   11.5687 O   0  0  0  0  0  0  0  0  0  0  0  0
   12.3878    6.0030    7.4617 C   0  0  2  0  0  0  0  0  0  0  0  0
   11.7034    6.1448    0.8499 C   0  0  1  0  0  0  0  0  0  0  0  0
   11.6955    5.2746   -0.2787 O   0  0  0  0  0  0  0  0  0  0  0  0
    9.9289    7.5850    9.1637 C   0  0  2  0  0  0  0  0  0  0  0  0
   10.5355    8.1164    7.9277 O   0  0  0  0  0  0  0  0  0  0  0  0
   12.9879    6.3413    6.0741 C   0  0  2  0  0  0  0  0  0  0  0  0
   12.3024    7.4756    5.5535 O   0  0  0  0  0  0  0  0  0  0  0  0
   11.1332    5.3892    2.0914 C   0  0  0  0  0  0  0  0  0  0  0  0
   11.9911    4.2322    2.4433 O   0  0  0  0  0  0  0  0  0  0  0  0
    8.4201    7.3388    8.9014 C   0  0  2  0  0  0  0  0  0  0  0  0
    7.8360    6.7149   10.0420 O   0  0  0  0  0  0  0  0  0  0  0  0
   12.8133    5.1647    5.0858 C   0  0  1  0  0  0  0  0  0  0  0  0
   13.4073    5.5744    3.8314 O   0  0  0  0  0  0  0  0  0  0  0  0
    8.2019    6.4284    7.7043 C   0  0  0  0  0  0  0  0  0  0  0  0
   10.8075    7.3332    0.5230 C   0  0  0  0  0  0  0  0  0  0  0  0
   13.8426    8.7429    0.3339 C   0  0  0  0  0  0  0  0  0  0  0  0
  1  2  1  1  0  0  0
  1  6  1  0  0  0  0
  1 23  1  0  0  0  0
  3  4  1  6  0  0  0
  3  8  1  0  0  0  0
  3 30  1  0  0  0  0
  5  9  1  0  0  0  0
  5 27  1  0  0  0  0
  5 31  1  1  0  0  0
  6  7  1  1  0  0  0
  6 11  1  0  0  0  0
  8 13  1  0  0  0  0
  9 10  1  1  0  0  0
  9 15  1  0  0  0  0
 11 12  1  1  0  0  0
 11 17  1  0  0  0  0
 13 14  1  1  0  0  0
 13 19  1  0  0  0  0
 15 16  1  6  0  0  0
 15 20  1  0  0  0  0
 16 34  1  0  0  0  0
 17 18  1  1  0  0  0
 17 22  1  0  0  0  0
 19  2  1  1  0  0  0
 19 24  1  0  0  0  0
 20 21  1  6  0  0  0
 20 26  1  0  0  0  0
 20 33  1  0  0  0  0
 22 23  1  6  0  0  0
 22 28  1  0  0  0  0
 24 25  1  6  0  0  0
 24 30  1  0  0  0  0
 26 27  1  0  0  0  0
 28 29  1  1  0  0  0
 28 32  1  0  0  0  0
 30 31  1  6  0  0  0
M  END
>  <CHROM.1>
177.54213043,-178.26268543,-132.10305168,-63.73110095,62.73319625,177.88742896
12.01794166,6.55583672,5.85182475,2.15113718,-1.10063842,1.86478395

>  <Name>
ligand

>  <RI>
0

>  <Rbt.Current_Directory>
/home/itssahil/PROJECTS/Mol_Feturizer/New_Systems/rnas/3TD1

>  <Rbt.Executable>
rbdock ($Id: //depot/dev/client3/rdock/2013.1/src/exe/rbdock.cxx#4 $)

>  <Rbt.Library>
libRbt.so (2013.1, Build901 2013/11/27)

>  <Rbt.Parameter_File>
/export/apps/rDock/src/rDock_2013.1_src/data/scripts/dock_solv.prm

>  <Rbt.Receptor>
prm/pocket_docking_7.prm

>  <SCORE>
-12.4821

>  <SCORE.INTER>
-4.18099

>  <SCORE.INTER.CONST>
1

>  <SCORE.INTER.POLAR>
0

>  <SCORE.INTER.ROT>
6

>  <SCORE.INTER.SOLV>
14.3829

>  <SCORE.INTER.VDW>
-15.1816

>  <SCORE.INTER.norm>
-0.12297

>  <SCORE.INTRA>
-8.30112

>  <SCORE.INTRA.DIHEDRAL>
-18.2794

>  <SCORE.INTRA.DIHEDRAL.0>
19.5869

>  <SCORE.INTRA.POLAR>
0

>  <SCORE.INTRA.POLAR.0>
0

>  <SCORE.INTRA.REPUL>
0

>  <SCORE.INTRA.REPUL.0>
0

>  <SCORE.INTRA.SOLV>
-1.85646

>  <SCORE.INTRA.SOLV.lig_0>
-70.101

>  <SCORE.INTRA.VDW>
1.7668

>  <SCORE.INTRA.VDW.0>
-3.39718

>  <SCORE.INTRA.norm>
-0.244151

>  <SCORE.RESTR>
0

>  <SCORE.RESTR.CAVITY>
0

>  <SCORE.RESTR.norm>
0

>  <SCORE.SYSTEM>
0

>  <SCORE.SYSTEM.CONST>
0

>  <SCORE.SYSTEM.DIHEDRAL>
0

>  <SCORE.SYSTEM.SOLV>
0

>  <SCORE.SYSTEM.norm>
0

>  <SCORE.heavy>
34

>  <SCORE.norm>
-0.367121

>  <RMSD>
7.209

$$$$
ligand
 OpenBabel11021811483D
libRbt.so/2013.1/901 2013/11/27
 34 36  0  0  0  0  0  0  0  0999 V2000
    0.9181    2.0211    8.5544 C   0  0  2  0  0  0  0  0  0  0  0  0
    1.3311    3.3761    8.3180 O   0  0  0  0  0  0  0  0  0  0  0  0
    5.0650    5.2537    9.2097 C   0  0  2  0  0  0  0  0  0  0  0  0
    6.1835    5.8366    9.9426 N   0  0  0  0  0  0  0  0  0  0  0  0
    7.4034    3.3849    9.6941 C   0  0  2  0  0  0  0  0  0  0  0  0
   -0.2656    1.6971    7.5744 C   0  0  2  0  0  0  0  0  0  0  0  0
    0.1561    1.8274    6.1711 N   0  0  0  0  0  0  0  0  0  0  0  0
    3.7650    5.9894    9.6772 C   0  0  0  0  0  0  0  0  0  0  0  0
    8.5297    2.7855    8.7780 C   0  0  2  0  0  0  0  0  0  0  0  0
    8.4495    3.3539    7.4814 O   0  0  0  0  0  0  0  0  0  0  0  0
   -1.4426    2.6548    7.8606 C   0  0  1  0  0  0  0  0  0  0  0  0
   -2.5326    2.3585    6.9724 O   0  0  0  0  0  0  0  0  0  0  0  0
    2.5665    5.3802    8.8738 C   0  0  2  0  0  0  0  0  0  0  0  0
    1.3043    6.0327    9.2771 N   0  0  0  0  0  0  0  0  0  0  0  0
    8.3543    1.2184    8.7216 C   0  0  1  0  0  0  0  0  0  0  0  0
    9.3955    0.6000    7.8471 N   0  0  0  0  0  0  0  0  0  0  0  0
   -1.8594    2.5040    9.3429 C   0  0  2  0  0  0  0  0  0  0  0  0
   -2.9489    3.3986    9.6275 O   0  0  0  0  0  0  0  0  0  0  0  0
    2.4468    3.8556    9.1271 C   0  0  2  0  0  0  0  0  0  0  0  0
    8.4514    0.6426   10.1758 C   0  0  1  0  0  0  0  0  0  0  0  0
    9.7366    0.9318   10.7196 O   0  0  0  0  0  0  0  0  0  0  0  0
   -0.6273    2.8219   10.2733 C   0  0  2  0  0  0  0  0  0  0  0  0
    0.4895    1.9103    9.9572 O   0  0  0  0  0  0  0  0  0  0  0  0
    3.7692    3.1612    8.7159 C   0  0  2  0  0  0  0  0  0  0  0  0
    3.6426    1.7667    8.9742 O   0  0  0  0  0  0  0  0  0  0  0  0
    7.3523    1.3185   11.0547 C   0  0  0  0  0  0  0  0  0  0  0  0
    7.4971    2.7940   11.0362 O   0  0  0  0  0  0  0  0  0  0  0  0
   -0.9792    2.6618   11.7755 C   0  0  2  0  0  0  0  0  0  0  0  0
   -1.6909    1.4422   11.9685 O   0  0  0  0  0  0  0  0  0  0  0  0
    4.9653    3.7059    9.5309 C   0  0  1  0  0  0  0  0  0  0  0  0
    6.1446    3.0042    9.0713 O   0  0  0  0  0  0  0  0  0  0  0  0
   -1.8559    3.8008   12.2690 C   0  0  0  0  0  0  0  0  0  0  0  0
    8.2670   -0.8696   10.2060 C   0  0  0  0  0  0  0  0  0  0  0  0
    8.7249    0.0250    6.6653 C   0  0  0  0  0  0  0  0  0  0  0  0
  1  2  1  6  0  0  0
  1  6  1  0  0  0  0
  1 23  1  0  0  0  0
  3  4  1  1  0  0  0
  3  8  1  0  0  0  0
  3 30  1  0  0  0  0
  5  9  1  0  0  0  0
  5 27  1  0  0  0  0
  5 31  1  6  0  0  0
  6  7  1  6  0  0  0
  6 11  1  0  0  0  0
  8 13  1  0  0  0  0
  9 10  1  6  0  0  0
  9 15  1  0  0  0  0
 11 12  1  6  0  0  0
 11 17  1  0  0  0  0
 13 14  1  1  0  0  0
 13 19  1  0  0  0  0
 15 16  1  6  0  0  0
 15 20  1  0  0  0  0
 16 34  1  0  0  0  0
 17 18  1  1  0  0  0
 17 22  1  0  0  0  0
 19  2  1  6  0  0  0
 19 24  1  0  0  0  0
 20 21  1  1  0  0  0
 20 26  1  0  0  0  0
 20 33  1  0  0  0  0
 22 23  1  6  0  0  0
 22 28  1  0  0  0  0
 24 25  1  1  0  0  0
 24 30  1  0  0  0  0
 26 27  1  0  0  0  0
 28 29  1  6  0  0  0
 28 32  1  0  0  0  0
 30 31  1  6  0  0  0
M  END
>  <CHROM.1>
-178.99744614,-171.05692058,-113.56995960,46.03391100,62.88675882,-165.21719552
3.53966898,2.70031570,9.28629354,3.02166105,-0.01713927,0.32645402

>  <Name>
ligand

>  <RI>
0

>  <Rbt.Current_Directory>
/home/itssahil/PROJECTS/Mol_Feturizer/New_Systems/rnas/3TD1

>  <Rbt.Executable>
rbdock ($Id: //depot/dev/client3/rdock/2013.1/src/exe/rbdock.cxx#4 $)

>  <Rbt.Library>
libRbt.so (2013.1, Build901 2013/11/27)

>  <Rbt.Parameter_File>
/export/apps/rDock/src/rDock_2013.1_src/data/scripts/dock_solv.prm

>  <Rbt.Receptor>
prm/pocket_docking_8.prm

>  <SCORE>
-21.4829

>  <SCORE.INTER>
-13.9628

>  <SCORE.INTER.CONST>
1

>  <SCORE.INTER.POLAR>
0

>  <SCORE.INTER.ROT>
6

>  <SCORE.INTER.SOLV>
16.9559

>  <SCORE.INTER.VDW>
-22.5605

>  <SCORE.INTER.norm>
-0.41067

>  <SCORE.INTRA>
-7.52013

>  <SCORE.INTRA.DIHEDRAL>
-16.2157

>  <SCORE.INTRA.DIHEDRAL.0>
19.5869

>  <SCORE.INTRA.POLAR>
0

>  <SCORE.INTRA.POLAR.0>
0

>  <SCORE.INTRA.REPUL>
0

>  <SCORE.INTRA.REPUL.0>
0

>  <SCORE.INTRA.SOLV>
-1.65299

>  <SCORE.INTRA.SOLV.lig_0>
-70.101

>  <SCORE.INTRA.VDW>
1.41423

>  <SCORE.INTRA.VDW.0>
-3.39718

>  <SCORE.INTRA.norm>
-0.22118

>  <SCORE.RESTR>
0

>  <SCORE.RESTR.CAVITY>
0

>  <SCORE.RESTR.norm>
0

>  <SCORE.SYSTEM>
0

>  <SCORE.SYSTEM.CONST>
0

>  <SCORE.SYSTEM.DIHEDRAL>
0

>  <SCORE.SYSTEM.SOLV>
0

>  <SCORE.SYSTEM.norm>
0

>  <SCORE.heavy>
34

>  <SCORE.norm>
-0.63185

>  <RMSD>
7.219

$$$$
ligand
 OpenBabel11021811483D
libRbt.so/2013.1/901 2013/11/27
 34 36  0  0  0  0  0  0  0  0999 V2000
    0.8999    1.9823    8.5997 C   0  0  2  0  0  0  0  0  0  0  0  0
    1.3268    3.3258    8.3252 O   0  0  0  0  0  0  0  0  0  0  0  0
    5.0420    5.2460    9.2036 C   0  0  2  0  0  0  0  0  0  0  0  0
    6.1549    5.8448    9.9324 N   0  0  0  0  0  0  0  0  0  0  0  0
    7.3963    3.3901    9.7131 C   0  0  2  0  0  0  0  0  0  0  0  0
   -0.3029    1.6513    7.6455 C   0  0  2  0  0  0  0  0  0  0  0  0
    0.0989    1.7432    6.2333 N   0  0  0  0  0  0  0  0  0  0  0  0
    3.7350    5.9718    9.6667 C   0  0  0  0  0  0  0  0  0  0  0  0
    8.5318    2.7887    8.8097 C   0  0  2  0  0  0  0  0  0  0  0  0
    8.4636    3.3531    7.5106 O   0  0  0  0  0  0  0  0  0  0  0  0
   -1.4628    2.6310    7.9268 C   0  0  1  0  0  0  0  0  0  0  0  0
   -2.5701    2.3287    7.0624 O   0  0  0  0  0  0  0  0  0  0  0  0
    2.5424    5.3455    8.8678 C   0  0  2  0  0  0  0  0  0  0  0  0
    1.2739    5.9881    9.2672 N   0  0  0  0  0  0  0  0  0  0  0  0
    8.3582    1.2214    8.7566 C   0  0  1  0  0  0  0  0  0  0  0  0
    9.4082    0.6010    7.8941 N   0  0  0  0  0  0  0  0  0  0  0  0
   -1.8586    2.5204    9.4184 C   0  0  2  0  0  0  0  0  0  0  0  0
   -2.9320    3.4358    9.6982 O   0  0  0  0  0  0  0  0  0  0  0  0
    2.4378    3.8215    9.1309 C   0  0  2  0  0  0  0  0  0  0  0  0
    8.4418    0.6503   10.2134 C   0  0  1  0  0  0  0  0  0  0  0  0
    9.7215    0.9422   10.7686 O   0  0  0  0  0  0  0  0  0  0  0  0
   -0.6084    2.8435   10.3224 C   0  0  2  0  0  0  0  0  0  0  0  0
    0.4915    1.9100   10.0109 O   0  0  0  0  0  0  0  0  0  0  0  0
    3.7670    3.1377    8.7238 C   0  0  2  0  0  0  0  0  0  0  0  0
    3.6542    1.7437    8.9911 O   0  0  0  0  0  0  0  0  0  0  0  0
    7.3338    1.3281   11.0796 C   0  0  0  0  0  0  0  0  0  0  0  0
    7.4776    2.8036   11.0578 O   0  0  0  0  0  0  0  0  0  0  0  0
   -0.9391    2.7231   11.8330 C   0  0  2  0  0  0  0  0  0  0  0  0
   -1.5917    1.4800   12.0781 O   0  0  0  0  0  0  0  0  0  0  0  0
    4.9578    3.6994    9.5349 C   0  0  1  0  0  0  0  0  0  0  0  0
    6.1438    3.0065    9.0795 O   0  0  0  0  0  0  0  0  0  0  0  0
   -1.8634    3.8381   12.2937 C   0  0  0  0  0  0  0  0  0  0  0  0
    8.2583   -0.8620   10.2466 C   0  0  0  0  0  0  0  0  0  0  0  0
    8.7456   -0.0097    6.7257 C   0  0  0  0  0  0  0  0  0  0  0  0
  1  2  1  6  0  0  0
  1  6  1  0  0  0  0
  1 23  1  0  0  0  0
  3  4  1  1  0  0  0
  3  8  1  0  0  0  0
  3 30  1  0  0  0  0
  5  9  1  0  0  0  0
  5 27  1  0  0  0  0
  5 31  1  6  0  0  0
  6  7  1  6  0  0  0
  6 11  1  0  0  0  0
  8 13  1  0  0  0  0
  9 10  1  6  0  0  0
  9 15  1  0  0  0  0
 11 12  1  6  0  0  0
 11 17  1  0  0  0  0
 13 14  1  1  0  0  0
 13 19  1  0  0  0  0
 15 16  1  6  0  0  0
 15 20  1  0  0  0  0
 16 34  1  0  0  0  0
 17 18  1  1  0  0  0
 17 22  1  0  0  0  0
 19  2  1  6  0  0  0
 19 24  1  0  0  0  0
 20 21  1  1  0  0  0
 20 26  1  0  0  0  0
 20 33  1  0  0  0  0
 22 23  1  6  0  0  0
 22 28  1  0  0  0  0
 24 25  1  1  0  0  0
 24 30  1  0  0  0  0
 26 27  1  0  0  0  0
 28 29  1  6  0  0  0
 28 32  1  0  0  0  0
 30 31  1  6  0  0  0
M  END
>  <CHROM.1>
179.42145279,-169.17662818,-115.06062015,49.54016981,63.73905254,-165.80455174
3.53513555,2.69408833,9.32146380,3.02015984,-0.01487806,0.32464434

>  <Name>
ligand

>  <RI>
0

>  <Rbt.Current_Directory>
/home/itssahil/PROJECTS/Mol_Feturizer/New_Systems/rnas/3TD1

>  <Rbt.Executable>
rbdock ($Id: //depot/dev/client3/rdock/2013.1/src/exe/rbdock.cxx#4 $)

>  <Rbt.Library>
libRbt.so (2013.1, Build901 2013/11/27)

>  <Rbt.Parameter_File>
/export/apps/rDock/src/rDock_2013.1_src/data/scripts/dock_solv.prm

>  <Rbt.Receptor>
prm/pocket_docking_8.prm

>  <SCORE>
-21.4637

>  <SCORE.INTER>
-14.0169

>  <SCORE.INTER.CONST>
1

>  <SCORE.INTER.POLAR>
0

>  <SCORE.INTER.ROT>
6

>  <SCORE.INTER.SOLV>
16.8485

>  <SCORE.INTER.VDW>
-22.5608

>  <SCORE.INTER.norm>
-0.412263

>  <SCORE.INTRA>
-7.44673

>  <SCORE.INTRA.DIHEDRAL>
-16.3708

>  <SCORE.INTRA.DIHEDRAL.0>
19.5869

>  <SCORE.INTRA.POLAR>
0

>  <SCORE.INTRA.POLAR.0>
0

>  <SCORE.INTRA.REPUL>
0

>  <SCORE.INTRA.REPUL.0>
0

>  <SCORE.INTRA.SOLV>
-1.58806

>  <SCORE.INTRA.SOLV.lig_0>
-70.101

>  <SCORE.INTRA.VDW>
1.53271

>  <SCORE.INTRA.VDW.0>
-3.39718

>  <SCORE.INTRA.norm>
-0.219022

>  <SCORE.RESTR>
0

>  <SCORE.RESTR.CAVITY>
0

>  <SCORE.RESTR.norm>
0

>  <SCORE.SYSTEM>
0

>  <SCORE.SYSTEM.CONST>
0

>  <SCORE.SYSTEM.DIHEDRAL>
0

>  <SCORE.SYSTEM.SOLV>
0

>  <SCORE.SYSTEM.norm>
0

>  <SCORE.heavy>
34

>  <SCORE.norm>
-0.631285

>  <RMSD>
7.228

$$$$
ligand
 OpenBabel11021811483D
libRbt.so/2013.1/901 2013/11/27
 34 36  0  0  0  0  0  0  0  0999 V2000
   13.0412    8.0058    9.6063 C   0  0  2  0  0  0  0  0  0  0  0  0
   11.8413    7.2489    9.3830 O   0  0  0  0  0  0  0  0  0  0  0  0
    9.2734    6.9802    5.9778 C   0  0  2  0  0  0  0  0  0  0  0  0
    8.3473    7.3359    4.9083 N   0  0  0  0  0  0  0  0  0  0  0  0
   12.3247    8.1547    3.9953 C   0  0  2  0  0  0  0  0  0  0  0  0
   13.9307    7.2136   10.6300 C   0  0  2  0  0  0  0  0  0  0  0  0
   14.2951    5.8893   10.1030 N   0  0  0  0  0  0  0  0  0  0  0  0
    8.6251    7.4338    7.3282 C   0  0  0  0  0  0  0  0  0  0  0  0
   12.2077    8.0480    2.4326 C   0  0  2  0  0  0  0  0  0  0  0  0
   10.9360    8.5135    2.0119 O   0  0  0  0  0  0  0  0  0  0  0  0
   13.1622    7.0566   11.9601 C   0  0  1  0  0  0  0  0  0  0  0  0
   13.9736    6.3392   12.9044 O   0  0  0  0  0  0  0  0  0  0  0  0
    9.6082    7.0314    8.4790 C   0  0  2  0  0  0  0  0  0  0  0  0
    9.0521    7.4407    9.7847 N   0  0  0  0  0  0  0  0  0  0  0  0
   12.4285    6.5437    2.0111 C   0  0  1  0  0  0  0  0  0  0  0  0
   12.3112    6.3858    0.5303 N   0  0  0  0  0  0  0  0  0  0  0  0
   12.7840    8.4614   12.4865 C   0  0  2  0  0  0  0  0  0  0  0  0
   12.0575    8.3308   13.7209 O   0  0  0  0  0  0  0  0  0  0  0  0
   10.9909    7.7056    8.2887 C   0  0  2  0  0  0  0  0  0  0  0  0
   13.8442    6.0811    2.4982 C   0  0  1  0  0  0  0  0  0  0  0  0
   14.8483    6.8754    1.8722 O   0  0  0  0  0  0  0  0  0  0  0  0
   11.9112    9.2120   11.4097 C   0  0  2  0  0  0  0  0  0  0  0  0
   12.6606    9.3214   10.1430 O   0  0  0  0  0  0  0  0  0  0  0  0
   11.5803    7.2905    6.9175 C   0  0  2  0  0  0  0  0  0  0  0  0
   12.8397    7.9352    6.7570 O   0  0  0  0  0  0  0  0  0  0  0  0
   13.9252    6.2680    4.0461 C   0  0  0  0  0  0  0  0  0  0  0  0
   13.6465    7.6750    4.4217 O   0  0  0  0  0  0  0  0  0  0  0  0
   11.5221   10.6404   11.8726 C   0  0  2  0  0  0  0  0  0  0  0  0
   12.6763   11.3059   12.3788 O   0  0  0  0  0  0  0  0  0  0  0  0
   10.6552    7.7220    5.7558 C   0  0  1  0  0  0  0  0  0  0  0  0
   11.2862    7.2861    4.5286 O   0  0  0  0  0  0  0  0  0  0  0  0
   10.4778   10.6055   12.9763 C   0  0  0  0  0  0  0  0  0  0  0  0
   14.1224    4.6246    2.1473 C   0  0  0  0  0  0  0  0  0  0  0  0
   10.9758    5.8358    0.2282 C   0  0  0  0  0  0  0  0  0  0  0  0
  1  2  1  1  0  0  0
  1  6  1  0  0  0  0
  1 23  1  0  0  0  0
  3  4  1  6  0  0  0
  3  8  1  0  0  0  0
  3 30  1  0  0  0  0
  5  9  1  0  0  0  0
  5 27  1  0  0  0  0
  5 31  1  1  0  0  0
  6  7  1  6  0  0  0
  6 11  1  0  0  0  0
  8 13  1  0  0  0  0
  9 10  1  1  0  0  0
  9 15  1  0  0  0  0
 11 12  1  1  0  0  0
 11 17  1  0  0  0  0
 13 14  1  1  0  0  0
 13 19  1  0  0  0  0
 15 16  1  6  0  0  0
 15 20  1  0  0  0  0
 16 34  1  0  0  0  0
 17 18  1  1  0  0  0
 17 22  1  0  0  0  0
 19  2  1  1  0  0  0
 19 24  1  0  0  0  0
 20 21  1  6  0  0  0
 20 26  1  0  0  0  0
 20 33  1  0  0  0  0
 22 23  1  6  0  0  0
 22 28  1  0  0  0  0
 24 25  1  6  0  0  0
 24 30  1  0  0  0  0
 26 27  1  0  0  0  0
 28 29  1  1  0  0  0
 28 32  1  0  0  0  0
 30 31  1  6  0  0  0
M  END
>  <CHROM.1>
-169.81653957,-164.29784185,-101.18974231,47.32031129,161.71916311,-145.54049553
12.02928760,7.62646966,7.19987396,-1.58805503,0.29270687,-1.76467878

>  <Name>
ligand

>  <RI>
0

>  <Rbt.Current_Directory>
/home/itssahil/PROJECTS/Mol_Feturizer/New_Systems/rnas/3TD1

>  <Rbt.Executable>
rbdock ($Id: //depot/dev/client3/rdock/2013.1/src/exe/rbdock.cxx#4 $)

>  <Rbt.Library>
libRbt.so (2013.1, Build901 2013/11/27)

>  <Rbt.Parameter_File>
/export/apps/rDock/src/rDock_2013.1_src/data/scripts/dock_solv.prm

>  <Rbt.Receptor>
prm/pocket_docking_8.prm

>  <SCORE>
-11.1549

>  <SCORE.INTER>
-6.09788

>  <SCORE.INTER.CONST>
1

>  <SCORE.INTER.POLAR>
0

>  <SCORE.INTER.ROT>
6

>  <SCORE.INTER.SOLV>
11.5814

>  <SCORE.INTER.VDW>
-15.5257

>  <SCORE.INTER.norm>
-0.179349

>  <SCORE.INTRA>
-5.05698

>  <SCORE.INTRA.DIHEDRAL>
-10.4498

>  <SCORE.INTRA.DIHEDRAL.0>
19.5869

>  <SCORE.INTRA.POLAR>
0

>  <SCORE.INTRA.POLAR.0>
0

>  <SCORE.INTRA.REPUL>
0

>  <SCORE.INTRA.REPUL.0>
0

>  <SCORE.INTRA.SOLV>
-2.32368

>  <SCORE.INTRA.SOLV.lig_0>
-70.101

>  <SCORE.INTRA.VDW>
1.32977

>  <SCORE.INTRA.VDW.0>
-3.39718

>  <SCORE.INTRA.norm>
-0.148735

>  <SCORE.RESTR>
0

>  <SCORE.RESTR.CAVITY>
0

>  <SCORE.RESTR.norm>
0

>  <SCORE.SYSTEM>
0

>  <SCORE.SYSTEM.CONST>
0

>  <SCORE.SYSTEM.DIHEDRAL>
0

>  <SCORE.SYSTEM.SOLV>
0

>  <SCORE.SYSTEM.norm>
0

>  <SCORE.heavy>
34

>  <SCORE.norm>
-0.328084

>  <RMSD>
7.258

$$$$
ligand
 OpenBabel11021811483D
libRbt.so/2013.1/901 2013/11/27
 34 36  0  0  0  0  0  0  0  0999 V2000
   12.0527    8.5495    7.7698 C   0  0  2  0  0  0  0  0  0  0  0  0
   12.6324    7.2365    7.8192 O   0  0  0  0  0  0  0  0  0  0  0  0
   13.2829    4.5270    4.5793 C   0  0  2  0  0  0  0  0  0  0  0  0
   13.0483    3.5633    3.5095 N   0  0  0  0  0  0  0  0  0  0  0  0
   13.0879    5.7046    1.8022 C   0  0  2  0  0  0  0  0  0  0  0  0
   12.5042    9.3275    9.0572 C   0  0  2  0  0  0  0  0  0  0  0  0
   13.9686    9.4564    9.1135 N   0  0  0  0  0  0  0  0  0  0  0  0
   12.6465    3.9417    5.8840 C   0  0  0  0  0  0  0  0  0  0  0  0
   13.7411    6.5815    0.6747 C   0  0  2  0  0  0  0  0  0  0  0  0
   15.1112    6.8004    0.9676 O   0  0  0  0  0  0  0  0  0  0  0  0
   11.9936    8.5827   10.3097 C   0  0  1  0  0  0  0  0  0  0  0  0
   12.3965    9.2937   11.4916 O   0  0  0  0  0  0  0  0  0  0  0  0
   12.9182    4.9650    7.0381 C   0  0  2  0  0  0  0  0  0  0  0  0
   12.3334    4.4694    8.3007 N   0  0  0  0  0  0  0  0  0  0  0  0
   12.9568    7.9473    0.5789 C   0  0  1  0  0  0  0  0  0  0  0  0
   13.5511    8.8268   -0.4721 N   0  0  0  0  0  0  0  0  0  0  0  0
   10.4544    8.4534   10.2204 C   0  0  2  0  0  0  0  0  0  0  0  0
    9.9649    7.7515   11.3763 O   0  0  0  0  0  0  0  0  0  0  0  0
   12.3025    6.3490    6.7089 C   0  0  2  0  0  0  0  0  0  0  0  0
   11.4531    7.6491    0.2541 C   0  0  1  0  0  0  0  0  0  0  0  0
   11.3581    6.9869   -1.0043 O   0  0  0  0  0  0  0  0  0  0  0  0
   10.0644    7.6834    8.9015 C   0  0  2  0  0  0  0  0  0  0  0  0
   10.5897    8.4036    7.7252 O   0  0  0  0  0  0  0  0  0  0  0  0
   12.9022    6.8751    5.3809 C   0  0  2  0  0  0  0  0  0  0  0  0
   12.3094    8.1366    5.0899 O   0  0  0  0  0  0  0  0  0  0  0  0
   10.8749    6.7248    1.3715 C   0  0  0  0  0  0  0  0  0  0  0  0
   11.6703    5.4789    1.4881 O   0  0  0  0  0  0  0  0  0  0  0  0
    8.5274    7.5453    8.7442 C   0  0  2  0  0  0  0  0  0  0  0  0
    8.0039    6.7978    9.8389 O   0  0  0  0  0  0  0  0  0  0  0  0
   12.6044    5.9097    4.2100 C   0  0  1  0  0  0  0  0  0  0  0  0
   13.2070    6.4829    3.0258 O   0  0  0  0  0  0  0  0  0  0  0  0
    8.1596    6.8195    7.4607 C   0  0  0  0  0  0  0  0  0  0  0  0
   10.6224    8.9237    0.1690 C   0  0  0  0  0  0  0  0  0  0  0  0
   13.8861   10.1242    0.1457 C   0  0  0  0  0  0  0  0  0  0  0  0
  1  2  1  1  0  0  0
  1  6  1  0  0  0  0
  1 23  1  0  0  0  0
  3  4  1  6  0  0  0
  3  8  1  0  0  0  0
  3 30  1  0  0  0  0
  5  9  1  0  0  0  0
  5 27  1  0  0  0  0
  5 31  1  1  0  0  0
  6  7  1  1  0  0  0
  6 11  1  0  0  0  0
  8 13  1  0  0  0  0
  9 10  1  1  0  0  0
  9 15  1  0  0  0  0
 11 12  1  1  0  0  0
 11 17  1  0  0  0  0
 13 14  1  1  0  0  0
 13 19  1  0  0  0  0
 15 16  1  6  0  0  0
 15 20  1  0  0  0  0
 16 34  1  0  0  0  0
 17 18  1  1  0  0  0
 17 22  1  0  0  0  0
 19  2  1  1  0  0  0
 19 24  1  0  0  0  0
 20 21  1  6  0  0  0
 20 26  1  0  0  0  0
 20 33  1  0  0  0  0
 22 23  1  6  0  0  0
 22 28  1  0  0  0  0
 24 25  1  6  0  0  0
 24 30  1  0  0  0  0
 26 27  1  0  0  0  0
 28 29  1  1  0  0  0
 28 32  1  0  0  0  0
 30 31  1  6  0  0  0
M  END
>  <CHROM.1>
178.90197837,-174.74441066,-125.18878402,-61.31397522,61.91253930,176.75059744
11.95718811,7.16043284,5.27983004,2.76045488,-1.35141469,2.68278509

>  <Name>
ligand

>  <RI>
0

>  <Rbt.Current_Directory>
/home/itssahil/PROJECTS/Mol_Feturizer/New_Systems/rnas/3TD1

>  <Rbt.Executable>
rbdock ($Id: //depot/dev/client3/rdock/2013.1/src/exe/rbdock.cxx#4 $)

>  <Rbt.Library>
libRbt.so (2013.1, Build901 2013/11/27)

>  <Rbt.Parameter_File>
/export/apps/rDock/src/rDock_2013.1_src/data/scripts/dock_solv.prm

>  <Rbt.Receptor>
prm/pocket_docking_8.prm

>  <SCORE>
-10.9581

>  <SCORE.INTER>
-2.33519

>  <SCORE.INTER.CONST>
1

>  <SCORE.INTER.POLAR>
0

>  <SCORE.INTER.ROT>
6

>  <SCORE.INTER.SOLV>
12.6864

>  <SCORE.INTER.VDW>
-13.3856

>  <SCORE.INTER.norm>
-0.0686821

>  <SCORE.INTRA>
-8.62286

>  <SCORE.INTRA.DIHEDRAL>
-18.1194

>  <SCORE.INTRA.DIHEDRAL.0>
19.5869

>  <SCORE.INTRA.POLAR>
0

>  <SCORE.INTRA.POLAR.0>
0

>  <SCORE.INTRA.REPUL>
0

>  <SCORE.INTRA.REPUL.0>
0

>  <SCORE.INTRA.SOLV>
-1.72586

>  <SCORE.INTRA.SOLV.lig_0>
-70.101

>  <SCORE.INTRA.VDW>
1.29977

>  <SCORE.INTRA.VDW.0>
-3.39718

>  <SCORE.INTRA.norm>
-0.253614

>  <SCORE.RESTR>
0

>  <SCORE.RESTR.CAVITY>
0

>  <SCORE.RESTR.norm>
0

>  <SCORE.SYSTEM>
0

>  <SCORE.SYSTEM.CONST>
0

>  <SCORE.SYSTEM.DIHEDRAL>
0

>  <SCORE.SYSTEM.SOLV>
0

>  <SCORE.SYSTEM.norm>
0

>  <SCORE.heavy>
34

>  <SCORE.norm>
-0.322296

>  <RMSD>
7.298

$$$$
ligand
 OpenBabel11021811483D
libRbt.so/2013.1/901 2013/11/27
 34 36  0  0  0  0  0  0  0  0999 V2000
    9.8553    6.7099    1.3657 C   0  0  2  0  0  0  0  0  0  0  0  0
   10.8878    7.1550    2.2592 O   0  0  0  0  0  0  0  0  0  0  0  0
   12.3471    3.2139    3.0342 C   0  0  2  0  0  0  0  0  0  0  0  0
   13.1810    2.1108    3.4985 N   0  0  0  0  0  0  0  0  0  0  0  0
   11.5460    2.1692    5.9123 C   0  0  2  0  0  0  0  0  0  0  0  0
    9.2396    7.9749    0.6677 C   0  0  2  0  0  0  0  0  0  0  0  0
   10.2574    8.7021   -0.1066 N   0  0  0  0  0  0  0  0  0  0  0  0
   13.2538    4.1557    2.1735 C   0  0  0  0  0  0  0  0  0  0  0  0
   10.3899    1.4328    6.6793 C   0  0  2  0  0  0  0  0  0  0  0  0
    9.5405    0.7749    5.7539 O   0  0  0  0  0  0  0  0  0  0  0  0
    8.6313    8.9048    1.7400 C   0  0  1  0  0  0  0  0  0  0  0  0
    8.0589   10.0610    1.1074 O   0  0  0  0  0  0  0  0  0  0  0  0
   12.3538    5.3281    1.6553 C   0  0  2  0  0  0  0  0  0  0  0  0
   13.1580    6.2588    0.8375 N   0  0  0  0  0  0  0  0  0  0  0  0
    9.5892    2.4956    7.5271 C   0  0  1  0  0  0  0  0  0  0  0  0
    8.4651    1.8459    8.2657 N   0  0  0  0  0  0  0  0  0  0  0  0
    7.5726    8.1134    2.5440 C   0  0  2  0  0  0  0  0  0  0  0  0
    7.0042    8.9643    3.5547 O   0  0  0  0  0  0  0  0  0  0  0  0
   11.7276    6.1112    2.8375 C   0  0  2  0  0  0  0  0  0  0  0  0
   10.5714    3.1908    8.5309 C   0  0  1  0  0  0  0  0  0  0  0  0
   11.1110    2.2186    9.4224 O   0  0  0  0  0  0  0  0  0  0  0  0
    8.2452    6.8489    3.2021 C   0  0  2  0  0  0  0  0  0  0  0  0
    8.8413    5.9952    2.1561 O   0  0  0  0  0  0  0  0  0  0  0  0
   10.8886    5.1426    3.7081 C   0  0  2  0  0  0  0  0  0  0  0  0
   10.3393    5.8790    4.7959 O   0  0  0  0  0  0  0  0  0  0  0  0
   11.7307    3.8500    7.7191 C   0  0  0  0  0  0  0  0  0  0  0  0
   12.4234    2.8437    6.8788 O   0  0  0  0  0  0  0  0  0  0  0  0
    7.2234    5.9999    4.0028 C   0  0  2  0  0  0  0  0  0  0  0  0
    6.0274    5.8547    3.2414 O   0  0  0  0  0  0  0  0  0  0  0  0
   11.7625    4.0012    4.2781 C   0  0  1  0  0  0  0  0  0  0  0  0
   10.8916    3.1544    5.0647 O   0  0  0  0  0  0  0  0  0  0  0  0
    6.8625    6.6586    5.3240 C   0  0  0  0  0  0  0  0  0  0  0  0
    9.8733    4.2520    9.3724 C   0  0  0  0  0  0  0  0  0  0  0  0
    7.2071    2.1573    7.5605 C   0  0  0  0  0  0  0  0  0  0  0  0
  1  2  1  1  0  0  0
  1  6  1  0  0  0  0
  1 23  1  0  0  0  0
  3  4  1  1  0  0  0
  3  8  1  0  0  0  0
  3 30  1  0  0  0  0
  5  9  1  0  0  0  0
  5 27  1  0  0  0  0
  5 31  1  6  0  0  0
  6  7  1  1  0  0  0
  6 11  1  0  0  0  0
  8 13  1  0  0  0  0
  9 10  1  6  0  0  0
  9 15  1  0  0  0  0
 11 12  1  6  0  0  0
 11 17  1  0  0  0  0
 13 14  1  1  0  0  0
 13 19  1  0  0  0  0
 15 16  1  1  0  0  0
 15 20  1  0  0  0  0
 16 34  1  0  0  0  0
 17 18  1  1  0  0  0
 17 22  1  0  0  0  0
 19  2  1  6  0  0  0
 19 24  1  0  0  0  0
 20 21  1  1  0  0  0
 20 26  1  0  0  0  0
 20 33  1  0  0  0  0
 22 23  1  6  0  0  0
 22 28  1  0  0  0  0
 24 25  1  1  0  0  0
 24 30  1  0  0  0  0
 26 27  1  0  0  0  0
 28 29  1  6  0  0  0
 28 32  1  0  0  0  0
 30 31  1  1  0  0  0
M  END
>  <CHROM.1>
-170.29098522,56.97000764,-103.47509029,44.51671908,75.94229522,178.10987977
9.99272858,5.02148278,4.34069625,-1.76142371,-0.48114651,2.24787682

>  <Name>
ligand

>  <RI>
0

>  <Rbt.Current_Directory>
/home/itssahil/PROJECTS/Mol_Feturizer/New_Systems/rnas/3TD1

>  <Rbt.Executable>
rbdock ($Id: //depot/dev/client3/rdock/2013.1/src/exe/rbdock.cxx#4 $)

>  <Rbt.Library>
libRbt.so (2013.1, Build901 2013/11/27)

>  <Rbt.Parameter_File>
/export/apps/rDock/src/rDock_2013.1_src/data/scripts/dock_solv.prm

>  <Rbt.Receptor>
prm/pocket_docking_7.prm

>  <SCORE>
-13.2

>  <SCORE.INTER>
-6.4391

>  <SCORE.INTER.CONST>
1

>  <SCORE.INTER.POLAR>
0

>  <SCORE.INTER.ROT>
6

>  <SCORE.INTER.SOLV>
11.2567

>  <SCORE.INTER.VDW>
-15.645

>  <SCORE.INTER.norm>
-0.189385

>  <SCORE.INTRA>
-6.76091

>  <SCORE.INTRA.DIHEDRAL>
-16.0164

>  <SCORE.INTRA.DIHEDRAL.0>
19.5869

>  <SCORE.INTRA.POLAR>
0

>  <SCORE.INTRA.POLAR.0>
0

>  <SCORE.INTRA.REPUL>
0

>  <SCORE.INTRA.REPUL.0>
0

>  <SCORE.INTRA.SOLV>
-0.351614

>  <SCORE.INTRA.SOLV.lig_0>
-70.101

>  <SCORE.INTRA.VDW>
1.42312

>  <SCORE.INTRA.VDW.0>
-3.39718

>  <SCORE.INTRA.norm>
-0.19885

>  <SCORE.RESTR>
0

>  <SCORE.RESTR.CAVITY>
0

>  <SCORE.RESTR.norm>
0

>  <SCORE.SYSTEM>
0

>  <SCORE.SYSTEM.CONST>
0

>  <SCORE.SYSTEM.DIHEDRAL>
0

>  <SCORE.SYSTEM.SOLV>
0

>  <SCORE.SYSTEM.norm>
0

>  <SCORE.heavy>
34

>  <SCORE.norm>
-0.388235

>  <RMSD>
7.409

$$$$
ligand
 OpenBabel11021811483D
libRbt.so/2013.1/901 2013/11/27
 34 36  0  0  0  0  0  0  0  0999 V2000
    9.8330    5.5189    2.7876 C   0  0  2  0  0  0  0  0  0  0  0  0
   10.8121    5.9999    3.7218 O   0  0  0  0  0  0  0  0  0  0  0  0
   10.6433    2.5063    6.1770 C   0  0  2  0  0  0  0  0  0  0  0  0
   10.9655    1.5059    7.1886 N   0  0  0  0  0  0  0  0  0  0  0  0
    8.8162    4.7983    8.6444 C   0  0  2  0  0  0  0  0  0  0  0  0
    9.8578    6.4610    1.5313 C   0  0  2  0  0  0  0  0  0  0  0  0
   11.1789    6.4482    0.8840 N   0  0  0  0  0  0  0  0  0  0  0  0
   11.9116    2.6878    5.2780 C   0  0  0  0  0  0  0  0  0  0  0  0
    8.6396    4.0875   10.0339 C   0  0  2  0  0  0  0  0  0  0  0  0
    9.8363    3.4128   10.3854 O   0  0  0  0  0  0  0  0  0  0  0  0
    9.4983    7.8991    1.9638 C   0  0  1  0  0  0  0  0  0  0  0  0
    9.5114    8.7653    0.8174 O   0  0  0  0  0  0  0  0  0  0  0  0
   11.5590    3.7447    4.1772 C   0  0  2  0  0  0  0  0  0  0  0  0
   12.7241    3.9649    3.2966 N   0  0  0  0  0  0  0  0  0  0  0  0
    7.4291    3.0803    9.9357 C   0  0  1  0  0  0  0  0  0  0  0  0
    7.2289    2.3647   11.2315 N   0  0  0  0  0  0  0  0  0  0  0  0
    8.1110    7.8820    2.6484 C   0  0  2  0  0  0  0  0  0  0  0  0
    7.7670    9.2143    3.0669 O   0  0  0  0  0  0  0  0  0  0  0  0
   11.1503    5.0963    4.8166 C   0  0  2  0  0  0  0  0  0  0  0  0
    6.1358    3.8750    9.5463 C   0  0  1  0  0  0  0  0  0  0  0  0
    5.8415    4.8344   10.5582 O   0  0  0  0  0  0  0  0  0  0  0  0
    8.1443    6.9065    3.8862 C   0  0  2  0  0  0  0  0  0  0  0  0
    8.5178    5.5484    3.4456 O   0  0  0  0  0  0  0  0  0  0  0  0
    9.9338    4.8759    5.7501 C   0  0  2  0  0  0  0  0  0  0  0  0
    9.5884    6.1254    6.3392 O   0  0  0  0  0  0  0  0  0  0  0  0
    6.3905    4.6102    8.1928 C   0  0  0  0  0  0  0  0  0  0  0  0
    7.5737    5.4984    8.2906 O   0  0  0  0  0  0  0  0  0  0  0  0
    6.7692    6.8285    4.5995 C   0  0  2  0  0  0  0  0  0  0  0  0
    6.8509    5.9125    5.6882 O   0  0  0  0  0  0  0  0  0  0  0  0
   10.2686    3.8750    6.8804 C   0  0  1  0  0  0  0  0  0  0  0  0
    9.0755    3.7336    7.6871 O   0  0  0  0  0  0  0  0  0  0  0  0
    5.6780    6.3445    3.6589 C   0  0  0  0  0  0  0  0  0  0  0  0
    4.9233    2.9626    9.4083 C   0  0  0  0  0  0  0  0  0  0  0  0
    7.7773    1.0016   11.0967 C   0  0  0  0  0  0  0  0  0  0  0  0
  1  2  1  1  0  0  0
  1  6  1  0  0  0  0
  1 23  1  0  0  0  0
  3  4  1  1  0  0  0
  3  8  1  0  0  0  0
  3 30  1  0  0  0  0
  5  9  1  0  0  0  0
  5 27  1  0  0  0  0
  5 31  1  6  0  0  0
  6  7  1  1  0  0  0
  6 11  1  0  0  0  0
  8 13  1  0  0  0  0
  9 10  1  6  0  0  0
  9 15  1  0  0  0  0
 11 12  1  6  0  0  0
 11 17  1  0  0  0  0
 13 14  1  6  0  0  0
 13 19  1  0  0  0  0
 15 16  1  1  0  0  0
 15 20  1  0  0  0  0
 16 34  1  0  0  0  0
 17 18  1  1  0  0  0
 17 22  1  0  0  0  0
 19  2  1  6  0  0  0
 19 24  1  0  0  0  0
 20 21  1  1  0  0  0
 20 26  1  0  0  0  0
 20 33  1  0  0  0  0
 22 23  1  6  0  0  0
 22 28  1  0  0  0  0
 24 25  1  1  0  0  0
 24 30  1  0  0  0  0
 26 27  1  0  0  0  0
 28 29  1  1  0  0  0
 28 32  1  0  0  0  0
 30 31  1  1  0  0  0
M  END
>  <CHROM.1>
-166.90096153,53.73215220,-102.95748500,178.70897034,164.84288841,-126.22539942
8.81836934,4.97735555,6.00812703,-1.29616655,-0.51022219,2.16895537

>  <Name>
ligand

>  <RI>
0

>  <Rbt.Current_Directory>
/home/itssahil/PROJECTS/Mol_Feturizer/New_Systems/rnas/3TD1

>  <Rbt.Executable>
rbdock ($Id: //depot/dev/client3/rdock/2013.1/src/exe/rbdock.cxx#4 $)

>  <Rbt.Library>
libRbt.so (2013.1, Build901 2013/11/27)

>  <Rbt.Parameter_File>
/export/apps/rDock/src/rDock_2013.1_src/data/scripts/dock_solv.prm

>  <Rbt.Receptor>
prm/pocket_docking_6.prm

>  <SCORE>
-7.57387

>  <SCORE.INTER>
-3.94604

>  <SCORE.INTER.CONST>
1

>  <SCORE.INTER.POLAR>
0

>  <SCORE.INTER.ROT>
6

>  <SCORE.INTER.SOLV>
10.4056

>  <SCORE.INTER.VDW>
-13.6992

>  <SCORE.INTER.norm>
-0.11606

>  <SCORE.INTRA>
-3.62784

>  <SCORE.INTRA.DIHEDRAL>
-9.47985

>  <SCORE.INTRA.DIHEDRAL.0>
19.5869

>  <SCORE.INTRA.POLAR>
0

>  <SCORE.INTRA.POLAR.0>
0

>  <SCORE.INTRA.REPUL>
0

>  <SCORE.INTRA.REPUL.0>
0

>  <SCORE.INTRA.SOLV>
-0.235196

>  <SCORE.INTRA.SOLV.lig_0>
-70.101

>  <SCORE.INTRA.VDW>
1.22969

>  <SCORE.INTRA.VDW.0>
-3.39718

>  <SCORE.INTRA.norm>
-0.106701

>  <SCORE.RESTR>
0

>  <SCORE.RESTR.CAVITY>
0

>  <SCORE.RESTR.norm>
0

>  <SCORE.SYSTEM>
0

>  <SCORE.SYSTEM.CONST>
0

>  <SCORE.SYSTEM.DIHEDRAL>
0

>  <SCORE.SYSTEM.SOLV>
0

>  <SCORE.SYSTEM.norm>
0

>  <SCORE.heavy>
34

>  <SCORE.norm>
-0.222761

>  <RMSD>
7.417

$$$$
ligand
 OpenBabel11021811483D
libRbt.so/2013.1/901 2013/11/27
 34 36  0  0  0  0  0  0  0  0999 V2000
    0.7508    1.5111    8.0659 C   0  0  2  0  0  0  0  0  0  0  0  0
    1.0786    2.9010    7.9132 O   0  0  0  0  0  0  0  0  0  0  0  0
    4.6050    4.9772    9.1445 C   0  0  2  0  0  0  0  0  0  0  0  0
    5.6249    5.6040    9.9781 N   0  0  0  0  0  0  0  0  0  0  0  0
    7.0301    3.3183    9.6792 C   0  0  2  0  0  0  0  0  0  0  0  0
   -0.2532    1.1214    6.9228 C   0  0  2  0  0  0  0  0  0  0  0  0
    0.3483    1.3249    5.5957 N   0  0  0  0  0  0  0  0  0  0  0  0
    3.2285    5.6142    9.5310 C   0  0  0  0  0  0  0  0  0  0  0  0
    8.2382    2.8290    8.8028 C   0  0  2  0  0  0  0  0  0  0  0  0
    8.1389    3.3748    7.4978 O   0  0  0  0  0  0  0  0  0  0  0  0
   -1.5342    1.9733    7.0555 C   0  0  1  0  0  0  0  0  0  0  0  0
   -2.4609    1.6162    6.0170 O   0  0  0  0  0  0  0  0  0  0  0  0
    2.1360    4.9585    8.6203 C   0  0  2  0  0  0  0  0  0  0  0  0
    0.8073    5.5170    8.9434 N   0  0  0  0  0  0  0  0  0  0  0  0
    8.2250    1.2518    8.7599 C   0  0  1  0  0  0  0  0  0  0  0  0
    9.3492    0.7352    7.9229 N   0  0  0  0  0  0  0  0  0  0  0  0
   -2.1401    1.7475    8.4610 C   0  0  2  0  0  0  0  0  0  0  0  0
   -3.3294    2.5437    8.6035 O   0  0  0  0  0  0  0  0  0  0  0  0
    2.0967    3.4218    8.8196 C   0  0  2  0  0  0  0  0  0  0  0  0
    8.3373    0.7018   10.2230 C   0  0  1  0  0  0  0  0  0  0  0  0
    9.5697    1.1256   10.7998 O   0  0  0  0  0  0  0  0  0  0  0  0
   -1.0810    2.1365    9.5618 C   0  0  2  0  0  0  0  0  0  0  0  0
    0.1410    1.3265    9.3917 O   0  0  0  0  0  0  0  0  0  0  0  0
    3.4886    2.8257    8.4921 C   0  0  2  0  0  0  0  0  0  0  0  0
    3.4336    1.4181    8.6996 O   0  0  0  0  0  0  0  0  0  0  0  0
    7.1495    1.2697   11.0621 C   0  0  0  0  0  0  0  0  0  0  0  0
    7.1438    2.7520   11.0303 O   0  0  0  0  0  0  0  0  0  0  0  0
   -1.6248    1.9060   10.9960 C   0  0  2  0  0  0  0  0  0  0  0  0
   -2.7332    2.7714   11.2278 O   0  0  0  0  0  0  0  0  0  0  0  0
    4.5821    3.4163    9.4124 C   0  0  1  0  0  0  0  0  0  0  0  0
    5.8356    2.8055    9.0254 O   0  0  0  0  0  0  0  0  0  0  0  0
   -0.5692    2.2020   12.0486 C   0  0  0  0  0  0  0  0  0  0  0  0
    8.3070   -0.8210   10.2658 C   0  0  0  0  0  0  0  0  0  0  0  0
    8.7796    0.1482    6.6949 C   0  0  0  0  0  0  0  0  0  0  0  0
  1  2  1  6  0  0  0
  1  6  1  0  0  0  0
  1 23  1  0  0  0  0
  3  4  1  1  0  0  0
  3  8  1  0  0  0  0
  3 30  1  0  0  0  0
  5  9  1  0  0  0  0
  5 27  1  0  0  0  0
  5 31  1  6  0  0  0
  6  7  1  6  0  0  0
  6 11  1  0  0  0  0
  8 13  1  0  0  0  0
  9 10  1  6  0  0  0
  9 15  1  0  0  0  0
 11 12  1  6  0  0  0
 11 17  1  0  0  0  0
 13 14  1  1  0  0  0
 13 19  1  0  0  0  0
 15 16  1  6  0  0  0
 15 20  1  0  0  0  0
 16 34  1  0  0  0  0
 17 18  1  1  0  0  0
 17 22  1  0  0  0  0
 19  2  1  6  0  0  0
 19 24  1  0  0  0  0
 20 21  1  1  0  0  0
 20 26  1  0  0  0  0
 20 33  1  0  0  0  0
 22 23  1  6  0  0  0
 22 28  1  0  0  0  0
 24 25  1  1  0  0  0
 24 30  1  0  0  0  0
 26 27  1  0  0  0  0
 28 29  1  1  0  0  0
 28 32  1  0  0  0  0
 30 31  1  6  0  0  0
M  END
>  <CHROM.1>
-174.81623370,-171.87377564,-110.59533634,-63.99968159,58.18046569,-163.34886862
3.30628546,2.40266245,8.98544223,3.14008360,-0.08644731,0.73898458

>  <Name>
ligand

>  <RI>
0

>  <Rbt.Current_Directory>
/home/itssahil/PROJECTS/Mol_Feturizer/New_Systems/rnas/3TD1

>  <Rbt.Executable>
rbdock ($Id: //depot/dev/client3/rdock/2013.1/src/exe/rbdock.cxx#4 $)

>  <Rbt.Library>
libRbt.so (2013.1, Build901 2013/11/27)

>  <Rbt.Parameter_File>
/export/apps/rDock/src/rDock_2013.1_src/data/scripts/dock_solv.prm

>  <Rbt.Receptor>
prm/pocket_docking_8.prm

>  <SCORE>
-20.573

>  <SCORE.INTER>
-12.7058

>  <SCORE.INTER.CONST>
1

>  <SCORE.INTER.POLAR>
0

>  <SCORE.INTER.ROT>
6

>  <SCORE.INTER.SOLV>
17.2731

>  <SCORE.INTER.VDW>
-21.8282

>  <SCORE.INTER.norm>
-0.373699

>  <SCORE.INTRA>
-7.86721

>  <SCORE.INTRA.DIHEDRAL>
-16.5816

>  <SCORE.INTRA.DIHEDRAL.0>
19.5869

>  <SCORE.INTRA.POLAR>
0

>  <SCORE.INTRA.POLAR.0>
0

>  <SCORE.INTRA.REPUL>
0

>  <SCORE.INTRA.REPUL.0>
0

>  <SCORE.INTRA.SOLV>
-1.72092

>  <SCORE.INTRA.SOLV.lig_0>
-70.101

>  <SCORE.INTRA.VDW>
1.28406

>  <SCORE.INTRA.VDW.0>
-3.39718

>  <SCORE.INTRA.norm>
-0.231389

>  <SCORE.RESTR>
0

>  <SCORE.RESTR.CAVITY>
0

>  <SCORE.RESTR.norm>
0

>  <SCORE.SYSTEM>
0

>  <SCORE.SYSTEM.CONST>
0

>  <SCORE.SYSTEM.DIHEDRAL>
0

>  <SCORE.SYSTEM.SOLV>
0

>  <SCORE.SYSTEM.norm>
0

>  <SCORE.heavy>
34

>  <SCORE.norm>
-0.605088

>  <RMSD>
7.438

$$$$
ligand
 OpenBabel11021811483D
libRbt.so/2013.1/901 2013/11/27
 34 36  0  0  0  0  0  0  0  0999 V2000
   10.1439    6.1160    4.5643 C   0  0  2  0  0  0  0  0  0  0  0  0
    9.0483    5.1908    4.6422 O   0  0  0  0  0  0  0  0  0  0  0  0
    7.3761    3.4206    8.1538 C   0  0  2  0  0  0  0  0  0  0  0  0
    7.1940    2.5723    9.3266 N   0  0  0  0  0  0  0  0  0  0  0  0
    9.5305    6.0526    9.9378 C   0  0  2  0  0  0  0  0  0  0  0  0
    9.7818    7.2074    3.4946 C   0  0  2  0  0  0  0  0  0  0  0  0
    8.5656    7.9420    3.8763 N   0  0  0  0  0  0  0  0  0  0  0  0
    7.6304    2.4786    6.9300 C   0  0  0  0  0  0  0  0  0  0  0  0
   10.3987    5.0590   10.7898 C   0  0  2  0  0  0  0  0  0  0  0  0
   10.8398    3.9849    9.9758 O   0  0  0  0  0  0  0  0  0  0  0  0
    9.5775    6.5298    2.1222 C   0  0  1  0  0  0  0  0  0  0  0  0
    9.2535    7.5240    1.1366 O   0  0  0  0  0  0  0  0  0  0  0  0
    7.8029    3.3876    5.6663 C   0  0  2  0  0  0  0  0  0  0  0  0
    8.0531    2.5528    4.4738 N   0  0  0  0  0  0  0  0  0  0  0  0
    9.5281    4.5348   11.9968 C   0  0  1  0  0  0  0  0  0  0  0  0
   10.3059    3.5709   12.8317 N   0  0  0  0  0  0  0  0  0  0  0  0
   10.8660    5.7584    1.7501 C   0  0  2  0  0  0  0  0  0  0  0  0
   10.6868    5.1123    0.4776 O   0  0  0  0  0  0  0  0  0  0  0  0
    8.9870    4.3713    5.8480 C   0  0  2  0  0  0  0  0  0  0  0  0
    9.0683    5.7579   12.8618 C   0  0  1  0  0  0  0  0  0  0  0  0
   10.2108    6.4272   13.3888 O   0  0  0  0  0  0  0  0  0  0  0  0
   11.1867    4.6947    2.8683 C   0  0  2  0  0  0  0  0  0  0  0  0
   11.3484    5.3687    4.1713 O   0  0  0  0  0  0  0  0  0  0  0  0
    8.7398    5.2467    7.1019 C   0  0  2  0  0  0  0  0  0  0  0  0
    9.8470    6.1281    7.2589 O   0  0  0  0  0  0  0  0  0  0  0  0
    8.2663    6.7400   11.9509 C   0  0  0  0  0  0  0  0  0  0  0  0
    9.0820    7.1642   10.7877 O   0  0  0  0  0  0  0  0  0  0  0  0
   12.4863    3.9054    2.5614 C   0  0  2  0  0  0  0  0  0  0  0  0
   12.7187    2.9535    3.5963 O   0  0  0  0  0  0  0  0  0  0  0  0
    8.6174    4.3789    8.3761 C   0  0  1  0  0  0  0  0  0  0  0  0
    8.3831    5.2825    9.4820 O   0  0  0  0  0  0  0  0  0  0  0  0
   13.6945    4.8243    2.4879 C   0  0  0  0  0  0  0  0  0  0  0  0
    8.1990    5.3321   14.0385 C   0  0  0  0  0  0  0  0  0  0  0  0
    9.5501    2.3057   12.9026 C   0  0  0  0  0  0  0  0  0  0  0  0
  1  2  1  6  0  0  0
  1  6  1  0  0  0  0
  1 23  1  0  0  0  0
  3  4  1  1  0  0  0
  3  8  1  0  0  0  0
  3 30  1  0  0  0  0
  5  9  1  0  0  0  0
  5 27  1  0  0  0  0
  5 31  1  1  0  0  0
  6  7  1  1  0  0  0
  6 11  1  0  0  0  0
  8 13  1  0  0  0  0
  9 10  1  6  0  0  0
  9 15  1  0  0  0  0
 11 12  1  6  0  0  0
 11 17  1  0  0  0  0
 13 14  1  6  0  0  0
 13 19  1  0  0  0  0
 15 16  1  1  0  0  0
 15 20  1  0  0  0  0
 16 34  1  0  0  0  0
 17 18  1  6  0  0  0
 17 22  1  0  0  0  0
 19  2  1  6  0  0  0
 19 24  1  0  0  0  0
 20 21  1  1  0  0  0
 20 26  1  0  0  0  0
 20 33  1  0  0  0  0
 22 23  1  1  0  0  0
 22 28  1  0  0  0  0
 24 25  1  1  0  0  0
 24 30  1  0  0  0  0
 26 27  1  0  0  0  0
 28 29  1  1  0  0  0
 28 32  1  0  0  0  0
 30 31  1  1  0  0  0
M  END
>  <CHROM.1>
-160.96293309,-175.84758923,-123.73587037,-179.48256998,169.65168084,-77.30671925
9.64520225,5.00765756,7.10999285,0.69252874,1.37056053,-0.65054754

>  <Name>
ligand

>  <RI>
0

>  <Rbt.Current_Directory>
/home/itssahil/PROJECTS/Mol_Feturizer/New_Systems/rnas/3TD1

>  <Rbt.Executable>
rbdock ($Id: //depot/dev/client3/rdock/2013.1/src/exe/rbdock.cxx#4 $)

>  <Rbt.Library>
libRbt.so (2013.1, Build901 2013/11/27)

>  <Rbt.Parameter_File>
/export/apps/rDock/src/rDock_2013.1_src/data/scripts/dock_solv.prm

>  <Rbt.Receptor>
prm/pocket_docking_6.prm

>  <SCORE>
-6.49052

>  <SCORE.INTER>
-0.373309

>  <SCORE.INTER.CONST>
1

>  <SCORE.INTER.POLAR>
0

>  <SCORE.INTER.ROT>
6

>  <SCORE.INTER.SOLV>
13.7819

>  <SCORE.INTER.VDW>
-12.4428

>  <SCORE.INTER.norm>
-0.0109797

>  <SCORE.INTRA>
-6.11721

>  <SCORE.INTRA.DIHEDRAL>
-14.7107

>  <SCORE.INTRA.DIHEDRAL.0>
19.5869

>  <SCORE.INTRA.POLAR>
0

>  <SCORE.INTRA.POLAR.0>
0

>  <SCORE.INTRA.REPUL>
0

>  <SCORE.INTRA.REPUL.0>
0

>  <SCORE.INTRA.SOLV>
-2.01334

>  <SCORE.INTRA.SOLV.lig_0>
-70.101

>  <SCORE.INTRA.VDW>
2.24482

>  <SCORE.INTRA.VDW.0>
-3.39718

>  <SCORE.INTRA.norm>
-0.179918

>  <SCORE.RESTR>
0

>  <SCORE.RESTR.CAVITY>
0

>  <SCORE.RESTR.norm>
0

>  <SCORE.SYSTEM>
0

>  <SCORE.SYSTEM.CONST>
0

>  <SCORE.SYSTEM.DIHEDRAL>
0

>  <SCORE.SYSTEM.SOLV>
0

>  <SCORE.SYSTEM.norm>
0

>  <SCORE.heavy>
34

>  <SCORE.norm>
-0.190898

>  <RMSD>
7.451

$$$$
ligand
 OpenBabel11021811483D
libRbt.so/2013.1/901 2013/11/27
 34 36  0  0  0  0  0  0  0  0999 V2000
    0.7167    1.4794    7.9985 C   0  0  2  0  0  0  0  0  0  0  0  0
    1.0356    2.8739    7.8708 O   0  0  0  0  0  0  0  0  0  0  0  0
    4.5362    4.9677    9.1449 C   0  0  2  0  0  0  0  0  0  0  0  0
    5.5502    5.5868    9.9914 N   0  0  0  0  0  0  0  0  0  0  0  0
    6.9909    3.3597    9.5963 C   0  0  2  0  0  0  0  0  0  0  0  0
   -0.2976    1.1077    6.8584 C   0  0  2  0  0  0  0  0  0  0  0  0
    0.2884    1.3415    5.5294 N   0  0  0  0  0  0  0  0  0  0  0  0
    3.1522    5.5739    9.5532 C   0  0  0  0  0  0  0  0  0  0  0  0
    8.1981    2.8670    8.7206 C   0  0  2  0  0  0  0  0  0  0  0  0
    8.0815    3.3836    7.4052 O   0  0  0  0  0  0  0  0  0  0  0  0
   -1.5815    1.9498    7.0222 C   0  0  1  0  0  0  0  0  0  0  0  0
   -2.5175    1.6090    5.9866 O   0  0  0  0  0  0  0  0  0  0  0  0
    2.0658    4.9270    8.6291 C   0  0  2  0  0  0  0  0  0  0  0  0
    0.7304    5.4571    8.9717 N   0  0  0  0  0  0  0  0  0  0  0  0
    8.2046    1.2892    8.7113 C   0  0  1  0  0  0  0  0  0  0  0  0
    9.3285    0.7690    7.8761 N   0  0  0  0  0  0  0  0  0  0  0  0
   -2.1709    1.6922    8.4293 C   0  0  2  0  0  0  0  0  0  0  0  0
   -3.3627    2.4789    8.6007 O   0  0  0  0  0  0  0  0  0  0  0  0
    2.0496    3.3851    8.7872 C   0  0  2  0  0  0  0  0  0  0  0  0
    8.3353    0.7719   10.1847 C   0  0  1  0  0  0  0  0  0  0  0  0
    9.5668    1.2232   10.7422 O   0  0  0  0  0  0  0  0  0  0  0  0
   -1.1020    2.0643    9.5264 C   0  0  2  0  0  0  0  0  0  0  0  0
    0.1222    1.2646    9.3267 O   0  0  0  0  0  0  0  0  0  0  0  0
    3.4487    2.8183    8.4390 C   0  0  2  0  0  0  0  0  0  0  0  0
    3.4150    1.4050    8.6088 O   0  0  0  0  0  0  0  0  0  0  0  0
    7.1472    1.3426   11.0213 C   0  0  0  0  0  0  0  0  0  0  0  0
    7.1224    2.8237   10.9581 O   0  0  0  0  0  0  0  0  0  0  0  0
   -1.6291    1.8017   10.9613 C   0  0  2  0  0  0  0  0  0  0  0  0
   -2.7954    2.5884   11.1896 O   0  0  0  0  0  0  0  0  0  0  0  0
    4.5370    3.4000    9.3710 C   0  0  1  0  0  0  0  0  0  0  0  0
    5.7978    2.8182    8.9633 O   0  0  0  0  0  0  0  0  0  0  0  0
   -0.5973    2.1747   12.0130 C   0  0  0  0  0  0  0  0  0  0  0  0
    8.3247   -0.7500   10.2599 C   0  0  0  0  0  0  0  0  0  0  0  0
    8.7760    0.3243    6.5823 C   0  0  0  0  0  0  0  0  0  0  0  0
  1  2  1  6  0  0  0
  1  6  1  0  0  0  0
  1 23  1  0  0  0  0
  3  4  1  1  0  0  0
  3  8  1  0  0  0  0
  3 30  1  0  0  0  0
  5  9  1  0  0  0  0
  5 27  1  0  0  0  0
  5 31  1  6  0  0  0
  6  7  1  6  0  0  0
  6 11  1  0  0  0  0
  8 13  1  0  0  0  0
  9 10  1  6  0  0  0
  9 15  1  0  0  0  0
 11 12  1  6  0  0  0
 11 17  1  0  0  0  0
 13 14  1  1  0  0  0
 13 19  1  0  0  0  0
 15 16  1  6  0  0  0
 15 20  1  0  0  0  0
 16 34  1  0  0  0  0
 17 18  1  1  0  0  0
 17 22  1  0  0  0  0
 19  2  1  6  0  0  0
 19 24  1  0  0  0  0
 20 21  1  1  0  0  0
 20 26  1  0  0  0  0
 20 33  1  0  0  0  0
 22 23  1  6  0  0  0
 22 28  1  0  0  0  0
 24 25  1  1  0  0  0
 24 30  1  0  0  0  0
 26 27  1  0  0  0  0
 28 29  1  1  0  0  0
 28 32  1  0  0  0  0
 30 31  1  6  0  0  0
M  END
>  <CHROM.1>
-175.50644097,-171.12563412,-102.61120721,-59.99088060,56.33953701,-164.75246198
3.27025785,2.39822896,8.94264349,-3.13006045,-0.07557757,0.80395673

>  <Name>
ligand

>  <RI>
0

>  <Rbt.Current_Directory>
/home/itssahil/PROJECTS/Mol_Feturizer/New_Systems/rnas/3TD1

>  <Rbt.Executable>
rbdock ($Id: //depot/dev/client3/rdock/2013.1/src/exe/rbdock.cxx#4 $)

>  <Rbt.Library>
libRbt.so (2013.1, Build901 2013/11/27)

>  <Rbt.Parameter_File>
/export/apps/rDock/src/rDock_2013.1_src/data/scripts/dock_solv.prm

>  <Rbt.Receptor>
prm/pocket_docking_8.prm

>  <SCORE>
-20.5892

>  <SCORE.INTER>
-12.7412

>  <SCORE.INTER.CONST>
1

>  <SCORE.INTER.POLAR>
0

>  <SCORE.INTER.ROT>
6

>  <SCORE.INTER.SOLV>
17.1777

>  <SCORE.INTER.VDW>
-21.82

>  <SCORE.INTER.norm>
-0.374741

>  <SCORE.INTRA>
-7.84801

>  <SCORE.INTRA.DIHEDRAL>
-16.9157

>  <SCORE.INTRA.DIHEDRAL.0>
19.5869

>  <SCORE.INTRA.POLAR>
0

>  <SCORE.INTRA.POLAR.0>
0

>  <SCORE.INTRA.REPUL>
0

>  <SCORE.INTRA.REPUL.0>
0

>  <SCORE.INTRA.SOLV>
-1.57831

>  <SCORE.INTRA.SOLV.lig_0>
-70.101

>  <SCORE.INTRA.VDW>
1.39901

>  <SCORE.INTRA.VDW.0>
-3.39718

>  <SCORE.INTRA.norm>
-0.230824

>  <SCORE.RESTR>
0

>  <SCORE.RESTR.CAVITY>
0

>  <SCORE.RESTR.norm>
0

>  <SCORE.SYSTEM>
0

>  <SCORE.SYSTEM.CONST>
0

>  <SCORE.SYSTEM.DIHEDRAL>
0

>  <SCORE.SYSTEM.SOLV>
0

>  <SCORE.SYSTEM.norm>
0

>  <SCORE.heavy>
34

>  <SCORE.norm>
-0.605565

>  <RMSD>
7.452

$$$$
ligand
 OpenBabel11021811483D
libRbt.so/2013.1/901 2013/11/27
 34 36  0  0  0  0  0  0  0  0999 V2000
   10.7059    7.0826    4.7478 C   0  0  2  0  0  0  0  0  0  0  0  0
   10.1148    5.8783    5.2604 O   0  0  0  0  0  0  0  0  0  0  0  0
   10.1620    4.2613    9.2157 C   0  0  2  0  0  0  0  0  0  0  0  0
   10.6251    3.6695   10.4661 N   0  0  0  0  0  0  0  0  0  0  0  0
   10.9318    6.3891   11.4041 C   0  0  2  0  0  0  0  0  0  0  0  0
    9.8803    7.5302    3.4890 C   0  0  2  0  0  0  0  0  0  0  0  0
    8.4784    7.8020    3.8427 N   0  0  0  0  0  0  0  0  0  0  0  0
   10.6254    3.3211    8.0534 C   0  0  0  0  0  0  0  0  0  0  0  0
   10.1354    7.3311   12.3766 C   0  0  2  0  0  0  0  0  0  0  0  0
    8.7684    6.9550   12.3995 O   0  0  0  0  0  0  0  0  0  0  0  0
    9.9462    6.4230    2.4147 C   0  0  1  0  0  0  0  0  0  0  0  0
    9.1991    6.8295    1.2565 O   0  0  0  0  0  0  0  0  0  0  0  0
   10.1086    3.9435    6.7123 C   0  0  2  0  0  0  0  0  0  0  0  0
   10.5217    3.1006    5.5719 N   0  0  0  0  0  0  0  0  0  0  0  0
   10.3051    8.8216   11.8875 C   0  0  1  0  0  0  0  0  0  0  0  0
    9.5510    9.7588   12.7731 N   0  0  0  0  0  0  0  0  0  0  0  0
   11.4294    6.1514    2.0686 C   0  0  2  0  0  0  0  0  0  0  0  0
   11.5073    5.1137    1.0758 O   0  0  0  0  0  0  0  0  0  0  0  0
   10.6730    5.3731    6.5103 C   0  0  2  0  0  0  0  0  0  0  0  0
   11.8294    9.1850   11.8813 C   0  0  1  0  0  0  0  0  0  0  0  0
   12.3503    9.0838   13.2039 O   0  0  0  0  0  0  0  0  0  0  0  0
   12.2072    5.7269    3.3722 C   0  0  2  0  0  0  0  0  0  0  0  0
   12.1023    6.7916    4.3889 O   0  0  0  0  0  0  0  0  0  0  0  0
   10.2534    6.2645    7.7058 C   0  0  2  0  0  0  0  0  0  0  0  0
   10.7975    7.5654    7.5079 O   0  0  0  0  0  0  0  0  0  0  0  0
   12.5783    8.1799   10.9506 C   0  0  0  0  0  0  0  0  0  0  0  0
   12.3473    6.7829   11.3904 O   0  0  0  0  0  0  0  0  0  0  0  0
   13.7100    5.4654    3.0910 C   0  0  2  0  0  0  0  0  0  0  0  0
   14.2322    6.5190    2.2857 O   0  0  0  0  0  0  0  0  0  0  0  0
   10.7947    5.7028    9.0411 C   0  0  1  0  0  0  0  0  0  0  0  0
   10.3466    6.5958   10.0880 O   0  0  0  0  0  0  0  0  0  0  0  0
   13.9203    4.1569    2.3472 C   0  0  0  0  0  0  0  0  0  0  0  0
   12.0764   10.6079   11.3953 C   0  0  0  0  0  0  0  0  0  0  0  0
    8.2809   10.1042   12.1063 C   0  0  0  0  0  0  0  0  0  0  0  0
  1  2  1  6  0  0  0
  1  6  1  0  0  0  0
  1 23  1  0  0  0  0
  3  4  1  1  0  0  0
  3  8  1  0  0  0  0
  3 30  1  0  0  0  0
  5  9  1  0  0  0  0
  5 27  1  0  0  0  0
  5 31  1  6  0  0  0
  6  7  1  1  0  0  0
  6 11  1  0  0  0  0
  8 13  1  0  0  0  0
  9 10  1  6  0  0  0
  9 15  1  0  0  0  0
 11 12  1  6  0  0  0
 11 17  1  0  0  0  0
 13 14  1  6  0  0  0
 13 19  1  0  0  0  0
 15 16  1  1  0  0  0
 15 20  1  0  0  0  0
 16 34  1  0  0  0  0
 17 18  1  6  0  0  0
 17 22  1  0  0  0  0
 19  2  1  6  0  0  0
 19 24  1  0  0  0  0
 20 21  1  1  0  0  0
 20 26  1  0  0  0  0
 20 33  1  0  0  0  0
 22 23  1  1  0  0  0
 22 28  1  0  0  0  0
 24 25  1  6  0  0  0
 24 30  1  0  0  0  0
 26 27  1  0  0  0  0
 28 29  1  6  0  0  0
 28 32  1  0  0  0  0
 30 31  1  1  0  0  0
M  END
>  <CHROM.1>
-174.58182669,-168.31362862,-100.21800920,45.79641780,74.29155723,-172.07529061
10.93969161,6.62283530,7.40751846,0.55507197,1.46797945,-0.80977647

>  <Name>
ligand

>  <RI>
0

>  <Rbt.Current_Directory>
/home/itssahil/PROJECTS/Mol_Feturizer/New_Systems/rnas/3TD1

>  <Rbt.Executable>
rbdock ($Id: //depot/dev/client3/rdock/2013.1/src/exe/rbdock.cxx#4 $)

>  <Rbt.Library>
libRbt.so (2013.1, Build901 2013/11/27)

>  <Rbt.Parameter_File>
/export/apps/rDock/src/rDock_2013.1_src/data/scripts/dock_solv.prm

>  <Rbt.Receptor>
prm/pocket_docking_8.prm

>  <SCORE>
-8.37337

>  <SCORE.INTER>
-0.338496

>  <SCORE.INTER.CONST>
1

>  <SCORE.INTER.POLAR>
0

>  <SCORE.INTER.ROT>
6

>  <SCORE.INTER.SOLV>
6.90834

>  <SCORE.INTER.VDW>
-10.1284

>  <SCORE.INTER.norm>
-0.00995577

>  <SCORE.INTRA>
-8.03488

>  <SCORE.INTRA.DIHEDRAL>
-15.86

>  <SCORE.INTRA.DIHEDRAL.0>
19.5869

>  <SCORE.INTRA.POLAR>
0

>  <SCORE.INTRA.POLAR.0>
0

>  <SCORE.INTRA.REPUL>
0

>  <SCORE.INTRA.REPUL.0>
0

>  <SCORE.INTRA.SOLV>
-1.81338

>  <SCORE.INTRA.SOLV.lig_0>
-70.101

>  <SCORE.INTRA.VDW>
0.801817

>  <SCORE.INTRA.VDW.0>
-3.39718

>  <SCORE.INTRA.norm>
-0.23632

>  <SCORE.RESTR>
0

>  <SCORE.RESTR.CAVITY>
0

>  <SCORE.RESTR.norm>
0

>  <SCORE.SYSTEM>
0

>  <SCORE.SYSTEM.CONST>
0

>  <SCORE.SYSTEM.DIHEDRAL>
0

>  <SCORE.SYSTEM.SOLV>
0

>  <SCORE.SYSTEM.norm>
0

>  <SCORE.heavy>
34

>  <SCORE.norm>
-0.246276

>  <RMSD>
7.508

$$$$
ligand
 OpenBabel11021811483D
libRbt.so/2013.1/901 2013/11/27
 34 36  0  0  0  0  0  0  0  0999 V2000
   10.7802    7.4126    2.6315 C   0  0  2  0  0  0  0  0  0  0  0  0
   10.9979    8.0966    3.8754 O   0  0  0  0  0  0  0  0  0  0  0  0
   12.8239    4.7279    5.7674 C   0  0  2  0  0  0  0  0  0  0  0  0
   13.5565    3.9018    6.7207 N   0  0  0  0  0  0  0  0  0  0  0  0
    9.6707    4.4638    7.8762 C   0  0  2  0  0  0  0  0  0  0  0  0
   10.3905    8.4837    1.5510 C   0  0  2  0  0  0  0  0  0  0  0  0
   11.4666    9.4701    1.3690 N   0  0  0  0  0  0  0  0  0  0  0  0
   13.7607    5.9132    5.3586 C   0  0  0  0  0  0  0  0  0  0  0  0
    9.4549    3.0866    8.6000 C   0  0  2  0  0  0  0  0  0  0  0  0
   10.6837    2.6279    9.1389 O   0  0  0  0  0  0  0  0  0  0  0  0
    9.0913    9.1971    1.9841 C   0  0  1  0  0  0  0  0  0  0  0  0
    8.7245   10.1734    0.9957 O   0  0  0  0  0  0  0  0  0  0  0  0
   12.9836    6.7878    4.3174 C   0  0  2  0  0  0  0  0  0  0  0  0
   13.8175    7.9317    3.8959 N   0  0  0  0  0  0  0  0  0  0  0  0
    8.8723    2.0545    7.5585 C   0  0  1  0  0  0  0  0  0  0  0  0
    8.6631    0.7198    8.1958 N   0  0  0  0  0  0  0  0  0  0  0  0
    7.9807    8.1374    2.1767 C   0  0  2  0  0  0  0  0  0  0  0  0
    6.7660    8.7865    2.5911 O   0  0  0  0  0  0  0  0  0  0  0  0
   11.6615    7.3261    4.9218 C   0  0  2  0  0  0  0  0  0  0  0  0
    7.5186    2.6081    6.9958 C   0  0  1  0  0  0  0  0  0  0  0  0
    6.5813    2.7508    8.0598 O   0  0  0  0  0  0  0  0  0  0  0  0
    8.4379    7.0827    3.2552 C   0  0  2  0  0  0  0  0  0  0  0  0
    9.6951    6.4390    2.8271 O   0  0  0  0  0  0  0  0  0  0  0  0
   10.7819    6.1345    5.3762 C   0  0  2  0  0  0  0  0  0  0  0  0
    9.5833    6.6527    5.9437 O   0  0  0  0  0  0  0  0  0  0  0  0
    7.7816    4.0030    6.3457 C   0  0  0  0  0  0  0  0  0  0  0  0
    8.3921    4.9336    7.3253 O   0  0  0  0  0  0  0  0  0  0  0  0
    7.3718    5.9772    3.4729 C   0  0  2  0  0  0  0  0  0  0  0  0
    6.9493    5.4705    2.2096 O   0  0  0  0  0  0  0  0  0  0  0  0
   11.5032    5.2807    6.4449 C   0  0  1  0  0  0  0  0  0  0  0  0
   10.6087    4.1985    6.7958 O   0  0  0  0  0  0  0  0  0  0  0  0
    6.1484    6.5149    4.1966 C   0  0  0  0  0  0  0  0  0  0  0  0
    6.9039    1.6734    5.9612 C   0  0  0  0  0  0  0  0  0  0  0  0
    9.3446   -0.2976    7.3727 C   0  0  0  0  0  0  0  0  0  0  0  0
  1  2  1  1  0  0  0
  1  6  1  0  0  0  0
  1 23  1  0  0  0  0
  3  4  1  1  0  0  0
  3  8  1  0  0  0  0
  3 30  1  0  0  0  0
  5  9  1  0  0  0  0
  5 27  1  0  0  0  0
  5 31  1  6  0  0  0
  6  7  1  1  0  0  0
  6 11  1  0  0  0  0
  8 13  1  0  0  0  0
  9 10  1  6  0  0  0
  9 15  1  0  0  0  0
 11 12  1  6  0  0  0
 11 17  1  0  0  0  0
 13 14  1  1  0  0  0
 13 19  1  0  0  0  0
 15 16  1  1  0  0  0
 15 20  1  0  0  0  0
 16 34  1  0  0  0  0
 17 18  1  1  0  0  0
 17 22  1  0  0  0  0
 19  2  1  6  0  0  0
 19 24  1  0  0  0  0
 20 21  1  1  0  0  0
 20 26  1  0  0  0  0
 20 33  1  0  0  0  0
 22 23  1  6  0  0  0
 22 28  1  0  0  0  0
 24 25  1  1  0  0  0
 24 30  1  0  0  0  0
 26 27  1  0  0  0  0
 28 29  1  6  0  0  0
 28 32  1  0  0  0  0
 30 31  1  6  0  0  0
M  END
>  <CHROM.1>
-166.44128912,54.29101707,-127.26336926,48.56759011,155.22117333,-148.03970890
9.64800340,5.54586902,5.06562048,-1.48053604,0.19364859,2.40833598

>  <Name>
ligand

>  <RI>
0

>  <Rbt.Current_Directory>
/home/itssahil/PROJECTS/Mol_Feturizer/New_Systems/rnas/3TD1

>  <Rbt.Executable>
rbdock ($Id: //depot/dev/client3/rdock/2013.1/src/exe/rbdock.cxx#4 $)

>  <Rbt.Library>
libRbt.so (2013.1, Build901 2013/11/27)

>  <Rbt.Parameter_File>
/export/apps/rDock/src/rDock_2013.1_src/data/scripts/dock_solv.prm

>  <Rbt.Receptor>
prm/pocket_docking_6.prm

>  <SCORE>
-9.25069

>  <SCORE.INTER>
-4.8921

>  <SCORE.INTER.CONST>
1

>  <SCORE.INTER.POLAR>
0

>  <SCORE.INTER.ROT>
6

>  <SCORE.INTER.SOLV>
11.8431

>  <SCORE.INTER.VDW>
-14.8091

>  <SCORE.INTER.norm>
-0.143885

>  <SCORE.INTRA>
-4.3586

>  <SCORE.INTRA.DIHEDRAL>
-10.325

>  <SCORE.INTRA.DIHEDRAL.0>
19.5869

>  <SCORE.INTRA.POLAR>
0

>  <SCORE.INTRA.POLAR.0>
0

>  <SCORE.INTRA.REPUL>
0

>  <SCORE.INTRA.REPUL.0>
0

>  <SCORE.INTRA.SOLV>
-0.888128

>  <SCORE.INTRA.SOLV.lig_0>
-70.101

>  <SCORE.INTRA.VDW>
1.24798

>  <SCORE.INTRA.VDW.0>
-3.39718

>  <SCORE.INTRA.norm>
-0.128194

>  <SCORE.RESTR>
0

>  <SCORE.RESTR.CAVITY>
0

>  <SCORE.RESTR.norm>
0

>  <SCORE.SYSTEM>
0

>  <SCORE.SYSTEM.CONST>
0

>  <SCORE.SYSTEM.DIHEDRAL>
0

>  <SCORE.SYSTEM.SOLV>
0

>  <SCORE.SYSTEM.norm>
0

>  <SCORE.heavy>
34

>  <SCORE.norm>
-0.272079

>  <RMSD>
7.526

$$$$
ligand
 OpenBabel11021811483D
libRbt.so/2013.1/901 2013/11/27
 34 36  0  0  0  0  0  0  0  0999 V2000
   10.5605    4.2492    4.5385 C   0  0  2  0  0  0  0  0  0  0  0  0
   11.1014    5.3386    5.3022 O   0  0  0  0  0  0  0  0  0  0  0  0
   10.3387    6.6038    9.3120 C   0  0  2  0  0  0  0  0  0  0  0  0
    9.6585    7.0979   10.5042 N   0  0  0  0  0  0  0  0  0  0  0  0
    9.0104    4.1858   11.0183 C   0  0  2  0  0  0  0  0  0  0  0  0
   11.5827    3.9022    3.3977 C   0  0  2  0  0  0  0  0  0  0  0  0
   12.8814    3.4934    3.9548 N   0  0  0  0  0  0  0  0  0  0  0  0
   10.1139    7.6560    8.1753 C   0  0  0  0  0  0  0  0  0  0  0  0
    9.6235    3.2148   12.0900 C   0  0  2  0  0  0  0  0  0  0  0  0
   10.8663    3.7232   12.5456 O   0  0  0  0  0  0  0  0  0  0  0  0
   11.7667    5.1338    2.4846 C   0  0  1  0  0  0  0  0  0  0  0  0
   12.6951    4.8207    1.4335 O   0  0  0  0  0  0  0  0  0  0  0  0
   10.8634    7.1377    6.9015 C   0  0  2  0  0  0  0  0  0  0  0  0
   10.6826    8.0895    5.7867 N   0  0  0  0  0  0  0  0  0  0  0  0
    9.7992    1.7889   11.4378 C   0  0  1  0  0  0  0  0  0  0  0  0
   10.3957    0.8294   12.4149 N   0  0  0  0  0  0  0  0  0  0  0  0
   10.3867    5.5472    1.9205 C   0  0  2  0  0  0  0  0  0  0  0  0
   10.5408    6.7010    1.0756 O   0  0  0  0  0  0  0  0  0  0  0  0
   10.3266    5.7495    6.4684 C   0  0  2  0  0  0  0  0  0  0  0  0
    8.4005    1.2748   10.9532 C   0  0  1  0  0  0  0  0  0  0  0  0
    7.5228    1.1535   12.0695 O   0  0  0  0  0  0  0  0  0  0  0  0
    9.4022    5.8626    3.1104 C   0  0  2  0  0  0  0  0  0  0  0  0
    9.2689    4.6774    3.9798 O   0  0  0  0  0  0  0  0  0  0  0  0
   10.5028    4.7442    7.6340 C   0  0  2  0  0  0  0  0  0  0  0  0
    9.9871    3.4832    7.2204 O   0  0  0  0  0  0  0  0  0  0  0  0
    7.8124    2.3076    9.9409 C   0  0  0  0  0  0  0  0  0  0  0  0
    7.7213    3.6539   10.5556 O   0  0  0  0  0  0  0  0  0  0  0  0
    7.9905    6.2594    2.6047 C   0  0  2  0  0  0  0  0  0  0  0  0
    8.0869    7.4328    1.8015 O   0  0  0  0  0  0  0  0  0  0  0  0
    9.7295    5.2034    8.8920 C   0  0  1  0  0  0  0  0  0  0  0  0
    9.9615    4.2088    9.9173 O   0  0  0  0  0  0  0  0  0  0  0  0
    7.0462    6.5555    3.7580 C   0  0  0  0  0  0  0  0  0  0  0  0
    8.4926   -0.0928   10.2876 C   0  0  0  0  0  0  0  0  0  0  0  0
   11.8402    0.7213   12.1342 C   0  0  0  0  0  0  0  0  0  0  0  0
  1  2  1  6  0  0  0
  1  6  1  0  0  0  0
  1 23  1  0  0  0  0
  3  4  1  1  0  0  0
  3  8  1  0  0  0  0
  3 30  1  0  0  0  0
  5  9  1  0  0  0  0
  5 27  1  0  0  0  0
  5 31  1  6  0  0  0
  6  7  1  1  0  0  0
  6 11  1  0  0  0  0
  8 13  1  0  0  0  0
  9 10  1  6  0  0  0
  9 15  1  0  0  0  0
 11 12  1  6  0  0  0
 11 17  1  0  0  0  0
 13 14  1  6  0  0  0
 13 19  1  0  0  0  0
 15 16  1  1  0  0  0
 15 20  1  0  0  0  0
 16 34  1  0  0  0  0
 17 18  1  6  0  0  0
 17 22  1  0  0  0  0
 19  2  1  6  0  0  0
 19 24  1  0  0  0  0
 20 21  1  1  0  0  0
 20 26  1  0  0  0  0
 20 33  1  0  0  0  0
 22 23  1  1  0  0  0
 22 28  1  0  0  0  0
 24 25  1  6  0  0  0
 24 30  1  0  0  0  0
 26 27  1  0  0  0  0
 28 29  1  6  0  0  0
 28 32  1  0  0  0  0
 30 31  1  1  0  0  0
M  END
>  <CHROM.1>
-176.21594670,-165.01724584,-99.24861348,-60.76152038,83.57509849,-170.29004128
9.89974081,4.47881615,7.21142842,-1.29501553,-1.24381375,2.22236221

>  <Name>
ligand

>  <RI>
0

>  <Rbt.Current_Directory>
/home/itssahil/PROJECTS/Mol_Feturizer/New_Systems/rnas/3TD1

>  <Rbt.Executable>
rbdock ($Id: //depot/dev/client3/rdock/2013.1/src/exe/rbdock.cxx#4 $)

>  <Rbt.Library>
libRbt.so (2013.1, Build901 2013/11/27)

>  <Rbt.Parameter_File>
/export/apps/rDock/src/rDock_2013.1_src/data/scripts/dock_solv.prm

>  <Rbt.Receptor>
prm/pocket_docking_8.prm

>  <SCORE>
-10.6538

>  <SCORE.INTER>
-2.38685

>  <SCORE.INTER.CONST>
1

>  <SCORE.INTER.POLAR>
0

>  <SCORE.INTER.ROT>
6

>  <SCORE.INTER.SOLV>
9.80875

>  <SCORE.INTER.VDW>
-12.4608

>  <SCORE.INTER.norm>
-0.0702015

>  <SCORE.INTRA>
-8.26697

>  <SCORE.INTRA.DIHEDRAL>
-14.6813

>  <SCORE.INTRA.DIHEDRAL.0>
19.5869

>  <SCORE.INTRA.POLAR>
0

>  <SCORE.INTRA.POLAR.0>
0

>  <SCORE.INTRA.REPUL>
0

>  <SCORE.INTRA.REPUL.0>
0

>  <SCORE.INTRA.SOLV>
-1.74406

>  <SCORE.INTRA.SOLV.lig_0>
-70.101

>  <SCORE.INTRA.VDW>
-0.0542892

>  <SCORE.INTRA.VDW.0>
-3.39718

>  <SCORE.INTRA.norm>
-0.243146

>  <SCORE.RESTR>
0

>  <SCORE.RESTR.CAVITY>
0

>  <SCORE.RESTR.norm>
0

>  <SCORE.SYSTEM>
0

>  <SCORE.SYSTEM.CONST>
0

>  <SCORE.SYSTEM.DIHEDRAL>
0

>  <SCORE.SYSTEM.SOLV>
0

>  <SCORE.SYSTEM.norm>
0

>  <SCORE.heavy>
34

>  <SCORE.norm>
-0.313348

>  <RMSD>
7.526

$$$$
ligand
 OpenBabel11021811483D
libRbt.so/2013.1/901 2013/11/27
 34 36  0  0  0  0  0  0  0  0999 V2000
    8.8122    1.3999    7.2421 C   0  0  2  0  0  0  0  0  0  0  0  0
   10.1720    1.8494    7.3499 O   0  0  0  0  0  0  0  0  0  0  0  0
   13.0339    2.8749    4.3468 C   0  0  2  0  0  0  0  0  0  0  0  0
   13.9492    2.7822    3.2146 N   0  0  0  0  0  0  0  0  0  0  0  0
   11.4552    5.0626    3.3372 C   0  0  2  0  0  0  0  0  0  0  0  0
    8.0598    1.8112    8.5579 C   0  0  2  0  0  0  0  0  0  0  0  0
    8.0648    3.2713    8.7380 N   0  0  0  0  0  0  0  0  0  0  0  0
   13.4368    1.7582    5.3667 C   0  0  0  0  0  0  0  0  0  0  0  0
   10.3608    5.9654    2.6634 C   0  0  2  0  0  0  0  0  0  0  0  0
    9.0765    5.6069    3.1461 O   0  0  0  0  0  0  0  0  0  0  0  0
    8.7362    1.1300    9.7674 C   0  0  1  0  0  0  0  0  0  0  0  0
    8.0476    1.4959   10.9744 O   0  0  0  0  0  0  0  0  0  0  0  0
   12.4694    1.8719    6.5931 C   0  0  2  0  0  0  0  0  0  0  0  0
   12.7969    0.8351    7.5928 N   0  0  0  0  0  0  0  0  0  0  0  0
   10.4492    5.7834    1.0986 C   0  0  1  0  0  0  0  0  0  0  0  0
    9.4148    6.6121    0.4096 N   0  0  0  0  0  0  0  0  0  0  0  0
    8.7252   -0.4014    9.5480 C   0  0  2  0  0  0  0  0  0  0  0  0
    9.3622   -1.0496   10.6627 O   0  0  0  0  0  0  0  0  0  0  0  0
   10.9933    1.6970    6.1535 C   0  0  2  0  0  0  0  0  0  0  0  0
   11.8838    6.1924    0.6187 C   0  0  1  0  0  0  0  0  0  0  0  0
   12.1175    7.5643    0.9256 O   0  0  0  0  0  0  0  0  0  0  0  0
    9.4757   -0.7484    8.2059 C   0  0  2  0  0  0  0  0  0  0  0  0
    8.8242   -0.0614    7.0738 O   0  0  0  0  0  0  0  0  0  0  0  0
   10.6408    2.7743    5.0975 C   0  0  2  0  0  0  0  0  0  0  0  0
    9.2882    2.5827    4.6957 O   0  0  0  0  0  0  0  0  0  0  0  0
   12.9310    5.3080    1.3661 C   0  0  0  0  0  0  0  0  0  0  0  0
   12.7824    5.4441    2.8351 O   0  0  0  0  0  0  0  0  0  0  0  0
    9.4747   -2.2727    7.9191 C   0  0  2  0  0  0  0  0  0  0  0  0
    8.1858   -2.8087    8.2064 O   0  0  0  0  0  0  0  0  0  0  0  0
   11.5464    2.6537    3.8498 C   0  0  1  0  0  0  0  0  0  0  0  0
   11.1451    3.6995    2.9335 O   0  0  0  0  0  0  0  0  0  0  0  0
   10.4907   -3.0045    8.7804 C   0  0  0  0  0  0  0  0  0  0  0  0
   12.0548    6.0201   -0.8856 C   0  0  0  0  0  0  0  0  0  0  0  0
    8.3304    5.7183   -0.0401 C   0  0  0  0  0  0  0  0  0  0  0  0
  1  2  1  1  0  0  0
  1  6  1  0  0  0  0
  1 23  1  0  0  0  0
  3  4  1  6  0  0  0
  3  8  1  0  0  0  0
  3 30  1  0  0  0  0
  5  9  1  0  0  0  0
  5 27  1  0  0  0  0
  5 31  1  6  0  0  0
  6  7  1  1  0  0  0
  6 11  1  0  0  0  0
  8 13  1  0  0  0  0
  9 10  1  1  0  0  0
  9 15  1  0  0  0  0
 11 12  1  1  0  0  0
 11 17  1  0  0  0  0
 13 14  1  1  0  0  0
 13 19  1  0  0  0  0
 15 16  1  6  0  0  0
 15 20  1  0  0  0  0
 16 34  1  0  0  0  0
 17 18  1  1  0  0  0
 17 22  1  0  0  0  0
 19  2  1  1  0  0  0
 19 24  1  0  0  0  0
 20 21  1  1  0  0  0
 20 26  1  0  0  0  0
 20 33  1  0  0  0  0
 22 23  1  6  0  0  0
 22 28  1  0  0  0  0
 24 25  1  6  0  0  0
 24 30  1  0  0  0  0
 26 27  1  0  0  0  0
 28 29  1  1  0  0  0
 28 32  1  0  0  0  0
 30 31  1  6  0  0  0
M  END
>  <CHROM.1>
-173.06995153,-164.99480936,-104.33333823,42.61245216,-46.49996122,-151.73520437
10.46216127,2.62370811,5.25142375,1.79305908,-0.37506181,2.33270168

>  <Name>
ligand

>  <RI>
0

>  <Rbt.Current_Directory>
/home/itssahil/PROJECTS/Mol_Feturizer/New_Systems/rnas/3TD1

>  <Rbt.Executable>
rbdock ($Id: //depot/dev/client3/rdock/2013.1/src/exe/rbdock.cxx#4 $)

>  <Rbt.Library>
libRbt.so (2013.1, Build901 2013/11/27)

>  <Rbt.Parameter_File>
/export/apps/rDock/src/rDock_2013.1_src/data/scripts/dock_solv.prm

>  <Rbt.Receptor>
prm/pocket_docking_8.prm

>  <SCORE>
-14.6042

>  <SCORE.INTER>
-9.35108

>  <SCORE.INTER.CONST>
1

>  <SCORE.INTER.POLAR>
0

>  <SCORE.INTER.ROT>
6

>  <SCORE.INTER.SOLV>
12.1514

>  <SCORE.INTER.VDW>
-17.8845

>  <SCORE.INTER.norm>
-0.275032

>  <SCORE.INTRA>
-5.25314

>  <SCORE.INTRA.DIHEDRAL>
-12.0764

>  <SCORE.INTRA.DIHEDRAL.0>
19.5869

>  <SCORE.INTRA.POLAR>
0

>  <SCORE.INTRA.POLAR.0>
0

>  <SCORE.INTRA.REPUL>
0

>  <SCORE.INTRA.REPUL.0>
0

>  <SCORE.INTRA.SOLV>
-0.38006

>  <SCORE.INTRA.SOLV.lig_0>
-70.101

>  <SCORE.INTRA.VDW>
0.975072

>  <SCORE.INTRA.VDW.0>
-3.39718

>  <SCORE.INTRA.norm>
-0.154504

>  <SCORE.RESTR>
0

>  <SCORE.RESTR.CAVITY>
0

>  <SCORE.RESTR.norm>
0

>  <SCORE.SYSTEM>
0

>  <SCORE.SYSTEM.CONST>
0

>  <SCORE.SYSTEM.DIHEDRAL>
0

>  <SCORE.SYSTEM.SOLV>
0

>  <SCORE.SYSTEM.norm>
0

>  <SCORE.heavy>
34

>  <SCORE.norm>
-0.429536

>  <RMSD>
7.553

$$$$
ligand
 OpenBabel11021811483D
libRbt.so/2013.1/901 2013/11/27
 34 36  0  0  0  0  0  0  0  0999 V2000
   13.1987    2.9402    6.8278 C   0  0  2  0  0  0  0  0  0  0  0  0
   13.9044    4.1437    6.4872 O   0  0  0  0  0  0  0  0  0  0  0  0
   14.4758    7.7797    8.6585 C   0  0  2  0  0  0  0  0  0  0  0  0
   14.2128    9.0308    9.3612 N   0  0  0  0  0  0  0  0  0  0  0  0
   14.0791    7.3939   11.7811 C   0  0  2  0  0  0  0  0  0  0  0  0
   13.7812    1.7727    5.9535 C   0  0  2  0  0  0  0  0  0  0  0  0
   15.2145    1.5746    6.2192 N   0  0  0  0  0  0  0  0  0  0  0  0
   13.8096    7.8874    7.2463 C   0  0  0  0  0  0  0  0  0  0  0  0
   15.0224    7.1338   13.0097 C   0  0  2  0  0  0  0  0  0  0  0  0
   16.3708    7.3706   12.6404 O   0  0  0  0  0  0  0  0  0  0  0  0
   13.5634    2.0956    4.4593 C   0  0  1  0  0  0  0  0  0  0  0  0
   14.0871    1.0274    3.6535 O   0  0  0  0  0  0  0  0  0  0  0  0
   14.1112    6.5538    6.4825 C   0  0  2  0  0  0  0  0  0  0  0  0
   13.5002    6.5922    5.1383 N   0  0  0  0  0  0  0  0  0  0  0  0
   14.8206    5.6462   13.4954 C   0  0  1  0  0  0  0  0  0  0  0  0
   15.7101    5.3427   14.6564 N   0  0  0  0  0  0  0  0  0  0  0  0
   12.0512    2.3077    4.2100 C   0  0  2  0  0  0  0  0  0  0  0  0
   11.8337    2.6202    2.8231 O   0  0  0  0  0  0  0  0  0  0  0  0
   13.5493    5.3329    7.2547 C   0  0  2  0  0  0  0  0  0  0  0  0
   13.3185    5.4389   13.8905 C   0  0  1  0  0  0  0  0  0  0  0  0
   12.9820    6.3122   14.9653 O   0  0  0  0  0  0  0  0  0  0  0  0
   11.5229    3.4752    5.1279 C   0  0  2  0  0  0  0  0  0  0  0  0
   11.7704    3.1506    6.5462 O   0  0  0  0  0  0  0  0  0  0  0  0
   14.1767    5.2875    8.6704 C   0  0  2  0  0  0  0  0  0  0  0  0
   13.6328    4.1706    9.3663 O   0  0  0  0  0  0  0  0  0  0  0  0
   12.4264    5.7717   12.6532 C   0  0  0  0  0  0  0  0  0  0  0  0
   12.6842    7.1509   12.1741 O   0  0  0  0  0  0  0  0  0  0  0  0
   10.0024    3.7173    4.9396 C   0  0  2  0  0  0  0  0  0  0  0  0
    9.6023    4.8452    5.7136 O   0  0  0  0  0  0  0  0  0  0  0  0
   13.8511    6.5709    9.4693 C   0  0  1  0  0  0  0  0  0  0  0  0
   14.4823    6.4343   10.7644 O   0  0  0  0  0  0  0  0  0  0  0  0
    9.1848    2.5202    5.3958 C   0  0  0  0  0  0  0  0  0  0  0  0
   13.0389    4.0130   14.3494 C   0  0  0  0  0  0  0  0  0  0  0  0
   16.9067    4.6423   14.1517 C   0  0  0  0  0  0  0  0  0  0  0  0
  1  2  1  6  0  0  0
  1  6  1  0  0  0  0
  1 23  1  0  0  0  0
  3  4  1  1  0  0  0
  3  8  1  0  0  0  0
  3 30  1  0  0  0  0
  5  9  1  0  0  0  0
  5 27  1  0  0  0  0
  5 31  1  6  0  0  0
  6  7  1  6  0  0  0
  6 11  1  0  0  0  0
  8 13  1  0  0  0  0
  9 10  1  6  0  0  0
  9 15  1  0  0  0  0
 11 12  1  6  0  0  0
 11 17  1  0  0  0  0
 13 14  1  6  0  0  0
 13 19  1  0  0  0  0
 15 16  1  1  0  0  0
 15 20  1  0  0  0  0
 16 34  1  0  0  0  0
 17 18  1  6  0  0  0
 17 22  1  0  0  0  0
 19  2  1  6  0  0  0
 19 24  1  0  0  0  0
 20 21  1  1  0  0  0
 20 26  1  0  0  0  0
 20 33  1  0  0  0  0
 22 23  1  1  0  0  0
 22 28  1  0  0  0  0
 24 25  1  1  0  0  0
 24 30  1  0  0  0  0
 26 27  1  0  0  0  0
 28 29  1  1  0  0  0
 28 32  1  0  0  0  0
 30 31  1  1  0  0  0
M  END
>  <CHROM.1>
-176.78428060,-164.52679493,-98.24984906,-175.59374770,76.55309604,-173.48208198
13.42292020,4.92626137,8.79023948,-2.91983290,-1.31946301,-0.13924999

>  <Name>
ligand

>  <RI>
0

>  <Rbt.Current_Directory>
/home/itssahil/PROJECTS/Mol_Feturizer/New_Systems/rnas/3TD1

>  <Rbt.Executable>
rbdock ($Id: //depot/dev/client3/rdock/2013.1/src/exe/rbdock.cxx#4 $)

>  <Rbt.Library>
libRbt.so (2013.1, Build901 2013/11/27)

>  <Rbt.Parameter_File>
/export/apps/rDock/src/rDock_2013.1_src/data/scripts/dock_solv.prm

>  <Rbt.Receptor>
prm/pocket_docking_8.prm

>  <SCORE>
-11.9584

>  <SCORE.INTER>
-3.52941

>  <SCORE.INTER.CONST>
1

>  <SCORE.INTER.POLAR>
0

>  <SCORE.INTER.ROT>
6

>  <SCORE.INTER.SOLV>
14.0442

>  <SCORE.INTER.VDW>
-14.6343

>  <SCORE.INTER.norm>
-0.103806

>  <SCORE.INTRA>
-8.42896

>  <SCORE.INTRA.DIHEDRAL>
-15.9603

>  <SCORE.INTRA.DIHEDRAL.0>
19.5869

>  <SCORE.INTRA.POLAR>
0

>  <SCORE.INTRA.POLAR.0>
0

>  <SCORE.INTRA.REPUL>
0

>  <SCORE.INTRA.REPUL.0>
0

>  <SCORE.INTRA.SOLV>
-2.07696

>  <SCORE.INTRA.SOLV.lig_0>
-70.101

>  <SCORE.INTRA.VDW>
0.589678

>  <SCORE.INTRA.VDW.0>
-3.39718

>  <SCORE.INTRA.norm>
-0.247911

>  <SCORE.RESTR>
0

>  <SCORE.RESTR.CAVITY>
0

>  <SCORE.RESTR.norm>
0

>  <SCORE.SYSTEM>
0

>  <SCORE.SYSTEM.CONST>
0

>  <SCORE.SYSTEM.DIHEDRAL>
0

>  <SCORE.SYSTEM.SOLV>
0

>  <SCORE.SYSTEM.norm>
0

>  <SCORE.heavy>
34

>  <SCORE.norm>
-0.351717

>  <RMSD>
7.558

$$$$
ligand
 OpenBabel11021811483D
libRbt.so/2013.1/901 2013/11/27
 34 36  0  0  0  0  0  0  0  0999 V2000
   11.4977    7.4393    3.4961 C   0  0  2  0  0  0  0  0  0  0  0  0
   10.9149    6.1666    3.8174 O   0  0  0  0  0  0  0  0  0  0  0  0
    9.0946    7.5560    7.4254 C   0  0  2  0  0  0  0  0  0  0  0  0
    8.2470    7.6329    8.6102 N   0  0  0  0  0  0  0  0  0  0  0  0
   10.4399    6.3948   10.0150 C   0  0  2  0  0  0  0  0  0  0  0  0
   12.0580    7.3600    2.0311 C   0  0  2  0  0  0  0  0  0  0  0  0
   10.9848    7.0717    1.0670 N   0  0  0  0  0  0  0  0  0  0  0  0
    8.1568    7.3280    6.1933 C   0  0  0  0  0  0  0  0  0  0  0  0
   11.5648    6.8348   11.0190 C   0  0  2  0  0  0  0  0  0  0  0  0
   11.8906    8.1989   10.8098 O   0  0  0  0  0  0  0  0  0  0  0  0
   13.1403    6.2612    1.9568 C   0  0  1  0  0  0  0  0  0  0  0  0
   13.6632    6.1885    0.6203 O   0  0  0  0  0  0  0  0  0  0  0  0
    9.0640    7.2686    4.9179 C   0  0  2  0  0  0  0  0  0  0  0  0
    8.2333    7.0479    3.7168 N   0  0  0  0  0  0  0  0  0  0  0  0
   12.8255    5.9112   10.8014 C   0  0  1  0  0  0  0  0  0  0  0  0
   13.9331    6.3006   11.7249 N   0  0  0  0  0  0  0  0  0  0  0  0
   14.2502    6.5838    2.9852 C   0  0  2  0  0  0  0  0  0  0  0  0
   15.2612    5.5621    2.9352 O   0  0  0  0  0  0  0  0  0  0  0  0
   10.1018    6.1224    5.0282 C   0  0  2  0  0  0  0  0  0  0  0  0
   12.4118    4.4195   11.0446 C   0  0  1  0  0  0  0  0  0  0  0  0
   11.9646    4.2604   12.3884 O   0  0  0  0  0  0  0  0  0  0  0  0
   13.6239    6.6696    4.4292 C   0  0  2  0  0  0  0  0  0  0  0  0
   12.5750    7.7073    4.4611 O   0  0  0  0  0  0  0  0  0  0  0  0
   10.9736    6.3386    6.2904 C   0  0  2  0  0  0  0  0  0  0  0  0
   11.9056    5.2659    6.3808 O   0  0  0  0  0  0  0  0  0  0  0  0
   11.2510    4.0574   10.0654 C   0  0  0  0  0  0  0  0  0  0  0  0
   10.1055    4.9821   10.2421 O   0  0  0  0  0  0  0  0  0  0  0  0
   14.6883    7.0169    5.5027 C   0  0  2  0  0  0  0  0  0  0  0  0
   15.6037    5.9321    5.6314 O   0  0  0  0  0  0  0  0  0  0  0  0
   10.1100    6.3494    7.5732 C   0  0  1  0  0  0  0  0  0  0  0  0
   11.0095    6.5623    8.6866 O   0  0  0  0  0  0  0  0  0  0  0  0
   14.0533    7.2600    6.8618 C   0  0  0  0  0  0  0  0  0  0  0  0
   13.5760    3.4603   10.8288 C   0  0  0  0  0  0  0  0  0  0  0  0
   14.9040    7.1124   10.9663 C   0  0  0  0  0  0  0  0  0  0  0  0
  1  2  1  1  0  0  0
  1  6  1  0  0  0  0
  1 23  1  0  0  0  0
  3  4  1  1  0  0  0
  3  8  1  0  0  0  0
  3 30  1  0  0  0  0
  5  9  1  0  0  0  0
  5 27  1  0  0  0  0
  5 31  1  6  0  0  0
  6  7  1  6  0  0  0
  6 11  1  0  0  0  0
  8 13  1  0  0  0  0
  9 10  1  6  0  0  0
  9 15  1  0  0  0  0
 11 12  1  6  0  0  0
 11 17  1  0  0  0  0
 13 14  1  6  0  0  0
 13 19  1  0  0  0  0
 15 16  1  1  0  0  0
 15 20  1  0  0  0  0
 16 34  1  0  0  0  0
 17 18  1  1  0  0  0
 17 22  1  0  0  0  0
 19  2  1  6  0  0  0
 19 24  1  0  0  0  0
 20 21  1  1  0  0  0
 20 26  1  0  0  0  0
 20 33  1  0  0  0  0
 22 23  1  6  0  0  0
 22 28  1  0  0  0  0
 24 25  1  1  0  0  0
 24 30  1  0  0  0  0
 26 27  1  0  0  0  0
 28 29  1  1  0  0  0
 28 32  1  0  0  0  0
 30 31  1  1  0  0  0
M  END
>  <CHROM.1>
-167.94344177,52.15115809,-100.60511157,-67.25967672,73.59912564,-173.84006443
11.92786892,6.35462966,6.79616676,1.52632004,0.16490768,-1.44274638

>  <Name>
ligand

>  <RI>
0

>  <Rbt.Current_Directory>
/home/itssahil/PROJECTS/Mol_Feturizer/New_Systems/rnas/3TD1

>  <Rbt.Executable>
rbdock ($Id: //depot/dev/client3/rdock/2013.1/src/exe/rbdock.cxx#4 $)

>  <Rbt.Library>
libRbt.so (2013.1, Build901 2013/11/27)

>  <Rbt.Parameter_File>
/export/apps/rDock/src/rDock_2013.1_src/data/scripts/dock_solv.prm

>  <Rbt.Receptor>
prm/pocket_docking_7.prm

>  <SCORE>
-8.25935

>  <SCORE.INTER>
-0.879334

>  <SCORE.INTER.CONST>
1

>  <SCORE.INTER.POLAR>
0

>  <SCORE.INTER.ROT>
6

>  <SCORE.INTER.SOLV>
8.89278

>  <SCORE.INTER.VDW>
-11.1505

>  <SCORE.INTER.norm>
-0.0258628

>  <SCORE.INTRA>
-7.38002

>  <SCORE.INTRA.DIHEDRAL>
-16.3716

>  <SCORE.INTRA.DIHEDRAL.0>
19.5869

>  <SCORE.INTRA.POLAR>
0

>  <SCORE.INTRA.POLAR.0>
0

>  <SCORE.INTRA.REPUL>
0

>  <SCORE.INTRA.REPUL.0>
0

>  <SCORE.INTRA.SOLV>
-0.164138

>  <SCORE.INTRA.SOLV.lig_0>
-70.101

>  <SCORE.INTRA.VDW>
0.887854

>  <SCORE.INTRA.VDW.0>
-3.39718

>  <SCORE.INTRA.norm>
-0.217059

>  <SCORE.RESTR>
0

>  <SCORE.RESTR.CAVITY>
0

>  <SCORE.RESTR.norm>
0

>  <SCORE.SYSTEM>
0

>  <SCORE.SYSTEM.CONST>
0

>  <SCORE.SYSTEM.DIHEDRAL>
0

>  <SCORE.SYSTEM.SOLV>
0

>  <SCORE.SYSTEM.norm>
0

>  <SCORE.heavy>
34

>  <SCORE.norm>
-0.242922

>  <RMSD>
7.638

$$$$
ligand
 OpenBabel11021811483D
libRbt.so/2013.1/901 2013/11/27
 34 36  0  0  0  0  0  0  0  0999 V2000
   10.7502    7.5287   11.6849 C   0  0  2  0  0  0  0  0  0  0  0  0
    9.4077    8.0238   11.5626 O   0  0  0  0  0  0  0  0  0  0  0  0
    7.9231    4.4536    9.7430 C   0  0  2  0  0  0  0  0  0  0  0  0
    7.0183    3.4571    9.1805 N   0  0  0  0  0  0  0  0  0  0  0  0
    7.5338    4.7048    6.6456 C   0  0  2  0  0  0  0  0  0  0  0  0
   11.4274    8.2585   12.8996 C   0  0  2  0  0  0  0  0  0  0  0  0
   10.7048    7.9872   14.1520 N   0  0  0  0  0  0  0  0  0  0  0  0
    7.4151    4.7853   11.1858 C   0  0  0  0  0  0  0  0  0  0  0  0
    8.3303    4.5060    5.3065 C   0  0  2  0  0  0  0  0  0  0  0  0
    9.5173    3.7716    5.5565 O   0  0  0  0  0  0  0  0  0  0  0  0
   11.4586    9.7785   12.6295 C   0  0  1  0  0  0  0  0  0  0  0  0
   12.0843   10.4521   13.7338 O   0  0  0  0  0  0  0  0  0  0  0  0
    8.3994    5.8378   11.7992 C   0  0  2  0  0  0  0  0  0  0  0  0
    7.9674    6.1975   13.1651 N   0  0  0  0  0  0  0  0  0  0  0  0
    8.6589    5.9246    4.6989 C   0  0  1  0  0  0  0  0  0  0  0  0
    9.4322    5.7903    3.4280 N   0  0  0  0  0  0  0  0  0  0  0  0
   12.2151   10.0343   11.3044 C   0  0  2  0  0  0  0  0  0  0  0  0
   12.2431   11.4466   11.0338 O   0  0  0  0  0  0  0  0  0  0  0  0
    8.4480    7.1226   10.9334 C   0  0  2  0  0  0  0  0  0  0  0  0
    7.3168    6.6918    4.4422 C   0  0  1  0  0  0  0  0  0  0  0  0
    6.5270    5.9711    3.4998 O   0  0  0  0  0  0  0  0  0  0  0  0
   11.5011    9.2619   10.1305 C   0  0  2  0  0  0  0  0  0  0  0  0
   11.4618    7.8173   10.4303 O   0  0  0  0  0  0  0  0  0  0  0  0
    8.8915    6.7561    9.4950 C   0  0  2  0  0  0  0  0  0  0  0  0
    8.9110    7.9470    8.7146 O   0  0  0  0  0  0  0  0  0  0  0  0
    6.5400    6.8040    5.7917 C   0  0  0  0  0  0  0  0  0  0  0  0
    6.3038    5.4621    6.3764 O   0  0  0  0  0  0  0  0  0  0  0  0
   12.2322    9.4608    8.7770 C   0  0  2  0  0  0  0  0  0  0  0  0
   11.5104    8.7930    7.7454 O   0  0  0  0  0  0  0  0  0  0  0  0
    7.9081    5.7566    8.8427 C   0  0  1  0  0  0  0  0  0  0  0  0
    8.4103    5.4750    7.5150 O   0  0  0  0  0  0  0  0  0  0  0  0
   13.6396    8.8883    8.8123 C   0  0  0  0  0  0  0  0  0  0  0  0
    7.5542    8.0861    3.8753 C   0  0  0  0  0  0  0  0  0  0  0  0
   10.8575    6.0272    3.7266 C   0  0  0  0  0  0  0  0  0  0  0  0
  1  2  1  6  0  0  0
  1  6  1  0  0  0  0
  1 23  1  0  0  0  0
  3  4  1  6  0  0  0
  3  8  1  0  0  0  0
  3 30  1  0  0  0  0
  5  9  1  0  0  0  0
  5 27  1  0  0  0  0
  5 31  1  1  0  0  0
  6  7  1  1  0  0  0
  6 11  1  0  0  0  0
  8 13  1  0  0  0  0
  9 10  1  1  0  0  0
  9 15  1  0  0  0  0
 11 12  1  1  0  0  0
 11 17  1  0  0  0  0
 13 14  1  1  0  0  0
 13 19  1  0  0  0  0
 15 16  1  6  0  0  0
 15 20  1  0  0  0  0
 16 34  1  0  0  0  0
 17 18  1  6  0  0  0
 17 22  1  0  0  0  0
 19  2  1  1  0  0  0
 19 24  1  0  0  0  0
 20 21  1  6  0  0  0
 20 26  1  0  0  0  0
 20 33  1  0  0  0  0
 22 23  1  1  0  0  0
 22 28  1  0  0  0  0
 24 25  1  6  0  0  0
 24 30  1  0  0  0  0
 26 27  1  0  0  0  0
 28 29  1  6  0  0  0
 28 32  1  0  0  0  0
 30 31  1  6  0  0  0
M  END
>  <CHROM.1>
-154.06635143,59.83081227,-100.14725689,-177.35265750,72.73806938,-178.20931624
9.44413690,7.06034259,8.75421671,0.98867926,0.77042866,1.55276662

>  <Name>
ligand

>  <RI>
0

>  <Rbt.Current_Directory>
/home/itssahil/PROJECTS/Mol_Feturizer/New_Systems/rnas/3TD1

>  <Rbt.Executable>
rbdock ($Id: //depot/dev/client3/rdock/2013.1/src/exe/rbdock.cxx#4 $)

>  <Rbt.Library>
libRbt.so (2013.1, Build901 2013/11/27)

>  <Rbt.Parameter_File>
/export/apps/rDock/src/rDock_2013.1_src/data/scripts/dock_solv.prm

>  <Rbt.Receptor>
prm/pocket_docking_6.prm

>  <SCORE>
-12.9021

>  <SCORE.INTER>
-6.44974

>  <SCORE.INTER.CONST>
1

>  <SCORE.INTER.POLAR>
0

>  <SCORE.INTER.ROT>
6

>  <SCORE.INTER.SOLV>
11.1209

>  <SCORE.INTER.VDW>
-15.6068

>  <SCORE.INTER.norm>
-0.189698

>  <SCORE.INTRA>
-6.45241

>  <SCORE.INTRA.DIHEDRAL>
-14.966

>  <SCORE.INTRA.DIHEDRAL.0>
19.5869

>  <SCORE.INTRA.POLAR>
0

>  <SCORE.INTRA.POLAR.0>
0

>  <SCORE.INTRA.REPUL>
0

>  <SCORE.INTRA.REPUL.0>
0

>  <SCORE.INTRA.SOLV>
0.371675

>  <SCORE.INTRA.SOLV.lig_0>
-70.101

>  <SCORE.INTRA.VDW>
0.844749

>  <SCORE.INTRA.VDW.0>
-3.39718

>  <SCORE.INTRA.norm>
-0.189777

>  <SCORE.RESTR>
0

>  <SCORE.RESTR.CAVITY>
0

>  <SCORE.RESTR.norm>
0

>  <SCORE.SYSTEM>
0

>  <SCORE.SYSTEM.CONST>
0

>  <SCORE.SYSTEM.DIHEDRAL>
0

>  <SCORE.SYSTEM.SOLV>
0

>  <SCORE.SYSTEM.norm>
0

>  <SCORE.heavy>
34

>  <SCORE.norm>
-0.379475

>  <RMSD>
7.713

$$$$
ligand
 OpenBabel11021811483D
libRbt.so/2013.1/901 2013/11/27
 34 36  0  0  0  0  0  0  0  0999 V2000
   11.9170    8.2268    7.7526 C   0  0  2  0  0  0  0  0  0  0  0  0
   11.6163    6.8250    7.6694 O   0  0  0  0  0  0  0  0  0  0  0  0
    8.9396    4.7211    5.0866 C   0  0  2  0  0  0  0  0  0  0  0  0
    7.7190    4.2508    4.4409 N   0  0  0  0  0  0  0  0  0  0  0  0
    8.1693    6.3290    2.5138 C   0  0  2  0  0  0  0  0  0  0  0  0
   13.4419    8.3759    8.0978 C   0  0  2  0  0  0  0  0  0  0  0  0
   14.2841    7.7702    7.0546 N   0  0  0  0  0  0  0  0  0  0  0  0
    8.7695    4.4993    6.6266 C   0  0  0  0  0  0  0  0  0  0  0  0
    8.6869    6.4468    1.0355 C   0  0  2  0  0  0  0  0  0  0  0  0
    9.6037    5.4003    0.7613 O   0  0  0  0  0  0  0  0  0  0  0  0
   13.7258    7.7035    9.4586 C   0  0  1  0  0  0  0  0  0  0  0  0
   15.1183    7.8431    9.7845 O   0  0  0  0  0  0  0  0  0  0  0  0
   10.0888    4.9824    7.3186 C   0  0  2  0  0  0  0  0  0  0  0  0
    9.9869    4.8034    8.7812 N   0  0  0  0  0  0  0  0  0  0  0  0
    9.3660    7.8587    0.8491 C   0  0  1  0  0  0  0  0  0  0  0  0
    9.8907    8.0148   -0.5408 N   0  0  0  0  0  0  0  0  0  0  0  0
   12.8220    8.3522   10.5337 C   0  0  2  0  0  0  0  0  0  0  0  0
   13.0677    7.7282   11.8060 O   0  0  0  0  0  0  0  0  0  0  0  0
   10.3599    6.4778    7.0136 C   0  0  2  0  0  0  0  0  0  0  0  0
    8.3128    8.9757    1.1629 C   0  0  1  0  0  0  0  0  0  0  0  0
    7.2239    8.8764    0.2488 O   0  0  0  0  0  0  0  0  0  0  0  0
   11.3093    8.1877   10.1219 C   0  0  2  0  0  0  0  0  0  0  0  0
   11.0758    8.8147    8.8064 O   0  0  0  0  0  0  0  0  0  0  0  0
   10.4598    6.6794    5.4808 C   0  0  2  0  0  0  0  0  0  0  0  0
   10.6902    8.0609    5.2243 O   0  0  0  0  0  0  0  0  0  0  0  0
    7.7878    8.7718    2.6190 C   0  0  0  0  0  0  0  0  0  0  0  0
    7.2167    7.4138    2.7874 O   0  0  0  0  0  0  0  0  0  0  0  0
   10.3537    8.8434   11.1528 C   0  0  2  0  0  0  0  0  0  0  0  0
   10.6910    8.3965   12.4634 O   0  0  0  0  0  0  0  0  0  0  0  0
    9.1502    6.2594    4.7736 C   0  0  1  0  0  0  0  0  0  0  0  0
    9.3461    6.4780    3.3565 O   0  0  0  0  0  0  0  0  0  0  0  0
    8.9043    8.4708   10.8876 C   0  0  0  0  0  0  0  0  0  0  0  0
    8.9036   10.3737    1.0272 C   0  0  0  0  0  0  0  0  0  0  0  0
   11.3435    7.7584   -0.5182 C   0  0  0  0  0  0  0  0  0  0  0  0
  1  2  1  1  0  0  0
  1  6  1  0  0  0  0
  1 23  1  0  0  0  0
  3  4  1  6  0  0  0
  3  8  1  0  0  0  0
  3 30  1  0  0  0  0
  5  9  1  0  0  0  0
  5 27  1  0  0  0  0
  5 31  1  1  0  0  0
  6  7  1  6  0  0  0
  6 11  1  0  0  0  0
  8 13  1  0  0  0  0
  9 10  1  1  0  0  0
  9 15  1  0  0  0  0
 11 12  1  1  0  0  0
 11 17  1  0  0  0  0
 13 14  1  1  0  0  0
 13 19  1  0  0  0  0
 15 16  1  6  0  0  0
 15 20  1  0  0  0  0
 16 34  1  0  0  0  0
 17 18  1  1  0  0  0
 17 22  1  0  0  0  0
 19  2  1  1  0  0  0
 19 24  1  0  0  0  0
 20 21  1  6  0  0  0
 20 26  1  0  0  0  0
 20 33  1  0  0  0  0
 22 23  1  6  0  0  0
 22 28  1  0  0  0  0
 24 25  1  1  0  0  0
 24 30  1  0  0  0  0
 26 27  1  0  0  0  0
 28 29  1  1  0  0  0
 28 32  1  0  0  0  0
 30 31  1  6  0  0  0
M  END
>  <CHROM.1>
-164.06995236,-167.41880787,-100.08140001,-50.28225268,72.56935049,-173.44833751
10.30997509,7.34265490,5.76085523,-1.14673365,-0.60091702,-1.35732078

>  <Name>
ligand

>  <RI>
0

>  <Rbt.Current_Directory>
/home/itssahil/PROJECTS/Mol_Feturizer/New_Systems/rnas/3TD1

>  <Rbt.Executable>
rbdock ($Id: //depot/dev/client3/rdock/2013.1/src/exe/rbdock.cxx#4 $)

>  <Rbt.Library>
libRbt.so (2013.1, Build901 2013/11/27)

>  <Rbt.Parameter_File>
/export/apps/rDock/src/rDock_2013.1_src/data/scripts/dock_solv.prm

>  <Rbt.Receptor>
prm/pocket_docking_7.prm

>  <SCORE>
-10.3241

>  <SCORE.INTER>
-2.48825

>  <SCORE.INTER.CONST>
1

>  <SCORE.INTER.POLAR>
0

>  <SCORE.INTER.ROT>
6

>  <SCORE.INTER.SOLV>
12.3771

>  <SCORE.INTER.VDW>
-13.3845

>  <SCORE.INTER.norm>
-0.0731839

>  <SCORE.INTRA>
-7.83588

>  <SCORE.INTRA.DIHEDRAL>
-15.3768

>  <SCORE.INTRA.DIHEDRAL.0>
19.5869

>  <SCORE.INTRA.POLAR>
0

>  <SCORE.INTRA.POLAR.0>
0

>  <SCORE.INTRA.REPUL>
0

>  <SCORE.INTRA.REPUL.0>
0

>  <SCORE.INTRA.SOLV>
-1.30893

>  <SCORE.INTRA.SOLV.lig_0>
-70.101

>  <SCORE.INTRA.VDW>
0.506966

>  <SCORE.INTRA.VDW.0>
-3.39718

>  <SCORE.INTRA.norm>
-0.230467

>  <SCORE.RESTR>
0

>  <SCORE.RESTR.CAVITY>
0

>  <SCORE.RESTR.norm>
0

>  <SCORE.SYSTEM>
0

>  <SCORE.SYSTEM.CONST>
0

>  <SCORE.SYSTEM.DIHEDRAL>
0

>  <SCORE.SYSTEM.SOLV>
0

>  <SCORE.SYSTEM.norm>
0

>  <SCORE.heavy>
34

>  <SCORE.norm>
-0.303651

>  <RMSD>
7.717

$$$$
ligand
 OpenBabel11021811483D
libRbt.so/2013.1/901 2013/11/27
 34 36  0  0  0  0  0  0  0  0999 V2000
   10.3817    8.0004    4.4420 C   0  0  2  0  0  0  0  0  0  0  0  0
   10.1829    6.5889    4.2671 O   0  0  0  0  0  0  0  0  0  0  0  0
    6.2197    6.6054    5.8654 C   0  0  2  0  0  0  0  0  0  0  0  0
    4.8482    6.2167    6.1754 N   0  0  0  0  0  0  0  0  0  0  0  0
    5.8918    5.0633    8.5126 C   0  0  2  0  0  0  0  0  0  0  0  0
   11.7536    8.3824    3.7799 C   0  0  2  0  0  0  0  0  0  0  0  0
   11.7517    8.0775    2.3407 N   0  0  0  0  0  0  0  0  0  0  0  0
    6.3621    6.6154    4.3068 C   0  0  0  0  0  0  0  0  0  0  0  0
    6.1011    5.0689   10.0693 C   0  0  2  0  0  0  0  0  0  0  0  0
    6.3272    6.3942   10.5202 O   0  0  0  0  0  0  0  0  0  0  0  0
   12.8918    7.6084    4.4797 C   0  0  1  0  0  0  0  0  0  0  0  0
   14.1514    7.9593    3.8838 O   0  0  0  0  0  0  0  0  0  0  0  0
    7.8276    7.0552    3.9725 C   0  0  2  0  0  0  0  0  0  0  0  0
    8.0269    7.0781    2.5092 N   0  0  0  0  0  0  0  0  0  0  0  0
    7.3243    4.1353   10.4179 C   0  0  1  0  0  0  0  0  0  0  0  0
    7.5754    4.1187   11.8903 N   0  0  0  0  0  0  0  0  0  0  0  0
   12.8651    7.9399    5.9906 C   0  0  2  0  0  0  0  0  0  0  0  0
   13.9141    7.2171    6.6582 O   0  0  0  0  0  0  0  0  0  0  0  0
    8.8564    6.0828    4.6041 C   0  0  2  0  0  0  0  0  0  0  0  0
    7.0234    2.6873    9.8998 C   0  0  1  0  0  0  0  0  0  0  0  0
    5.8661    2.1758   10.5557 O   0  0  0  0  0  0  0  0  0  0  0  0
   11.4601    7.5535    6.5918 C   0  0  2  0  0  0  0  0  0  0  0  0
   10.3922    8.2868    5.8848 O   0  0  0  0  0  0  0  0  0  0  0  0
    8.6508    6.0436    6.1391 C   0  0  2  0  0  0  0  0  0  0  0  0
    9.5928    5.1317    6.6945 O   0  0  0  0  0  0  0  0  0  0  0  0
    6.7620    2.7517    8.3620 C   0  0  0  0  0  0  0  0  0  0  0  0
    5.6536    3.6875    8.0551 O   0  0  0  0  0  0  0  0  0  0  0  0
   11.3650    7.8878    8.1034 C   0  0  2  0  0  0  0  0  0  0  0  0
   12.3417    7.1352    8.8181 O   0  0  0  0  0  0  0  0  0  0  0  0
    7.2268    5.5617    6.5019 C   0  0  1  0  0  0  0  0  0  0  0  0
    7.1341    5.5663    7.9461 O   0  0  0  0  0  0  0  0  0  0  0  0
    9.9977    7.5398    8.6681 C   0  0  0  0  0  0  0  0  0  0  0  0
    8.1743    1.7287   10.1796 C   0  0  0  0  0  0  0  0  0  0  0  0
    8.6857    5.0461   12.1806 C   0  0  0  0  0  0  0  0  0  0  0  0
  1  2  1  1  0  0  0
  1  6  1  0  0  0  0
  1 23  1  0  0  0  0
  3  4  1  6  0  0  0
  3  8  1  0  0  0  0
  3 30  1  0  0  0  0
  5  9  1  0  0  0  0
  5 27  1  0  0  0  0
  5 31  1  6  0  0  0
  6  7  1  6  0  0  0
  6 11  1  0  0  0  0
  8 13  1  0  0  0  0
  9 10  1  6  0  0  0
  9 15  1  0  0  0  0
 11 12  1  6  0  0  0
 11 17  1  0  0  0  0
 13 14  1  6  0  0  0
 13 19  1  0  0  0  0
 15 16  1  1  0  0  0
 15 20  1  0  0  0  0
 16 34  1  0  0  0  0
 17 18  1  1  0  0  0
 17 22  1  0  0  0  0
 19  2  1  1  0  0  0
 19 24  1  0  0  0  0
 20 21  1  1  0  0  0
 20 26  1  0  0  0  0
 20 33  1  0  0  0  0
 22 23  1  6  0  0  0
 22 28  1  0  0  0  0
 24 25  1  1  0  0  0
 24 30  1  0  0  0  0
 26 27  1  0  0  0  0
 28 29  1  1  0  0  0
 28 32  1  0  0  0  0
 30 31  1  1  0  0  0
M  END
>  <CHROM.1>
-169.48554856,45.45640557,-99.31756270,-61.72050277,67.75371719,175.49492474
8.95467142,6.01666469,7.07695169,0.86487400,-0.32626627,-1.21408708

>  <Name>
ligand

>  <RI>
0

>  <Rbt.Current_Directory>
/home/itssahil/PROJECTS/Mol_Feturizer/New_Systems/rnas/3TD1

>  <Rbt.Executable>
rbdock ($Id: //depot/dev/client3/rdock/2013.1/src/exe/rbdock.cxx#4 $)

>  <Rbt.Library>
libRbt.so (2013.1, Build901 2013/11/27)

>  <Rbt.Parameter_File>
/export/apps/rDock/src/rDock_2013.1_src/data/scripts/dock_solv.prm

>  <Rbt.Receptor>
prm/pocket_docking_6.prm

>  <SCORE>
-12.3014

>  <SCORE.INTER>
-5.14477

>  <SCORE.INTER.CONST>
1

>  <SCORE.INTER.POLAR>
0

>  <SCORE.INTER.ROT>
6

>  <SCORE.INTER.SOLV>
14.2928

>  <SCORE.INTER.VDW>
-15.7941

>  <SCORE.INTER.norm>
-0.151317

>  <SCORE.INTRA>
-7.15662

>  <SCORE.INTRA.DIHEDRAL>
-16.7095

>  <SCORE.INTRA.DIHEDRAL.0>
19.5869

>  <SCORE.INTRA.POLAR>
0

>  <SCORE.INTRA.POLAR.0>
0

>  <SCORE.INTRA.REPUL>
0

>  <SCORE.INTRA.REPUL.0>
0

>  <SCORE.INTRA.SOLV>
0.159324

>  <SCORE.INTRA.SOLV.lig_0>
-70.101

>  <SCORE.INTRA.VDW>
1.11847

>  <SCORE.INTRA.VDW.0>
-3.39718

>  <SCORE.INTRA.norm>
-0.210489

>  <SCORE.RESTR>
0

>  <SCORE.RESTR.CAVITY>
0

>  <SCORE.RESTR.norm>
0

>  <SCORE.SYSTEM>
0

>  <SCORE.SYSTEM.CONST>
0

>  <SCORE.SYSTEM.DIHEDRAL>
0

>  <SCORE.SYSTEM.SOLV>
0

>  <SCORE.SYSTEM.norm>
0

>  <SCORE.heavy>
34

>  <SCORE.norm>
-0.361806

>  <RMSD>
7.744

$$$$
ligand
 OpenBabel11021811483D
libRbt.so/2013.1/901 2013/11/27
 34 36  0  0  0  0  0  0  0  0999 V2000
   10.3521    8.0065    4.3974 C   0  0  2  0  0  0  0  0  0  0  0  0
   10.1671    6.5913    4.2373 O   0  0  0  0  0  0  0  0  0  0  0  0
    6.2209    6.5767    5.8773 C   0  0  2  0  0  0  0  0  0  0  0  0
    4.8564    6.1766    6.2030 N   0  0  0  0  0  0  0  0  0  0  0  0
    5.9209    5.0742    8.5314 C   0  0  2  0  0  0  0  0  0  0  0  0
   11.7131    8.3974    3.7182 C   0  0  2  0  0  0  0  0  0  0  0  0
   11.7004    8.0792    2.2819 N   0  0  0  0  0  0  0  0  0  0  0  0
    6.3468    6.5834    4.3172 C   0  0  0  0  0  0  0  0  0  0  0  0
    6.1382    5.1004   10.0868 C   0  0  2  0  0  0  0  0  0  0  0  0
    6.3838    6.4292   10.5166 O   0  0  0  0  0  0  0  0  0  0  0  0
   12.8666    7.6422    4.4136 C   0  0  1  0  0  0  0  0  0  0  0  0
   14.1163    8.0014    3.8021 O   0  0  0  0  0  0  0  0  0  0  0  0
    7.8047    7.0354    3.9662 C   0  0  2  0  0  0  0  0  0  0  0  0
    7.9883    7.0557    2.5008 N   0  0  0  0  0  0  0  0  0  0  0  0
    7.3510    4.1562   10.4433 C   0  0  1  0  0  0  0  0  0  0  0  0
    7.6094    4.1584   11.9146 N   0  0  0  0  0  0  0  0  0  0  0  0
   12.8511    7.9873    5.9217 C   0  0  2  0  0  0  0  0  0  0  0  0
   13.9145    7.2821    6.5853 O   0  0  0  0  0  0  0  0  0  0  0  0
    8.8488    6.0742    4.5898 C   0  0  2  0  0  0  0  0  0  0  0  0
    7.0287    2.7046    9.9486 C   0  0  1  0  0  0  0  0  0  0  0  0
    5.8683    2.2181   10.6178 O   0  0  0  0  0  0  0  0  0  0  0  0
   11.4565    7.5911    6.5403 C   0  0  2  0  0  0  0  0  0  0  0  0
   10.3737    8.3063    5.8373 O   0  0  0  0  0  0  0  0  0  0  0  0
    8.6599    6.0378    6.1269 C   0  0  2  0  0  0  0  0  0  0  0  0
    9.6159    5.1363    6.6751 O   0  0  0  0  0  0  0  0  0  0  0  0
    6.7603    2.7494    8.4113 C   0  0  0  0  0  0  0  0  0  0  0  0
    5.6625    3.6948    8.0959 O   0  0  0  0  0  0  0  0  0  0  0  0
   11.3725    7.9382    8.0497 C   0  0  2  0  0  0  0  0  0  0  0  0
   12.3681    7.2071    8.7607 O   0  0  0  0  0  0  0  0  0  0  0  0
    7.2442    5.5442    6.5062 C   0  0  1  0  0  0  0  0  0  0  0  0
    7.1667    5.5524    7.9512 O   0  0  0  0  0  0  0  0  0  0  0  0
   10.0167    7.5751    8.6325 C   0  0  0  0  0  0  0  0  0  0  0  0
    8.1685    1.7354   10.2371 C   0  0  0  0  0  0  0  0  0  0  0  0
    8.7144    5.0969   12.1886 C   0  0  0  0  0  0  0  0  0  0  0  0
  1  2  1  1  0  0  0
  1  6  1  0  0  0  0
  1 23  1  0  0  0  0
  3  4  1  6  0  0  0
  3  8  1  0  0  0  0
  3 30  1  0  0  0  0
  5  9  1  0  0  0  0
  5 27  1  0  0  0  0
  5 31  1  6  0  0  0
  6  7  1  6  0  0  0
  6 11  1  0  0  0  0
  8 13  1  0  0  0  0
  9 10  1  6  0  0  0
  9 15  1  0  0  0  0
 11 12  1  6  0  0  0
 11 17  1  0  0  0  0
 13 14  1  6  0  0  0
 13 19  1  0  0  0  0
 15 16  1  1  0  0  0
 15 20  1  0  0  0  0
 16 34  1  0  0  0  0
 17 18  1  1  0  0  0
 17 22  1  0  0  0  0
 19  2  1  1  0  0  0
 19 24  1  0  0  0  0
 20 21  1  1  0  0  0
 20 26  1  0  0  0  0
 20 33  1  0  0  0  0
 22 23  1  6  0  0  0
 22 28  1  0  0  0  0
 24 25  1  1  0  0  0
 24 30  1  0  0  0  0
 26 27  1  0  0  0  0
 28 29  1  1  0  0  0
 28 32  1  0  0  0  0
 30 31  1  1  0  0  0
M  END
>  <CHROM.1>
-169.38051720,45.05380636,-98.14873177,-61.48277522,66.12398884,176.41287581
8.95649983,6.03217898,7.06550771,0.87272494,-0.33466606,-1.22207102

>  <Name>
ligand

>  <RI>
0

>  <Rbt.Current_Directory>
/home/itssahil/PROJECTS/Mol_Feturizer/New_Systems/rnas/3TD1

>  <Rbt.Executable>
rbdock ($Id: //depot/dev/client3/rdock/2013.1/src/exe/rbdock.cxx#4 $)

>  <Rbt.Library>
libRbt.so (2013.1, Build901 2013/11/27)

>  <Rbt.Parameter_File>
/export/apps/rDock/src/rDock_2013.1_src/data/scripts/dock_solv.prm

>  <Rbt.Receptor>
prm/pocket_docking_6.prm

>  <SCORE>
-12.3087

>  <SCORE.INTER>
-5.21204

>  <SCORE.INTER.CONST>
1

>  <SCORE.INTER.POLAR>
0

>  <SCORE.INTER.ROT>
6

>  <SCORE.INTER.SOLV>
14.2301

>  <SCORE.INTER.VDW>
-15.8181

>  <SCORE.INTER.norm>
-0.153295

>  <SCORE.INTRA>
-7.09669

>  <SCORE.INTRA.DIHEDRAL>
-16.8255

>  <SCORE.INTRA.DIHEDRAL.0>
19.5869

>  <SCORE.INTRA.POLAR>
0

>  <SCORE.INTRA.POLAR.0>
0

>  <SCORE.INTRA.REPUL>
0

>  <SCORE.INTRA.REPUL.0>
0

>  <SCORE.INTRA.SOLV>
0.215575

>  <SCORE.INTRA.SOLV.lig_0>
-70.101

>  <SCORE.INTRA.VDW>
1.20825

>  <SCORE.INTRA.VDW.0>
-3.39718

>  <SCORE.INTRA.norm>
-0.208726

>  <SCORE.RESTR>
0

>  <SCORE.RESTR.CAVITY>
0

>  <SCORE.RESTR.norm>
0

>  <SCORE.SYSTEM>
0

>  <SCORE.SYSTEM.CONST>
0

>  <SCORE.SYSTEM.DIHEDRAL>
0

>  <SCORE.SYSTEM.SOLV>
0

>  <SCORE.SYSTEM.norm>
0

>  <SCORE.heavy>
34

>  <SCORE.norm>
-0.362021

>  <RMSD>
7.746

$$$$
ligand
 OpenBabel11021811483D
libRbt.so/2013.1/901 2013/11/27
 34 36  0  0  0  0  0  0  0  0999 V2000
   10.8527    6.5672    2.9113 C   0  0  2  0  0  0  0  0  0  0  0  0
   10.8276    5.2357    3.4487 O   0  0  0  0  0  0  0  0  0  0  0  0
   13.6903    2.0850    3.0748 C   0  0  2  0  0  0  0  0  0  0  0  0
   14.9523    1.3534    3.0564 N   0  0  0  0  0  0  0  0  0  0  0  0
   14.3920    0.6912    5.7678 C   0  0  2  0  0  0  0  0  0  0  0  0
   10.2429    7.5357    3.9868 C   0  0  2  0  0  0  0  0  0  0  0  0
   11.0283    7.5102    5.2305 N   0  0  0  0  0  0  0  0  0  0  0  0
   13.8457    3.3101    2.1132 C   0  0  0  0  0  0  0  0  0  0  0  0
   13.9567   -0.3215    6.8867 C   0  0  2  0  0  0  0  0  0  0  0  0
   12.9554   -1.1917    6.3858 O   0  0  0  0  0  0  0  0  0  0  0  0
    8.7839    7.1221    4.2780 C   0  0  1  0  0  0  0  0  0  0  0  0
    8.2169    8.0093    5.2559 O   0  0  0  0  0  0  0  0  0  0  0  0
   12.4836    4.0830    2.1143 C   0  0  2  0  0  0  0  0  0  0  0  0
   12.5696    5.2595    1.2254 N   0  0  0  0  0  0  0  0  0  0  0  0
   13.4283    0.4949    8.1291 C   0  0  1  0  0  0  0  0  0  0  0  0
   12.9856   -0.4260    9.2187 N   0  0  0  0  0  0  0  0  0  0  0  0
    7.9841    7.1488    2.9540 C   0  0  2  0  0  0  0  0  0  0  0  0
    6.6243    6.7550    3.2078 O   0  0  0  0  0  0  0  0  0  0  0  0
   12.1171    4.5592    3.5432 C   0  0  2  0  0  0  0  0  0  0  0  0
   14.5703    1.4373    8.6421 C   0  0  1  0  0  0  0  0  0  0  0  0
   15.6850    0.6539    9.0601 O   0  0  0  0  0  0  0  0  0  0  0  0
    8.6548    6.1750    1.9116 C   0  0  2  0  0  0  0  0  0  0  0  0
   10.0547    6.5784    1.6757 O   0  0  0  0  0  0  0  0  0  0  0  0
   12.0329    3.3337    4.4872 C   0  0  2  0  0  0  0  0  0  0  0  0
   11.7137    3.7964    5.7954 O   0  0  0  0  0  0  0  0  0  0  0  0
   15.0055    2.3762    7.4731 C   0  0  0  0  0  0  0  0  0  0  0  0
   15.4326    1.5853    6.2939 O   0  0  0  0  0  0  0  0  0  0  0  0
    7.9088    6.1790    0.5517 C   0  0  2  0  0  0  0  0  0  0  0  0
    8.4782    5.1922   -0.3046 O   0  0  0  0  0  0  0  0  0  0  0  0
   13.3814    2.5790    4.5476 C   0  0  1  0  0  0  0  0  0  0  0  0
   13.1980    1.4569    5.4429 O   0  0  0  0  0  0  0  0  0  0  0  0
    8.0208    7.5258   -0.1435 C   0  0  0  0  0  0  0  0  0  0  0  0
   14.1260    2.2798    9.8315 C   0  0  0  0  0  0  0  0  0  0  0  0
   11.5105   -0.4291    9.2510 C   0  0  0  0  0  0  0  0  0  0  0  0
  1  2  1  1  0  0  0
  1  6  1  0  0  0  0
  1 23  1  0  0  0  0
  3  4  1  1  0  0  0
  3  8  1  0  0  0  0
  3 30  1  0  0  0  0
  5  9  1  0  0  0  0
  5 27  1  0  0  0  0
  5 31  1  1  0  0  0
  6  7  1  1  0  0  0
  6 11  1  0  0  0  0
  8 13  1  0  0  0  0
  9 10  1  6  0  0  0
  9 15  1  0  0  0  0
 11 12  1  1  0  0  0
 11 17  1  0  0  0  0
 13 14  1  6  0  0  0
 13 19  1  0  0  0  0
 15 16  1  1  0  0  0
 15 20  1  0  0  0  0
 16 34  1  0  0  0  0
 17 18  1  1  0  0  0
 17 22  1  0  0  0  0
 19  2  1  6  0  0  0
 19 24  1  0  0  0  0
 20 21  1  1  0  0  0
 20 26  1  0  0  0  0
 20 33  1  0  0  0  0
 22 23  1  6  0  0  0
 22 28  1  0  0  0  0
 24 25  1  1  0  0  0
 24 30  1  0  0  0  0
 26 27  1  0  0  0  0
 28 29  1  6  0  0  0
 28 32  1  0  0  0  0
 30 31  1  1  0  0  0
M  END
>  <CHROM.1>
-121.70705422,-77.08076545,-105.67099046,-174.51902165,70.83153971,172.48584082
11.79083958,3.71717682,4.64044116,-2.39640854,-0.75698310,1.76125498

>  <Name>
ligand

>  <RI>
0

>  <Rbt.Current_Directory>
/home/itssahil/PROJECTS/Mol_Feturizer/New_Systems/rnas/3TD1

>  <Rbt.Executable>
rbdock ($Id: //depot/dev/client3/rdock/2013.1/src/exe/rbdock.cxx#4 $)

>  <Rbt.Library>
libRbt.so (2013.1, Build901 2013/11/27)

>  <Rbt.Parameter_File>
/export/apps/rDock/src/rDock_2013.1_src/data/scripts/dock_solv.prm

>  <Rbt.Receptor>
prm/pocket_docking_8.prm

>  <SCORE>
-8.22536

>  <SCORE.INTER>
-4.99678

>  <SCORE.INTER.CONST>
1

>  <SCORE.INTER.POLAR>
0

>  <SCORE.INTER.ROT>
6

>  <SCORE.INTER.SOLV>
13.9937

>  <SCORE.INTER.VDW>
-15.5958

>  <SCORE.INTER.norm>
-0.146964

>  <SCORE.INTRA>
-3.22858

>  <SCORE.INTRA.DIHEDRAL>
-8.99908

>  <SCORE.INTRA.DIHEDRAL.0>
19.5869

>  <SCORE.INTRA.POLAR>
0

>  <SCORE.INTRA.POLAR.0>
0

>  <SCORE.INTRA.REPUL>
0

>  <SCORE.INTRA.REPUL.0>
0

>  <SCORE.INTRA.SOLV>
0.173822

>  <SCORE.INTRA.SOLV.lig_0>
-70.101

>  <SCORE.INTRA.VDW>
1.18405

>  <SCORE.INTRA.VDW.0>
-3.39718

>  <SCORE.INTRA.norm>
-0.0949581

>  <SCORE.RESTR>
0

>  <SCORE.RESTR.CAVITY>
0

>  <SCORE.RESTR.norm>
0

>  <SCORE.SYSTEM>
0

>  <SCORE.SYSTEM.CONST>
0

>  <SCORE.SYSTEM.DIHEDRAL>
0

>  <SCORE.SYSTEM.SOLV>
0

>  <SCORE.SYSTEM.norm>
0

>  <SCORE.heavy>
34

>  <SCORE.norm>
-0.241922

>  <RMSD>
7.767

$$$$
ligand
 OpenBabel11021811483D
libRbt.so/2013.1/901 2013/11/27
 34 36  0  0  0  0  0  0  0  0999 V2000
    9.7418    8.6858    2.5650 C   0  0  2  0  0  0  0  0  0  0  0  0
    9.9945    7.3686    2.0516 O   0  0  0  0  0  0  0  0  0  0  0  0
   12.4912    4.3055    3.6781 C   0  0  2  0  0  0  0  0  0  0  0  0
   13.6694    3.5518    4.0925 N   0  0  0  0  0  0  0  0  0  0  0  0
   13.4008    4.9952    6.6670 C   0  0  2  0  0  0  0  0  0  0  0  0
    8.3092    9.1235    2.0930 C   0  0  2  0  0  0  0  0  0  0  0  0
    7.2784    8.2077    2.6057 N   0  0  0  0  0  0  0  0  0  0  0  0
   12.6525    4.6254    2.1545 C   0  0  0  0  0  0  0  0  0  0  0  0
   12.9500    4.8952    8.1683 C   0  0  2  0  0  0  0  0  0  0  0  0
   11.9644    3.8855    8.3092 O   0  0  0  0  0  0  0  0  0  0  0  0
    8.2664    9.1522    0.5497 C   0  0  1  0  0  0  0  0  0  0  0  0
    6.9602    9.5598    0.1108 O   0  0  0  0  0  0  0  0  0  0  0  0
   11.3771    5.4145    1.7033 C   0  0  2  0  0  0  0  0  0  0  0  0
   11.4732    5.7522    0.2687 N   0  0  0  0  0  0  0  0  0  0  0  0
   12.3918    6.2993    8.6226 C   0  0  1  0  0  0  0  0  0  0  0  0
   11.9337    6.2527   10.0436 N   0  0  0  0  0  0  0  0  0  0  0  0
    9.3646   10.1143    0.0379 C   0  0  2  0  0  0  0  0  0  0  0  0
    9.3439   10.1432   -1.3999 O   0  0  0  0  0  0  0  0  0  0  0  0
   11.2176    6.7237    2.5177 C   0  0  2  0  0  0  0  0  0  0  0  0
   13.5174    7.3755    8.4476 C   0  0  1  0  0  0  0  0  0  0  0  0
   14.6286    7.0440    9.2761 O   0  0  0  0  0  0  0  0  0  0  0  0
   10.7725    9.6346    0.5597 C   0  0  2  0  0  0  0  0  0  0  0  0
   10.7733    9.5905    2.0349 O   0  0  0  0  0  0  0  0  0  0  0  0
   11.1248    6.3823    4.0260 C   0  0  2  0  0  0  0  0  0  0  0  0
   10.9976    7.5992    4.7542 O   0  0  0  0  0  0  0  0  0  0  0  0
   13.9696    7.3864    6.9534 C   0  0  0  0  0  0  0  0  0  0  0  0
   14.4250    6.0400    6.5313 O   0  0  0  0  0  0  0  0  0  0  0  0
   11.9137   10.5783    0.0979 C   0  0  2  0  0  0  0  0  0  0  0  0
   11.9873   10.5725   -1.3254 O   0  0  0  0  0  0  0  0  0  0  0  0
   12.3952    5.6476    4.5137 C   0  0  1  0  0  0  0  0  0  0  0  0
   12.2086    5.3695    5.9215 O   0  0  0  0  0  0  0  0  0  0  0  0
   13.2617   10.1326    0.6402 C   0  0  0  0  0  0  0  0  0  0  0  0
   13.0443    8.7683    8.8452 C   0  0  0  0  0  0  0  0  0  0  0  0
   10.4612    6.3447   10.0581 C   0  0  0  0  0  0  0  0  0  0  0  0
  1  2  1  6  0  0  0
  1  6  1  0  0  0  0
  1 23  1  0  0  0  0
  3  4  1  1  0  0  0
  3  8  1  0  0  0  0
  3 30  1  0  0  0  0
  5  9  1  0  0  0  0
  5 27  1  0  0  0  0
  5 31  1  6  0  0  0
  6  7  1  6  0  0  0
  6 11  1  0  0  0  0
  8 13  1  0  0  0  0
  9 10  1  6  0  0  0
  9 15  1  0  0  0  0
 11 12  1  1  0  0  0
 11 17  1  0  0  0  0
 13 14  1  6  0  0  0
 13 19  1  0  0  0  0
 15 16  1  1  0  0  0
 15 20  1  0  0  0  0
 16 34  1  0  0  0  0
 17 18  1  6  0  0  0
 17 22  1  0  0  0  0
 19  2  1  6  0  0  0
 19 24  1  0  0  0  0
 20 21  1  1  0  0  0
 20 26  1  0  0  0  0
 20 33  1  0  0  0  0
 22 23  1  1  0  0  0
 22 28  1  0  0  0  0
 24 25  1  1  0  0  0
 24 30  1  0  0  0  0
 26 27  1  0  0  0  0
 28 29  1  6  0  0  0
 28 32  1  0  0  0  0
 30 31  1  1  0  0  0
M  END
>  <CHROM.1>
-172.97808929,-172.72527916,-109.76105093,-62.23617733,79.28176065,174.43418603
11.47896763,7.30476415,4.00821126,2.12659966,0.89141826,-1.61475457

>  <Name>
ligand

>  <RI>
0

>  <Rbt.Current_Directory>
/home/itssahil/PROJECTS/Mol_Feturizer/New_Systems/rnas/3TD1

>  <Rbt.Executable>
rbdock ($Id: //depot/dev/client3/rdock/2013.1/src/exe/rbdock.cxx#4 $)

>  <Rbt.Library>
libRbt.so (2013.1, Build901 2013/11/27)

>  <Rbt.Parameter_File>
/export/apps/rDock/src/rDock_2013.1_src/data/scripts/dock_solv.prm

>  <Rbt.Receptor>
prm/pocket_docking_7.prm

>  <SCORE>
-11.7578

>  <SCORE.INTER>
-3.0384

>  <SCORE.INTER.CONST>
1

>  <SCORE.INTER.POLAR>
0

>  <SCORE.INTER.ROT>
6

>  <SCORE.INTER.SOLV>
11.5816

>  <SCORE.INTER.VDW>
-13.4862

>  <SCORE.INTER.norm>
-0.0893649

>  <SCORE.INTRA>
-8.71936

>  <SCORE.INTRA.DIHEDRAL>
-16.0728

>  <SCORE.INTRA.DIHEDRAL.0>
19.5869

>  <SCORE.INTRA.POLAR>
0

>  <SCORE.INTRA.POLAR.0>
0

>  <SCORE.INTRA.REPUL>
0

>  <SCORE.INTRA.REPUL.0>
0

>  <SCORE.INTRA.SOLV>
-2.17856

>  <SCORE.INTRA.SOLV.lig_0>
-70.101

>  <SCORE.INTRA.VDW>
0.406307

>  <SCORE.INTRA.VDW.0>
-3.39718

>  <SCORE.INTRA.norm>
-0.256452

>  <SCORE.RESTR>
0

>  <SCORE.RESTR.CAVITY>
0

>  <SCORE.RESTR.norm>
0

>  <SCORE.SYSTEM>
0

>  <SCORE.SYSTEM.CONST>
0

>  <SCORE.SYSTEM.DIHEDRAL>
0

>  <SCORE.SYSTEM.SOLV>
0

>  <SCORE.SYSTEM.norm>
0

>  <SCORE.heavy>
34

>  <SCORE.norm>
-0.345817

>  <RMSD>
7.845

$$$$
ligand
 OpenBabel11021811483D
libRbt.so/2013.1/901 2013/11/27
 34 36  0  0  0  0  0  0  0  0999 V2000
   12.2811    6.8601    4.4020 C   0  0  2  0  0  0  0  0  0  0  0  0
   11.8865    5.4798    4.4415 O   0  0  0  0  0  0  0  0  0  0  0  0
    7.7198    6.2499    4.9958 C   0  0  2  0  0  0  0  0  0  0  0  0
    6.2677    6.1165    4.9539 N   0  0  0  0  0  0  0  0  0  0  0  0
    6.4848    4.9082    7.4842 C   0  0  2  0  0  0  0  0  0  0  0  0
   13.8491    6.9182    4.4688 C   0  0  2  0  0  0  0  0  0  0  0  0
   14.4555    6.2176    3.3261 N   0  0  0  0  0  0  0  0  0  0  0  0
    8.2405    6.1598    3.5225 C   0  0  0  0  0  0  0  0  0  0  0  0
    6.2319    5.2843    8.9880 C   0  0  2  0  0  0  0  0  0  0  0  0
    6.4992    6.6620    9.1916 O   0  0  0  0  0  0  0  0  0  0  0  0
   14.3282    6.2802    5.7908 C   0  0  1  0  0  0  0  0  0  0  0  0
   15.7622    6.3371    5.8622 O   0  0  0  0  0  0  0  0  0  0  0  0
    9.7972    6.3263    3.5642 C   0  0  2  0  0  0  0  0  0  0  0  0
   10.3509    6.2438    2.1974 N   0  0  0  0  0  0  0  0  0  0  0  0
    7.1591    4.3869    9.8960 C   0  0  1  0  0  0  0  0  0  0  0  0
    6.9672    4.7180   11.3399 N   0  0  0  0  0  0  0  0  0  0  0  0
   13.6694    7.0290    6.9736 C   0  0  2  0  0  0  0  0  0  0  0  0
   14.0983    6.4385    8.2129 O   0  0  0  0  0  0  0  0  0  0  0  0
   10.4498    5.2244    4.4376 C   0  0  2  0  0  0  0  0  0  0  0  0
    6.8234    2.8790    9.6331 C   0  0  1  0  0  0  0  0  0  0  0  0
    5.4663    2.6231    9.9849 O   0  0  0  0  0  0  0  0  0  0  0  0
   12.1007    6.9522    6.8399 C   0  0  2  0  0  0  0  0  0  0  0  0
   11.6764    7.5433    5.5558 O   0  0  0  0  0  0  0  0  0  0  0  0
    9.8696    5.2955    5.8723 C   0  0  2  0  0  0  0  0  0  0  0  0
   10.4690    4.2643    6.6500 O   0  0  0  0  0  0  0  0  0  0  0  0
    7.0312    2.5787    8.1152 C   0  0  0  0  0  0  0  0  0  0  0  0
    6.2009    3.4809    7.2816 O   0  0  0  0  0  0  0  0  0  0  0  0
   11.3836    7.7099    7.9878 C   0  0  2  0  0  0  0  0  0  0  0  0
    9.9819    7.7414    7.7323 O   0  0  0  0  0  0  0  0  0  0  0  0
    8.3380    5.0818    5.8688 C   0  0  1  0  0  0  0  0  0  0  0  0
    7.8954    5.1723    7.2436 O   0  0  0  0  0  0  0  0  0  0  0  0
   11.8729    9.1442    8.1023 C   0  0  0  0  0  0  0  0  0  0  0  0
    7.6987    1.9453   10.4601 C   0  0  0  0  0  0  0  0  0  0  0  0
    8.1425    5.4827   11.7993 C   0  0  0  0  0  0  0  0  0  0  0  0
  1  2  1  1  0  0  0
  1  6  1  0  0  0  0
  1 23  1  0  0  0  0
  3  4  1  6  0  0  0
  3  8  1  0  0  0  0
  3 30  1  0  0  0  0
  5  9  1  0  0  0  0
  5 27  1  0  0  0  0
  5 31  1  1  0  0  0
  6  7  1  6  0  0  0
  6 11  1  0  0  0  0
  8 13  1  0  0  0  0
  9 10  1  6  0  0  0
  9 15  1  0  0  0  0
 11 12  1  1  0  0  0
 11 17  1  0  0  0  0
 13 14  1  6  0  0  0
 13 19  1  0  0  0  0
 15 16  1  1  0  0  0
 15 20  1  0  0  0  0
 16 34  1  0  0  0  0
 17 18  1  1  0  0  0
 17 22  1  0  0  0  0
 19  2  1  1  0  0  0
 19 24  1  0  0  0  0
 20 21  1  1  0  0  0
 20 26  1  0  0  0  0
 20 33  1  0  0  0  0
 22 23  1  6  0  0  0
 22 28  1  0  0  0  0
 24 25  1  1  0  0  0
 24 30  1  0  0  0  0
 26 27  1  0  0  0  0
 28 29  1  6  0  0  0
 28 32  1  0  0  0  0
 30 31  1  1  0  0  0
M  END
>  <CHROM.1>
177.86706234,34.20033771,-105.77410578,173.23608298,68.14364995,-171.56324116
9.75256393,5.63578477,6.89937254,0.56395410,-0.33968656,-1.48600653

>  <Name>
ligand

>  <RI>
0

>  <Rbt.Current_Directory>
/home/itssahil/PROJECTS/Mol_Feturizer/New_Systems/rnas/3TD1

>  <Rbt.Executable>
rbdock ($Id: //depot/dev/client3/rdock/2013.1/src/exe/rbdock.cxx#4 $)

>  <Rbt.Library>
libRbt.so (2013.1, Build901 2013/11/27)

>  <Rbt.Parameter_File>
/export/apps/rDock/src/rDock_2013.1_src/data/scripts/dock_solv.prm

>  <Rbt.Receptor>
prm/pocket_docking_8.prm

>  <SCORE>
-8.61077

>  <SCORE.INTER>
-4.532

>  <SCORE.INTER.CONST>
1

>  <SCORE.INTER.POLAR>
0

>  <SCORE.INTER.ROT>
6

>  <SCORE.INTER.SOLV>
14.3278

>  <SCORE.INTER.VDW>
-15.3973

>  <SCORE.INTER.norm>
-0.133294

>  <SCORE.INTRA>
-4.07877

>  <SCORE.INTRA.DIHEDRAL>
-14.814

>  <SCORE.INTRA.DIHEDRAL.0>
19.5869

>  <SCORE.INTRA.POLAR>
0

>  <SCORE.INTRA.POLAR.0>
0

>  <SCORE.INTRA.REPUL>
0.121154

>  <SCORE.INTRA.REPUL.0>
0

>  <SCORE.INTRA.SOLV>
0.0117059

>  <SCORE.INTRA.SOLV.lig_0>
-70.101

>  <SCORE.INTRA.VDW>
2.71664

>  <SCORE.INTRA.VDW.0>
-3.39718

>  <SCORE.INTRA.norm>
-0.119964

>  <SCORE.RESTR>
0

>  <SCORE.RESTR.CAVITY>
0

>  <SCORE.RESTR.norm>
0

>  <SCORE.SYSTEM>
0

>  <SCORE.SYSTEM.CONST>
0

>  <SCORE.SYSTEM.DIHEDRAL>
0

>  <SCORE.SYSTEM.SOLV>
0

>  <SCORE.SYSTEM.norm>
0

>  <SCORE.heavy>
34

>  <SCORE.norm>
-0.253258

>  <RMSD>
7.860

$$$$
ligand
 OpenBabel11021811483D
libRbt.so/2013.1/901 2013/11/27
 34 36  0  0  0  0  0  0  0  0999 V2000
   10.3545    5.6403    2.1418 C   0  0  2  0  0  0  0  0  0  0  0  0
   11.5418    5.7691    2.9395 O   0  0  0  0  0  0  0  0  0  0  0  0
   10.4094    2.6920    5.6801 C   0  0  2  0  0  0  0  0  0  0  0  0
   10.4601    1.6973    6.7460 N   0  0  0  0  0  0  0  0  0  0  0  0
    8.1694    4.3950    6.6285 C   0  0  2  0  0  0  0  0  0  0  0  0
   10.5926    6.4055    0.7911 C   0  0  2  0  0  0  0  0  0  0  0  0
   11.7275    5.8338    0.0499 N   0  0  0  0  0  0  0  0  0  0  0  0
   11.5722    2.3693    4.6834 C   0  0  0  0  0  0  0  0  0  0  0  0
    7.2546    5.2207    7.6025 C   0  0  2  0  0  0  0  0  0  0  0  0
    7.6821    6.5723    7.6351 O   0  0  0  0  0  0  0  0  0  0  0  0
   10.8572    7.8973    1.0888 C   0  0  1  0  0  0  0  0  0  0  0  0
   11.0681    8.6053   -0.1437 O   0  0  0  0  0  0  0  0  0  0  0  0
   11.5042    3.4227    3.5264 C   0  0  2  0  0  0  0  0  0  0  0  0
   12.5857    3.1733    2.5519 N   0  0  0  0  0  0  0  0  0  0  0  0
    7.3267    4.5687    9.0375 C   0  0  1  0  0  0  0  0  0  0  0  0
    6.4831    5.3290   10.0078 N   0  0  0  0  0  0  0  0  0  0  0  0
    9.6543    8.4701    1.8754 C   0  0  2  0  0  0  0  0  0  0  0  0
    9.8914    9.8578    2.1696 O   0  0  0  0  0  0  0  0  0  0  0  0
   11.6487    4.8638    4.0789 C   0  0  2  0  0  0  0  0  0  0  0  0
    6.8447    3.0804    8.9453 C   0  0  1  0  0  0  0  0  0  0  0  0
    5.4907    3.0431    8.5020 O   0  0  0  0  0  0  0  0  0  0  0  0
    9.4548    7.6503    3.2069 C   0  0  2  0  0  0  0  0  0  0  0  0
    9.2325    6.2258    2.8913 O   0  0  0  0  0  0  0  0  0  0  0  0
   10.5241    5.1338    5.1096 C   0  0  2  0  0  0  0  0  0  0  0  0
   10.6877    6.4544    5.6161 O   0  0  0  0  0  0  0  0  0  0  0  0
    7.7474    2.3261    7.9189 C   0  0  0  0  0  0  0  0  0  0  0  0
    7.7163    2.9976    6.5973 O   0  0  0  0  0  0  0  0  0  0  0  0
    8.2432    8.1643    4.0277 C   0  0  2  0  0  0  0  0  0  0  0  0
    8.0707    7.3461    5.1818 O   0  0  0  0  0  0  0  0  0  0  0  0
   10.5975    4.1405    6.2926 C   0  0  1  0  0  0  0  0  0  0  0  0
    9.5101    4.4694    7.1890 O   0  0  0  0  0  0  0  0  0  0  0  0
    6.9576    8.1133    3.2188 C   0  0  0  0  0  0  0  0  0  0  0  0
    6.9088    2.3736   10.2936 C   0  0  0  0  0  0  0  0  0  0  0  0
    7.3698    6.1816   10.8226 C   0  0  0  0  0  0  0  0  0  0  0  0
  1  2  1  1  0  0  0
  1  6  1  0  0  0  0
  1 23  1  0  0  0  0
  3  4  1  1  0  0  0
  3  8  1  0  0  0  0
  3 30  1  0  0  0  0
  5  9  1  0  0  0  0
  5 27  1  0  0  0  0
  5 31  1  1  0  0  0
  6  7  1  1  0  0  0
  6 11  1  0  0  0  0
  8 13  1  0  0  0  0
  9 10  1  1  0  0  0
  9 15  1  0  0  0  0
 11 12  1  6  0  0  0
 11 17  1  0  0  0  0
 13 14  1  6  0  0  0
 13 19  1  0  0  0  0
 15 16  1  1  0  0  0
 15 20  1  0  0  0  0
 16 34  1  0  0  0  0
 17 18  1  1  0  0  0
 17 22  1  0  0  0  0
 19  2  1  6  0  0  0
 19 24  1  0  0  0  0
 20 21  1  6  0  0  0
 20 26  1  0  0  0  0
 20 33  1  0  0  0  0
 22 23  1  6  0  0  0
 22 28  1  0  0  0  0
 24 25  1  1  0  0  0
 24 30  1  0  0  0  0
 26 27  1  0  0  0  0
 28 29  1  1  0  0  0
 28 32  1  0  0  0  0
 30 31  1  1  0  0  0
M  END
>  <CHROM.1>
-165.43900622,55.54547738,-101.68143060,177.07230817,-56.39269224,-162.06272376
9.27248907,5.34402249,5.15809411,-0.96534288,-0.82695244,2.47090345

>  <Name>
ligand

>  <RI>
0

>  <Rbt.Current_Directory>
/home/itssahil/PROJECTS/Mol_Feturizer/New_Systems/rnas/3TD1

>  <Rbt.Executable>
rbdock ($Id: //depot/dev/client3/rdock/2013.1/src/exe/rbdock.cxx#4 $)

>  <Rbt.Library>
libRbt.so (2013.1, Build901 2013/11/27)

>  <Rbt.Parameter_File>
/export/apps/rDock/src/rDock_2013.1_src/data/scripts/dock_solv.prm

>  <Rbt.Receptor>
prm/pocket_docking_7.prm

>  <SCORE>
-8.51607

>  <SCORE.INTER>
-3.08494

>  <SCORE.INTER.CONST>
1

>  <SCORE.INTER.POLAR>
0

>  <SCORE.INTER.ROT>
6

>  <SCORE.INTER.SOLV>
13.1668

>  <SCORE.INTER.VDW>
-14.0456

>  <SCORE.INTER.norm>
-0.0907336

>  <SCORE.INTRA>
-5.43113

>  <SCORE.INTRA.DIHEDRAL>
-15.9136

>  <SCORE.INTRA.DIHEDRAL.0>
19.5869

>  <SCORE.INTRA.POLAR>
0

>  <SCORE.INTRA.POLAR.0>
0

>  <SCORE.INTRA.REPUL>
0

>  <SCORE.INTRA.REPUL.0>
0

>  <SCORE.INTRA.SOLV>
1.91871

>  <SCORE.INTRA.SOLV.lig_0>
-70.101

>  <SCORE.INTRA.VDW>
1.56631

>  <SCORE.INTRA.VDW.0>
-3.39718

>  <SCORE.INTRA.norm>
-0.159739

>  <SCORE.RESTR>
0

>  <SCORE.RESTR.CAVITY>
0

>  <SCORE.RESTR.norm>
0

>  <SCORE.SYSTEM>
0

>  <SCORE.SYSTEM.CONST>
0

>  <SCORE.SYSTEM.DIHEDRAL>
0

>  <SCORE.SYSTEM.SOLV>
0

>  <SCORE.SYSTEM.norm>
0

>  <SCORE.heavy>
34

>  <SCORE.norm>
-0.250473

>  <RMSD>
7.903

$$$$
ligand
 OpenBabel11021811483D
libRbt.so/2013.1/901 2013/11/27
 34 36  0  0  0  0  0  0  0  0999 V2000
   11.7863    5.4029    4.6739 C   0  0  2  0  0  0  0  0  0  0  0  0
   12.8621    5.6316    5.5974 O   0  0  0  0  0  0  0  0  0  0  0  0
   13.5375    8.6697    8.5258 C   0  0  2  0  0  0  0  0  0  0  0  0
   13.3143    9.6554    9.5778 N   0  0  0  0  0  0  0  0  0  0  0  0
   13.8877    7.4825   11.4414 C   0  0  2  0  0  0  0  0  0  0  0  0
   11.5793    3.8514    4.5453 C   0  0  2  0  0  0  0  0  0  0  0  0
   11.2273    3.2534    5.8424 N   0  0  0  0  0  0  0  0  0  0  0  0
   12.5677    9.0158    7.3470 C   0  0  0  0  0  0  0  0  0  0  0  0
   15.0103    6.9431   12.3984 C   0  0  2  0  0  0  0  0  0  0  0  0
   16.2837    7.3475   11.9233 O   0  0  0  0  0  0  0  0  0  0  0  0
   12.8733    3.2065    4.0030 C   0  0  1  0  0  0  0  0  0  0  0  0
   12.6882    1.7873    3.8752 O   0  0  0  0  0  0  0  0  0  0  0  0
   12.8230    7.9720    6.2077 C   0  0  2  0  0  0  0  0  0  0  0  0
   11.9287    8.2435    5.0640 N   0  0  0  0  0  0  0  0  0  0  0  0
   14.9039    5.3703   12.4657 C   0  0  1  0  0  0  0  0  0  0  0  0
   15.9635    4.8052   13.3541 N   0  0  0  0  0  0  0  0  0  0  0  0
   13.2246    3.8591    2.6449 C   0  0  2  0  0  0  0  0  0  0  0  0
   14.4350    3.2755    2.1320 O   0  0  0  0  0  0  0  0  0  0  0  0
   12.5699    6.5279    6.7112 C   0  0  2  0  0  0  0  0  0  0  0  0
   13.4821    4.9785   12.9956 C   0  0  1  0  0  0  0  0  0  0  0  0
   13.3021    5.4979   14.3104 O   0  0  0  0  0  0  0  0  0  0  0  0
   13.3998    5.4140    2.8353 C   0  0  2  0  0  0  0  0  0  0  0  0
   12.1581    5.9964    3.3804 O   0  0  0  0  0  0  0  0  0  0  0  0
   13.4968    6.2347    7.9174 C   0  0  2  0  0  0  0  0  0  0  0  0
   13.2340    4.9118    8.3736 O   0  0  0  0  0  0  0  0  0  0  0  0
   12.4080    5.5928   12.0436 C   0  0  0  0  0  0  0  0  0  0  0  0
   12.5722    7.0630   11.9437 O   0  0  0  0  0  0  0  0  0  0  0  0
   13.7290    6.1279    1.4981 C   0  0  2  0  0  0  0  0  0  0  0  0
   15.0379    5.7579    1.0726 O   0  0  0  0  0  0  0  0  0  0  0  0
   13.2310    7.2183    9.0807 C   0  0  1  0  0  0  0  0  0  0  0  0
   14.1438    6.8678   10.1476 O   0  0  0  0  0  0  0  0  0  0  0  0
   13.6932    7.6399    1.6479 C   0  0  0  0  0  0  0  0  0  0  0  0
   13.2940    3.4680   13.0661 C   0  0  0  0  0  0  0  0  0  0  0  0
   16.8497    3.9564   12.5348 C   0  0  0  0  0  0  0  0  0  0  0  0
  1  2  1  1  0  0  0
  1  6  1  0  0  0  0
  1 23  1  0  0  0  0
  3  4  1  1  0  0  0
  3  8  1  0  0  0  0
  3 30  1  0  0  0  0
  5  9  1  0  0  0  0
  5 27  1  0  0  0  0
  5 31  1  6  0  0  0
  6  7  1  1  0  0  0
  6 11  1  0  0  0  0
  8 13  1  0  0  0  0
  9 10  1  6  0  0  0
  9 15  1  0  0  0  0
 11 12  1  6  0  0  0
 11 17  1  0  0  0  0
 13 14  1  6  0  0  0
 13 19  1  0  0  0  0
 15 16  1  1  0  0  0
 15 20  1  0  0  0  0
 16 34  1  0  0  0  0
 17 18  1  1  0  0  0
 17 22  1  0  0  0  0
 19  2  1  6  0  0  0
 19 24  1  0  0  0  0
 20 21  1  1  0  0  0
 20 26  1  0  0  0  0
 20 33  1  0  0  0  0
 22 23  1  6  0  0  0
 22 28  1  0  0  0  0
 24 25  1  1  0  0  0
 24 30  1  0  0  0  0
 26 27  1  0  0  0  0
 28 29  1  1  0  0  0
 28 32  1  0  0  0  0
 30 31  1  1  0  0  0
M  END
>  <CHROM.1>
-126.42845958,-85.58587218,-116.63707362,-68.93618899,76.18887781,-179.80559082
13.47666142,5.82922688,7.67787965,-2.65806578,-1.43655408,0.40274124

>  <Name>
ligand

>  <RI>
0

>  <Rbt.Current_Directory>
/home/itssahil/PROJECTS/Mol_Feturizer/New_Systems/rnas/3TD1

>  <Rbt.Executable>
rbdock ($Id: //depot/dev/client3/rdock/2013.1/src/exe/rbdock.cxx#4 $)

>  <Rbt.Library>
libRbt.so (2013.1, Build901 2013/11/27)

>  <Rbt.Parameter_File>
/export/apps/rDock/src/rDock_2013.1_src/data/scripts/dock_solv.prm

>  <Rbt.Receptor>
prm/pocket_docking_6.prm

>  <SCORE>
-8.08867

>  <SCORE.INTER>
-5.01864

>  <SCORE.INTER.CONST>
1

>  <SCORE.INTER.POLAR>
0

>  <SCORE.INTER.ROT>
6

>  <SCORE.INTER.SOLV>
13.0449

>  <SCORE.INTER.VDW>
-15.2941

>  <SCORE.INTER.norm>
-0.147607

>  <SCORE.INTRA>
-3.07003

>  <SCORE.INTRA.DIHEDRAL>
-7.0707

>  <SCORE.INTRA.DIHEDRAL.0>
19.5869

>  <SCORE.INTRA.POLAR>
0

>  <SCORE.INTRA.POLAR.0>
0

>  <SCORE.INTRA.REPUL>
0

>  <SCORE.INTRA.REPUL.0>
0

>  <SCORE.INTRA.SOLV>
0.709518

>  <SCORE.INTRA.SOLV.lig_0>
-70.101

>  <SCORE.INTRA.VDW>
0.110565

>  <SCORE.INTRA.VDW.0>
-3.39718

>  <SCORE.INTRA.norm>
-0.0902949

>  <SCORE.RESTR>
0

>  <SCORE.RESTR.CAVITY>
0

>  <SCORE.RESTR.norm>
0

>  <SCORE.SYSTEM>
0

>  <SCORE.SYSTEM.CONST>
0

>  <SCORE.SYSTEM.DIHEDRAL>
0

>  <SCORE.SYSTEM.SOLV>
0

>  <SCORE.SYSTEM.norm>
0

>  <SCORE.heavy>
34

>  <SCORE.norm>
-0.237902

>  <RMSD>
7.918

$$$$
ligand
 OpenBabel11021811483D
libRbt.so/2013.1/901 2013/11/27
 34 36  0  0  0  0  0  0  0  0999 V2000
   10.8203    7.8767    5.5722 C   0  0  2  0  0  0  0  0  0  0  0  0
   10.4546    6.5821    5.0693 O   0  0  0  0  0  0  0  0  0  0  0  0
    6.7604    6.4409    7.2129 C   0  0  2  0  0  0  0  0  0  0  0  0
    5.4225    6.0523    7.6455 N   0  0  0  0  0  0  0  0  0  0  0  0
    6.7190    4.3837    9.5367 C   0  0  2  0  0  0  0  0  0  0  0  0
   11.9912    8.4291    4.6832 C   0  0  2  0  0  0  0  0  0  0  0  0
   11.5731    8.5653    3.2793 N   0  0  0  0  0  0  0  0  0  0  0  0
    6.6861    6.7462    5.6797 C   0  0  0  0  0  0  0  0  0  0  0  0
    7.0977    4.2100   11.0512 C   0  0  2  0  0  0  0  0  0  0  0  0
    7.3517    5.4781   11.6328 O   0  0  0  0  0  0  0  0  0  0  0  0
   13.2011    7.4747    4.7811 C   0  0  1  0  0  0  0  0  0  0  0  0
   14.2794    7.9784    3.9759 O   0  0  0  0  0  0  0  0  0  0  0  0
    8.1170    7.1860    5.2191 C   0  0  2  0  0  0  0  0  0  0  0  0
    8.1129    7.4834    3.7723 N   0  0  0  0  0  0  0  0  0  0  0  0
    8.3659    3.2766   11.1508 C   0  0  1  0  0  0  0  0  0  0  0  0
    8.7773    3.0920   12.5749 N   0  0  0  0  0  0  0  0  0  0  0  0
   13.6135    7.3427    6.2663 C   0  0  2  0  0  0  0  0  0  0  0  0
   14.7339    6.4473    6.3746 O   0  0  0  0  0  0  0  0  0  0  0  0
    9.1571    6.0715    5.4996 C   0  0  2  0  0  0  0  0  0  0  0  0
    8.0321    1.8926   10.4960 C   0  0  1  0  0  0  0  0  0  0  0  0
    6.9617    1.2740   11.2051 O   0  0  0  0  0  0  0  0  0  0  0  0
   12.3941    6.8044    7.1077 C   0  0  2  0  0  0  0  0  0  0  0  0
   11.2459    7.7217    6.9717 O   0  0  0  0  0  0  0  0  0  0  0  0
    9.1639    5.7445    7.0139 C   0  0  2  0  0  0  0  0  0  0  0  0
   10.1117    4.7073    7.2445 O   0  0  0  0  0  0  0  0  0  0  0  0
    7.6025    2.1321    9.0143 C   0  0  0  0  0  0  0  0  0  0  0  0
    6.4530    3.0659    8.9438 O   0  0  0  0  0  0  0  0  0  0  0  0
   12.7413    6.6753    8.6139 C   0  0  2  0  0  0  0  0  0  0  0  0
   13.7869    5.7211    8.7795 O   0  0  0  0  0  0  0  0  0  0  0  0
    7.7753    5.2564    7.4882 C   0  0  1  0  0  0  0  0  0  0  0  0
    7.8838    4.9856    8.9056 O   0  0  0  0  0  0  0  0  0  0  0  0
   11.5448    6.2072    9.4255 C   0  0  0  0  0  0  0  0  0  0  0  0
    9.2212    0.9405   10.5325 C   0  0  0  0  0  0  0  0  0  0  0  0
    9.8652    4.0443   12.8691 C   0  0  0  0  0  0  0  0  0  0  0  0
  1  2  1  6  0  0  0
  1  6  1  0  0  0  0
  1 23  1  0  0  0  0
  3  4  1  6  0  0  0
  3  8  1  0  0  0  0
  3 30  1  0  0  0  0
  5  9  1  0  0  0  0
  5 27  1  0  0  0  0
  5 31  1  6  0  0  0
  6  7  1  6  0  0  0
  6 11  1  0  0  0  0
  8 13  1  0  0  0  0
  9 10  1  6  0  0  0
  9 15  1  0  0  0  0
 11 12  1  6  0  0  0
 11 17  1  0  0  0  0
 13 14  1  6  0  0  0
 13 19  1  0  0  0  0
 15 16  1  1  0  0  0
 15 20  1  0  0  0  0
 16 34  1  0  0  0  0
 17 18  1  6  0  0  0
 17 22  1  0  0  0  0
 19  2  1  1  0  0  0
 19 24  1  0  0  0  0
 20 21  1  1  0  0  0
 20 26  1  0  0  0  0
 20 33  1  0  0  0  0
 22 23  1  1  0  0  0
 22 28  1  0  0  0  0
 24 25  1  6  0  0  0
 24 30  1  0  0  0  0
 26 27  1  0  0  0  0
 28 29  1  6  0  0  0
 28 32  1  0  0  0  0
 30 31  1  1  0  0  0
M  END
>  <CHROM.1>
-163.01898082,50.92801255,-97.26216329,-62.70358831,69.98948699,-179.61157194
9.67979465,5.51582081,7.84104158,0.98286666,-0.14747683,-0.99311979

>  <Name>
ligand

>  <RI>
0

>  <Rbt.Current_Directory>
/home/itssahil/PROJECTS/Mol_Feturizer/New_Systems/rnas/3TD1

>  <Rbt.Executable>
rbdock ($Id: //depot/dev/client3/rdock/2013.1/src/exe/rbdock.cxx#4 $)

>  <Rbt.Library>
libRbt.so (2013.1, Build901 2013/11/27)

>  <Rbt.Parameter_File>
/export/apps/rDock/src/rDock_2013.1_src/data/scripts/dock_solv.prm

>  <Rbt.Receptor>
prm/pocket_docking_8.prm

>  <SCORE>
-9.97588

>  <SCORE.INTER>
-2.63418

>  <SCORE.INTER.CONST>
1

>  <SCORE.INTER.POLAR>
0

>  <SCORE.INTER.ROT>
6

>  <SCORE.INTER.SOLV>
11.4559

>  <SCORE.INTER.VDW>
-13.1748

>  <SCORE.INTER.norm>
-0.0774758

>  <SCORE.INTRA>
-7.34171

>  <SCORE.INTRA.DIHEDRAL>
-16.4615

>  <SCORE.INTRA.DIHEDRAL.0>
19.5869

>  <SCORE.INTRA.POLAR>
0

>  <SCORE.INTRA.POLAR.0>
0

>  <SCORE.INTRA.REPUL>
0

>  <SCORE.INTRA.REPUL.0>
0

>  <SCORE.INTRA.SOLV>
0.153813

>  <SCORE.INTRA.SOLV.lig_0>
-70.101

>  <SCORE.INTRA.VDW>
0.812122

>  <SCORE.INTRA.VDW.0>
-3.39718

>  <SCORE.INTRA.norm>
-0.215933

>  <SCORE.RESTR>
0

>  <SCORE.RESTR.CAVITY>
0

>  <SCORE.RESTR.norm>
0

>  <SCORE.SYSTEM>
0

>  <SCORE.SYSTEM.CONST>
0

>  <SCORE.SYSTEM.DIHEDRAL>
0

>  <SCORE.SYSTEM.SOLV>
0

>  <SCORE.SYSTEM.norm>
0

>  <SCORE.heavy>
34

>  <SCORE.norm>
-0.293408

>  <RMSD>
7.918

$$$$
ligand
 OpenBabel11021811483D
libRbt.so/2013.1/901 2013/11/27
 34 36  0  0  0  0  0  0  0  0999 V2000
   10.3344    7.9901    4.4804 C   0  0  2  0  0  0  0  0  0  0  0  0
   10.0873    6.6081    4.1779 O   0  0  0  0  0  0  0  0  0  0  0  0
    6.1879    6.5949    5.9263 C   0  0  2  0  0  0  0  0  0  0  0  0
    4.8316    6.1969    6.2867 N   0  0  0  0  0  0  0  0  0  0  0  0
    5.9516    5.0866    8.5771 C   0  0  2  0  0  0  0  0  0  0  0  0
   11.4291    8.5161    3.4847 C   0  0  2  0  0  0  0  0  0  0  0  0
   10.9738    8.4089    2.0899 N   0  0  0  0  0  0  0  0  0  0  0  0
    6.2707    6.6120    4.3634 C   0  0  0  0  0  0  0  0  0  0  0  0
    6.2169    5.0844   10.1253 C   0  0  2  0  0  0  0  0  0  0  0  0
    6.4984    6.4019   10.5677 O   0  0  0  0  0  0  0  0  0  0  0  0
   12.7279    7.7034    3.6775 C   0  0  1  0  0  0  0  0  0  0  0  0
   13.7368    8.1848    2.7747 O   0  0  0  0  0  0  0  0  0  0  0  0
    7.7199    7.0617    3.9753 C   0  0  2  0  0  0  0  0  0  0  0  0
    7.8630    7.0916    2.5056 N   0  0  0  0  0  0  0  0  0  0  0  0
    7.4235    4.1144   10.4295 C   0  0  1  0  0  0  0  0  0  0  0  0
    7.7269    4.0888   11.8919 N   0  0  0  0  0  0  0  0  0  0  0  0
   13.1788    7.8260    5.1524 C   0  0  2  0  0  0  0  0  0  0  0  0
   14.3829    7.0646    5.3500 O   0  0  0  0  0  0  0  0  0  0  0  0
    8.7775    6.0928    4.5631 C   0  0  2  0  0  0  0  0  0  0  0  0
    7.0611    2.6765    9.9227 C   0  0  1  0  0  0  0  0  0  0  0  0
    5.9136    2.1990   10.6199 O   0  0  0  0  0  0  0  0  0  0  0  0
   12.0334    7.3025    6.1004 C   0  0  2  0  0  0  0  0  0  0  0  0
   10.7990    8.0789    5.8732 O   0  0  0  0  0  0  0  0  0  0  0  0
    8.6309    6.0463    6.1046 C   0  0  2  0  0  0  0  0  0  0  0  0
    9.5987    5.1378    6.6199 O   0  0  0  0  0  0  0  0  0  0  0  0
    6.7465    2.7503    8.3953 C   0  0  0  0  0  0  0  0  0  0  0  0
    5.6562    3.7189    8.1286 O   0  0  0  0  0  0  0  0  0  0  0  0
   12.4196    7.4249    7.5977 C   0  0  2  0  0  0  0  0  0  0  0  0
   11.3313    6.9845    8.4057 O   0  0  0  0  0  0  0  0  0  0  0  0
    7.2246    5.5547    6.5195 C   0  0  1  0  0  0  0  0  0  0  0  0
    7.1871    5.5530    7.9661 O   0  0  0  0  0  0  0  0  0  0  0  0
   12.7360    8.8619    7.9780 C   0  0  0  0  0  0  0  0  0  0  0  0
    8.1923    1.6838   10.1609 C   0  0  0  0  0  0  0  0  0  0  0  0
    8.8328    5.0304   12.1514 C   0  0  0  0  0  0  0  0  0  0  0  0
  1  2  1  6  0  0  0
  1  6  1  0  0  0  0
  1 23  1  0  0  0  0
  3  4  1  6  0  0  0
  3  8  1  0  0  0  0
  3 30  1  0  0  0  0
  5  9  1  0  0  0  0
  5 27  1  0  0  0  0
  5 31  1  6  0  0  0
  6  7  1  6  0  0  0
  6 11  1  0  0  0  0
  8 13  1  0  0  0  0
  9 10  1  6  0  0  0
  9 15  1  0  0  0  0
 11 12  1  6  0  0  0
 11 17  1  0  0  0  0
 13 14  1  6  0  0  0
 13 19  1  0  0  0  0
 15 16  1  1  0  0  0
 15 20  1  0  0  0  0
 16 34  1  0  0  0  0
 17 18  1  6  0  0  0
 17 22  1  0  0  0  0
 19  2  1  1  0  0  0
 19 24  1  0  0  0  0
 20 21  1  1  0  0  0
 20 26  1  0  0  0  0
 20 33  1  0  0  0  0
 22 23  1  1  0  0  0
 22 28  1  0  0  0  0
 24 25  1  1  0  0  0
 24 30  1  0  0  0  0
 26 27  1  0  0  0  0
 28 29  1  1  0  0  0
 28 32  1  0  0  0  0
 30 31  1  1  0  0  0
M  END
>  <CHROM.1>
-155.18929045,51.75548084,-96.70128691,177.87561979,65.56815636,175.85249839
9.04612689,6.04117376,6.88619157,0.88645668,-0.30293770,-1.20226517

>  <Name>
ligand

>  <RI>
0

>  <Rbt.Current_Directory>
/home/itssahil/PROJECTS/Mol_Feturizer/New_Systems/rnas/3TD1

>  <Rbt.Executable>
rbdock ($Id: //depot/dev/client3/rdock/2013.1/src/exe/rbdock.cxx#4 $)

>  <Rbt.Library>
libRbt.so (2013.1, Build901 2013/11/27)

>  <Rbt.Parameter_File>
/export/apps/rDock/src/rDock_2013.1_src/data/scripts/dock_solv.prm

>  <Rbt.Receptor>
prm/pocket_docking_5.prm

>  <SCORE>
-12.1918

>  <SCORE.INTER>
-6.34637

>  <SCORE.INTER.CONST>
1

>  <SCORE.INTER.POLAR>
0

>  <SCORE.INTER.ROT>
6

>  <SCORE.INTER.SOLV>
13.9884

>  <SCORE.INTER.VDW>
-16.4937

>  <SCORE.INTER.norm>
-0.186658

>  <SCORE.INTRA>
-5.84545

>  <SCORE.INTRA.DIHEDRAL>
-15.4948

>  <SCORE.INTRA.DIHEDRAL.0>
19.5869

>  <SCORE.INTRA.POLAR>
0

>  <SCORE.INTRA.POLAR.0>
0

>  <SCORE.INTRA.REPUL>
0

>  <SCORE.INTRA.REPUL.0>
0

>  <SCORE.INTRA.SOLV>
0.800078

>  <SCORE.INTRA.SOLV.lig_0>
-70.101

>  <SCORE.INTRA.VDW>
1.50191

>  <SCORE.INTRA.VDW.0>
-3.39718

>  <SCORE.INTRA.norm>
-0.171925

>  <SCORE.RESTR>
0

>  <SCORE.RESTR.CAVITY>
0

>  <SCORE.RESTR.norm>
0

>  <SCORE.SYSTEM>
0

>  <SCORE.SYSTEM.CONST>
0

>  <SCORE.SYSTEM.DIHEDRAL>
0

>  <SCORE.SYSTEM.SOLV>
0

>  <SCORE.SYSTEM.norm>
0

>  <SCORE.heavy>
34

>  <SCORE.norm>
-0.358583

>  <RMSD>
7.926

$$$$
ligand
 OpenBabel11021811483D
libRbt.so/2013.1/901 2013/11/27
 34 36  0  0  0  0  0  0  0  0999 V2000
   10.3393    7.9985    4.4824 C   0  0  2  0  0  0  0  0  0  0  0  0
   10.0931    6.6168    4.1779 O   0  0  0  0  0  0  0  0  0  0  0  0
    6.1880    6.6036    5.9133 C   0  0  2  0  0  0  0  0  0  0  0  0
    4.8319    6.2037    6.2725 N   0  0  0  0  0  0  0  0  0  0  0  0
    5.9401    5.1375    8.5751 C   0  0  2  0  0  0  0  0  0  0  0  0
   11.4352    8.5262    3.4888 C   0  0  2  0  0  0  0  0  0  0  0  0
   10.9816    8.4206    2.0933 N   0  0  0  0  0  0  0  0  0  0  0  0
    6.2759    6.6084    4.3506 C   0  0  0  0  0  0  0  0  0  0  0  0
    6.2099    5.1135   10.1223 C   0  0  2  0  0  0  0  0  0  0  0  0
    6.5227    6.4197   10.5771 O   0  0  0  0  0  0  0  0  0  0  0  0
   12.7340    7.7137    3.6822 C   0  0  1  0  0  0  0  0  0  0  0  0
   13.7439    8.1967    2.7813 O   0  0  0  0  0  0  0  0  0  0  0  0
    7.7248    7.0602    3.9637 C   0  0  2  0  0  0  0  0  0  0  0  0
    7.8727    7.0787    2.4943 N   0  0  0  0  0  0  0  0  0  0  0  0
    7.3951    4.1133   10.4128 C   0  0  1  0  0  0  0  0  0  0  0  0
    7.7022    4.0660   11.8739 N   0  0  0  0  0  0  0  0  0  0  0  0
   13.1829    7.8346    5.1579 C   0  0  2  0  0  0  0  0  0  0  0  0
   14.3870    7.0734    5.3560 O   0  0  0  0  0  0  0  0  0  0  0  0
    8.7839    6.0999    4.5629 C   0  0  2  0  0  0  0  0  0  0  0  0
    6.9986    2.6893    9.8927 C   0  0  1  0  0  0  0  0  0  0  0  0
    5.8425    2.2309   10.5887 O   0  0  0  0  0  0  0  0  0  0  0  0
   12.0365    7.3095    6.1038 C   0  0  2  0  0  0  0  0  0  0  0  0
   10.8021    8.0857    5.8759 O   0  0  0  0  0  0  0  0  0  0  0  0
    8.6324    6.0654    6.1042 C   0  0  2  0  0  0  0  0  0  0  0  0
    9.6016    5.1646    6.6301 O   0  0  0  0  0  0  0  0  0  0  0  0
    6.6811    2.7857    8.3671 C   0  0  0  0  0  0  0  0  0  0  0  0
    5.6123    3.7816    8.1137 O   0  0  0  0  0  0  0  0  0  0  0  0
   12.4207    7.4301    7.6017 C   0  0  2  0  0  0  0  0  0  0  0  0
   11.3533    6.9357    8.4064 O   0  0  0  0  0  0  0  0  0  0  0  0
    7.2264    5.5720    6.5184 C   0  0  1  0  0  0  0  0  0  0  0  0
    7.1840    5.5819    7.9649 O   0  0  0  0  0  0  0  0  0  0  0  0
   12.6785    8.8743    7.9984 C   0  0  0  0  0  0  0  0  0  0  0  0
    8.1076    1.6687   10.1171 C   0  0  0  0  0  0  0  0  0  0  0  0
    8.8150    4.9968   12.1430 C   0  0  0  0  0  0  0  0  0  0  0  0
  1  2  1  6  0  0  0
  1  6  1  0  0  0  0
  1 23  1  0  0  0  0
  3  4  1  6  0  0  0
  3  8  1  0  0  0  0
  3 30  1  0  0  0  0
  5  9  1  0  0  0  0
  5 27  1  0  0  0  0
  5 31  1  6  0  0  0
  6  7  1  6  0  0  0
  6 11  1  0  0  0  0
  8 13  1  0  0  0  0
  9 10  1  6  0  0  0
  9 15  1  0  0  0  0
 11 12  1  6  0  0  0
 11 17  1  0  0  0  0
 13 14  1  6  0  0  0
 13 19  1  0  0  0  0
 15 16  1  1  0  0  0
 15 20  1  0  0  0  0
 16 34  1  0  0  0  0
 17 18  1  6  0  0  0
 17 22  1  0  0  0  0
 19  2  1  1  0  0  0
 19 24  1  0  0  0  0
 20 21  1  1  0  0  0
 20 26  1  0  0  0  0
 20 33  1  0  0  0  0
 22 23  1  1  0  0  0
 22 28  1  0  0  0  0
 24 25  1  1  0  0  0
 24 30  1  0  0  0  0
 26 27  1  0  0  0  0
 28 29  1  1  0  0  0
 28 32  1  0  0  0  0
 30 31  1  1  0  0  0
M  END
>  <CHROM.1>
-155.29480158,52.37552488,-95.75131272,-179.69710713,64.55867587,174.65712001
9.03585572,6.05076207,6.88106472,0.88029310,-0.30408111,-1.20488869

>  <Name>
ligand

>  <RI>
0

>  <Rbt.Current_Directory>
/home/itssahil/PROJECTS/Mol_Feturizer/New_Systems/rnas/3TD1

>  <Rbt.Executable>
rbdock ($Id: //depot/dev/client3/rdock/2013.1/src/exe/rbdock.cxx#4 $)

>  <Rbt.Library>
libRbt.so (2013.1, Build901 2013/11/27)

>  <Rbt.Parameter_File>
/export/apps/rDock/src/rDock_2013.1_src/data/scripts/dock_solv.prm

>  <Rbt.Receptor>
prm/pocket_docking_5.prm

>  <SCORE>
-12.2559

>  <SCORE.INTER>
-6.4208

>  <SCORE.INTER.CONST>
1

>  <SCORE.INTER.POLAR>
0

>  <SCORE.INTER.ROT>
6

>  <SCORE.INTER.SOLV>
14.1422

>  <SCORE.INTER.VDW>
-16.5946

>  <SCORE.INTER.norm>
-0.188847

>  <SCORE.INTRA>
-5.83508

>  <SCORE.INTRA.DIHEDRAL>
-15.5972

>  <SCORE.INTRA.DIHEDRAL.0>
19.5869

>  <SCORE.INTRA.POLAR>
0

>  <SCORE.INTRA.POLAR.0>
0

>  <SCORE.INTRA.REPUL>
0

>  <SCORE.INTRA.REPUL.0>
0

>  <SCORE.INTRA.SOLV>
0.861673

>  <SCORE.INTRA.SOLV.lig_0>
-70.101

>  <SCORE.INTRA.VDW>
1.53267

>  <SCORE.INTRA.VDW.0>
-3.39718

>  <SCORE.INTRA.norm>
-0.17162

>  <SCORE.RESTR>
0

>  <SCORE.RESTR.CAVITY>
0

>  <SCORE.RESTR.norm>
0

>  <SCORE.SYSTEM>
0

>  <SCORE.SYSTEM.CONST>
0

>  <SCORE.SYSTEM.DIHEDRAL>
0

>  <SCORE.SYSTEM.SOLV>
0

>  <SCORE.SYSTEM.norm>
0

>  <SCORE.heavy>
34

>  <SCORE.norm>
-0.360467

>  <RMSD>
7.931

$$$$
ligand
 OpenBabel11021811483D
libRbt.so/2013.1/901 2013/11/27
 34 36  0  0  0  0  0  0  0  0999 V2000
   10.3917    7.9749    4.5166 C   0  0  2  0  0  0  0  0  0  0  0  0
   10.1070    6.6128    4.1611 O   0  0  0  0  0  0  0  0  0  0  0  0
    6.2341    6.6236    5.9673 C   0  0  2  0  0  0  0  0  0  0  0  0
    4.8822    6.2322    6.3508 N   0  0  0  0  0  0  0  0  0  0  0  0
    6.0247    5.1579    8.6321 C   0  0  2  0  0  0  0  0  0  0  0  0
   11.4332    8.5377    3.4846 C   0  0  2  0  0  0  0  0  0  0  0  0
   10.8946    8.5064    2.1159 N   0  0  0  0  0  0  0  0  0  0  0  0
    6.2937    6.6292    4.4033 C   0  0  0  0  0  0  0  0  0  0  0  0
    6.3283    5.1116   10.1724 C   0  0  2  0  0  0  0  0  0  0  0  0
    6.6682    6.4081   10.6356 O   0  0  0  0  0  0  0  0  0  0  0  0
   12.7291    7.7014    3.5587 C   0  0  1  0  0  0  0  0  0  0  0  0
   13.6898    8.2160    2.6222 O   0  0  0  0  0  0  0  0  0  0  0  0
    7.7381    7.0719    3.9904 C   0  0  2  0  0  0  0  0  0  0  0  0
    7.8594    7.0907    2.5185 N   0  0  0  0  0  0  0  0  0  0  0  0
    7.5063    4.0928   10.4247 C   0  0  1  0  0  0  0  0  0  0  0  0
    7.8450    4.0238   11.8779 N   0  0  0  0  0  0  0  0  0  0  0  0
   13.2682    7.7441    5.0082 C   0  0  2  0  0  0  0  0  0  0  0  0
   14.4706    6.9597    5.0954 O   0  0  0  0  0  0  0  0  0  0  0  0
    8.8017    6.1042    4.5695 C   0  0  2  0  0  0  0  0  0  0  0  0
    7.0798    2.6804    9.8966 C   0  0  1  0  0  0  0  0  0  0  0  0
    5.9335    2.2285   10.6127 O   0  0  0  0  0  0  0  0  0  0  0  0
   12.1734    7.1867    5.9959 C   0  0  2  0  0  0  0  0  0  0  0  0
   10.9392    7.9878    5.8818 O   0  0  0  0  0  0  0  0  0  0  0  0
    8.6780    6.0693    6.1133 C   0  0  2  0  0  0  0  0  0  0  0  0
    9.6507    5.1617    6.6207 O   0  0  0  0  0  0  0  0  0  0  0  0
    6.7300    2.7994    8.3797 C   0  0  0  0  0  0  0  0  0  0  0  0
    5.6690    3.8120    8.1620 O   0  0  0  0  0  0  0  0  0  0  0  0
   12.6492    7.2289    7.4716 C   0  0  2  0  0  0  0  0  0  0  0  0
   11.6369    6.6812    8.3122 O   0  0  0  0  0  0  0  0  0  0  0  0
    7.2766    5.5847    6.5526 C   0  0  1  0  0  0  0  0  0  0  0  0
    7.2606    5.5936    7.9996 O   0  0  0  0  0  0  0  0  0  0  0  0
   12.9224    8.6516    7.9307 C   0  0  0  0  0  0  0  0  0  0  0  0
    8.1800    1.6430   10.0842 C   0  0  0  0  0  0  0  0  0  0  0  0
    8.9612    4.9532   12.1373 C   0  0  0  0  0  0  0  0  0  0  0  0
  1  2  1  6  0  0  0
  1  6  1  0  0  0  0
  1 23  1  0  0  0  0
  3  4  1  6  0  0  0
  3  8  1  0  0  0  0
  3 30  1  0  0  0  0
  5  9  1  0  0  0  0
  5 27  1  0  0  0  0
  5 31  1  6  0  0  0
  6  7  1  6  0  0  0
  6 11  1  0  0  0  0
  8 13  1  0  0  0  0
  9 10  1  6  0  0  0
  9 15  1  0  0  0  0
 11 12  1  6  0  0  0
 11 17  1  0  0  0  0
 13 14  1  6  0  0  0
 13 19  1  0  0  0  0
 15 16  1  1  0  0  0
 15 20  1  0  0  0  0
 16 34  1  0  0  0  0
 17 18  1  6  0  0  0
 17 22  1  0  0  0  0
 19  2  1  1  0  0  0
 19 24  1  0  0  0  0
 20 21  1  1  0  0  0
 20 26  1  0  0  0  0
 20 33  1  0  0  0  0
 22 23  1  1  0  0  0
 22 28  1  0  0  0  0
 24 25  1  1  0  0  0
 24 30  1  0  0  0  0
 26 27  1  0  0  0  0
 28 29  1  1  0  0  0
 28 32  1  0  0  0  0
 30 31  1  1  0  0  0
M  END
>  <CHROM.1>
-153.74992194,55.12909047,-94.84406306,-178.43436026,64.50891181,173.90683757
9.11258702,6.02036071,6.86505644,0.89590879,-0.26795757,-1.18427702

>  <Name>
ligand

>  <RI>
0

>  <Rbt.Current_Directory>
/home/itssahil/PROJECTS/Mol_Feturizer/New_Systems/rnas/3TD1

>  <Rbt.Executable>
rbdock ($Id: //depot/dev/client3/rdock/2013.1/src/exe/rbdock.cxx#4 $)

>  <Rbt.Library>
libRbt.so (2013.1, Build901 2013/11/27)

>  <Rbt.Parameter_File>
/export/apps/rDock/src/rDock_2013.1_src/data/scripts/dock_solv.prm

>  <Rbt.Receptor>
prm/pocket_docking_5.prm

>  <SCORE>
-12.034

>  <SCORE.INTER>
-6.24001

>  <SCORE.INTER.CONST>
1

>  <SCORE.INTER.POLAR>
0

>  <SCORE.INTER.ROT>
6

>  <SCORE.INTER.SOLV>
13.6298

>  <SCORE.INTER.VDW>
-16.3033

>  <SCORE.INTER.norm>
-0.18353

>  <SCORE.INTRA>
-5.79397

>  <SCORE.INTRA.DIHEDRAL>
-15.4588

>  <SCORE.INTRA.DIHEDRAL.0>
19.5869

>  <SCORE.INTRA.POLAR>
0

>  <SCORE.INTRA.POLAR.0>
0

>  <SCORE.INTRA.REPUL>
0

>  <SCORE.INTRA.REPUL.0>
0

>  <SCORE.INTRA.SOLV>
0.937288

>  <SCORE.INTRA.SOLV.lig_0>
-70.101

>  <SCORE.INTRA.VDW>
1.46678

>  <SCORE.INTRA.VDW.0>
-3.39718

>  <SCORE.INTRA.norm>
-0.170411

>  <SCORE.RESTR>
0

>  <SCORE.RESTR.CAVITY>
0

>  <SCORE.RESTR.norm>
0

>  <SCORE.SYSTEM>
0

>  <SCORE.SYSTEM.CONST>
0

>  <SCORE.SYSTEM.DIHEDRAL>
0

>  <SCORE.SYSTEM.SOLV>
0

>  <SCORE.SYSTEM.norm>
0

>  <SCORE.heavy>
34

>  <SCORE.norm>
-0.353941

>  <RMSD>
7.951

$$$$
ligand
 OpenBabel11021811483D
libRbt.so/2013.1/901 2013/11/27
 34 36  0  0  0  0  0  0  0  0999 V2000
    9.1221    9.5999    0.3981 C   0  0  2  0  0  0  0  0  0  0  0  0
   10.0250   10.1104    1.3915 O   0  0  0  0  0  0  0  0  0  0  0  0
   13.4286    7.9904   -0.0859 C   0  0  2  0  0  0  0  0  0  0  0  0
   14.8070    7.6119   -0.3773 N   0  0  0  0  0  0  0  0  0  0  0  0
   13.7986    6.3666    3.3002 C   0  0  2  0  0  0  0  0  0  0  0  0
    7.6678   10.0441    0.7906 C   0  0  2  0  0  0  0  0  0  0  0  0
    7.5526   11.5102    0.8290 N   0  0  0  0  0  0  0  0  0  0  0  0
   13.2334    9.4626   -0.5801 C   0  0  0  0  0  0  0  0  0  0  0  0
   14.7746    5.1368    3.2527 C   0  0  2  0  0  0  0  0  0  0  0  0
   15.8612    5.4175    2.3859 O   0  0  0  0  0  0  0  0  0  0  0  0
    7.3078    9.4524    2.1707 C   0  0  1  0  0  0  0  0  0  0  0  0
    5.9749    9.8485    2.5328 O   0  0  0  0  0  0  0  0  0  0  0  0
   11.7473    9.8620   -0.2888 C   0  0  2  0  0  0  0  0  0  0  0  0
   11.5015   11.2501   -0.7296 N   0  0  0  0  0  0  0  0  0  0  0  0
   13.9697    3.8719    2.7612 C   0  0  1  0  0  0  0  0  0  0  0  0
   14.8599    2.6749    2.6834 N   0  0  0  0  0  0  0  0  0  0  0  0
    7.4458    7.9128    2.1048 C   0  0  2  0  0  0  0  0  0  0  0  0
    7.1237    7.3477    3.3875 O   0  0  0  0  0  0  0  0  0  0  0  0
   11.4296    9.7520    1.2244 C   0  0  2  0  0  0  0  0  0  0  0  0
   12.7843    3.6065    3.7512 C   0  0  1  0  0  0  0  0  0  0  0  0
   13.2996    3.3340    5.0517 O   0  0  0  0  0  0  0  0  0  0  0  0
    8.9173    7.5314    1.6879 C   0  0  2  0  0  0  0  0  0  0  0  0
    9.2412    8.1339    0.3801 O   0  0  0  0  0  0  0  0  0  0  0  0
   11.6926    8.3014    1.7002 C   0  0  2  0  0  0  0  0  0  0  0  0
   11.4121    8.2290    3.0943 O   0  0  0  0  0  0  0  0  0  0  0  0
   11.8850    4.8814    3.8063 C   0  0  0  0  0  0  0  0  0  0  0  0
   12.6789    6.0689    4.2039 O   0  0  0  0  0  0  0  0  0  0  0  0
    9.1094    5.9960    1.5802 C   0  0  2  0  0  0  0  0  0  0  0  0
    9.0385    5.4167    2.8804 O   0  0  0  0  0  0  0  0  0  0  0  0
   13.1675    7.8956    1.4734 C   0  0  1  0  0  0  0  0  0  0  0  0
   13.3079    6.5332    1.9406 O   0  0  0  0  0  0  0  0  0  0  0  0
   10.4604    5.6421    0.9809 C   0  0  0  0  0  0  0  0  0  0  0  0
   11.9425    2.4090    3.3280 C   0  0  0  0  0  0  0  0  0  0  0  0
   14.2903    1.7383    1.6959 C   0  0  0  0  0  0  0  0  0  0  0  0
  1  2  1  1  0  0  0
  1  6  1  0  0  0  0
  1 23  1  0  0  0  0
  3  4  1  1  0  0  0
  3  8  1  0  0  0  0
  3 30  1  0  0  0  0
  5  9  1  0  0  0  0
  5 27  1  0  0  0  0
  5 31  1  6  0  0  0
  6  7  1  1  0  0  0
  6 11  1  0  0  0  0
  8 13  1  0  0  0  0
  9 10  1  6  0  0  0
  9 15  1  0  0  0  0
 11 12  1  6  0  0  0
 11 17  1  0  0  0  0
 13 14  1  1  0  0  0
 13 19  1  0  0  0  0
 15 16  1  1  0  0  0
 15 20  1  0  0  0  0
 16 34  1  0  0  0  0
 17 18  1  1  0  0  0
 17 22  1  0  0  0  0
 19  2  1  6  0  0  0
 19 24  1  0  0  0  0
 20 21  1  1  0  0  0
 20 26  1  0  0  0  0
 20 33  1  0  0  0  0
 22 23  1  6  0  0  0
 22 28  1  0  0  0  0
 24 25  1  1  0  0  0
 24 30  1  0  0  0  0
 26 27  1  0  0  0  0
 28 29  1  1  0  0  0
 28 32  1  0  0  0  0
 30 31  1  6  0  0  0
M  END
>  <CHROM.1>
177.65018905,40.96773986,-154.76887350,-68.98964046,148.34246952,-140.66577771
11.30767797,7.05324167,1.93931556,-2.34426569,-0.24166423,2.61800816

>  <Name>
ligand

>  <RI>
0

>  <Rbt.Current_Directory>
/home/itssahil/PROJECTS/Mol_Feturizer/New_Systems/rnas/3TD1

>  <Rbt.Executable>
rbdock ($Id: //depot/dev/client3/rdock/2013.1/src/exe/rbdock.cxx#4 $)

>  <Rbt.Library>
libRbt.so (2013.1, Build901 2013/11/27)

>  <Rbt.Parameter_File>
/export/apps/rDock/src/rDock_2013.1_src/data/scripts/dock_solv.prm

>  <Rbt.Receptor>
prm/blind_docking_20.prm

>  <SCORE>
21.7752

>  <SCORE.INTER>
8.48805

>  <SCORE.INTER.CONST>
1

>  <SCORE.INTER.POLAR>
0

>  <SCORE.INTER.ROT>
6

>  <SCORE.INTER.SOLV>
24.7063

>  <SCORE.INTER.VDW>
-10.1767

>  <SCORE.INTER.norm>
0.249648

>  <SCORE.INTRA>
0.773826

>  <SCORE.INTRA.DIHEDRAL>
-7.98039

>  <SCORE.INTRA.DIHEDRAL.0>
19.5869

>  <SCORE.INTRA.POLAR>
0

>  <SCORE.INTRA.POLAR.0>
0

>  <SCORE.INTRA.REPUL>
0

>  <SCORE.INTRA.REPUL.0>
0

>  <SCORE.INTRA.SOLV>
-0.60616

>  <SCORE.INTRA.SOLV.lig_0>
-70.101

>  <SCORE.INTRA.VDW>
5.0671

>  <SCORE.INTRA.VDW.0>
-3.39718

>  <SCORE.INTRA.norm>
0.0227596

>  <SCORE.RESTR>
12.5134

>  <SCORE.RESTR.CAVITY>
12.5134

>  <SCORE.RESTR.norm>
0.36804

>  <SCORE.SYSTEM>
0

>  <SCORE.SYSTEM.CONST>
0

>  <SCORE.SYSTEM.DIHEDRAL>
0

>  <SCORE.SYSTEM.SOLV>
0

>  <SCORE.SYSTEM.norm>
0

>  <SCORE.heavy>
34

>  <SCORE.norm>
0.640448

>  <RMSD>
7.975

$$$$
ligand
 OpenBabel11021811483D
libRbt.so/2013.1/901 2013/11/27
 34 36  0  0  0  0  0  0  0  0999 V2000
   11.7024    5.7546    4.9407 C   0  0  2  0  0  0  0  0  0  0  0  0
   13.1235    5.7106    4.7376 O   0  0  0  0  0  0  0  0  0  0  0  0
   13.5622    1.8141    6.4365 C   0  0  2  0  0  0  0  0  0  0  0  0
   14.1240    0.5225    6.8164 N   0  0  0  0  0  0  0  0  0  0  0  0
   15.1068    3.8110    9.3356 C   0  0  2  0  0  0  0  0  0  0  0  0
   11.1178    6.8939    4.0315 C   0  0  2  0  0  0  0  0  0  0  0  0
   11.3867    6.6291    2.6096 N   0  0  0  0  0  0  0  0  0  0  0  0
   13.6704    1.9316    4.8795 C   0  0  0  0  0  0  0  0  0  0  0  0
   16.5575    3.2156    9.2450 C   0  0  2  0  0  0  0  0  0  0  0  0
   16.9844    3.1905    7.8930 O   0  0  0  0  0  0  0  0  0  0  0  0
   11.7417    8.2456    4.4416 C   0  0  1  0  0  0  0  0  0  0  0  0
   11.2050    9.2942    3.6186 O   0  0  0  0  0  0  0  0  0  0  0  0
   13.0462    3.3079    4.4685 C   0  0  2  0  0  0  0  0  0  0  0  0
   13.1247    3.4810    3.0037 N   0  0  0  0  0  0  0  0  0  0  0  0
   16.5470    1.7638    9.8630 C   0  0  1  0  0  0  0  0  0  0  0  0
   17.9047    1.1457    9.7863 N   0  0  0  0  0  0  0  0  0  0  0  0
   11.4520    8.4943    5.9409 C   0  0  2  0  0  0  0  0  0  0  0  0
   12.0369    9.7461    6.3404 O   0  0  0  0  0  0  0  0  0  0  0  0
   13.7917    4.4818    5.1533 C   0  0  2  0  0  0  0  0  0  0  0  0
   16.0698    1.8483   11.3532 C   0  0  1  0  0  0  0  0  0  0  0  0
   16.9803    2.6491   12.1020 O   0  0  0  0  0  0  0  0  0  0  0  0
   12.0442    7.3107    6.7970 C   0  0  2  0  0  0  0  0  0  0  0  0
   11.4507    6.0309    6.3634 O   0  0  0  0  0  0  0  0  0  0  0  0
   13.7238    4.3061    6.6910 C   0  0  2  0  0  0  0  0  0  0  0  0
   14.4296    5.3840    7.2971 O   0  0  0  0  0  0  0  0  0  0  0  0
   14.6533    2.5038   11.3872 C   0  0  0  0  0  0  0  0  0  0  0  0
   14.6748    3.8375   10.7398 O   0  0  0  0  0  0  0  0  0  0  0  0
   11.7614    7.4929    8.3112 C   0  0  2  0  0  0  0  0  0  0  0  0
   12.4104    8.6735    8.7763 O   0  0  0  0  0  0  0  0  0  0  0  0
   14.3806    2.9776    7.1330 C   0  0  1  0  0  0  0  0  0  0  0  0
   14.2607    2.9054    8.5733 O   0  0  0  0  0  0  0  0  0  0  0  0
   12.2833    6.3188    9.1228 C   0  0  0  0  0  0  0  0  0  0  0  0
   16.0105    0.4764   12.0137 C   0  0  0  0  0  0  0  0  0  0  0  0
   17.8997    0.1523    8.6953 C   0  0  0  0  0  0  0  0  0  0  0  0
  1  2  1  1  0  0  0
  1  6  1  0  0  0  0
  1 23  1  0  0  0  0
  3  4  1  1  0  0  0
  3  8  1  0  0  0  0
  3 30  1  0  0  0  0
  5  9  1  0  0  0  0
  5 27  1  0  0  0  0
  5 31  1  6  0  0  0
  6  7  1  6  0  0  0
  6 11  1  0  0  0  0
  8 13  1  0  0  0  0
  9 10  1  6  0  0  0
  9 15  1  0  0  0  0
 11 12  1  6  0  0  0
 11 17  1  0  0  0  0
 13 14  1  6  0  0  0
 13 19  1  0  0  0  0
 15 16  1  1  0  0  0
 15 20  1  0  0  0  0
 16 34  1  0  0  0  0
 17 18  1  1  0  0  0
 17 22  1  0  0  0  0
 19  2  1  1  0  0  0
 19 24  1  0  0  0  0
 20 21  1  1  0  0  0
 20 26  1  0  0  0  0
 20 33  1  0  0  0  0
 22 23  1  6  0  0  0
 22 28  1  0  0  0  0
 24 25  1  1  0  0  0
 24 30  1  0  0  0  0
 26 27  1  0  0  0  0
 28 29  1  1  0  0  0
 28 32  1  0  0  0  0
 30 31  1  1  0  0  0
M  END
>  <CHROM.1>
-161.55945018,52.93175039,-104.26183406,-62.93701282,172.20592471,-74.21907003
13.87112793,4.51374921,7.35384734,-3.00170610,-1.03089811,1.00555953

>  <Name>
ligand

>  <RI>
0

>  <Rbt.Current_Directory>
/home/itssahil/PROJECTS/Mol_Feturizer/New_Systems/rnas/3TD1

>  <Rbt.Executable>
rbdock ($Id: //depot/dev/client3/rdock/2013.1/src/exe/rbdock.cxx#4 $)

>  <Rbt.Library>
libRbt.so (2013.1, Build901 2013/11/27)

>  <Rbt.Parameter_File>
/export/apps/rDock/src/rDock_2013.1_src/data/scripts/dock_solv.prm

>  <Rbt.Receptor>
prm/pocket_docking_8.prm

>  <SCORE>
-4.85995

>  <SCORE.INTER>
0.983216

>  <SCORE.INTER.CONST>
1

>  <SCORE.INTER.POLAR>
0

>  <SCORE.INTER.ROT>
6

>  <SCORE.INTER.SOLV>
8.33346

>  <SCORE.INTER.VDW>
-9.72234

>  <SCORE.INTER.norm>
0.0289181

>  <SCORE.INTRA>
-5.84317

>  <SCORE.INTRA.DIHEDRAL>
-15.4412

>  <SCORE.INTRA.DIHEDRAL.0>
19.5869

>  <SCORE.INTRA.POLAR>
0

>  <SCORE.INTRA.POLAR.0>
0

>  <SCORE.INTRA.REPUL>
0

>  <SCORE.INTRA.REPUL.0>
0

>  <SCORE.INTRA.SOLV>
0.248873

>  <SCORE.INTRA.SOLV.lig_0>
-70.101

>  <SCORE.INTRA.VDW>
1.75298

>  <SCORE.INTRA.VDW.0>
-3.39718

>  <SCORE.INTRA.norm>
-0.171858

>  <SCORE.RESTR>
0

>  <SCORE.RESTR.CAVITY>
0

>  <SCORE.RESTR.norm>
0

>  <SCORE.SYSTEM>
0

>  <SCORE.SYSTEM.CONST>
0

>  <SCORE.SYSTEM.DIHEDRAL>
0

>  <SCORE.SYSTEM.SOLV>
0

>  <SCORE.SYSTEM.norm>
0

>  <SCORE.heavy>
34

>  <SCORE.norm>
-0.14294

>  <RMSD>
8.007

$$$$
ligand
 OpenBabel11021811483D
libRbt.so/2013.1/901 2013/11/27
 34 36  0  0  0  0  0  0  0  0999 V2000
   -1.1329    3.7640    7.8657 C   0  0  2  0  0  0  0  0  0  0  0  0
   -0.5752    3.9956    9.1687 O   0  0  0  0  0  0  0  0  0  0  0  0
    2.9058    5.9739    7.6754 C   0  0  2  0  0  0  0  0  0  0  0  0
    4.1641    6.7097    7.6159 N   0  0  0  0  0  0  0  0  0  0  0  0
    4.4179    2.4700    8.1638 C   0  0  2  0  0  0  0  0  0  0  0  0
   -2.6654    3.4679    8.0398 C   0  0  2  0  0  0  0  0  0  0  0  0
   -3.3595    4.6083    8.6580 N   0  0  0  0  0  0  0  0  0  0  0  0
    1.9021    6.8308    8.5168 C   0  0  0  0  0  0  0  0  0  0  0  0
    5.3001    2.8169    9.4162 C   0  0  2  0  0  0  0  0  0  0  0  0
    4.5363    3.5584   10.3530 O   0  0  0  0  0  0  0  0  0  0  0  0
   -2.8463    2.2068    8.9123 C   0  0  1  0  0  0  0  0  0  0  0  0
   -4.2466    1.9254    9.0693 O   0  0  0  0  0  0  0  0  0  0  0  0
    0.5438    6.0525    8.5616 C   0  0  2  0  0  0  0  0  0  0  0  0
   -0.4475    6.8114    9.3509 N   0  0  0  0  0  0  0  0  0  0  0  0
    6.5592    3.6373    8.9355 C   0  0  1  0  0  0  0  0  0  0  0  0
    7.4252    4.0064   10.0953 N   0  0  0  0  0  0  0  0  0  0  0  0
   -2.1002    1.0272    8.2448 C   0  0  2  0  0  0  0  0  0  0  0  0
   -2.2508   -0.1533    9.0525 O   0  0  0  0  0  0  0  0  0  0  0  0
    0.7277    4.6519    9.1998 C   0  0  2  0  0  0  0  0  0  0  0  0
    7.3659    2.7748    7.9055 C   0  0  1  0  0  0  0  0  0  0  0  0
    7.8213    1.5802    8.5351 O   0  0  0  0  0  0  0  0  0  0  0  0
   -0.5755    1.3917    8.0798 C   0  0  2  0  0  0  0  0  0  0  0  0
   -0.4366    2.6152    7.2663 O   0  0  0  0  0  0  0  0  0  0  0  0
    1.7728    3.8494    8.3851 C   0  0  2  0  0  0  0  0  0  0  0  0
    1.9385    2.5756    8.9995 O   0  0  0  0  0  0  0  0  0  0  0  0
    6.4237    2.4074    6.7160 C   0  0  0  0  0  0  0  0  0  0  0  0
    5.2155    1.6980    7.2011 O   0  0  0  0  0  0  0  0  0  0  0  0
    0.2211    0.2531    7.3907 C   0  0  2  0  0  0  0  0  0  0  0  0
    1.6058    0.5897    7.3675 O   0  0  0  0  0  0  0  0  0  0  0  0
    3.1417    4.5686    8.3668 C   0  0  1  0  0  0  0  0  0  0  0  0
    4.0395    3.7488    7.5818 O   0  0  0  0  0  0  0  0  0  0  0  0
   -0.2350    0.0401    5.9567 C   0  0  0  0  0  0  0  0  0  0  0  0
    8.5892    3.5125    7.3752 C   0  0  0  0  0  0  0  0  0  0  0  0
    7.0382    5.3554   10.5506 C   0  0  0  0  0  0  0  0  0  0  0  0
  1  2  1  1  0  0  0
  1  6  1  0  0  0  0
  1 23  1  0  0  0  0
  3  4  1  1  0  0  0
  3  8  1  0  0  0  0
  3 30  1  0  0  0  0
  5  9  1  0  0  0  0
  5 27  1  0  0  0  0
  5 31  1  6  0  0  0
  6  7  1  1  0  0  0
  6 11  1  0  0  0  0
  8 13  1  0  0  0  0
  9 10  1  1  0  0  0
  9 15  1  0  0  0  0
 11 12  1  6  0  0  0
 11 17  1  0  0  0  0
 13 14  1  1  0  0  0
 13 19  1  0  0  0  0
 15 16  1  1  0  0  0
 15 20  1  0  0  0  0
 16 34  1  0  0  0  0
 17 18  1  1  0  0  0
 17 22  1  0  0  0  0
 19  2  1  6  0  0  0
 19 24  1  0  0  0  0
 20 21  1  1  0  0  0
 20 26  1  0  0  0  0
 20 33  1  0  0  0  0
 22 23  1  6  0  0  0
 22 28  1  0  0  0  0
 24 25  1  1  0  0  0
 24 30  1  0  0  0  0
 26 27  1  0  0  0  0
 28 29  1  6  0  0  0
 28 32  1  0  0  0  0
 30 31  1  6  0  0  0
M  END
>  <CHROM.1>
-163.20005864,62.13327669,-93.92924464,-175.26806176,175.42077570,-67.60249590
2.15086592,3.23006689,8.37262420,3.02145035,-0.01062486,-2.90332015

>  <Name>
ligand

>  <RI>
0

>  <Rbt.Current_Directory>
/home/itssahil/PROJECTS/Mol_Feturizer/New_Systems/rnas/3TD1

>  <Rbt.Executable>
rbdock ($Id: //depot/dev/client3/rdock/2013.1/src/exe/rbdock.cxx#4 $)

>  <Rbt.Library>
libRbt.so (2013.1, Build901 2013/11/27)

>  <Rbt.Parameter_File>
/export/apps/rDock/src/rDock_2013.1_src/data/scripts/dock_solv.prm

>  <Rbt.Receptor>
prm/pocket_docking_8.prm

>  <SCORE>
-13.7795

>  <SCORE.INTER>
-8.71474

>  <SCORE.INTER.CONST>
1

>  <SCORE.INTER.POLAR>
0

>  <SCORE.INTER.ROT>
6

>  <SCORE.INTER.SOLV>
16.6811

>  <SCORE.INTER.VDW>
-18.9702

>  <SCORE.INTER.norm>
-0.256316

>  <SCORE.INTRA>
-5.06478

>  <SCORE.INTRA.DIHEDRAL>
-16.9942

>  <SCORE.INTRA.DIHEDRAL.0>
19.5869

>  <SCORE.INTRA.POLAR>
0

>  <SCORE.INTRA.POLAR.0>
0

>  <SCORE.INTRA.REPUL>
0.000596668

>  <SCORE.INTRA.REPUL.0>
0

>  <SCORE.INTRA.SOLV>
0.270567

>  <SCORE.INTRA.SOLV.lig_0>
-70.101

>  <SCORE.INTRA.VDW>
3.29403

>  <SCORE.INTRA.VDW.0>
-3.39718

>  <SCORE.INTRA.norm>
-0.148964

>  <SCORE.RESTR>
0

>  <SCORE.RESTR.CAVITY>
0

>  <SCORE.RESTR.norm>
0

>  <SCORE.SYSTEM>
0

>  <SCORE.SYSTEM.CONST>
0

>  <SCORE.SYSTEM.DIHEDRAL>
0

>  <SCORE.SYSTEM.SOLV>
0

>  <SCORE.SYSTEM.norm>
0

>  <SCORE.heavy>
34

>  <SCORE.norm>
-0.40528

>  <RMSD>
8.008

$$$$
ligand
 OpenBabel11021811483D
libRbt.so/2013.1/901 2013/11/27
 34 36  0  0  0  0  0  0  0  0999 V2000
   13.1137    2.5571    6.2540 C   0  0  2  0  0  0  0  0  0  0  0  0
   14.1531    3.5322    6.4316 O   0  0  0  0  0  0  0  0  0  0  0  0
   14.4757    7.3802    8.2620 C   0  0  2  0  0  0  0  0  0  0  0  0
   14.1635    8.7330    8.7098 N   0  0  0  0  0  0  0  0  0  0  0  0
   12.6467    5.7596   11.2046 C   0  0  2  0  0  0  0  0  0  0  0  0
   13.7905    1.1893    5.8828 C   0  0  2  0  0  0  0  0  0  0  0  0
   14.6910    0.7346    6.9536 N   0  0  0  0  0  0  0  0  0  0  0  0
   14.2688    7.3413    6.7111 C   0  0  0  0  0  0  0  0  0  0  0  0
   11.5805    6.8981   11.3893 C   0  0  2  0  0  0  0  0  0  0  0  0
   11.0673    7.2871   10.1259 O   0  0  0  0  0  0  0  0  0  0  0  0
   14.5798    1.3507    4.5655 C   0  0  1  0  0  0  0  0  0  0  0  0
   15.1954    0.1004    4.2156 O   0  0  0  0  0  0  0  0  0  0  0  0
   14.6262    5.8955    6.2263 C   0  0  2  0  0  0  0  0  0  0  0  0
   14.4438    5.7934    4.7642 N   0  0  0  0  0  0  0  0  0  0  0  0
   12.2644    8.1163   12.1227 C   0  0  1  0  0  0  0  0  0  0  0  0
   11.2930    9.2357   12.3089 N   0  0  0  0  0  0  0  0  0  0  0  0
   13.6123    1.8375    3.4607 C   0  0  2  0  0  0  0  0  0  0  0  0
   14.3362    2.0029    2.2289 O   0  0  0  0  0  0  0  0  0  0  0  0
   13.7272    4.8399    6.9193 C   0  0  2  0  0  0  0  0  0  0  0  0
   12.8122    7.6335   13.5092 C   0  0  1  0  0  0  0  0  0  0  0  0
   11.7315    7.1723   14.3158 O   0  0  0  0  0  0  0  0  0  0  0  0
   12.9517    3.1998    3.8993 C   0  0  2  0  0  0  0  0  0  0  0  0
   12.2295    3.0206    5.1738 O   0  0  0  0  0  0  0  0  0  0  0  0
   13.9035    4.9437    8.4550 C   0  0  2  0  0  0  0  0  0  0  0  0
   13.0560    3.9788    9.0699 O   0  0  0  0  0  0  0  0  0  0  0  0
   13.8164    6.4626   13.2688 C   0  0  0  0  0  0  0  0  0  0  0  0
   13.1692    5.3597   12.5183 O   0  0  0  0  0  0  0  0  0  0  0  0
   11.9493    3.7255    2.8388 C   0  0  2  0  0  0  0  0  0  0  0  0
   12.6434    3.9986    1.6243 O   0  0  0  0  0  0  0  0  0  0  0  0
   13.5074    6.3466    8.9711 C   0  0  1  0  0  0  0  0  0  0  0  0
   13.7121    6.3433   10.4037 O   0  0  0  0  0  0  0  0  0  0  0  0
   11.2757    5.0095    3.2941 C   0  0  0  0  0  0  0  0  0  0  0  0
   13.5109    8.7537   14.2700 C   0  0  0  0  0  0  0  0  0  0  0  0
   11.8881   10.4629   11.7460 C   0  0  0  0  0  0  0  0  0  0  0  0
  1  2  1  6  0  0  0
  1  6  1  0  0  0  0
  1 23  1  0  0  0  0
  3  4  1  1  0  0  0
  3  8  1  0  0  0  0
  3 30  1  0  0  0  0
  5  9  1  0  0  0  0
  5 27  1  0  0  0  0
  5 31  1  6  0  0  0
  6  7  1  1  0  0  0
  6 11  1  0  0  0  0
  8 13  1  0  0  0  0
  9 10  1  6  0  0  0
  9 15  1  0  0  0  0
 11 12  1  6  0  0  0
 11 17  1  0  0  0  0
 13 14  1  6  0  0  0
 13 19  1  0  0  0  0
 15 16  1  1  0  0  0
 15 20  1  0  0  0  0
 16 34  1  0  0  0  0
 17 18  1  6  0  0  0
 17 22  1  0  0  0  0
 19  2  1  6  0  0  0
 19 24  1  0  0  0  0
 20 21  1  1  0  0  0
 20 26  1  0  0  0  0
 20 33  1  0  0  0  0
 22 23  1  1  0  0  0
 22 28  1  0  0  0  0
 24 25  1  1  0  0  0
 24 30  1  0  0  0  0
 26 27  1  0  0  0  0
 28 29  1  6  0  0  0
 28 32  1  0  0  0  0
 30 31  1  1  0  0  0
M  END
>  <CHROM.1>
-173.81965978,-144.39540970,-126.52960791,-62.79307881,162.22938816,-83.28215219
13.22874707,5.19406981,7.99901580,-1.17146799,-1.30436715,1.40456403

>  <Name>
ligand

>  <RI>
0

>  <Rbt.Current_Directory>
/home/itssahil/PROJECTS/Mol_Feturizer/New_Systems/rnas/3TD1

>  <Rbt.Executable>
rbdock ($Id: //depot/dev/client3/rdock/2013.1/src/exe/rbdock.cxx#4 $)

>  <Rbt.Library>
libRbt.so (2013.1, Build901 2013/11/27)

>  <Rbt.Parameter_File>
/export/apps/rDock/src/rDock_2013.1_src/data/scripts/dock_solv.prm

>  <Rbt.Receptor>
prm/pocket_docking_7.prm

>  <SCORE>
-12.0011

>  <SCORE.INTER>
-7.42318

>  <SCORE.INTER.CONST>
1

>  <SCORE.INTER.POLAR>
0

>  <SCORE.INTER.ROT>
6

>  <SCORE.INTER.SOLV>
12.1155

>  <SCORE.INTER.VDW>
-16.5873

>  <SCORE.INTER.norm>
-0.218329

>  <SCORE.INTRA>
-4.57791

>  <SCORE.INTRA.DIHEDRAL>
-9.71739

>  <SCORE.INTRA.DIHEDRAL.0>
19.5869

>  <SCORE.INTRA.POLAR>
0

>  <SCORE.INTRA.POLAR.0>
0

>  <SCORE.INTRA.REPUL>
0

>  <SCORE.INTRA.REPUL.0>
0

>  <SCORE.INTRA.SOLV>
0.947009

>  <SCORE.INTRA.SOLV.lig_0>
-70.101

>  <SCORE.INTRA.VDW>
-0.192719

>  <SCORE.INTRA.VDW.0>
-3.39718

>  <SCORE.INTRA.norm>
-0.134644

>  <SCORE.RESTR>
0

>  <SCORE.RESTR.CAVITY>
0

>  <SCORE.RESTR.norm>
0

>  <SCORE.SYSTEM>
0

>  <SCORE.SYSTEM.CONST>
0

>  <SCORE.SYSTEM.DIHEDRAL>
0

>  <SCORE.SYSTEM.SOLV>
0

>  <SCORE.SYSTEM.norm>
0

>  <SCORE.heavy>
34

>  <SCORE.norm>
-0.352973

>  <RMSD>
8.043

$$$$
ligand
 OpenBabel11021811483D
libRbt.so/2013.1/901 2013/11/27
 34 36  0  0  0  0  0  0  0  0999 V2000
   13.0190    4.2135    5.0676 C   0  0  2  0  0  0  0  0  0  0  0  0
   11.6702    3.7310    5.1708 O   0  0  0  0  0  0  0  0  0  0  0  0
    9.1132    3.7697    8.5945 C   0  0  2  0  0  0  0  0  0  0  0  0
    8.5289    3.4491    9.8922 N   0  0  0  0  0  0  0  0  0  0  0  0
   10.1562    5.5363   10.9316 C   0  0  2  0  0  0  0  0  0  0  0  0
   13.2447    4.7105    3.5950 C   0  0  2  0  0  0  0  0  0  0  0  0
   12.3214    5.8046    3.2564 N   0  0  0  0  0  0  0  0  0  0  0  0
    9.1898    2.4388    7.7743 C   0  0  0  0  0  0  0  0  0  0  0  0
   10.2323    7.0053   11.4823 C   0  0  2  0  0  0  0  0  0  0  0  0
    9.2892    7.8220   10.8082 O   0  0  0  0  0  0  0  0  0  0  0  0
   13.0408    3.5301    2.6205 C   0  0  1  0  0  0  0  0  0  0  0  0
   13.2537    3.9761    1.2712 O   0  0  0  0  0  0  0  0  0  0  0  0
    9.7955    2.7861    6.3724 C   0  0  2  0  0  0  0  0  0  0  0  0
    9.8993    1.5635    5.5501 N   0  0  0  0  0  0  0  0  0  0  0  0
   11.7000    7.5465   11.2765 C   0  0  1  0  0  0  0  0  0  0  0  0
   11.8212    8.9507   11.7715 N   0  0  0  0  0  0  0  0  0  0  0  0
   14.0162    2.3922    3.0042 C   0  0  2  0  0  0  0  0  0  0  0  0
   13.8303    1.2804    2.1110 O   0  0  0  0  0  0  0  0  0  0  0  0
   11.2049    3.4149    6.5172 C   0  0  2  0  0  0  0  0  0  0  0  0
   12.6992    6.6113   12.0398 C   0  0  1  0  0  0  0  0  0  0  0  0
   12.4036    6.6323   13.4339 O   0  0  0  0  0  0  0  0  0  0  0  0
   13.7543    1.9517    4.4949 C   0  0  2  0  0  0  0  0  0  0  0  0
   13.9289    3.1060    5.3979 O   0  0  0  0  0  0  0  0  0  0  0  0
   11.1097    4.6940    7.3861 C   0  0  2  0  0  0  0  0  0  0  0  0
   12.4166    5.2431    7.5204 O   0  0  0  0  0  0  0  0  0  0  0  0
   12.5353    5.1568   11.4968 C   0  0  0  0  0  0  0  0  0  0  0  0
   11.1330    4.6967   11.6388 O   0  0  0  0  0  0  0  0  0  0  0  0
   14.7229    0.8272    4.9455 C   0  0  2  0  0  0  0  0  0  0  0  0
   14.5978   -0.2873    4.0660 O   0  0  0  0  0  0  0  0  0  0  0  0
   10.5632    4.3740    8.7969 C   0  0  1  0  0  0  0  0  0  0  0  0
   10.5067    5.6250    9.5222 O   0  0  0  0  0  0  0  0  0  0  0  0
   14.4106    0.3514    6.3546 C   0  0  0  0  0  0  0  0  0  0  0  0
   14.1459    7.0576   11.8678 C   0  0  0  0  0  0  0  0  0  0  0  0
   12.0303    9.8345   10.6087 C   0  0  0  0  0  0  0  0  0  0  0  0
  1  2  1  6  0  0  0
  1  6  1  0  0  0  0
  1 23  1  0  0  0  0
  3  4  1  1  0  0  0
  3  8  1  0  0  0  0
  3 30  1  0  0  0  0
  5  9  1  0  0  0  0
  5 27  1  0  0  0  0
  5 31  1  6  0  0  0
  6  7  1  6  0  0  0
  6 11  1  0  0  0  0
  8 13  1  0  0  0  0
  9 10  1  6  0  0  0
  9 15  1  0  0  0  0
 11 12  1  6  0  0  0
 11 17  1  0  0  0  0
 13 14  1  6  0  0  0
 13 19  1  0  0  0  0
 15 16  1  1  0  0  0
 15 20  1  0  0  0  0
 16 34  1  0  0  0  0
 17 18  1  6  0  0  0
 17 22  1  0  0  0  0
 19  2  1  6  0  0  0
 19 24  1  0  0  0  0
 20 21  1  1  0  0  0
 20 26  1  0  0  0  0
 20 33  1  0  0  0  0
 22 23  1  1  0  0  0
 22 28  1  0  0  0  0
 24 25  1  1  0  0  0
 24 30  1  0  0  0  0
 26 27  1  0  0  0  0
 28 29  1  6  0  0  0
 28 32  1  0  0  0  0
 30 31  1  1  0  0  0
M  END
>  <CHROM.1>
-170.95857425,-174.42056263,-111.74329014,-57.12884086,70.58376474,177.45909526
11.97432205,4.40602790,7.54587403,-1.25127703,0.79948810,0.80452618

>  <Name>
ligand

>  <RI>
0

>  <Rbt.Current_Directory>
/home/itssahil/PROJECTS/Mol_Feturizer/New_Systems/rnas/3TD1

>  <Rbt.Executable>
rbdock ($Id: //depot/dev/client3/rdock/2013.1/src/exe/rbdock.cxx#4 $)

>  <Rbt.Library>
libRbt.so (2013.1, Build901 2013/11/27)

>  <Rbt.Parameter_File>
/export/apps/rDock/src/rDock_2013.1_src/data/scripts/dock_solv.prm

>  <Rbt.Receptor>
prm/pocket_docking_7.prm

>  <SCORE>
-10.4978

>  <SCORE.INTER>
-1.67467

>  <SCORE.INTER.CONST>
1

>  <SCORE.INTER.POLAR>
0

>  <SCORE.INTER.ROT>
6

>  <SCORE.INTER.SOLV>
9.16308

>  <SCORE.INTER.VDW>
-11.7708

>  <SCORE.INTER.norm>
-0.0492551

>  <SCORE.INTRA>
-8.82309

>  <SCORE.INTRA.DIHEDRAL>
-17.2246

>  <SCORE.INTRA.DIHEDRAL.0>
19.5869

>  <SCORE.INTRA.POLAR>
0

>  <SCORE.INTRA.POLAR.0>
0

>  <SCORE.INTRA.REPUL>
0

>  <SCORE.INTRA.REPUL.0>
0

>  <SCORE.INTRA.SOLV>
-1.95232

>  <SCORE.INTRA.SOLV.lig_0>
-70.101

>  <SCORE.INTRA.VDW>
0.765384

>  <SCORE.INTRA.VDW.0>
-3.39718

>  <SCORE.INTRA.norm>
-0.259503

>  <SCORE.RESTR>
0

>  <SCORE.RESTR.CAVITY>
0

>  <SCORE.RESTR.norm>
0

>  <SCORE.SYSTEM>
0

>  <SCORE.SYSTEM.CONST>
0

>  <SCORE.SYSTEM.DIHEDRAL>
0

>  <SCORE.SYSTEM.SOLV>
0

>  <SCORE.SYSTEM.norm>
0

>  <SCORE.heavy>
34

>  <SCORE.norm>
-0.308758

>  <RMSD>
8.096

$$$$
ligand
 OpenBabel11021811483D
libRbt.so/2013.1/901 2013/11/27
 34 36  0  0  0  0  0  0  0  0999 V2000
   11.3845    6.7066   11.9659 C   0  0  2  0  0  0  0  0  0  0  0  0
    9.9568    6.8511   12.0250 O   0  0  0  0  0  0  0  0  0  0  0  0
    9.1645    2.7868   10.9690 C   0  0  2  0  0  0  0  0  0  0  0  0
    8.4614    1.5474   10.6562 N   0  0  0  0  0  0  0  0  0  0  0  0
    8.6582    2.3376    7.9401 C   0  0  2  0  0  0  0  0  0  0  0  0
   12.0014    7.4858   13.1819 C   0  0  2  0  0  0  0  0  0  0  0  0
   11.5211    6.9403   14.4609 N   0  0  0  0  0  0  0  0  0  0  0  0
    8.6523    3.2757   12.3648 C   0  0  0  0  0  0  0  0  0  0  0  0
    9.4600    2.0217    6.6269 C   0  0  2  0  0  0  0  0  0  0  0  0
   10.7844    1.6338    6.9527 O   0  0  0  0  0  0  0  0  0  0  0  0
   11.6272    8.9800   13.0742 C   0  0  1  0  0  0  0  0  0  0  0  0
   12.1954    9.7007   14.1799 O   0  0  0  0  0  0  0  0  0  0  0  0
    9.4235    4.5939   12.7120 C   0  0  2  0  0  0  0  0  0  0  0  0
    8.9772    5.1102   14.0219 N   0  0  0  0  0  0  0  0  0  0  0  0
    9.4547    3.3061    5.7105 C   0  0  1  0  0  0  0  0  0  0  0  0
   10.2205    3.0617    4.4515 N   0  0  0  0  0  0  0  0  0  0  0  0
   12.1354    9.5251   11.7184 C   0  0  2  0  0  0  0  0  0  0  0  0
   11.7844   10.9147   11.5989 O   0  0  0  0  0  0  0  0  0  0  0  0
    9.1783    5.6805   11.6341 C   0  0  2  0  0  0  0  0  0  0  0  0
    7.9717    3.6903    5.3809 C   0  0  1  0  0  0  0  0  0  0  0  0
    7.3497    2.6256    4.6662 O   0  0  0  0  0  0  0  0  0  0  0  0
   11.4982    8.6921   10.5416 C   0  0  2  0  0  0  0  0  0  0  0  0
   11.8497    7.2662   10.6876 O   0  0  0  0  0  0  0  0  0  0  0  0
    9.6346    5.1464   10.2533 C   0  0  2  0  0  0  0  0  0  0  0  0
    9.3832    6.1527    9.2779 O   0  0  0  0  0  0  0  0  0  0  0  0
    7.2086    3.9305    6.7215 C   0  0  0  0  0  0  0  0  0  0  0  0
    7.2863    2.7337    7.5933 O   0  0  0  0  0  0  0  0  0  0  0  0
   11.9925    9.1781    9.1540 C   0  0  2  0  0  0  0  0  0  0  0  0
   11.3187    8.4519    8.1294 O   0  0  0  0  0  0  0  0  0  0  0  0
    8.8522    3.8722    9.8586 C   0  0  1  0  0  0  0  0  0  0  0  0
    9.3526    3.4518    8.5675 O   0  0  0  0  0  0  0  0  0  0  0  0
   13.4862    8.9557    8.9830 C   0  0  0  0  0  0  0  0  0  0  0  0
    7.8835    4.9410    4.5151 C   0  0  0  0  0  0  0  0  0  0  0  0
   11.5159    3.7604    4.5549 C   0  0  0  0  0  0  0  0  0  0  0  0
  1  2  1  6  0  0  0
  1  6  1  0  0  0  0
  1 23  1  0  0  0  0
  3  4  1  6  0  0  0
  3  8  1  0  0  0  0
  3 30  1  0  0  0  0
  5  9  1  0  0  0  0
  5 27  1  0  0  0  0
  5 31  1  6  0  0  0
  6  7  1  1  0  0  0
  6 11  1  0  0  0  0
  8 13  1  0  0  0  0
  9 10  1  1  0  0  0
  9 15  1  0  0  0  0
 11 12  1  1  0  0  0
 11 17  1  0  0  0  0
 13 14  1  1  0  0  0
 13 19  1  0  0  0  0
 15 16  1  6  0  0  0
 15 20  1  0  0  0  0
 16 34  1  0  0  0  0
 17 18  1  6  0  0  0
 17 22  1  0  0  0  0
 19  2  1  1  0  0  0
 19 24  1  0  0  0  0
 20 21  1  6  0  0  0
 20 26  1  0  0  0  0
 20 33  1  0  0  0  0
 22 23  1  1  0  0  0
 22 28  1  0  0  0  0
 24 25  1  6  0  0  0
 24 30  1  0  0  0  0
 26 27  1  0  0  0  0
 28 29  1  6  0  0  0
 28 32  1  0  0  0  0
 30 31  1  6  0  0  0
M  END
>  <CHROM.1>
-142.66681019,67.63503622,-105.06123798,-176.15635507,69.97833895,-175.80579607
10.05748800,5.47371268,9.52582423,0.86894478,1.04964349,1.47739277

>  <Name>
ligand

>  <RI>
0

>  <Rbt.Current_Directory>
/home/itssahil/PROJECTS/Mol_Feturizer/New_Systems/rnas/3TD1

>  <Rbt.Executable>
rbdock ($Id: //depot/dev/client3/rdock/2013.1/src/exe/rbdock.cxx#4 $)

>  <Rbt.Library>
libRbt.so (2013.1, Build901 2013/11/27)

>  <Rbt.Parameter_File>
/export/apps/rDock/src/rDock_2013.1_src/data/scripts/dock_solv.prm

>  <Rbt.Receptor>
prm/pocket_docking_7.prm

>  <SCORE>
-9.45363

>  <SCORE.INTER>
-4.38355

>  <SCORE.INTER.CONST>
1

>  <SCORE.INTER.POLAR>
0

>  <SCORE.INTER.ROT>
6

>  <SCORE.INTER.SOLV>
10.0901

>  <SCORE.INTER.VDW>
-13.8857

>  <SCORE.INTER.norm>
-0.128928

>  <SCORE.INTRA>
-5.07008

>  <SCORE.INTRA.DIHEDRAL>
-12.6385

>  <SCORE.INTRA.DIHEDRAL.0>
19.5869

>  <SCORE.INTRA.POLAR>
0

>  <SCORE.INTRA.POLAR.0>
0

>  <SCORE.INTRA.REPUL>
0

>  <SCORE.INTRA.REPUL.0>
0

>  <SCORE.INTRA.SOLV>
0.70177

>  <SCORE.INTRA.SOLV.lig_0>
-70.101

>  <SCORE.INTRA.VDW>
0.898291

>  <SCORE.INTRA.VDW.0>
-3.39718

>  <SCORE.INTRA.norm>
-0.14912

>  <SCORE.RESTR>
0

>  <SCORE.RESTR.CAVITY>
0

>  <SCORE.RESTR.norm>
0

>  <SCORE.SYSTEM>
0

>  <SCORE.SYSTEM.CONST>
0

>  <SCORE.SYSTEM.DIHEDRAL>
0

>  <SCORE.SYSTEM.SOLV>
0

>  <SCORE.SYSTEM.norm>
0

>  <SCORE.heavy>
34

>  <SCORE.norm>
-0.278048

>  <RMSD>
8.107

$$$$
ligand
 OpenBabel11021811483D
libRbt.so/2013.1/901 2013/11/27
 34 36  0  0  0  0  0  0  0  0999 V2000
   10.5728    5.5852    4.2250 C   0  0  2  0  0  0  0  0  0  0  0  0
    9.4268    4.8438    3.7784 O   0  0  0  0  0  0  0  0  0  0  0  0
    6.9366    6.1307    7.0039 C   0  0  2  0  0  0  0  0  0  0  0  0
    5.7614    6.4113    7.8214 N   0  0  0  0  0  0  0  0  0  0  0  0
    6.5924    2.7144    8.3753 C   0  0  2  0  0  0  0  0  0  0  0  0
   11.4887    5.8593    2.9790 C   0  0  2  0  0  0  0  0  0  0  0  0
   10.7784    6.6495    1.9615 N   0  0  0  0  0  0  0  0  0  0  0  0
    6.7109    6.8093    5.6117 C   0  0  0  0  0  0  0  0  0  0  0  0
    6.5276    2.5922    9.9399 C   0  0  2  0  0  0  0  0  0  0  0  0
    5.8457    3.7109   10.4826 O   0  0  0  0  0  0  0  0  0  0  0  0
   11.9456    4.5136    2.3749 C   0  0  1  0  0  0  0  0  0  0  0  0
   12.7908    4.7571    1.2386 O   0  0  0  0  0  0  0  0  0  0  0  0
    7.9822    6.5282    4.7413 C   0  0  2  0  0  0  0  0  0  0  0  0
    7.8263    7.1411    3.4065 N   0  0  0  0  0  0  0  0  0  0  0  0
    7.9994    2.4989   10.5007 C   0  0  1  0  0  0  0  0  0  0  0  0
    7.9930    2.3967   11.9909 N   0  0  0  0  0  0  0  0  0  0  0  0
   12.6805    3.7005    3.4669 C   0  0  2  0  0  0  0  0  0  0  0  0
   13.1031    2.4386    2.9214 O   0  0  0  0  0  0  0  0  0  0  0  0
    8.2119    5.0047    4.5704 C   0  0  2  0  0  0  0  0  0  0  0  0
    8.7057    1.2495    9.8715 C   0  0  1  0  0  0  0  0  0  0  0  0
    8.0060    0.0658   10.2461 O   0  0  0  0  0  0  0  0  0  0  0  0
   11.7190    3.4759    4.6956 C   0  0  2  0  0  0  0  0  0  0  0  0
   11.2775    4.7778    5.2326 O   0  0  0  0  0  0  0  0  0  0  0  0
    8.3680    4.3492    5.9654 C   0  0  2  0  0  0  0  0  0  0  0  0
    8.5592    2.9499    5.7845 O   0  0  0  0  0  0  0  0  0  0  0  0
    8.6848    1.3945    8.3172 C   0  0  0  0  0  0  0  0  0  0  0  0
    7.2960    1.5493    7.8215 O   0  0  0  0  0  0  0  0  0  0  0  0
   12.4117    2.6857    5.8365 C   0  0  2  0  0  0  0  0  0  0  0  0
   12.8198    1.4098    5.3498 O   0  0  0  0  0  0  0  0  0  0  0  0
    7.1047    4.5653    6.8308 C   0  0  1  0  0  0  0  0  0  0  0  0
    7.3512    3.9263    8.1057 O   0  0  0  0  0  0  0  0  0  0  0  0
   11.4740    2.4626    7.0115 C   0  0  0  0  0  0  0  0  0  0  0  0
   10.1455    1.1054   10.3489 C   0  0  0  0  0  0  0  0  0  0  0  0
    8.6652    3.5902   12.5393 C   0  0  0  0  0  0  0  0  0  0  0  0
  1  2  1  6  0  0  0
  1  6  1  0  0  0  0
  1 23  1  0  0  0  0
  3  4  1  1  0  0  0
  3  8  1  0  0  0  0
  3 30  1  0  0  0  0
  5  9  1  0  0  0  0
  5 27  1  0  0  0  0
  5 31  1  1  0  0  0
  6  7  1  6  0  0  0
  6 11  1  0  0  0  0
  8 13  1  0  0  0  0
  9 10  1  1  0  0  0
  9 15  1  0  0  0  0
 11 12  1  6  0  0  0
 11 17  1  0  0  0  0
 13 14  1  6  0  0  0
 13 19  1  0  0  0  0
 15 16  1  1  0  0  0
 15 20  1  0  0  0  0
 16 34  1  0  0  0  0
 17 18  1  6  0  0  0
 17 22  1  0  0  0  0
 19  2  1  6  0  0  0
 19 24  1  0  0  0  0
 20 21  1  1  0  0  0
 20 26  1  0  0  0  0
 20 33  1  0  0  0  0
 22 23  1  1  0  0  0
 22 28  1  0  0  0  0
 24 25  1  6  0  0  0
 24 30  1  0  0  0  0
 26 27  1  0  0  0  0
 28 29  1  6  0  0  0
 28 32  1  0  0  0  0
 30 31  1  1  0  0  0
M  END
>  <CHROM.1>
-152.98717560,50.10444245,-116.63833656,-59.98305765,134.71608546,-155.39962821
9.25040436,3.77465160,6.52105039,0.99117339,0.58320991,-0.91623261

>  <Name>
ligand

>  <RI>
0

>  <Rbt.Current_Directory>
/home/itssahil/PROJECTS/Mol_Feturizer/New_Systems/rnas/3TD1

>  <Rbt.Executable>
rbdock ($Id: //depot/dev/client3/rdock/2013.1/src/exe/rbdock.cxx#4 $)

>  <Rbt.Library>
libRbt.so (2013.1, Build901 2013/11/27)

>  <Rbt.Parameter_File>
/export/apps/rDock/src/rDock_2013.1_src/data/scripts/dock_solv.prm

>  <Rbt.Receptor>
prm/pocket_docking_7.prm

>  <SCORE>
-8.42343

>  <SCORE.INTER>
-5.51269

>  <SCORE.INTER.CONST>
1

>  <SCORE.INTER.POLAR>
0

>  <SCORE.INTER.ROT>
6

>  <SCORE.INTER.SOLV>
12.2397

>  <SCORE.INTER.VDW>
-15.355

>  <SCORE.INTER.norm>
-0.162138

>  <SCORE.INTRA>
-2.91074

>  <SCORE.INTRA.DIHEDRAL>
-6.13423

>  <SCORE.INTRA.DIHEDRAL.0>
19.5869

>  <SCORE.INTRA.POLAR>
0

>  <SCORE.INTRA.POLAR.0>
0

>  <SCORE.INTRA.REPUL>
0

>  <SCORE.INTRA.REPUL.0>
0

>  <SCORE.INTRA.SOLV>
0.0434131

>  <SCORE.INTRA.SOLV.lig_0>
-70.101

>  <SCORE.INTRA.VDW>
0.134669

>  <SCORE.INTRA.VDW.0>
-3.39718

>  <SCORE.INTRA.norm>
-0.08561

>  <SCORE.RESTR>
0

>  <SCORE.RESTR.CAVITY>
0

>  <SCORE.RESTR.norm>
0

>  <SCORE.SYSTEM>
0

>  <SCORE.SYSTEM.CONST>
0

>  <SCORE.SYSTEM.DIHEDRAL>
0

>  <SCORE.SYSTEM.SOLV>
0

>  <SCORE.SYSTEM.norm>
0

>  <SCORE.heavy>
34

>  <SCORE.norm>
-0.247748

>  <RMSD>
8.122

$$$$
ligand
 OpenBabel11021811483D
libRbt.so/2013.1/901 2013/11/27
 34 36  0  0  0  0  0  0  0  0999 V2000
   14.4408    4.7471    7.3807 C   0  0  2  0  0  0  0  0  0  0  0  0
   13.0647    4.3641    7.2312 O   0  0  0  0  0  0  0  0  0  0  0  0
   10.6034    5.5502    3.9453 C   0  0  2  0  0  0  0  0  0  0  0  0
    9.7068    6.3233    3.0930 N   0  0  0  0  0  0  0  0  0  0  0  0
   13.7146    7.4191    2.7351 C   0  0  2  0  0  0  0  0  0  0  0  0
   15.0942    3.7998    8.4495 C   0  0  2  0  0  0  0  0  0  0  0  0
   15.0361    2.3942    8.0194 N   0  0  0  0  0  0  0  0  0  0  0  0
    9.9104    5.4021    5.3408 C   0  0  0  0  0  0  0  0  0  0  0  0
   13.0375    8.7130    2.1568 C   0  0  2  0  0  0  0  0  0  0  0  0
   12.0284    9.1662    3.0439 O   0  0  0  0  0  0  0  0  0  0  0  0
   14.3604    3.9677    9.7977 C   0  0  1  0  0  0  0  0  0  0  0  0
   14.9585    3.1094   10.7828 O   0  0  0  0  0  0  0  0  0  0  0  0
   10.8620    4.5524    6.2493 C   0  0  2  0  0  0  0  0  0  0  0  0
   10.2629    4.3823    7.5886 N   0  0  0  0  0  0  0  0  0  0  0  0
   12.4353    8.3767    0.7377 C   0  0  1  0  0  0  0  0  0  0  0  0
   11.7640    9.5745    0.1497 N   0  0  0  0  0  0  0  0  0  0  0  0
   14.4290    5.4541   10.2213 C   0  0  2  0  0  0  0  0  0  0  0  0
   13.7396    5.6282   11.4716 O   0  0  0  0  0  0  0  0  0  0  0  0
   12.2435    5.2390    6.4008 C   0  0  2  0  0  0  0  0  0  0  0  0
   13.5889    7.8826   -0.2008 C   0  0  1  0  0  0  0  0  0  0  0  0
   14.5552    8.9184   -0.3565 O   0  0  0  0  0  0  0  0  0  0  0  0
   13.7774    6.3532    9.1025 C   0  0  2  0  0  0  0  0  0  0  0  0
   14.4813    6.1499    7.8213 O   0  0  0  0  0  0  0  0  0  0  0  0
   12.8779    5.4310    5.0006 C   0  0  2  0  0  0  0  0  0  0  0  0
   14.1354    6.0787    5.1630 O   0  0  0  0  0  0  0  0  0  0  0  0
   14.2650    6.6365    0.4530 C   0  0  0  0  0  0  0  0  0  0  0  0
   14.7616    6.9595    1.8122 O   0  0  0  0  0  0  0  0  0  0  0  0
   13.8402    7.8609    9.4612 C   0  0  2  0  0  0  0  0  0  0  0  0
   13.1071    8.0940   10.6610 O   0  0  0  0  0  0  0  0  0  0  0  0
   11.9843    6.3113    4.0962 C   0  0  1  0  0  0  0  0  0  0  0  0
   12.6561    6.4243    2.8194 O   0  0  0  0  0  0  0  0  0  0  0  0
   13.2344    8.7222    8.3654 C   0  0  0  0  0  0  0  0  0  0  0  0
   13.0792    7.5141   -1.5887 C   0  0  0  0  0  0  0  0  0  0  0  0
   10.3408    9.2491   -0.0634 C   0  0  0  0  0  0  0  0  0  0  0  0
  1  2  1  1  0  0  0
  1  6  1  0  0  0  0
  1 23  1  0  0  0  0
  3  4  1  6  0  0  0
  3  8  1  0  0  0  0
  3 30  1  0  0  0  0
  5  9  1  0  0  0  0
  5 27  1  0  0  0  0
  5 31  1  6  0  0  0
  6  7  1  6  0  0  0
  6 11  1  0  0  0  0
  8 13  1  0  0  0  0
  9 10  1  1  0  0  0
  9 15  1  0  0  0  0
 11 12  1  1  0  0  0
 11 17  1  0  0  0  0
 13 14  1  1  0  0  0
 13 19  1  0  0  0  0
 15 16  1  6  0  0  0
 15 20  1  0  0  0  0
 16 34  1  0  0  0  0
 17 18  1  1  0  0  0
 17 22  1  0  0  0  0
 19  2  1  1  0  0  0
 19 24  1  0  0  0  0
 20 21  1  6  0  0  0
 20 26  1  0  0  0  0
 20 33  1  0  0  0  0
 22 23  1  6  0  0  0
 22 28  1  0  0  0  0
 24 25  1  1  0  0  0
 24 30  1  0  0  0  0
 26 27  1  0  0  0  0
 28 29  1  1  0  0  0
 28 32  1  0  0  0  0
 30 31  1  6  0  0  0
M  END
>  <CHROM.1>
172.57772075,173.62295327,-119.25589967,-61.61105711,162.54307651,-94.60085136
13.03081397,6.39813664,5.22729778,-1.43782278,0.23321542,-1.27730010

>  <Name>
ligand

>  <RI>
0

>  <Rbt.Current_Directory>
/home/itssahil/PROJECTS/Mol_Feturizer/New_Systems/rnas/3TD1

>  <Rbt.Executable>
rbdock ($Id: //depot/dev/client3/rdock/2013.1/src/exe/rbdock.cxx#4 $)

>  <Rbt.Library>
libRbt.so (2013.1, Build901 2013/11/27)

>  <Rbt.Parameter_File>
/export/apps/rDock/src/rDock_2013.1_src/data/scripts/dock_solv.prm

>  <Rbt.Receptor>
prm/pocket_docking_8.prm

>  <SCORE>
-8.98864

>  <SCORE.INTER>
-3.71487

>  <SCORE.INTER.CONST>
1

>  <SCORE.INTER.POLAR>
0

>  <SCORE.INTER.ROT>
6

>  <SCORE.INTER.SOLV>
8.39399

>  <SCORE.INTER.VDW>
-12.8746

>  <SCORE.INTER.norm>
-0.109261

>  <SCORE.INTRA>
-5.27376

>  <SCORE.INTRA.DIHEDRAL>
-12.014

>  <SCORE.INTRA.DIHEDRAL.0>
19.5869

>  <SCORE.INTRA.POLAR>
0

>  <SCORE.INTRA.POLAR.0>
0

>  <SCORE.INTRA.REPUL>
0

>  <SCORE.INTRA.REPUL.0>
0

>  <SCORE.INTRA.SOLV>
-2.21579

>  <SCORE.INTRA.SOLV.lig_0>
-70.101

>  <SCORE.INTRA.VDW>
1.84111

>  <SCORE.INTRA.VDW.0>
-3.39718

>  <SCORE.INTRA.norm>
-0.155111

>  <SCORE.RESTR>
0

>  <SCORE.RESTR.CAVITY>
0

>  <SCORE.RESTR.norm>
0

>  <SCORE.SYSTEM>
0

>  <SCORE.SYSTEM.CONST>
0

>  <SCORE.SYSTEM.DIHEDRAL>
0

>  <SCORE.SYSTEM.SOLV>
0

>  <SCORE.SYSTEM.norm>
0

>  <SCORE.heavy>
34

>  <SCORE.norm>
-0.264372

>  <RMSD>
8.147

$$$$
ligand
 OpenBabel11021811483D
libRbt.so/2013.1/901 2013/11/27
 34 36  0  0  0  0  0  0  0  0999 V2000
   10.1103    7.4709    1.3207 C   0  0  2  0  0  0  0  0  0  0  0  0
   10.8170    8.0963    2.4033 O   0  0  0  0  0  0  0  0  0  0  0  0
   14.3567    5.7613    1.8741 C   0  0  2  0  0  0  0  0  0  0  0  0
   15.7408    5.3060    1.9457 N   0  0  0  0  0  0  0  0  0  0  0  0
   12.6004    3.5366    3.3073 C   0  0  2  0  0  0  0  0  0  0  0  0
    9.4672    8.6034    0.4430 C   0  0  2  0  0  0  0  0  0  0  0  0
   10.4978    9.4936   -0.1135 N   0  0  0  0  0  0  0  0  0  0  0  0
   14.3732    7.2222    1.3126 C   0  0  0  0  0  0  0  0  0  0  0  0
   12.6271    2.2299    4.1785 C   0  0  2  0  0  0  0  0  0  0  0  0
   12.3448    2.5470    5.5314 O   0  0  0  0  0  0  0  0  0  0  0  0
    8.4784    9.4183    1.3048 C   0  0  1  0  0  0  0  0  0  0  0  0
    7.8802   10.4518    0.5056 O   0  0  0  0  0  0  0  0  0  0  0  0
   12.8861    7.7035    1.2135 C   0  0  2  0  0  0  0  0  0  0  0  0
   12.8358    9.0849    0.6930 N   0  0  0  0  0  0  0  0  0  0  0  0
   14.0481    1.5584    4.0384 C   0  0  1  0  0  0  0  0  0  0  0  0
   14.1305    0.3159    4.8634 N   0  0  0  0  0  0  0  0  0  0  0  0
    7.4126    8.4580    1.8839 C   0  0  2  0  0  0  0  0  0  0  0  0
    6.4898    9.2018    2.6985 O   0  0  0  0  0  0  0  0  0  0  0  0
   12.1967    7.6644    2.6013 C   0  0  2  0  0  0  0  0  0  0  0  0
   14.3089    1.2289    2.5288 C   0  0  1  0  0  0  0  0  0  0  0  0
   13.3276    0.3055    2.0646 O   0  0  0  0  0  0  0  0  0  0  0  0
    8.1194    7.3357    2.7357 C   0  0  2  0  0  0  0  0  0  0  0  0
    9.0774    6.5938    1.8931 O   0  0  0  0  0  0  0  0  0  0  0  0
   12.2514    6.2211    3.1615 C   0  0  2  0  0  0  0  0  0  0  0  0
   11.6297    6.2135    4.4424 O   0  0  0  0  0  0  0  0  0  0  0  0
   14.2078    2.5510    1.7046 C   0  0  0  0  0  0  0  0  0  0  0  0
   12.8891    3.1979    1.9069 O   0  0  0  0  0  0  0  0  0  0  0  0
    7.0995    6.3251    3.3226 C   0  0  2  0  0  0  0  0  0  0  0  0
    6.2034    7.0083    4.1952 O   0  0  0  0  0  0  0  0  0  0  0  0
   13.7113    5.7364    3.3203 C   0  0  1  0  0  0  0  0  0  0  0  0
   13.6546    4.3868    3.8394 O   0  0  0  0  0  0  0  0  0  0  0  0
    7.7912    5.2323    4.1207 C   0  0  0  0  0  0  0  0  0  0  0  0
   15.6779    0.5970    2.3092 C   0  0  0  0  0  0  0  0  0  0  0  0
   15.5003    0.2075    5.4008 C   0  0  0  0  0  0  0  0  0  0  0  0
  1  2  1  1  0  0  0
  1  6  1  0  0  0  0
  1 23  1  0  0  0  0
  3  4  1  1  0  0  0
  3  8  1  0  0  0  0
  3 30  1  0  0  0  0
  5  9  1  0  0  0  0
  5 27  1  0  0  0  0
  5 31  1  1  0  0  0
  6  7  1  1  0  0  0
  6 11  1  0  0  0  0
  8 13  1  0  0  0  0
  9 10  1  1  0  0  0
  9 15  1  0  0  0  0
 11 12  1  6  0  0  0
 11 17  1  0  0  0  0
 13 14  1  1  0  0  0
 13 19  1  0  0  0  0
 15 16  1  1  0  0  0
 15 20  1  0  0  0  0
 16 34  1  0  0  0  0
 17 18  1  1  0  0  0
 17 22  1  0  0  0  0
 19  2  1  6  0  0  0
 19 24  1  0  0  0  0
 20 21  1  6  0  0  0
 20 26  1  0  0  0  0
 20 33  1  0  0  0  0
 22 23  1  6  0  0  0
 22 28  1  0  0  0  0
 24 25  1  1  0  0  0
 24 30  1  0  0  0  0
 26 27  1  0  0  0  0
 28 29  1  1  0  0  0
 28 32  1  0  0  0  0
 30 31  1  6  0  0  0
M  END
>  <CHROM.1>
-129.26673984,48.20114026,-144.61124529,-61.55589614,-77.03135273,-171.70625819
11.57403890,5.49286294,2.64256309,-2.30932833,-0.29873148,2.64845716

>  <Name>
ligand

>  <RI>
0

>  <Rbt.Current_Directory>
/home/itssahil/PROJECTS/Mol_Feturizer/New_Systems/rnas/3TD1

>  <Rbt.Executable>
rbdock ($Id: //depot/dev/client3/rdock/2013.1/src/exe/rbdock.cxx#4 $)

>  <Rbt.Library>
libRbt.so (2013.1, Build901 2013/11/27)

>  <Rbt.Parameter_File>
/export/apps/rDock/src/rDock_2013.1_src/data/scripts/dock_solv.prm

>  <Rbt.Receptor>
prm/blind_docking_20.prm

>  <SCORE>
5.25555

>  <SCORE.INTER>
-5.69085

>  <SCORE.INTER.CONST>
1

>  <SCORE.INTER.POLAR>
0

>  <SCORE.INTER.ROT>
6

>  <SCORE.INTER.SOLV>
19.8754

>  <SCORE.INTER.VDW>
-18.019

>  <SCORE.INTER.norm>
-0.167378

>  <SCORE.INTRA>
0.973228

>  <SCORE.INTRA.DIHEDRAL>
-9.63783

>  <SCORE.INTRA.DIHEDRAL.0>
19.5869

>  <SCORE.INTRA.POLAR>
0

>  <SCORE.INTRA.POLAR.0>
0

>  <SCORE.INTRA.REPUL>
0

>  <SCORE.INTRA.REPUL.0>
0

>  <SCORE.INTRA.SOLV>
2.69968

>  <SCORE.INTRA.SOLV.lig_0>
-70.101

>  <SCORE.INTRA.VDW>
4.4423

>  <SCORE.INTRA.VDW.0>
-3.39718

>  <SCORE.INTRA.norm>
0.0286244

>  <SCORE.RESTR>
9.97317

>  <SCORE.RESTR.CAVITY>
9.97317

>  <SCORE.RESTR.norm>
0.293328

>  <SCORE.SYSTEM>
0

>  <SCORE.SYSTEM.CONST>
0

>  <SCORE.SYSTEM.DIHEDRAL>
0

>  <SCORE.SYSTEM.SOLV>
0

>  <SCORE.SYSTEM.norm>
0

>  <SCORE.heavy>
34

>  <SCORE.norm>
0.154575

>  <RMSD>
8.148

$$$$
ligand
 OpenBabel11021811483D
libRbt.so/2013.1/901 2013/11/27
 34 36  0  0  0  0  0  0  0  0999 V2000
   11.2182    3.8903    4.4802 C   0  0  2  0  0  0  0  0  0  0  0  0
   11.8581    4.9448    5.2158 O   0  0  0  0  0  0  0  0  0  0  0  0
   10.3765    7.0333    8.6371 C   0  0  2  0  0  0  0  0  0  0  0  0
    9.6015    7.9341    9.4832 N   0  0  0  0  0  0  0  0  0  0  0  0
    7.7901    5.6860    9.8577 C   0  0  2  0  0  0  0  0  0  0  0  0
   12.3374    3.0376    3.7825 C   0  0  2  0  0  0  0  0  0  0  0  0
   13.2464    2.4417    4.7738 N   0  0  0  0  0  0  0  0  0  0  0  0
   11.0066    7.8938    7.4916 C   0  0  0  0  0  0  0  0  0  0  0  0
    7.2725    4.5434   10.8030 C   0  0  2  0  0  0  0  0  0  0  0  0
    8.3159    4.1228   11.6663 O   0  0  0  0  0  0  0  0  0  0  0  0
   13.1342    3.9365    2.8121 C   0  0  1  0  0  0  0  0  0  0  0  0
   14.1553    3.1605    2.1640 O   0  0  0  0  0  0  0  0  0  0  0  0
   11.8578    6.9314    6.5959 C   0  0  2  0  0  0  0  0  0  0  0  0
   12.4763    7.6874    5.4880 N   0  0  0  0  0  0  0  0  0  0  0  0
    6.7560    3.3471    9.9134 C   0  0  1  0  0  0  0  0  0  0  0  0
    6.2659    2.2244   10.7683 N   0  0  0  0  0  0  0  0  0  0  0  0
   12.1543    4.5563    1.7878 C   0  0  2  0  0  0  0  0  0  0  0  0
   12.8813    5.4055    0.8828 O   0  0  0  0  0  0  0  0  0  0  0  0
   10.9775    5.8017    6.0031 C   0  0  2  0  0  0  0  0  0  0  0  0
    5.6073    3.8644    8.9816 C   0  0  1  0  0  0  0  0  0  0  0  0
    4.5220    4.3347    9.7766 O   0  0  0  0  0  0  0  0  0  0  0  0
   11.0466    5.3807    2.5480 C   0  0  2  0  0  0  0  0  0  0  0  0
   10.3222    4.5022    3.4869 O   0  0  0  0  0  0  0  0  0  0  0  0
   10.3160    5.0070    7.1567 C   0  0  2  0  0  0  0  0  0  0  0  0
    9.4993    3.9882    6.5888 O   0  0  0  0  0  0  0  0  0  0  0  0
    6.1600    5.0377    8.1124 C   0  0  0  0  0  0  0  0  0  0  0  0
    6.7016    6.1187    8.9705 O   0  0  0  0  0  0  0  0  0  0  0  0
   10.0174    6.0066    1.5708 C   0  0  2  0  0  0  0  0  0  0  0  0
   10.6923    6.8713    0.6609 O   0  0  0  0  0  0  0  0  0  0  0  0
    9.4255    5.9221    8.0292 C   0  0  1  0  0  0  0  0  0  0  0  0
    8.8630    5.0933    9.0737 O   0  0  0  0  0  0  0  0  0  0  0  0
    8.9714    6.8253    2.3092 C   0  0  0  0  0  0  0  0  0  0  0  0
    5.0709    2.7667    8.0710 C   0  0  0  0  0  0  0  0  0  0  0  0
    7.4043    1.3308   11.0556 C   0  0  0  0  0  0  0  0  0  0  0  0
  1  2  1  6  0  0  0
  1  6  1  0  0  0  0
  1 23  1  0  0  0  0
  3  4  1  1  0  0  0
  3  8  1  0  0  0  0
  3 30  1  0  0  0  0
  5  9  1  0  0  0  0
  5 27  1  0  0  0  0
  5 31  1  6  0  0  0
  6  7  1  1  0  0  0
  6 11  1  0  0  0  0
  8 13  1  0  0  0  0
  9 10  1  1  0  0  0
  9 15  1  0  0  0  0
 11 12  1  6  0  0  0
 11 17  1  0  0  0  0
 13 14  1  6  0  0  0
 13 19  1  0  0  0  0
 15 16  1  1  0  0  0
 15 20  1  0  0  0  0
 16 34  1  0  0  0  0
 17 18  1  6  0  0  0
 17 22  1  0  0  0  0
 19  2  1  1  0  0  0
 19 24  1  0  0  0  0
 20 21  1  1  0  0  0
 20 26  1  0  0  0  0
 20 33  1  0  0  0  0
 22 23  1  1  0  0  0
 22 28  1  0  0  0  0
 24 25  1  6  0  0  0
 24 30  1  0  0  0  0
 26 27  1  0  0  0  0
 28 29  1  6  0  0  0
 28 32  1  0  0  0  0
 30 31  1  1  0  0  0
M  END
>  <CHROM.1>
-176.43335225,-174.87489365,-89.07740882,-59.21750879,75.59969342,174.42384091
9.64232169,4.91921223,6.42348576,0.43236130,-0.88868650,-2.48255319

>  <Name>
ligand

>  <RI>
0

>  <Rbt.Current_Directory>
/home/itssahil/PROJECTS/Mol_Feturizer/New_Systems/rnas/3TD1

>  <Rbt.Executable>
rbdock ($Id: //depot/dev/client3/rdock/2013.1/src/exe/rbdock.cxx#4 $)

>  <Rbt.Library>
libRbt.so (2013.1, Build901 2013/11/27)

>  <Rbt.Parameter_File>
/export/apps/rDock/src/rDock_2013.1_src/data/scripts/dock_solv.prm

>  <Rbt.Receptor>
prm/pocket_docking_6.prm

>  <SCORE>
-15.2271

>  <SCORE.INTER>
-6.47547

>  <SCORE.INTER.CONST>
1

>  <SCORE.INTER.POLAR>
0

>  <SCORE.INTER.ROT>
6

>  <SCORE.INTER.SOLV>
14.9296

>  <SCORE.INTER.VDW>
-16.8935

>  <SCORE.INTER.norm>
-0.190455

>  <SCORE.INTRA>
-8.75164

>  <SCORE.INTRA.DIHEDRAL>
-17.4773

>  <SCORE.INTRA.DIHEDRAL.0>
19.5869

>  <SCORE.INTRA.POLAR>
0

>  <SCORE.INTRA.POLAR.0>
0

>  <SCORE.INTRA.REPUL>
0

>  <SCORE.INTRA.REPUL.0>
0

>  <SCORE.INTRA.SOLV>
-2.14283

>  <SCORE.INTRA.SOLV.lig_0>
-70.101

>  <SCORE.INTRA.VDW>
1.05841

>  <SCORE.INTRA.VDW.0>
-3.39718

>  <SCORE.INTRA.norm>
-0.257401

>  <SCORE.RESTR>
0

>  <SCORE.RESTR.CAVITY>
0

>  <SCORE.RESTR.norm>
0

>  <SCORE.SYSTEM>
0

>  <SCORE.SYSTEM.CONST>
0

>  <SCORE.SYSTEM.DIHEDRAL>
0

>  <SCORE.SYSTEM.SOLV>
0

>  <SCORE.SYSTEM.norm>
0

>  <SCORE.heavy>
34

>  <SCORE.norm>
-0.447856

>  <RMSD>
8.157

$$$$
ligand
 OpenBabel11021811483D
libRbt.so/2013.1/901 2013/11/27
 34 36  0  0  0  0  0  0  0  0999 V2000
   10.0580    6.8654    5.7230 C   0  0  2  0  0  0  0  0  0  0  0  0
    9.5064    7.9855    6.4326 O   0  0  0  0  0  0  0  0  0  0  0  0
    8.5591    5.7132    9.9255 C   0  0  2  0  0  0  0  0  0  0  0  0
    8.1185    5.3554   11.2694 N   0  0  0  0  0  0  0  0  0  0  0  0
    5.4075    5.0239   10.0199 C   0  0  2  0  0  0  0  0  0  0  0  0
   10.8613    7.4190    4.4922 C   0  0  2  0  0  0  0  0  0  0  0  0
   11.9608    8.2948    4.9263 N   0  0  0  0  0  0  0  0  0  0  0  0
    9.6477    6.8282   10.0714 C   0  0  0  0  0  0  0  0  0  0  0  0
    4.5323    3.7798    9.6283 C   0  0  2  0  0  0  0  0  0  0  0  0
    5.3579    2.6359    9.4849 O   0  0  0  0  0  0  0  0  0  0  0  0
    9.9032    8.1984    3.5655 C   0  0  1  0  0  0  0  0  0  0  0  0
   10.6303    8.7013    2.4327 O   0  0  0  0  0  0  0  0  0  0  0  0
   10.1380    7.1965    8.6303 C   0  0  2  0  0  0  0  0  0  0  0  0
   11.1672    8.2535    8.7015 N   0  0  0  0  0  0  0  0  0  0  0  0
    3.7706    4.1010    8.2844 C   0  0  1  0  0  0  0  0  0  0  0  0
    2.9334    2.9393    7.8593 N   0  0  0  0  0  0  0  0  0  0  0  0
    8.7537    7.2580    3.1319 C   0  0  2  0  0  0  0  0  0  0  0  0
    7.8463    7.9738    2.2759 O   0  0  0  0  0  0  0  0  0  0  0  0
    8.9613    7.6996    7.7556 C   0  0  2  0  0  0  0  0  0  0  0  0
    2.8752    5.3694    8.4973 C   0  0  1  0  0  0  0  0  0  0  0  0
    1.9080    5.1071    9.5106 O   0  0  0  0  0  0  0  0  0  0  0  0
    8.0003    6.7210    4.4081 C   0  0  2  0  0  0  0  0  0  0  0  0
    8.9466    6.0063    5.2866 O   0  0  0  0  0  0  0  0  0  0  0  0
    7.8708    6.6018    7.6810 C   0  0  2  0  0  0  0  0  0  0  0  0
    6.7939    7.0924    6.8892 O   0  0  0  0  0  0  0  0  0  0  0  0
    3.7873    6.5547    8.9452 C   0  0  0  0  0  0  0  0  0  0  0  0
    4.5437    6.2029   10.1709 O   0  0  0  0  0  0  0  0  0  0  0  0
    6.8496    5.7498    4.0357 C   0  0  2  0  0  0  0  0  0  0  0  0
    7.1810    5.0608    2.8329 O   0  0  0  0  0  0  0  0  0  0  0  0
    7.3288    6.2536    9.0869 C   0  0  1  0  0  0  0  0  0  0  0  0
    6.3286    5.2226    8.9110 O   0  0  0  0  0  0  0  0  0  0  0  0
    5.5432    6.4919    3.8076 C   0  0  0  0  0  0  0  0  0  0  0  0
    2.1230    5.7580    7.2304 C   0  0  0  0  0  0  0  0  0  0  0  0
    2.1188    2.5097    9.0121 C   0  0  0  0  0  0  0  0  0  0  0  0
  1  2  1  6  0  0  0
  1  6  1  0  0  0  0
  1 23  1  0  0  0  0
  3  4  1  1  0  0  0
  3  8  1  0  0  0  0
  3 30  1  0  0  0  0
  5  9  1  0  0  0  0
  5 27  1  0  0  0  0
  5 31  1  6  0  0  0
  6  7  1  1  0  0  0
  6 11  1  0  0  0  0
  8 13  1  0  0  0  0
  9 10  1  6  0  0  0
  9 15  1  0  0  0  0
 11 12  1  6  0  0  0
 11 17  1  0  0  0  0
 13 14  1  1  0  0  0
 13 19  1  0  0  0  0
 15 16  1  1  0  0  0
 15 20  1  0  0  0  0
 16 34  1  0  0  0  0
 17 18  1  6  0  0  0
 17 22  1  0  0  0  0
 19  2  1  6  0  0  0
 19 24  1  0  0  0  0
 20 21  1  1  0  0  0
 20 26  1  0  0  0  0
 20 33  1  0  0  0  0
 22 23  1  1  0  0  0
 22 28  1  0  0  0  0
 24 25  1  6  0  0  0
 24 30  1  0  0  0  0
 26 27  1  0  0  0  0
 28 29  1  6  0  0  0
 28 32  1  0  0  0  0
 30 31  1  6  0  0  0
M  END
>  <CHROM.1>
-167.73319536,62.73359868,50.10844830,30.45379148,81.98249189,-174.85047883
7.02964898,6.13727542,7.05603730,-0.65532114,0.39421095,1.70628222

>  <Name>
ligand

>  <RI>
0

>  <Rbt.Current_Directory>
/home/itssahil/PROJECTS/Mol_Feturizer/New_Systems/rnas/3TD1

>  <Rbt.Executable>
rbdock ($Id: //depot/dev/client3/rdock/2013.1/src/exe/rbdock.cxx#4 $)

>  <Rbt.Library>
libRbt.so (2013.1, Build901 2013/11/27)

>  <Rbt.Parameter_File>
/export/apps/rDock/src/rDock_2013.1_src/data/scripts/dock_solv.prm

>  <Rbt.Receptor>
prm/pocket_docking_4.prm

>  <SCORE>
-8.25565

>  <SCORE.INTER>
-7.88395

>  <SCORE.INTER.CONST>
1

>  <SCORE.INTER.POLAR>
0

>  <SCORE.INTER.ROT>
6

>  <SCORE.INTER.SOLV>
16.6014

>  <SCORE.INTER.VDW>
-18.3898

>  <SCORE.INTER.norm>
-0.231881

>  <SCORE.INTRA>
-0.371705

>  <SCORE.INTRA.DIHEDRAL>
-13.8376

>  <SCORE.INTRA.DIHEDRAL.0>
19.5869

>  <SCORE.INTRA.POLAR>
0

>  <SCORE.INTRA.POLAR.0>
0

>  <SCORE.INTRA.REPUL>
0

>  <SCORE.INTRA.REPUL.0>
0

>  <SCORE.INTRA.SOLV>
-0.212198

>  <SCORE.INTRA.SOLV.lig_0>
-70.101

>  <SCORE.INTRA.VDW>
6.6532

>  <SCORE.INTRA.VDW.0>
-3.39718

>  <SCORE.INTRA.norm>
-0.0109325

>  <SCORE.RESTR>
0

>  <SCORE.RESTR.CAVITY>
0

>  <SCORE.RESTR.norm>
0

>  <SCORE.SYSTEM>
0

>  <SCORE.SYSTEM.CONST>
0

>  <SCORE.SYSTEM.DIHEDRAL>
0

>  <SCORE.SYSTEM.SOLV>
0

>  <SCORE.SYSTEM.norm>
0

>  <SCORE.heavy>
34

>  <SCORE.norm>
-0.242813

>  <RMSD>
8.164

$$$$
ligand
 OpenBabel11021811483D
libRbt.so/2013.1/901 2013/11/27
 34 36  0  0  0  0  0  0  0  0999 V2000
   13.9770    6.2696    9.4619 C   0  0  2  0  0  0  0  0  0  0  0  0
   12.7749    5.4857    9.4085 O   0  0  0  0  0  0  0  0  0  0  0  0
   14.3641    2.6698    6.6144 C   0  0  2  0  0  0  0  0  0  0  0  0
   14.5260    1.4818    5.7835 N   0  0  0  0  0  0  0  0  0  0  0  0
   12.5398    3.2440    3.7508 C   0  0  2  0  0  0  0  0  0  0  0  0
   13.9064    7.1789   10.7405 C   0  0  2  0  0  0  0  0  0  0  0  0
   13.8132    6.3678   11.9643 N   0  0  0  0  0  0  0  0  0  0  0  0
   14.1816    2.1860    8.0917 C   0  0  0  0  0  0  0  0  0  0  0  0
   13.0992    3.7885    2.3878 C   0  0  2  0  0  0  0  0  0  0  0  0
   14.4861    3.5099    2.2905 O   0  0  0  0  0  0  0  0  0  0  0  0
   12.6824    8.1143   10.6353 C   0  0  1  0  0  0  0  0  0  0  0  0
   12.6161    8.9550   11.7988 O   0  0  0  0  0  0  0  0  0  0  0  0
   14.0309    3.4617    8.9878 C   0  0  2  0  0  0  0  0  0  0  0  0
   13.8485    3.0685   10.3998 N   0  0  0  0  0  0  0  0  0  0  0  0
   12.8264    5.3408    2.3139 C   0  0  1  0  0  0  0  0  0  0  0  0
   13.3554    5.9116    1.0389 N   0  0  0  0  0  0  0  0  0  0  0  0
   12.8013    8.9476    9.3372 C   0  0  2  0  0  0  0  0  0  0  0  0
   11.6615    9.8169    9.2200 O   0  0  0  0  0  0  0  0  0  0  0  0
   12.8140    4.3122    8.5422 C   0  0  2  0  0  0  0  0  0  0  0  0
   11.2837    5.5925    2.4253 C   0  0  1  0  0  0  0  0  0  0  0  0
   10.6171    4.9664    1.3323 O   0  0  0  0  0  0  0  0  0  0  0  0
   12.8880    7.9812    8.0949 C   0  0  2  0  0  0  0  0  0  0  0  0
   14.0496    7.0821    8.2379 O   0  0  0  0  0  0  0  0  0  0  0  0
   12.9901    4.7230    7.0589 C   0  0  2  0  0  0  0  0  0  0  0  0
   11.8539    5.4864    6.6671 O   0  0  0  0  0  0  0  0  0  0  0  0
   10.7730    4.9765    3.7658 C   0  0  0  0  0  0  0  0  0  0  0  0
   11.1019    3.5327    3.8408 O   0  0  0  0  0  0  0  0  0  0  0  0
   13.0348    8.7620    6.7627 C   0  0  2  0  0  0  0  0  0  0  0  0
   11.8449    9.5066    6.5157 O   0  0  0  0  0  0  0  0  0  0  0  0
   13.0893    3.4821    6.1414 C   0  0  1  0  0  0  0  0  0  0  0  0
   13.2572    3.9686    4.7889 O   0  0  0  0  0  0  0  0  0  0  0  0
   13.2557    7.8250    5.5868 C   0  0  0  0  0  0  0  0  0  0  0  0
   10.9417    7.0768    2.3856 C   0  0  0  0  0  0  0  0  0  0  0  0
   14.6791    6.5035    1.3112 C   0  0  0  0  0  0  0  0  0  0  0  0
  1  2  1  6  0  0  0
  1  6  1  0  0  0  0
  1 23  1  0  0  0  0
  3  4  1  6  0  0  0
  3  8  1  0  0  0  0
  3 30  1  0  0  0  0
  5  9  1  0  0  0  0
  5 27  1  0  0  0  0
  5 31  1  1  0  0  0
  6  7  1  1  0  0  0
  6 11  1  0  0  0  0
  8 13  1  0  0  0  0
  9 10  1  1  0  0  0
  9 15  1  0  0  0  0
 11 12  1  1  0  0  0
 11 17  1  0  0  0  0
 13 14  1  1  0  0  0
 13 19  1  0  0  0  0
 15 16  1  6  0  0  0
 15 20  1  0  0  0  0
 16 34  1  0  0  0  0
 17 18  1  6  0  0  0
 17 22  1  0  0  0  0
 19  2  1  1  0  0  0
 19 24  1  0  0  0  0
 20 21  1  6  0  0  0
 20 26  1  0  0  0  0
 20 33  1  0  0  0  0
 22 23  1  1  0  0  0
 22 28  1  0  0  0  0
 24 25  1  6  0  0  0
 24 30  1  0  0  0  0
 26 27  1  0  0  0  0
 28 29  1  6  0  0  0
 28 32  1  0  0  0  0
 30 31  1  6  0  0  0
M  END
>  <CHROM.1>
-162.39956293,54.73908499,-97.75423268,-66.13906429,103.54131523,-169.56262425
12.91795181,5.66999676,6.37514973,-1.34144671,1.27270066,-2.11398931

>  <Name>
ligand

>  <RI>
0

>  <Rbt.Current_Directory>
/home/itssahil/PROJECTS/Mol_Feturizer/New_Systems/rnas/3TD1

>  <Rbt.Executable>
rbdock ($Id: //depot/dev/client3/rdock/2013.1/src/exe/rbdock.cxx#4 $)

>  <Rbt.Library>
libRbt.so (2013.1, Build901 2013/11/27)

>  <Rbt.Parameter_File>
/export/apps/rDock/src/rDock_2013.1_src/data/scripts/dock_solv.prm

>  <Rbt.Receptor>
prm/pocket_docking_6.prm

>  <SCORE>
-13.5833

>  <SCORE.INTER>
-8.05653

>  <SCORE.INTER.CONST>
1

>  <SCORE.INTER.POLAR>
0

>  <SCORE.INTER.ROT>
6

>  <SCORE.INTER.SOLV>
12.462

>  <SCORE.INTER.VDW>
-17.125

>  <SCORE.INTER.norm>
-0.236957

>  <SCORE.INTRA>
-5.52673

>  <SCORE.INTRA.DIHEDRAL>
-10.6079

>  <SCORE.INTRA.DIHEDRAL.0>
19.5869

>  <SCORE.INTRA.POLAR>
0

>  <SCORE.INTRA.POLAR.0>
0

>  <SCORE.INTRA.REPUL>
0

>  <SCORE.INTRA.REPUL.0>
0

>  <SCORE.INTRA.SOLV>
-0.419578

>  <SCORE.INTRA.SOLV.lig_0>
-70.101

>  <SCORE.INTRA.VDW>
-0.0130164

>  <SCORE.INTRA.VDW.0>
-3.39718

>  <SCORE.INTRA.norm>
-0.162551

>  <SCORE.RESTR>
0

>  <SCORE.RESTR.CAVITY>
0

>  <SCORE.RESTR.norm>
0

>  <SCORE.SYSTEM>
0

>  <SCORE.SYSTEM.CONST>
0

>  <SCORE.SYSTEM.DIHEDRAL>
0

>  <SCORE.SYSTEM.SOLV>
0

>  <SCORE.SYSTEM.norm>
0

>  <SCORE.heavy>
34

>  <SCORE.norm>
-0.399508

>  <RMSD>
8.164

$$$$
ligand
 OpenBabel11021811483D
libRbt.so/2013.1/901 2013/11/27
 34 36  0  0  0  0  0  0  0  0999 V2000
   11.1499    3.9095    4.4583 C   0  0  2  0  0  0  0  0  0  0  0  0
   11.7733    4.9514    5.2253 O   0  0  0  0  0  0  0  0  0  0  0  0
   10.2762    7.0150    8.6549 C   0  0  2  0  0  0  0  0  0  0  0  0
    9.4849    7.8960    9.5069 N   0  0  0  0  0  0  0  0  0  0  0  0
    7.7824    5.6076    9.9504 C   0  0  2  0  0  0  0  0  0  0  0  0
   12.2848    3.0573    3.7858 C   0  0  2  0  0  0  0  0  0  0  0  0
   13.1590    2.4443    4.7980 N   0  0  0  0  0  0  0  0  0  0  0  0
   10.8599    7.8874    7.4939 C   0  0  0  0  0  0  0  0  0  0  0  0
    7.2920    4.4488   10.8906 C   0  0  2  0  0  0  0  0  0  0  0  0
    8.3588    4.0160   11.7185 O   0  0  0  0  0  0  0  0  0  0  0  0
   13.1169    3.9616    2.8508 C   0  0  1  0  0  0  0  0  0  0  0  0
   14.1527    3.1862    2.2258 O   0  0  0  0  0  0  0  0  0  0  0  0
   11.7286    6.9470    6.5917 C   0  0  2  0  0  0  0  0  0  0  0  0
   12.3047    7.7148    5.4691 N   0  0  0  0  0  0  0  0  0  0  0  0
    6.7531    3.2662    9.9959 C   0  0  1  0  0  0  0  0  0  0  0  0
    6.2876    2.1290   10.8452 N   0  0  0  0  0  0  0  0  0  0  0  0
   12.1731    4.5993    1.8038 C   0  0  2  0  0  0  0  0  0  0  0  0
   12.9330    5.4537    0.9315 O   0  0  0  0  0  0  0  0  0  0  0  0
   10.8771    5.7846    6.0203 C   0  0  2  0  0  0  0  0  0  0  0  0
    5.5790    3.7968    9.1039 C   0  0  1  0  0  0  0  0  0  0  0  0
    4.5150    4.2522    9.9355 O   0  0  0  0  0  0  0  0  0  0  0  0
   11.0475    5.4224    2.5388 C   0  0  2  0  0  0  0  0  0  0  0  0
   10.2890    4.5383    3.4449 O   0  0  0  0  0  0  0  0  0  0  0  0
   10.2600    4.9771    7.1895 C   0  0  2  0  0  0  0  0  0  0  0  0
    9.4688    3.9278    6.6413 O   0  0  0  0  0  0  0  0  0  0  0  0
    6.1066    4.9850    8.2394 C   0  0  0  0  0  0  0  0  0  0  0  0
    6.6699    6.0528    9.1001 O   0  0  0  0  0  0  0  0  0  0  0  0
   10.0530    6.0659    1.5374 C   0  0  2  0  0  0  0  0  0  0  0  0
   10.7490    6.9907    0.7058 O   0  0  0  0  0  0  0  0  0  0  0  0
    9.3532    5.8686    8.0695 C   0  0  1  0  0  0  0  0  0  0  0  0
    8.8345    5.0294    9.1282 O   0  0  0  0  0  0  0  0  0  0  0  0
    8.9460    6.8202    2.2553 C   0  0  0  0  0  0  0  0  0  0  0  0
    5.0196    2.7132    8.1903 C   0  0  0  0  0  0  0  0  0  0  0  0
    7.4407    1.2474   11.1101 C   0  0  0  0  0  0  0  0  0  0  0  0
  1  2  1  6  0  0  0
  1  6  1  0  0  0  0
  1 23  1  0  0  0  0
  3  4  1  1  0  0  0
  3  8  1  0  0  0  0
  3 30  1  0  0  0  0
  5  9  1  0  0  0  0
  5 27  1  0  0  0  0
  5 31  1  6  0  0  0
  6  7  1  1  0  0  0
  6 11  1  0  0  0  0
  8 13  1  0  0  0  0
  9 10  1  6  0  0  0
  9 15  1  0  0  0  0
 11 12  1  6  0  0  0
 11 17  1  0  0  0  0
 13 14  1  6  0  0  0
 13 19  1  0  0  0  0
 15 16  1  1  0  0  0
 15 20  1  0  0  0  0
 16 34  1  0  0  0  0
 17 18  1  6  0  0  0
 17 22  1  0  0  0  0
 19  2  1  1  0  0  0
 19 24  1  0  0  0  0
 20 21  1  1  0  0  0
 20 26  1  0  0  0  0
 20 33  1  0  0  0  0
 22 23  1  1  0  0  0
 22 28  1  0  0  0  0
 24 25  1  6  0  0  0
 24 30  1  0  0  0  0
 26 27  1  0  0  0  0
 28 29  1  6  0  0  0
 28 32  1  0  0  0  0
 30 31  1  1  0  0  0
M  END
>  <CHROM.1>
-174.98801755,-172.10644156,-87.93481828,-62.32941909,73.81301955,173.50413491
9.60776005,4.89964233,6.46565512,0.21372285,-0.95312578,-2.74255842

>  <Name>
ligand

>  <RI>
0

>  <Rbt.Current_Directory>
/home/itssahil/PROJECTS/Mol_Feturizer/New_Systems/rnas/3TD1

>  <Rbt.Executable>
rbdock ($Id: //depot/dev/client3/rdock/2013.1/src/exe/rbdock.cxx#4 $)

>  <Rbt.Library>
libRbt.so (2013.1, Build901 2013/11/27)

>  <Rbt.Parameter_File>
/export/apps/rDock/src/rDock_2013.1_src/data/scripts/dock_solv.prm

>  <Rbt.Receptor>
prm/pocket_docking_6.prm

>  <SCORE>
-15.3065

>  <SCORE.INTER>
-6.65757

>  <SCORE.INTER.CONST>
1

>  <SCORE.INTER.POLAR>
0

>  <SCORE.INTER.ROT>
6

>  <SCORE.INTER.SOLV>
14.9893

>  <SCORE.INTER.VDW>
-17.0348

>  <SCORE.INTER.norm>
-0.195811

>  <SCORE.INTRA>
-8.64893

>  <SCORE.INTRA.DIHEDRAL>
-17.4406

>  <SCORE.INTRA.DIHEDRAL.0>
19.5869

>  <SCORE.INTRA.POLAR>
0

>  <SCORE.INTRA.POLAR.0>
0

>  <SCORE.INTRA.REPUL>
0

>  <SCORE.INTRA.REPUL.0>
0

>  <SCORE.INTRA.SOLV>
-1.92558

>  <SCORE.INTRA.SOLV.lig_0>
-70.101

>  <SCORE.INTRA.VDW>
1.03418

>  <SCORE.INTRA.VDW.0>
-3.39718

>  <SCORE.INTRA.norm>
-0.25438

>  <SCORE.RESTR>
0

>  <SCORE.RESTR.CAVITY>
0

>  <SCORE.RESTR.norm>
0

>  <SCORE.SYSTEM>
0

>  <SCORE.SYSTEM.CONST>
0

>  <SCORE.SYSTEM.DIHEDRAL>
0

>  <SCORE.SYSTEM.SOLV>
0

>  <SCORE.SYSTEM.norm>
0

>  <SCORE.heavy>
34

>  <SCORE.norm>
-0.450191

>  <RMSD>
8.165

$$$$
ligand
 OpenBabel11021811483D
libRbt.so/2013.1/901 2013/11/27
 34 36  0  0  0  0  0  0  0  0999 V2000
   11.0708    6.1232    3.5569 C   0  0  2  0  0  0  0  0  0  0  0  0
    9.9570    5.4390    2.9622 O   0  0  0  0  0  0  0  0  0  0  0  0
    7.1110    6.7863    5.8513 C   0  0  2  0  0  0  0  0  0  0  0  0
    5.8691    6.9638    6.5958 N   0  0  0  0  0  0  0  0  0  0  0  0
    6.8230    4.9003    8.3121 C   0  0  2  0  0  0  0  0  0  0  0  0
   11.9289    6.7493    2.4001 C   0  0  2  0  0  0  0  0  0  0  0  0
   11.1413    7.7143    1.6174 N   0  0  0  0  0  0  0  0  0  0  0  0
    6.8027    7.0919    4.3476 C   0  0  0  0  0  0  0  0  0  0  0  0
    7.4485    4.8791    9.7527 C   0  0  2  0  0  0  0  0  0  0  0  0
    8.1436    6.0913    9.9939 O   0  0  0  0  0  0  0  0  0  0  0  0
   12.4450    5.6223    1.4793 C   0  0  1  0  0  0  0  0  0  0  0  0
   13.2379    6.1877    0.4227 O   0  0  0  0  0  0  0  0  0  0  0  0
    8.1407    6.9242    3.5510 C   0  0  2  0  0  0  0  0  0  0  0  0
    7.9123    7.1948    2.1170 N   0  0  0  0  0  0  0  0  0  0  0  0
    8.4170    3.6385    9.8646 C   0  0  1  0  0  0  0  0  0  0  0  0
    9.0517    3.5822   11.2156 N   0  0  0  0  0  0  0  0  0  0  0  0
   13.2609    4.6187    2.3283 C   0  0  2  0  0  0  0  0  0  0  0  0
   13.7396    3.5564    1.4853 O   0  0  0  0  0  0  0  0  0  0  0  0
    8.7034    5.4884    3.7076 C   0  0  2  0  0  0  0  0  0  0  0  0
    7.6010    2.3292    9.5905 C   0  0  1  0  0  0  0  0  0  0  0  0
    6.5769    2.1899   10.5718 O   0  0  0  0  0  0  0  0  0  0  0  0
   12.3537    4.0417    3.4811 C   0  0  2  0  0  0  0  0  0  0  0  0
   11.8535    5.1435    4.3260 O   0  0  0  0  0  0  0  0  0  0  0  0
    8.9386    5.1899    5.2094 C   0  0  2  0  0  0  0  0  0  0  0  0
    9.4373    3.8616    5.3299 O   0  0  0  0  0  0  0  0  0  0  0  0
    6.9517    2.4329    8.1745 C   0  0  0  0  0  0  0  0  0  0  0  0
    6.1011    3.6430    8.0727 O   0  0  0  0  0  0  0  0  0  0  0  0
   13.1277    3.0457    4.3838 C   0  0  2  0  0  0  0  0  0  0  0  0
   13.6314    1.9766    3.5873 O   0  0  0  0  0  0  0  0  0  0  0  0
    7.6228    5.2964    6.0149 C   0  0  1  0  0  0  0  0  0  0  0  0
    7.9478    5.0086    7.3954 O   0  0  0  0  0  0  0  0  0  0  0  0
   12.2310    2.4505    5.4568 C   0  0  0  0  0  0  0  0  0  0  0  0
    8.4770    1.0842    9.6576 C   0  0  0  0  0  0  0  0  0  0  0  0
   10.4321    4.0904   11.0997 C   0  0  0  0  0  0  0  0  0  0  0  0
  1  2  1  6  0  0  0
  1  6  1  0  0  0  0
  1 23  1  0  0  0  0
  3  4  1  1  0  0  0
  3  8  1  0  0  0  0
  3 30  1  0  0  0  0
  5  9  1  0  0  0  0
  5 27  1  0  0  0  0
  5 31  1  6  0  0  0
  6  7  1  6  0  0  0
  6 11  1  0  0  0  0
  8 13  1  0  0  0  0
  9 10  1  6  0  0  0
  9 15  1  0  0  0  0
 11 12  1  6  0  0  0
 11 17  1  0  0  0  0
 13 14  1  6  0  0  0
 13 19  1  0  0  0  0
 15 16  1  1  0  0  0
 15 20  1  0  0  0  0
 16 34  1  0  0  0  0
 17 18  1  6  0  0  0
 17 22  1  0  0  0  0
 19  2  1  6  0  0  0
 19 24  1  0  0  0  0
 20 21  1  1  0  0  0
 20 26  1  0  0  0  0
 20 33  1  0  0  0  0
 22 23  1  1  0  0  0
 22 28  1  0  0  0  0
 24 25  1  6  0  0  0
 24 30  1  0  0  0  0
 26 27  1  0  0  0  0
 28 29  1  6  0  0  0
 28 32  1  0  0  0  0
 30 31  1  1  0  0  0
M  END
>  <CHROM.1>
-144.59036120,73.38091900,-102.13795652,-58.13585991,70.96731654,-168.90970410
9.57056720,4.70910091,5.71512592,0.91783002,0.54479289,-0.98571351

>  <Name>
ligand

>  <RI>
0

>  <Rbt.Current_Directory>
/home/itssahil/PROJECTS/Mol_Feturizer/New_Systems/rnas/3TD1

>  <Rbt.Executable>
rbdock ($Id: //depot/dev/client3/rdock/2013.1/src/exe/rbdock.cxx#4 $)

>  <Rbt.Library>
libRbt.so (2013.1, Build901 2013/11/27)

>  <Rbt.Parameter_File>
/export/apps/rDock/src/rDock_2013.1_src/data/scripts/dock_solv.prm

>  <Rbt.Receptor>
prm/pocket_docking_8.prm

>  <SCORE>
-8.89066

>  <SCORE.INTER>
-3.94087

>  <SCORE.INTER.CONST>
1

>  <SCORE.INTER.POLAR>
0

>  <SCORE.INTER.ROT>
6

>  <SCORE.INTER.SOLV>
11.154

>  <SCORE.INTER.VDW>
-13.9453

>  <SCORE.INTER.norm>
-0.115908

>  <SCORE.INTRA>
-4.94979

>  <SCORE.INTRA.DIHEDRAL>
-11.9323

>  <SCORE.INTRA.DIHEDRAL.0>
19.5869

>  <SCORE.INTRA.POLAR>
0

>  <SCORE.INTRA.POLAR.0>
0

>  <SCORE.INTRA.REPUL>
0

>  <SCORE.INTRA.REPUL.0>
0

>  <SCORE.INTRA.SOLV>
0.634706

>  <SCORE.INTRA.SOLV.lig_0>
-70.101

>  <SCORE.INTRA.VDW>
0.699028

>  <SCORE.INTRA.VDW.0>
-3.39718

>  <SCORE.INTRA.norm>
-0.145582

>  <SCORE.RESTR>
0

>  <SCORE.RESTR.CAVITY>
0

>  <SCORE.RESTR.norm>
0

>  <SCORE.SYSTEM>
0

>  <SCORE.SYSTEM.CONST>
0

>  <SCORE.SYSTEM.DIHEDRAL>
0

>  <SCORE.SYSTEM.SOLV>
0

>  <SCORE.SYSTEM.norm>
0

>  <SCORE.heavy>
34

>  <SCORE.norm>
-0.26149

>  <RMSD>
8.186

$$$$
ligand
 OpenBabel11021811483D
libRbt.so/2013.1/901 2013/11/27
 34 36  0  0  0  0  0  0  0  0999 V2000
    9.3021    9.5219    0.4067 C   0  0  2  0  0  0  0  0  0  0  0  0
   10.0485   10.2035    1.4268 O   0  0  0  0  0  0  0  0  0  0  0  0
   13.6952    8.1475    0.5689 C   0  0  2  0  0  0  0  0  0  0  0  0
   15.1014    7.7592    0.5711 N   0  0  0  0  0  0  0  0  0  0  0  0
   13.2193    5.5636    1.2186 C   0  0  2  0  0  0  0  0  0  0  0  0
    7.8548   10.1310    0.3762 C   0  0  2  0  0  0  0  0  0  0  0  0
    7.8897   11.5673    0.0600 N   0  0  0  0  0  0  0  0  0  0  0  0
   13.6307    9.6693    0.2090 C   0  0  0  0  0  0  0  0  0  0  0  0
   12.0808    4.4988    1.4111 C   0  0  2  0  0  0  0  0  0  0  0  0
   10.8137    5.1332    1.3572 O   0  0  0  0  0  0  0  0  0  0  0  0
    7.1789    9.9109    1.7470 C   0  0  1  0  0  0  0  0  0  0  0  0
    5.8508   10.4590    1.7236 O   0  0  0  0  0  0  0  0  0  0  0  0
   12.1200   10.0817    0.1837 C   0  0  2  0  0  0  0  0  0  0  0  0
   11.9933   11.5159   -0.1459 N   0  0  0  0  0  0  0  0  0  0  0  0
   12.2942    3.7761    2.7973 C   0  0  1  0  0  0  0  0  0  0  0  0
   11.2244    2.7613    3.0359 N   0  0  0  0  0  0  0  0  0  0  0  0
    7.1636    8.3954    2.0581 C   0  0  2  0  0  0  0  0  0  0  0  0
    6.5460    8.1755    3.3382 O   0  0  0  0  0  0  0  0  0  0  0  0
   11.4507    9.8212    1.5573 C   0  0  2  0  0  0  0  0  0  0  0  0
   13.7047    3.0933    2.8037 C   0  0  1  0  0  0  0  0  0  0  0  0
   13.7657    2.1127    1.7714 O   0  0  0  0  0  0  0  0  0  0  0  0
    8.6389    7.8404    2.0550 C   0  0  2  0  0  0  0  0  0  0  0  0
    9.2670    8.0904    0.7430 O   0  0  0  0  0  0  0  0  0  0  0  0
   11.5855    8.3206    1.9180 C   0  0  2  0  0  0  0  0  0  0  0  0
   10.9808    8.1090    3.1896 O   0  0  0  0  0  0  0  0  0  0  0  0
   14.7894    4.1862    2.5457 C   0  0  0  0  0  0  0  0  0  0  0  0
   14.5277    4.8970    1.2711 O   0  0  0  0  0  0  0  0  0  0  0  0
    8.6849    6.3158    2.3367 C   0  0  2  0  0  0  0  0  0  0  0  0
    7.8877    5.6312    1.3739 O   0  0  0  0  0  0  0  0  0  0  0  0
   13.0699    7.8954    2.0022 C   0  0  1  0  0  0  0  0  0  0  0  0
   13.0881    6.4872    2.3353 O   0  0  0  0  0  0  0  0  0  0  0  0
    8.1416    5.9855    3.7171 C   0  0  0  0  0  0  0  0  0  0  0  0
   13.9948    2.3917    4.1248 C   0  0  0  0  0  0  0  0  0  0  0  0
   10.8589    2.8017    4.4648 C   0  0  0  0  0  0  0  0  0  0  0  0
  1  2  1  1  0  0  0
  1  6  1  0  0  0  0
  1 23  1  0  0  0  0
  3  4  1  1  0  0  0
  3  8  1  0  0  0  0
  3 30  1  0  0  0  0
  5  9  1  0  0  0  0
  5 27  1  0  0  0  0
  5 31  1  1  0  0  0
  6  7  1  1  0  0  0
  6 11  1  0  0  0  0
  8 13  1  0  0  0  0
  9 10  1  1  0  0  0
  9 15  1  0  0  0  0
 11 12  1  6  0  0  0
 11 17  1  0  0  0  0
 13 14  1  1  0  0  0
 13 19  1  0  0  0  0
 15 16  1  6  0  0  0
 15 20  1  0  0  0  0
 16 34  1  0  0  0  0
 17 18  1  1  0  0  0
 17 22  1  0  0  0  0
 19  2  1  6  0  0  0
 19 24  1  0  0  0  0
 20 21  1  6  0  0  0
 20 26  1  0  0  0  0
 20 33  1  0  0  0  0
 22 23  1  6  0  0  0
 22 28  1  0  0  0  0
 24 25  1  1  0  0  0
 24 30  1  0  0  0  0
 26 27  1  0  0  0  0
 28 29  1  6  0  0  0
 28 32  1  0  0  0  0
 30 31  1  6  0  0  0
M  END
>  <CHROM.1>
-176.81147372,58.18246065,-141.37048274,56.92610562,-19.90676033,-130.34681822
10.92579355,7.06154419,1.80327318,-2.27698616,-0.19979790,2.77182473

>  <Name>
ligand

>  <RI>
0

>  <Rbt.Current_Directory>
/home/itssahil/PROJECTS/Mol_Feturizer/New_Systems/rnas/3TD1

>  <Rbt.Executable>
rbdock ($Id: //depot/dev/client3/rdock/2013.1/src/exe/rbdock.cxx#4 $)

>  <Rbt.Library>
libRbt.so (2013.1, Build901 2013/11/27)

>  <Rbt.Parameter_File>
/export/apps/rDock/src/rDock_2013.1_src/data/scripts/dock_solv.prm

>  <Rbt.Receptor>
prm/blind_docking_20.prm

>  <SCORE>
23.1213

>  <SCORE.INTER>
9.90041

>  <SCORE.INTER.CONST>
1

>  <SCORE.INTER.POLAR>
0

>  <SCORE.INTER.ROT>
6

>  <SCORE.INTER.SOLV>
29.6307

>  <SCORE.INTER.VDW>
-10.8766

>  <SCORE.INTER.norm>
0.291188

>  <SCORE.INTRA>
5.5613

>  <SCORE.INTRA.DIHEDRAL>
-6.55736

>  <SCORE.INTRA.DIHEDRAL.0>
19.5869

>  <SCORE.INTRA.POLAR>
0

>  <SCORE.INTRA.POLAR.0>
0

>  <SCORE.INTRA.REPUL>
0.343347

>  <SCORE.INTRA.REPUL.0>
0

>  <SCORE.INTRA.SOLV>
1.21736

>  <SCORE.INTRA.SOLV.lig_0>
-70.101

>  <SCORE.INTRA.VDW>
6.51456

>  <SCORE.INTRA.VDW.0>
-3.39718

>  <SCORE.INTRA.norm>
0.163568

>  <SCORE.RESTR>
7.65963

>  <SCORE.RESTR.CAVITY>
7.65963

>  <SCORE.RESTR.norm>
0.225283

>  <SCORE.SYSTEM>
0

>  <SCORE.SYSTEM.CONST>
0

>  <SCORE.SYSTEM.DIHEDRAL>
0

>  <SCORE.SYSTEM.SOLV>
0

>  <SCORE.SYSTEM.norm>
0

>  <SCORE.heavy>
34

>  <SCORE.norm>
0.680039

>  <RMSD>
8.210

$$$$
ligand
 OpenBabel11021811483D
libRbt.so/2013.1/901 2013/11/27
 34 36  0  0  0  0  0  0  0  0999 V2000
   11.5995    3.2520    4.9931 C   0  0  2  0  0  0  0  0  0  0  0  0
   12.3066    4.2639    5.7271 O   0  0  0  0  0  0  0  0  0  0  0  0
   11.0186    6.6032    9.0633 C   0  0  2  0  0  0  0  0  0  0  0  0
   10.3029    7.5778    9.8795 N   0  0  0  0  0  0  0  0  0  0  0  0
    8.0213    4.7723    9.8242 C   0  0  2  0  0  0  0  0  0  0  0  0
   12.6606    2.2913    4.3468 C   0  0  2  0  0  0  0  0  0  0  0  0
   13.4861    1.6420    5.3770 N   0  0  0  0  0  0  0  0  0  0  0  0
   11.6283    7.3719    7.8439 C   0  0  0  0  0  0  0  0  0  0  0  0
    7.7364    4.3432   11.3081 C   0  0  2  0  0  0  0  0  0  0  0  0
    8.3261    5.2742   12.2005 O   0  0  0  0  0  0  0  0  0  0  0  0
   13.5596    3.0969    3.3838 C   0  0  1  0  0  0  0  0  0  0  0  0
   14.5282    2.2222    2.7826 O   0  0  0  0  0  0  0  0  0  0  0  0
   12.4164    6.3305    6.9794 C   0  0  2  0  0  0  0  0  0  0  0  0
   13.0129    6.9976    5.8043 N   0  0  0  0  0  0  0  0  0  0  0  0
    8.3177    2.8941   11.5352 C   0  0  1  0  0  0  0  0  0  0  0  0
    8.0856    2.4445   12.9407 N   0  0  0  0  0  0  0  0  0  0  0  0
   12.6667    3.7754    2.3180 C   0  0  2  0  0  0  0  0  0  0  0  0
   13.4899    4.5390    1.4192 O   0  0  0  0  0  0  0  0  0  0  0  0
   11.4819    5.1943    6.4911 C   0  0  2  0  0  0  0  0  0  0  0  0
    7.6344    1.9077   10.5274 C   0  0  1  0  0  0  0  0  0  0  0  0
    6.2306    1.8722   10.7706 O   0  0  0  0  0  0  0  0  0  0  0  0
   11.6127    4.7083    3.0276 C   0  0  2  0  0  0  0  0  0  0  0  0
   10.7886    3.9161    3.9611 O   0  0  0  0  0  0  0  0  0  0  0  0
   10.8431    4.4927    7.7157 C   0  0  2  0  0  0  0  0  0  0  0  0
    9.9763    3.4667    7.2431 O   0  0  0  0  0  0  0  0  0  0  0  0
    7.8964    2.4172    9.0751 C   0  0  0  0  0  0  0  0  0  0  0  0
    7.4028    3.8052    8.9071 O   0  0  0  0  0  0  0  0  0  0  0  0
   10.6698    5.3981    2.0073 C   0  0  2  0  0  0  0  0  0  0  0  0
   11.4425    6.1831    1.1029 O   0  0  0  0  0  0  0  0  0  0  0  0
   10.0135    5.4867    8.5615 C   0  0  1  0  0  0  0  0  0  0  0  0
    9.4684    4.7413    9.6758 O   0  0  0  0  0  0  0  0  0  0  0  0
    9.6761    6.3179    2.6974 C   0  0  0  0  0  0  0  0  0  0  0  0
    8.1638    0.4860   10.6701 C   0  0  0  0  0  0  0  0  0  0  0  0
    9.3342    2.6417   13.7016 C   0  0  0  0  0  0  0  0  0  0  0  0
  1  2  1  6  0  0  0
  1  6  1  0  0  0  0
  1 23  1  0  0  0  0
  3  4  1  1  0  0  0
  3  8  1  0  0  0  0
  3 30  1  0  0  0  0
  5  9  1  0  0  0  0
  5 27  1  0  0  0  0
  5 31  1  1  0  0  0
  6  7  1  1  0  0  0
  6 11  1  0  0  0  0
  8 13  1  0  0  0  0
  9 10  1  1  0  0  0
  9 15  1  0  0  0  0
 11 12  1  6  0  0  0
 11 17  1  0  0  0  0
 13 14  1  6  0  0  0
 13 19  1  0  0  0  0
 15 16  1  1  0  0  0
 15 20  1  0  0  0  0
 16 34  1  0  0  0  0
 17 18  1  6  0  0  0
 17 22  1  0  0  0  0
 19  2  1  1  0  0  0
 19 24  1  0  0  0  0
 20 21  1  1  0  0  0
 20 26  1  0  0  0  0
 20 33  1  0  0  0  0
 22 23  1  1  0  0  0
 22 28  1  0  0  0  0
 24 25  1  6  0  0  0
 24 30  1  0  0  0  0
 26 27  1  0  0  0  0
 28 29  1  6  0  0  0
 28 32  1  0  0  0  0
 30 31  1  1  0  0  0
M  END
>  <CHROM.1>
-175.27656653,-169.92435353,-99.86725087,-59.30399566,120.52893320,-161.05554119
10.45199412,4.18578827,7.15586941,0.10900113,-1.09716879,-2.88726877

>  <Name>
ligand

>  <RI>
0

>  <Rbt.Current_Directory>
/home/itssahil/PROJECTS/Mol_Feturizer/New_Systems/rnas/3TD1

>  <Rbt.Executable>
rbdock ($Id: //depot/dev/client3/rdock/2013.1/src/exe/rbdock.cxx#4 $)

>  <Rbt.Library>
libRbt.so (2013.1, Build901 2013/11/27)

>  <Rbt.Parameter_File>
/export/apps/rDock/src/rDock_2013.1_src/data/scripts/dock_solv.prm

>  <Rbt.Receptor>
prm/pocket_docking_8.prm

>  <SCORE>
-11.733

>  <SCORE.INTER>
-5.99735

>  <SCORE.INTER.CONST>
1

>  <SCORE.INTER.POLAR>
0

>  <SCORE.INTER.ROT>
6

>  <SCORE.INTER.SOLV>
11.7352

>  <SCORE.INTER.VDW>
-15.51

>  <SCORE.INTER.norm>
-0.176393

>  <SCORE.INTRA>
-5.73563

>  <SCORE.INTRA.DIHEDRAL>
-9.30012

>  <SCORE.INTRA.DIHEDRAL.0>
19.5869

>  <SCORE.INTRA.POLAR>
0

>  <SCORE.INTRA.POLAR.0>
0

>  <SCORE.INTRA.REPUL>
0

>  <SCORE.INTRA.REPUL.0>
0

>  <SCORE.INTRA.SOLV>
-2.26915

>  <SCORE.INTRA.SOLV.lig_0>
-70.101

>  <SCORE.INTRA.VDW>
0.049008

>  <SCORE.INTRA.VDW.0>
-3.39718

>  <SCORE.INTRA.norm>
-0.168695

>  <SCORE.RESTR>
0

>  <SCORE.RESTR.CAVITY>
0

>  <SCORE.RESTR.norm>
0

>  <SCORE.SYSTEM>
0

>  <SCORE.SYSTEM.CONST>
0

>  <SCORE.SYSTEM.DIHEDRAL>
0

>  <SCORE.SYSTEM.SOLV>
0

>  <SCORE.SYSTEM.norm>
0

>  <SCORE.heavy>
34

>  <SCORE.norm>
-0.345088

>  <RMSD>
8.258

$$$$
ligand
 OpenBabel11021811483D
libRbt.so/2013.1/901 2013/11/27
 34 36  0  0  0  0  0  0  0  0999 V2000
   14.1455    6.8585   11.5816 C   0  0  2  0  0  0  0  0  0  0  0  0
   13.1839    5.7968   11.4776 O   0  0  0  0  0  0  0  0  0  0  0  0
   15.2718    3.7328    8.3724 C   0  0  2  0  0  0  0  0  0  0  0  0
   15.7390    2.6776    7.4801 N   0  0  0  0  0  0  0  0  0  0  0  0
   13.7132    3.5357    5.7020 C   0  0  2  0  0  0  0  0  0  0  0  0
   13.6939    7.8091   12.7474 C   0  0  2  0  0  0  0  0  0  0  0  0
   13.6406    7.0890   14.0291 N   0  0  0  0  0  0  0  0  0  0  0  0
   15.5063    3.2423    9.8401 C   0  0  0  0  0  0  0  0  0  0  0  0
   13.2727    4.2744    4.3876 C   0  0  2  0  0  0  0  0  0  0  0  0
   14.0877    5.4162    4.1805 O   0  0  0  0  0  0  0  0  0  0  0  0
   12.3053    8.3984   12.4174 C   0  0  1  0  0  0  0  0  0  0  0  0
   11.8894    9.2757   13.4767 O   0  0  0  0  0  0  0  0  0  0  0  0
   15.0263    4.3841   10.7986 C   0  0  2  0  0  0  0  0  0  0  0  0
   15.2172    3.9764   12.2054 N   0  0  0  0  0  0  0  0  0  0  0  0
   11.7535    4.6790    4.5206 C   0  0  1  0  0  0  0  0  0  0  0  0
   11.2886    5.4011    3.2983 N   0  0  0  0  0  0  0  0  0  0  0  0
   12.3877    9.1411   11.0627 C   0  0  2  0  0  0  0  0  0  0  0  0
   11.0977    9.6869   10.7365 O   0  0  0  0  0  0  0  0  0  0  0  0
   13.5281    4.7083   10.5688 C   0  0  2  0  0  0  0  0  0  0  0  0
   10.8997    3.3846    4.7470 C   0  0  1  0  0  0  0  0  0  0  0  0
   11.0376    2.5185    3.6236 O   0  0  0  0  0  0  0  0  0  0  0  0
   12.8637    8.1420    9.9403 C   0  0  2  0  0  0  0  0  0  0  0  0
   14.1786    7.5747   10.2972 O   0  0  0  0  0  0  0  0  0  0  0  0
   13.3141    5.1288    9.0932 C   0  0  2  0  0  0  0  0  0  0  0  0
   11.9302    5.4035    8.9014 O   0  0  0  0  0  0  0  0  0  0  0  0
   11.4217    2.6601    6.0276 C   0  0  0  0  0  0  0  0  0  0  0  0
   12.8669    2.3520    5.9060 O   0  0  0  0  0  0  0  0  0  0  0  0
   12.9899    8.8386    8.5601 C   0  0  2  0  0  0  0  0  0  0  0  0
   11.7105    9.3141    8.1501 O   0  0  0  0  0  0  0  0  0  0  0  0
   13.7306    3.9994    8.1224 C   0  0  1  0  0  0  0  0  0  0  0  0
   13.5004    4.4893    6.7803 O   0  0  0  0  0  0  0  0  0  0  0  0
   13.4992    7.8815    7.4951 C   0  0  0  0  0  0  0  0  0  0  0  0
    9.4174    3.6979    4.9092 C   0  0  0  0  0  0  0  0  0  0  0  0
   11.0190    6.8046    3.6647 C   0  0  0  0  0  0  0  0  0  0  0  0
  1  2  1  6  0  0  0
  1  6  1  0  0  0  0
  1 23  1  0  0  0  0
  3  4  1  6  0  0  0
  3  8  1  0  0  0  0
  3 30  1  0  0  0  0
  5  9  1  0  0  0  0
  5 27  1  0  0  0  0
  5 31  1  1  0  0  0
  6  7  1  1  0  0  0
  6 11  1  0  0  0  0
  8 13  1  0  0  0  0
  9 10  1  1  0  0  0
  9 15  1  0  0  0  0
 11 12  1  1  0  0  0
 11 17  1  0  0  0  0
 13 14  1  1  0  0  0
 13 19  1  0  0  0  0
 15 16  1  6  0  0  0
 15 20  1  0  0  0  0
 16 34  1  0  0  0  0
 17 18  1  6  0  0  0
 17 22  1  0  0  0  0
 19  2  1  1  0  0  0
 19 24  1  0  0  0  0
 20 21  1  6  0  0  0
 20 26  1  0  0  0  0
 20 33  1  0  0  0  0
 22 23  1  1  0  0  0
 22 28  1  0  0  0  0
 24 25  1  1  0  0  0
 24 30  1  0  0  0  0
 26 27  1  0  0  0  0
 28 29  1  6  0  0  0
 28 32  1  0  0  0  0
 30 31  1  6  0  0  0
M  END
>  <CHROM.1>
-171.89142951,42.75529967,-111.79707493,-62.64354255,69.44891592,174.96612825
12.94180097,5.67990184,8.35824462,-1.34132646,0.95808749,-2.24383634

>  <Name>
ligand

>  <RI>
0

>  <Rbt.Current_Directory>
/home/itssahil/PROJECTS/Mol_Feturizer/New_Systems/rnas/3TD1

>  <Rbt.Executable>
rbdock ($Id: //depot/dev/client3/rdock/2013.1/src/exe/rbdock.cxx#4 $)

>  <Rbt.Library>
libRbt.so (2013.1, Build901 2013/11/27)

>  <Rbt.Parameter_File>
/export/apps/rDock/src/rDock_2013.1_src/data/scripts/dock_solv.prm

>  <Rbt.Receptor>
prm/pocket_docking_8.prm

>  <SCORE>
-10.9392

>  <SCORE.INTER>
-4.03441

>  <SCORE.INTER.CONST>
1

>  <SCORE.INTER.POLAR>
0

>  <SCORE.INTER.ROT>
6

>  <SCORE.INTER.SOLV>
10.091

>  <SCORE.INTER.VDW>
-13.6533

>  <SCORE.INTER.norm>
-0.118659

>  <SCORE.INTRA>
-6.90484

>  <SCORE.INTRA.DIHEDRAL>
-16.1063

>  <SCORE.INTRA.DIHEDRAL.0>
19.5869

>  <SCORE.INTRA.POLAR>
0

>  <SCORE.INTRA.POLAR.0>
0

>  <SCORE.INTRA.REPUL>
0

>  <SCORE.INTRA.REPUL.0>
0

>  <SCORE.INTRA.SOLV>
0.0235074

>  <SCORE.INTRA.SOLV.lig_0>
-70.101

>  <SCORE.INTRA.VDW>
1.13654

>  <SCORE.INTRA.VDW.0>
-3.39718

>  <SCORE.INTRA.norm>
-0.203083

>  <SCORE.RESTR>
0

>  <SCORE.RESTR.CAVITY>
0

>  <SCORE.RESTR.norm>
0

>  <SCORE.SYSTEM>
0

>  <SCORE.SYSTEM.CONST>
0

>  <SCORE.SYSTEM.DIHEDRAL>
0

>  <SCORE.SYSTEM.SOLV>
0

>  <SCORE.SYSTEM.norm>
0

>  <SCORE.heavy>
34

>  <SCORE.norm>
-0.321742

>  <RMSD>
8.314

$$$$
ligand
 OpenBabel11021811483D
libRbt.so/2013.1/901 2013/11/27
 34 36  0  0  0  0  0  0  0  0999 V2000
   10.8787    4.3019    3.9207 C   0  0  2  0  0  0  0  0  0  0  0  0
   11.5114    5.1914    4.8540 O   0  0  0  0  0  0  0  0  0  0  0  0
    9.9204    7.0436    8.3612 C   0  0  2  0  0  0  0  0  0  0  0  0
    9.1291    7.8969    9.2408 N   0  0  0  0  0  0  0  0  0  0  0  0
    7.3688    5.7246    9.4714 C   0  0  2  0  0  0  0  0  0  0  0  0
   11.9679    3.3040    3.3874 C   0  0  2  0  0  0  0  0  0  0  0  0
   12.5437    2.5107    4.4844 N   0  0  0  0  0  0  0  0  0  0  0  0
   10.6281    7.9734    7.3199 C   0  0  0  0  0  0  0  0  0  0  0  0
    7.0240    4.6148   10.5281 C   0  0  2  0  0  0  0  0  0  0  0  0
    8.1910    4.2583   11.2505 O   0  0  0  0  0  0  0  0  0  0  0  0
   13.0822    4.0983    2.6721 C   0  0  1  0  0  0  0  0  0  0  0  0
   14.0786    3.1904    2.1745 O   0  0  0  0  0  0  0  0  0  0  0  0
   11.4963    7.0604    6.3896 C   0  0  2  0  0  0  0  0  0  0  0  0
   12.1878    7.8835    5.3766 N   0  0  0  0  0  0  0  0  0  0  0  0
    6.4221    3.3674    9.7724 C   0  0  1  0  0  0  0  0  0  0  0  0
    6.0911    2.2740   10.7348 N   0  0  0  0  0  0  0  0  0  0  0  0
   12.4487    4.9291    1.5310 C   0  0  2  0  0  0  0  0  0  0  0  0
   13.4741    5.6834    0.8616 O   0  0  0  0  0  0  0  0  0  0  0  0
   10.6165    6.0088    5.6665 C   0  0  2  0  0  0  0  0  0  0  0  0
    5.1383    3.8149    8.9931 C   0  0  1  0  0  0  0  0  0  0  0  0
    4.1632    4.2959    9.9145 O   0  0  0  0  0  0  0  0  0  0  0  0
   11.3531    5.8941    2.1251 C   0  0  2  0  0  0  0  0  0  0  0  0
   10.3185    5.1087    2.8258 O   0  0  0  0  0  0  0  0  0  0  0  0
    9.8787    5.1448    6.7198 C   0  0  2  0  0  0  0  0  0  0  0  0
    9.0641    4.1998    6.0336 O   0  0  0  0  0  0  0  0  0  0  0  0
    5.5277    4.9596    8.0055 C   0  0  0  0  0  0  0  0  0  0  0  0
    6.1535    6.0910    8.7313 O   0  0  0  0  0  0  0  0  0  0  0  0
   10.6632    6.7370    1.0208 C   0  0  2  0  0  0  0  0  0  0  0  0
    9.7194    7.6214    1.6194 O   0  0  0  0  0  0  0  0  0  0  0  0
    8.9712    6.0137    7.6214 C   0  0  1  0  0  0  0  0  0  0  0  0
    8.3368    5.1215    8.5678 O   0  0  0  0  0  0  0  0  0  0  0  0
    9.9199    5.8578    0.0287 C   0  0  0  0  0  0  0  0  0  0  0  0
    4.5109    2.6646    8.2154 C   0  0  0  0  0  0  0  0  0  0  0  0
    7.3108    1.4767   10.9664 C   0  0  0  0  0  0  0  0  0  0  0  0
  1  2  1  1  0  0  0
  1  6  1  0  0  0  0
  1 23  1  0  0  0  0
  3  4  1  1  0  0  0
  3  8  1  0  0  0  0
  3 30  1  0  0  0  0
  5  9  1  0  0  0  0
  5 27  1  0  0  0  0
  5 31  1  6  0  0  0
  6  7  1  1  0  0  0
  6 11  1  0  0  0  0
  8 13  1  0  0  0  0
  9 10  1  6  0  0  0
  9 15  1  0  0  0  0
 11 12  1  6  0  0  0
 11 17  1  0  0  0  0
 13 14  1  6  0  0  0
 13 19  1  0  0  0  0
 15 16  1  1  0  0  0
 15 20  1  0  0  0  0
 16 34  1  0  0  0  0
 17 18  1  1  0  0  0
 17 22  1  0  0  0  0
 19  2  1  1  0  0  0
 19 24  1  0  0  0  0
 20 21  1  1  0  0  0
 20 26  1  0  0  0  0
 20 33  1  0  0  0  0
 22 23  1  6  0  0  0
 22 28  1  0  0  0  0
 24 25  1  6  0  0  0
 24 30  1  0  0  0  0
 26 27  1  0  0  0  0
 28 29  1  1  0  0  0
 28 32  1  0  0  0  0
 30 31  1  1  0  0  0
M  END
>  <CHROM.1>
-167.63575656,-169.58146376,-85.18979043,-177.96024828,67.59497609,-170.69431333
9.40067837,5.05595764,6.14317761,0.23328327,-0.92224345,-2.69720255

>  <Name>
ligand

>  <RI>
0

>  <Rbt.Current_Directory>
/home/itssahil/PROJECTS/Mol_Feturizer/New_Systems/rnas/3TD1

>  <Rbt.Executable>
rbdock ($Id: //depot/dev/client3/rdock/2013.1/src/exe/rbdock.cxx#4 $)

>  <Rbt.Library>
libRbt.so (2013.1, Build901 2013/11/27)

>  <Rbt.Parameter_File>
/export/apps/rDock/src/rDock_2013.1_src/data/scripts/dock_solv.prm

>  <Rbt.Receptor>
prm/pocket_docking_7.prm

>  <SCORE>
-15.4432

>  <SCORE.INTER>
-7.73205

>  <SCORE.INTER.CONST>
1

>  <SCORE.INTER.POLAR>
0

>  <SCORE.INTER.ROT>
6

>  <SCORE.INTER.SOLV>
16.5069

>  <SCORE.INTER.VDW>
-18.257

>  <SCORE.INTER.norm>
-0.227413

>  <SCORE.INTRA>
-7.71116

>  <SCORE.INTRA.DIHEDRAL>
-17.1004

>  <SCORE.INTRA.DIHEDRAL.0>
19.5869

>  <SCORE.INTRA.POLAR>
0

>  <SCORE.INTRA.POLAR.0>
0

>  <SCORE.INTRA.REPUL>
0

>  <SCORE.INTRA.REPUL.0>
0

>  <SCORE.INTRA.SOLV>
-1.88553

>  <SCORE.INTRA.SOLV.lig_0>
-70.101

>  <SCORE.INTRA.VDW>
1.78179

>  <SCORE.INTRA.VDW.0>
-3.39718

>  <SCORE.INTRA.norm>
-0.226799

>  <SCORE.RESTR>
0

>  <SCORE.RESTR.CAVITY>
0

>  <SCORE.RESTR.norm>
0

>  <SCORE.SYSTEM>
0

>  <SCORE.SYSTEM.CONST>
0

>  <SCORE.SYSTEM.DIHEDRAL>
0

>  <SCORE.SYSTEM.SOLV>
0

>  <SCORE.SYSTEM.norm>
0

>  <SCORE.heavy>
34

>  <SCORE.norm>
-0.454212

>  <RMSD>
8.324

$$$$
ligand
 OpenBabel11021811483D
libRbt.so/2013.1/901 2013/11/27
 34 36  0  0  0  0  0  0  0  0999 V2000
   14.2298    6.0457   10.1208 C   0  0  2  0  0  0  0  0  0  0  0  0
   13.6750    4.8488   10.6885 O   0  0  0  0  0  0  0  0  0  0  0  0
   13.7516    2.6810    7.0065 C   0  0  2  0  0  0  0  0  0  0  0  0
   13.7277    1.5884    6.0403 N   0  0  0  0  0  0  0  0  0  0  0  0
   10.8430    2.0404    5.9222 C   0  0  2  0  0  0  0  0  0  0  0  0
   14.5186    7.0497   11.2935 C   0  0  2  0  0  0  0  0  0  0  0  0
   15.4837    6.4856   12.2499 N   0  0  0  0  0  0  0  0  0  0  0  0
   14.8733    2.3588    8.0494 C   0  0  0  0  0  0  0  0  0  0  0  0
    9.8304    2.6977    4.9174 C   0  0  2  0  0  0  0  0  0  0  0  0
   10.4939    3.6783    4.1371 O   0  0  0  0  0  0  0  0  0  0  0  0
   13.1961    7.3844   12.0169 C   0  0  1  0  0  0  0  0  0  0  0  0
   13.4518    8.3091   13.0866 O   0  0  0  0  0  0  0  0  0  0  0  0
   14.9154    3.5427    9.0739 C   0  0  2  0  0  0  0  0  0  0  0  0
   15.9557    3.2929   10.0922 N   0  0  0  0  0  0  0  0  0  0  0  0
    8.6445    3.3353    5.7401 C   0  0  1  0  0  0  0  0  0  0  0  0
    7.6586    3.9893    4.8282 N   0  0  0  0  0  0  0  0  0  0  0  0
   12.1980    7.9664   10.9879 C   0  0  2  0  0  0  0  0  0  0  0  0
   10.9564    8.2733   11.6457 O   0  0  0  0  0  0  0  0  0  0  0  0
   13.5478    3.7108    9.7840 C   0  0  2  0  0  0  0  0  0  0  0  0
    7.9472    2.2123    6.5817 C   0  0  1  0  0  0  0  0  0  0  0  0
    7.4077    1.2248    5.7071 O   0  0  0  0  0  0  0  0  0  0  0  0
   11.9652    6.9234    9.8292 C   0  0  2  0  0  0  0  0  0  0  0  0
   13.2494    6.6027    9.1763 O   0  0  0  0  0  0  0  0  0  0  0  0
   12.4467    3.9646    8.7243 C   0  0  2  0  0  0  0  0  0  0  0  0
   11.1988    4.0973    9.3972 O   0  0  0  0  0  0  0  0  0  0  0  0
    9.0121    1.5533    7.5140 C   0  0  0  0  0  0  0  0  0  0  0  0
   10.1483    1.0229    6.7228 O   0  0  0  0  0  0  0  0  0  0  0  0
   10.9898    7.4637    8.7509 C   0  0  2  0  0  0  0  0  0  0  0  0
   11.3343    8.8091    8.4310 O   0  0  0  0  0  0  0  0  0  0  0  0
   12.3454    2.7863    7.7278 C   0  0  1  0  0  0  0  0  0  0  0  0
   11.3017    3.1205    6.7826 O   0  0  0  0  0  0  0  0  0  0  0  0
    9.5513    7.4507    9.2412 C   0  0  0  0  0  0  0  0  0  0  0  0
    6.8014    2.7574    7.4253 C   0  0  0  0  0  0  0  0  0  0  0  0
    7.9574    5.4334    4.7832 C   0  0  0  0  0  0  0  0  0  0  0  0
  1  2  1  1  0  0  0
  1  6  1  0  0  0  0
  1 23  1  0  0  0  0
  3  4  1  6  0  0  0
  3  8  1  0  0  0  0
  3 30  1  0  0  0  0
  5  9  1  0  0  0  0
  5 27  1  0  0  0  0
  5 31  1  1  0  0  0
  6  7  1  1  0  0  0
  6 11  1  0  0  0  0
  8 13  1  0  0  0  0
  9 10  1  1  0  0  0
  9 15  1  0  0  0  0
 11 12  1  1  0  0  0
 11 17  1  0  0  0  0
 13 14  1  1  0  0  0
 13 19  1  0  0  0  0
 15 16  1  6  0  0  0
 15 20  1  0  0  0  0
 16 34  1  0  0  0  0
 17 18  1  1  0  0  0
 17 22  1  0  0  0  0
 19  2  1  1  0  0  0
 19 24  1  0  0  0  0
 20 21  1  6  0  0  0
 20 26  1  0  0  0  0
 20 33  1  0  0  0  0
 22 23  1  6  0  0  0
 22 28  1  0  0  0  0
 24 25  1  1  0  0  0
 24 30  1  0  0  0  0
 26 27  1  0  0  0  0
 28 29  1  1  0  0  0
 28 32  1  0  0  0  0
 30 31  1  6  0  0  0
M  END
>  <CHROM.1>
-170.07912187,49.39773988,-97.52384314,44.90220706,76.38567973,-174.63876264
11.59381503,4.57424036,8.36543799,-0.91865742,0.41874769,-2.54963449

>  <Name>
ligand

>  <RI>
0

>  <Rbt.Current_Directory>
/home/itssahil/PROJECTS/Mol_Feturizer/New_Systems/rnas/3TD1

>  <Rbt.Executable>
rbdock ($Id: //depot/dev/client3/rdock/2013.1/src/exe/rbdock.cxx#4 $)

>  <Rbt.Library>
libRbt.so (2013.1, Build901 2013/11/27)

>  <Rbt.Parameter_File>
/export/apps/rDock/src/rDock_2013.1_src/data/scripts/dock_solv.prm

>  <Rbt.Receptor>
prm/pocket_docking_6.prm

>  <SCORE>
-9.2885

>  <SCORE.INTER>
-2.65981

>  <SCORE.INTER.CONST>
1

>  <SCORE.INTER.POLAR>
0

>  <SCORE.INTER.ROT>
6

>  <SCORE.INTER.SOLV>
11.9088

>  <SCORE.INTER.VDW>
-13.3428

>  <SCORE.INTER.norm>
-0.0782298

>  <SCORE.INTRA>
-6.62868

>  <SCORE.INTRA.DIHEDRAL>
-15.5146

>  <SCORE.INTRA.DIHEDRAL.0>
19.5869

>  <SCORE.INTRA.POLAR>
0

>  <SCORE.INTRA.POLAR.0>
0

>  <SCORE.INTRA.REPUL>
0

>  <SCORE.INTRA.REPUL.0>
0

>  <SCORE.INTRA.SOLV>
-0.33486

>  <SCORE.INTRA.SOLV.lig_0>
-70.101

>  <SCORE.INTRA.VDW>
1.29606

>  <SCORE.INTRA.VDW.0>
-3.39718

>  <SCORE.INTRA.norm>
-0.194961

>  <SCORE.RESTR>
0

>  <SCORE.RESTR.CAVITY>
0

>  <SCORE.RESTR.norm>
0

>  <SCORE.SYSTEM>
0

>  <SCORE.SYSTEM.CONST>
0

>  <SCORE.SYSTEM.DIHEDRAL>
0

>  <SCORE.SYSTEM.SOLV>
0

>  <SCORE.SYSTEM.norm>
0

>  <SCORE.heavy>
34

>  <SCORE.norm>
-0.273191

>  <RMSD>
8.331

$$$$
ligand
 OpenBabel11021811483D
libRbt.so/2013.1/901 2013/11/27
 34 36  0  0  0  0  0  0  0  0999 V2000
    9.8694    6.4217    5.9857 C   0  0  2  0  0  0  0  0  0  0  0  0
    9.6391    7.5940    6.7827 O   0  0  0  0  0  0  0  0  0  0  0  0
    8.0613    5.4241   10.1090 C   0  0  2  0  0  0  0  0  0  0  0  0
    7.5029    5.1082   11.4191 N   0  0  0  0  0  0  0  0  0  0  0  0
    4.8154    5.5401   10.0798 C   0  0  2  0  0  0  0  0  0  0  0  0
   11.1911    6.6440    5.1671 C   0  0  2  0  0  0  0  0  0  0  0  0
   12.3420    6.8445    6.0612 N   0  0  0  0  0  0  0  0  0  0  0  0
    9.3776    6.2374   10.3452 C   0  0  0  0  0  0  0  0  0  0  0  0
    3.9852    4.2210    9.8855 C   0  0  2  0  0  0  0  0  0  0  0  0
    4.8314    3.0929   10.0339 O   0  0  0  0  0  0  0  0  0  0  0  0
   11.0211    7.8715    4.2458 C   0  0  1  0  0  0  0  0  0  0  0  0
   12.2245    8.0760    3.4876 O   0  0  0  0  0  0  0  0  0  0  0  0
    9.9901    6.5570    8.9397 C   0  0  2  0  0  0  0  0  0  0  0  0
   11.2374    7.3324    9.0967 N   0  0  0  0  0  0  0  0  0  0  0  0
    3.3221    4.2477    8.4540 C   0  0  1  0  0  0  0  0  0  0  0  0
    2.5315    3.0034    8.2132 N   0  0  0  0  0  0  0  0  0  0  0  0
    9.8006    7.6382    3.3240 C   0  0  2  0  0  0  0  0  0  0  0  0
    9.6231    8.7791    2.4665 O   0  0  0  0  0  0  0  0  0  0  0  0
    8.9968    7.3738    8.0743 C   0  0  2  0  0  0  0  0  0  0  0  0
    2.3998    5.5097    8.3436 C   0  0  1  0  0  0  0  0  0  0  0  0
    1.3628    5.4306    9.3180 O   0  0  0  0  0  0  0  0  0  0  0  0
    8.5128    7.4024    4.2019 C   0  0  2  0  0  0  0  0  0  0  0  0
    8.7162    6.2417    5.0905 O   0  0  0  0  0  0  0  0  0  0  0  0
    7.6804    6.5738    7.9103 C   0  0  2  0  0  0  0  0  0  0  0  0
    6.7782    7.3501    7.1288 O   0  0  0  0  0  0  0  0  0  0  0  0
    3.2631    6.7835    8.6073 C   0  0  0  0  0  0  0  0  0  0  0  0
    3.9300    6.7031    9.9291 O   0  0  0  0  0  0  0  0  0  0  0  0
    7.2579    7.1367    3.3297 C   0  0  2  0  0  0  0  0  0  0  0  0
    6.8159    8.3610    2.7492 O   0  0  0  0  0  0  0  0  0  0  0  0
    7.0236    6.2879    9.2808 C   0  0  1  0  0  0  0  0  0  0  0  0
    5.8141    5.5367    9.0216 O   0  0  0  0  0  0  0  0  0  0  0  0
    6.1147    6.5675    4.1536 C   0  0  0  0  0  0  0  0  0  0  0  0
    1.7397    5.6180    6.9745 C   0  0  0  0  0  0  0  0  0  0  0  0
    3.4722    1.9116    7.8969 C   0  0  0  0  0  0  0  0  0  0  0  0
  1  2  1  1  0  0  0
  1  6  1  0  0  0  0
  1 23  1  0  0  0  0
  3  4  1  1  0  0  0
  3  8  1  0  0  0  0
  3 30  1  0  0  0  0
  5  9  1  0  0  0  0
  5 27  1  0  0  0  0
  5 31  1  6  0  0  0
  6  7  1  1  0  0  0
  6 11  1  0  0  0  0
  8 13  1  0  0  0  0
  9 10  1  6  0  0  0
  9 15  1  0  0  0  0
 11 12  1  6  0  0  0
 11 17  1  0  0  0  0
 13 14  1  1  0  0  0
 13 19  1  0  0  0  0
 15 16  1  1  0  0  0
 15 20  1  0  0  0  0
 16 34  1  0  0  0  0
 17 18  1  6  0  0  0
 17 22  1  0  0  0  0
 19  2  1  6  0  0  0
 19 24  1  0  0  0  0
 20 21  1  1  0  0  0
 20 26  1  0  0  0  0
 20 33  1  0  0  0  0
 22 23  1  1  0  0  0
 22 28  1  0  0  0  0
 24 25  1  6  0  0  0
 24 30  1  0  0  0  0
 26 27  1  0  0  0  0
 28 29  1  1  0  0  0
 28 32  1  0  0  0  0
 30 31  1  6  0  0  0
M  END
>  <CHROM.1>
-147.10954387,65.90040222,-77.17289648,-75.00528120,83.99338685,-154.61629074
7.06361772,6.22740885,7.20685321,-0.62535940,0.22296309,1.85018545

>  <Name>
ligand

>  <RI>
0

>  <Rbt.Current_Directory>
/home/itssahil/PROJECTS/Mol_Feturizer/New_Systems/rnas/3TD1

>  <Rbt.Executable>
rbdock ($Id: //depot/dev/client3/rdock/2013.1/src/exe/rbdock.cxx#4 $)

>  <Rbt.Library>
libRbt.so (2013.1, Build901 2013/11/27)

>  <Rbt.Parameter_File>
/export/apps/rDock/src/rDock_2013.1_src/data/scripts/dock_solv.prm

>  <Rbt.Receptor>
prm/pocket_docking_3.prm

>  <SCORE>
-8.83251

>  <SCORE.INTER>
-6.64575

>  <SCORE.INTER.CONST>
1

>  <SCORE.INTER.POLAR>
0

>  <SCORE.INTER.ROT>
6

>  <SCORE.INTER.SOLV>
15.889

>  <SCORE.INTER.VDW>
-17.3268

>  <SCORE.INTER.norm>
-0.195463

>  <SCORE.INTRA>
-2.18677

>  <SCORE.INTRA.DIHEDRAL>
-9.01891

>  <SCORE.INTRA.DIHEDRAL.0>
19.5869

>  <SCORE.INTRA.POLAR>
0

>  <SCORE.INTRA.POLAR.0>
0

>  <SCORE.INTRA.REPUL>
0

>  <SCORE.INTRA.REPUL.0>
0

>  <SCORE.INTRA.SOLV>
0.806685

>  <SCORE.INTRA.SOLV.lig_0>
-70.101

>  <SCORE.INTRA.VDW>
1.91935

>  <SCORE.INTRA.VDW.0>
-3.39718

>  <SCORE.INTRA.norm>
-0.0643166

>  <SCORE.RESTR>
0

>  <SCORE.RESTR.CAVITY>
0

>  <SCORE.RESTR.norm>
0

>  <SCORE.SYSTEM>
0

>  <SCORE.SYSTEM.CONST>
0

>  <SCORE.SYSTEM.DIHEDRAL>
0

>  <SCORE.SYSTEM.SOLV>
0

>  <SCORE.SYSTEM.norm>
0

>  <SCORE.heavy>
34

>  <SCORE.norm>
-0.25978

>  <RMSD>
8.345

$$$$
ligand
 OpenBabel11021811483D
libRbt.so/2013.1/901 2013/11/27
 34 36  0  0  0  0  0  0  0  0999 V2000
   11.4554    3.8081    4.2818 C   0  0  2  0  0  0  0  0  0  0  0  0
   12.2326    4.5007    5.2711 O   0  0  0  0  0  0  0  0  0  0  0  0
   10.9200    6.9973    8.4814 C   0  0  2  0  0  0  0  0  0  0  0  0
   10.3610    8.1217    9.2238 N   0  0  0  0  0  0  0  0  0  0  0  0
    8.0170    6.6887    9.2967 C   0  0  2  0  0  0  0  0  0  0  0  0
   12.3646    2.7004    3.6391 C   0  0  2  0  0  0  0  0  0  0  0  0
   12.8178    1.7329    4.6505 N   0  0  0  0  0  0  0  0  0  0  0  0
   12.0399    7.5643    7.5465 C   0  0  0  0  0  0  0  0  0  0  0  0
    7.0936    5.8143   10.2186 C   0  0  2  0  0  0  0  0  0  0  0  0
    7.8889    4.9812   11.0457 O   0  0  0  0  0  0  0  0  0  0  0  0
   13.5839    3.3673    2.9662 C   0  0  1  0  0  0  0  0  0  0  0  0
   14.4164    2.3598    2.3690 O   0  0  0  0  0  0  0  0  0  0  0  0
   12.6565    6.3546    6.7660 C   0  0  2  0  0  0  0  0  0  0  0  0
   13.7206    6.8287    5.8580 N   0  0  0  0  0  0  0  0  0  0  0  0
    6.1347    4.9566    9.3052 C   0  0  1  0  0  0  0  0  0  0  0  0
    5.2437    4.0928   10.1366 N   0  0  0  0  0  0  0  0  0  0  0  0
   13.0793    4.3847    1.9155 C   0  0  2  0  0  0  0  0  0  0  0  0
   14.2049    5.0224    1.2871 O   0  0  0  0  0  0  0  0  0  0  0  0
   11.5741    5.6226    5.9321 C   0  0  2  0  0  0  0  0  0  0  0  0
    5.2809    5.9229    8.4147 C   0  0  1  0  0  0  0  0  0  0  0  0
    4.4806    6.7582    9.2471 O   0  0  0  0  0  0  0  0  0  0  0  0
   12.1591    5.4556    2.6161 C   0  0  2  0  0  0  0  0  0  0  0  0
   11.0197    4.7862    3.2733 O   0  0  0  0  0  0  0  0  0  0  0  0
   10.4475    5.1284    6.8736 C   0  0  2  0  0  0  0  0  0  0  0  0
    9.4575    4.4765    6.0846 O   0  0  0  0  0  0  0  0  0  0  0  0
    6.2494    6.8086    7.5690 C   0  0  0  0  0  0  0  0  0  0  0  0
    7.1850    7.5518    8.4470 O   0  0  0  0  0  0  0  0  0  0  0  0
   11.6011    6.4907    1.6046 C   0  0  2  0  0  0  0  0  0  0  0  0
   10.8418    7.4743    2.3025 O   0  0  0  0  0  0  0  0  0  0  0  0
    9.7830    6.3083    7.6204 C   0  0  1  0  0  0  0  0  0  0  0  0
    8.7570    5.7457    8.4719 O   0  0  0  0  0  0  0  0  0  0  0  0
   10.6915    5.8355    0.5785 C   0  0  0  0  0  0  0  0  0  0  0  0
    4.3430    5.1644    7.4837 C   0  0  0  0  0  0  0  0  0  0  0  0
    5.7999    2.7263   10.1438 C   0  0  0  0  0  0  0  0  0  0  0  0
  1  2  1  1  0  0  0
  1  6  1  0  0  0  0
  1 23  1  0  0  0  0
  3  4  1  6  0  0  0
  3  8  1  0  0  0  0
  3 30  1  0  0  0  0
  5  9  1  0  0  0  0
  5 27  1  0  0  0  0
  5 31  1  6  0  0  0
  6  7  1  1  0  0  0
  6 11  1  0  0  0  0
  8 13  1  0  0  0  0
  9 10  1  6  0  0  0
  9 15  1  0  0  0  0
 11 12  1  6  0  0  0
 11 17  1  0  0  0  0
 13 14  1  6  0  0  0
 13 19  1  0  0  0  0
 15 16  1  1  0  0  0
 15 20  1  0  0  0  0
 16 34  1  0  0  0  0
 17 18  1  1  0  0  0
 17 22  1  0  0  0  0
 19  2  1  1  0  0  0
 19 24  1  0  0  0  0
 20 21  1  1  0  0  0
 20 26  1  0  0  0  0
 20 33  1  0  0  0  0
 22 23  1  6  0  0  0
 22 28  1  0  0  0  0
 24 25  1  6  0  0  0
 24 30  1  0  0  0  0
 26 27  1  0  0  0  0
 28 29  1  1  0  0  0
 28 32  1  0  0  0  0
 30 31  1  1  0  0  0
M  END
>  <CHROM.1>
176.82970293,-170.70349560,-100.40483570,-176.71714417,62.76212742,-174.07625923
9.91892711,5.36350185,6.18712820,0.74312641,-0.34358938,-2.08240794

>  <Name>
ligand

>  <RI>
0

>  <Rbt.Current_Directory>
/home/itssahil/PROJECTS/Mol_Feturizer/New_Systems/rnas/3TD1

>  <Rbt.Executable>
rbdock ($Id: //depot/dev/client3/rdock/2013.1/src/exe/rbdock.cxx#4 $)

>  <Rbt.Library>
libRbt.so (2013.1, Build901 2013/11/27)

>  <Rbt.Parameter_File>
/export/apps/rDock/src/rDock_2013.1_src/data/scripts/dock_solv.prm

>  <Rbt.Receptor>
prm/pocket_docking_7.prm

>  <SCORE>
-13.8983

>  <SCORE.INTER>
-5.51325

>  <SCORE.INTER.CONST>
1

>  <SCORE.INTER.POLAR>
0

>  <SCORE.INTER.ROT>
6

>  <SCORE.INTER.SOLV>
15.3725

>  <SCORE.INTER.VDW>
-16.3997

>  <SCORE.INTER.norm>
-0.162154

>  <SCORE.INTRA>
-8.385

>  <SCORE.INTRA.DIHEDRAL>
-17.8838

>  <SCORE.INTRA.DIHEDRAL.0>
19.5869

>  <SCORE.INTRA.POLAR>
0

>  <SCORE.INTRA.POLAR.0>
0

>  <SCORE.INTRA.REPUL>
0

>  <SCORE.INTRA.REPUL.0>
0

>  <SCORE.INTRA.SOLV>
-1.9328

>  <SCORE.INTRA.SOLV.lig_0>
-70.101

>  <SCORE.INTRA.VDW>
1.52328

>  <SCORE.INTRA.VDW.0>
-3.39718

>  <SCORE.INTRA.norm>
-0.246618

>  <SCORE.RESTR>
0

>  <SCORE.RESTR.CAVITY>
0

>  <SCORE.RESTR.norm>
0

>  <SCORE.SYSTEM>
0

>  <SCORE.SYSTEM.CONST>
0

>  <SCORE.SYSTEM.DIHEDRAL>
0

>  <SCORE.SYSTEM.SOLV>
0

>  <SCORE.SYSTEM.norm>
0

>  <SCORE.heavy>
34

>  <SCORE.norm>
-0.408772

>  <RMSD>
8.348

$$$$
ligand
 OpenBabel11021811483D
libRbt.so/2013.1/901 2013/11/27
 34 36  0  0  0  0  0  0  0  0999 V2000
   12.7429    5.0008    7.3887 C   0  0  2  0  0  0  0  0  0  0  0  0
   11.7201    6.0052    7.3019 O   0  0  0  0  0  0  0  0  0  0  0  0
    7.9509    6.3161    9.2913 C   0  0  2  0  0  0  0  0  0  0  0  0
    6.5864    6.0401    9.7272 N   0  0  0  0  0  0  0  0  0  0  0  0
    7.7818    4.6068   11.9104 C   0  0  2  0  0  0  0  0  0  0  0  0
   14.1359    5.7149    7.2609 C   0  0  2  0  0  0  0  0  0  0  0  0
   14.3340    6.6900    8.3445 N   0  0  0  0  0  0  0  0  0  0  0  0
    7.9404    6.3704    7.7271 C   0  0  0  0  0  0  0  0  0  0  0  0
    8.0344    4.8219   13.4457 C   0  0  2  0  0  0  0  0  0  0  0  0
    8.1705    6.2061   13.7222 O   0  0  0  0  0  0  0  0  0  0  0  0
   14.2222    6.4251    5.8925 C   0  0  1  0  0  0  0  0  0  0  0  0
   15.4978    7.0743    5.7655 O   0  0  0  0  0  0  0  0  0  0  0  0
    9.4005    6.6898    7.2591 C   0  0  2  0  0  0  0  0  0  0  0  0
    9.4568    6.7484    5.7843 N   0  0  0  0  0  0  0  0  0  0  0  0
    9.3355    4.0308   13.8591 C   0  0  1  0  0  0  0  0  0  0  0  0
    9.6292    4.2165   15.3119 N   0  0  0  0  0  0  0  0  0  0  0  0
   14.0017    5.3800    4.7732 C   0  0  2  0  0  0  0  0  0  0  0  0
   14.0687    6.0294    3.4917 O   0  0  0  0  0  0  0  0  0  0  0  0
   10.3920    5.6073    7.7568 C   0  0  2  0  0  0  0  0  0  0  0  0
    9.1325    2.5115   13.5338 C   0  0  1  0  0  0  0  0  0  0  0  0
    8.0374    2.0027   14.2907 O   0  0  0  0  0  0  0  0  0  0  0  0
   12.5998    4.6859    4.9671 C   0  0  2  0  0  0  0  0  0  0  0  0
   12.5375    4.0410    6.2931 O   0  0  0  0  0  0  0  0  0  0  0  0
   10.3349    5.5305    9.3030 C   0  0  2  0  0  0  0  0  0  0  0  0
   11.2387    4.5187    9.7354 O   0  0  0  0  0  0  0  0  0  0  0  0
    8.8230    2.3642   12.0106 C   0  0  0  0  0  0  0  0  0  0  0  0
    7.6374    3.1710   11.6340 O   0  0  0  0  0  0  0  0  0  0  0  0
   12.3333    3.6066    3.8854 C   0  0  2  0  0  0  0  0  0  0  0  0
   11.0317    3.0574    4.0739 O   0  0  0  0  0  0  0  0  0  0  0  0
    8.9150    5.1644    9.7941 C   0  0  1  0  0  0  0  0  0  0  0  0
    8.9648    5.1245   11.2399 O   0  0  0  0  0  0  0  0  0  0  0  0
   13.3394    2.4706    3.9689 C   0  0  0  0  0  0  0  0  0  0  0  0
   10.3614    1.6819   13.8848 C   0  0  0  0  0  0  0  0  0  0  0  0
   10.8216    5.0766   15.4365 C   0  0  0  0  0  0  0  0  0  0  0  0
  1  2  1  6  0  0  0
  1  6  1  0  0  0  0
  1 23  1  0  0  0  0
  3  4  1  6  0  0  0
  3  8  1  0  0  0  0
  3 30  1  0  0  0  0
  5  9  1  0  0  0  0
  5 27  1  0  0  0  0
  5 31  1  6  0  0  0
  6  7  1  1  0  0  0
  6 11  1  0  0  0  0
  8 13  1  0  0  0  0
  9 10  1  6  0  0  0
  9 15  1  0  0  0  0
 11 12  1  6  0  0  0
 11 17  1  0  0  0  0
 13 14  1  6  0  0  0
 13 19  1  0  0  0  0
 15 16  1  1  0  0  0
 15 20  1  0  0  0  0
 16 34  1  0  0  0  0
 17 18  1  6  0  0  0
 17 22  1  0  0  0  0
 19  2  1  1  0  0  0
 19 24  1  0  0  0  0
 20 21  1  1  0  0  0
 20 26  1  0  0  0  0
 20 33  1  0  0  0  0
 22 23  1  1  0  0  0
 22 28  1  0  0  0  0
 24 25  1  6  0  0  0
 24 30  1  0  0  0  0
 26 27  1  0  0  0  0
 28 29  1  1  0  0  0
 28 32  1  0  0  0  0
 30 31  1  1  0  0  0
M  END
>  <CHROM.1>
-163.89491987,-166.39633707,-108.73025010,-177.40284038,72.75489819,-173.87193730
10.64806744,4.83381557,9.12122475,-1.08216105,-0.11547258,1.78163658

>  <Name>
ligand

>  <RI>
0

>  <Rbt.Current_Directory>
/home/itssahil/PROJECTS/Mol_Feturizer/New_Systems/rnas/3TD1

>  <Rbt.Executable>
rbdock ($Id: //depot/dev/client3/rdock/2013.1/src/exe/rbdock.cxx#4 $)

>  <Rbt.Library>
libRbt.so (2013.1, Build901 2013/11/27)

>  <Rbt.Parameter_File>
/export/apps/rDock/src/rDock_2013.1_src/data/scripts/dock_solv.prm

>  <Rbt.Receptor>
prm/pocket_docking_8.prm

>  <SCORE>
-13.6249

>  <SCORE.INTER>
-5.72776

>  <SCORE.INTER.CONST>
1

>  <SCORE.INTER.POLAR>
0

>  <SCORE.INTER.ROT>
6

>  <SCORE.INTER.SOLV>
12.3867

>  <SCORE.INTER.VDW>
-15.5474

>  <SCORE.INTER.norm>
-0.168463

>  <SCORE.INTRA>
-7.8971

>  <SCORE.INTRA.DIHEDRAL>
-15.3619

>  <SCORE.INTRA.DIHEDRAL.0>
19.5869

>  <SCORE.INTRA.POLAR>
0

>  <SCORE.INTRA.POLAR.0>
0

>  <SCORE.INTRA.REPUL>
0

>  <SCORE.INTRA.REPUL.0>
0

>  <SCORE.INTRA.SOLV>
-1.87569

>  <SCORE.INTRA.SOLV.lig_0>
-70.101

>  <SCORE.INTRA.VDW>
0.721689

>  <SCORE.INTRA.VDW.0>
-3.39718

>  <SCORE.INTRA.norm>
-0.232268

>  <SCORE.RESTR>
0

>  <SCORE.RESTR.CAVITY>
0

>  <SCORE.RESTR.norm>
0

>  <SCORE.SYSTEM>
0

>  <SCORE.SYSTEM.CONST>
0

>  <SCORE.SYSTEM.DIHEDRAL>
0

>  <SCORE.SYSTEM.SOLV>
0

>  <SCORE.SYSTEM.norm>
0

>  <SCORE.heavy>
34

>  <SCORE.norm>
-0.400731

>  <RMSD>
8.354

$$$$
ligand
 OpenBabel11021811483D
libRbt.so/2013.1/901 2013/11/27
 34 36  0  0  0  0  0  0  0  0999 V2000
    8.2675    8.0990    2.5423 C   0  0  2  0  0  0  0  0  0  0  0  0
    7.9194    7.2368    1.4477 O   0  0  0  0  0  0  0  0  0  0  0  0
   10.2850    5.1202   -1.4133 C   0  0  2  0  0  0  0  0  0  0  0  0
   11.2433    4.8239   -2.4725 N   0  0  0  0  0  0  0  0  0  0  0  0
   13.3510    4.8140    0.0962 C   0  0  2  0  0  0  0  0  0  0  0  0
    7.0226    9.0006    2.8642 C   0  0  2  0  0  0  0  0  0  0  0  0
    5.8620    8.1843    3.2527 N   0  0  0  0  0  0  0  0  0  0  0  0
    9.3018    6.2071   -1.9624 C   0  0  0  0  0  0  0  0  0  0  0  0
   14.1151    4.4850    1.4285 C   0  0  2  0  0  0  0  0  0  0  0  0
   13.8560    3.1452    1.8141 O   0  0  0  0  0  0  0  0  0  0  0  0
    6.6745    9.8526    1.6242 C   0  0  1  0  0  0  0  0  0  0  0  0
    5.5406   10.6862    1.9145 O   0  0  0  0  0  0  0  0  0  0  0  0
    8.2585    6.5088   -0.8341 C   0  0  2  0  0  0  0  0  0  0  0  0
    7.3020    7.5369   -1.2921 N   0  0  0  0  0  0  0  0  0  0  0  0
   13.6445    5.4969    2.5438 C   0  0  1  0  0  0  0  0  0  0  0  0
   14.3327    5.2152    3.8393 N   0  0  0  0  0  0  0  0  0  0  0  0
    7.9131   10.6928    1.2326 C   0  0  2  0  0  0  0  0  0  0  0  0
    7.6071   11.4845    0.0714 O   0  0  0  0  0  0  0  0  0  0  0  0
    8.9620    7.0147    0.4512 C   0  0  2  0  0  0  0  0  0  0  0  0
   13.9534    6.9579    2.0688 C   0  0  1  0  0  0  0  0  0  0  0  0
   15.3579    7.1137    1.8842 O   0  0  0  0  0  0  0  0  0  0  0  0
    9.1309    9.7353    0.9419 C   0  0  2  0  0  0  0  0  0  0  0  0
    9.4211    8.9153    2.1342 O   0  0  0  0  0  0  0  0  0  0  0  0
    9.9749    5.9476    0.9363 C   0  0  2  0  0  0  0  0  0  0  0  0
   10.6209    6.4411    2.1052 O   0  0  0  0  0  0  0  0  0  0  0  0
   13.2212    7.2071    0.7126 C   0  0  0  0  0  0  0  0  0  0  0  0
   13.6290    6.2019   -0.2982 O   0  0  0  0  0  0  0  0  0  0  0  0
   10.4124   10.5250    0.5677 C   0  0  2  0  0  0  0  0  0  0  0  0
   10.2017   11.2165   -0.6606 O   0  0  0  0  0  0  0  0  0  0  0  0
   11.0505    5.6662   -0.1386 C   0  0  1  0  0  0  0  0  0  0  0  0
   11.9373    4.6595    0.4041 O   0  0  0  0  0  0  0  0  0  0  0  0
   11.6061    9.6016    0.3885 C   0  0  0  0  0  0  0  0  0  0  0  0
   13.5034    7.9980    3.0874 C   0  0  0  0  0  0  0  0  0  0  0  0
   13.5271    4.2305    4.5865 C   0  0  0  0  0  0  0  0  0  0  0  0
  1  2  1  6  0  0  0
  1  6  1  0  0  0  0
  1 23  1  0  0  0  0
  3  4  1  6  0  0  0
  3  8  1  0  0  0  0
  3 30  1  0  0  0  0
  5  9  1  0  0  0  0
  5 27  1  0  0  0  0
  5 31  1  1  0  0  0
  6  7  1  6  0  0  0
  6 11  1  0  0  0  0
  8 13  1  0  0  0  0
  9 10  1  1  0  0  0
  9 15  1  0  0  0  0
 11 12  1  1  0  0  0
 11 17  1  0  0  0  0
 13 14  1  6  0  0  0
 13 19  1  0  0  0  0
 15 16  1  1  0  0  0
 15 20  1  0  0  0  0
 16 34  1  0  0  0  0
 17 18  1  6  0  0  0
 17 22  1  0  0  0  0
 19  2  1  1  0  0  0
 19 24  1  0  0  0  0
 20 21  1  6  0  0  0
 20 26  1  0  0  0  0
 20 33  1  0  0  0  0
 22 23  1  1  0  0  0
 22 28  1  0  0  0  0
 24 25  1  1  0  0  0
 24 30  1  0  0  0  0
 26 27  1  0  0  0  0
 28 29  1  6  0  0  0
 28 32  1  0  0  0  0
 30 31  1  1  0  0  0
M  END
>  <CHROM.1>
140.36985434,-160.43174715,-88.81872640,-64.66332790,102.23357683,138.05183671
10.57983271,7.31141149,1.06606725,-2.79008253,0.52333690,-2.33151602

>  <Name>
ligand

>  <RI>
0

>  <Rbt.Current_Directory>
/home/itssahil/PROJECTS/Mol_Feturizer/New_Systems/rnas/3TD1

>  <Rbt.Executable>
rbdock ($Id: //depot/dev/client3/rdock/2013.1/src/exe/rbdock.cxx#4 $)

>  <Rbt.Library>
libRbt.so (2013.1, Build901 2013/11/27)

>  <Rbt.Parameter_File>
/export/apps/rDock/src/rDock_2013.1_src/data/scripts/dock_solv.prm

>  <Rbt.Receptor>
prm/blind_docking_20.prm

>  <SCORE>
51.0801

>  <SCORE.INTER>
35.9524

>  <SCORE.INTER.CONST>
1

>  <SCORE.INTER.POLAR>
0

>  <SCORE.INTER.ROT>
6

>  <SCORE.INTER.SOLV>
27.7909

>  <SCORE.INTER.VDW>
7.10462

>  <SCORE.INTER.norm>
1.05742

>  <SCORE.INTRA>
5.24895

>  <SCORE.INTRA.DIHEDRAL>
-0.453013

>  <SCORE.INTRA.DIHEDRAL.0>
19.5869

>  <SCORE.INTRA.POLAR>
0

>  <SCORE.INTRA.POLAR.0>
0

>  <SCORE.INTRA.REPUL>
0

>  <SCORE.INTRA.REPUL.0>
0

>  <SCORE.INTRA.SOLV>
0.0252934

>  <SCORE.INTRA.SOLV.lig_0>
-70.101

>  <SCORE.INTRA.VDW>
5.46281

>  <SCORE.INTRA.VDW.0>
-3.39718

>  <SCORE.INTRA.norm>
0.154381

>  <SCORE.RESTR>
9.87877

>  <SCORE.RESTR.CAVITY>
9.87877

>  <SCORE.RESTR.norm>
0.290552

>  <SCORE.SYSTEM>
0

>  <SCORE.SYSTEM.CONST>
0

>  <SCORE.SYSTEM.DIHEDRAL>
0

>  <SCORE.SYSTEM.SOLV>
0

>  <SCORE.SYSTEM.norm>
0

>  <SCORE.heavy>
34

>  <SCORE.norm>
1.50236

>  <RMSD>
8.380

$$$$
ligand
 OpenBabel11021811483D
libRbt.so/2013.1/901 2013/11/27
 34 36  0  0  0  0  0  0  0  0999 V2000
   14.8707    3.8935    8.0266 C   0  0  2  0  0  0  0  0  0  0  0  0
   13.6204    3.1934    7.9308 O   0  0  0  0  0  0  0  0  0  0  0  0
   13.6023    3.1404    3.6578 C   0  0  2  0  0  0  0  0  0  0  0  0
   13.2085    2.8875    2.2761 N   0  0  0  0  0  0  0  0  0  0  0  0
   13.7425    6.1483    3.7328 C   0  0  2  0  0  0  0  0  0  0  0  0
   15.5055    3.5629    9.4246 C   0  0  2  0  0  0  0  0  0  0  0  0
   15.7565    2.1202    9.5659 N   0  0  0  0  0  0  0  0  0  0  0  0
   13.6550    1.7580    4.3898 C   0  0  0  0  0  0  0  0  0  0  0  0
   13.3434    7.6185    3.3503 C   0  0  2  0  0  0  0  0  0  0  0  0
   12.4440    8.1399    4.3148 O   0  0  0  0  0  0  0  0  0  0  0  0
   14.5559    4.0432   10.5434 C   0  0  1  0  0  0  0  0  0  0  0  0
   15.1344    3.7509   11.8259 O   0  0  0  0  0  0  0  0  0  0  0  0
   14.1003    2.0261    5.8672 C   0  0  2  0  0  0  0  0  0  0  0  0
   14.1630    0.7538    6.6148 N   0  0  0  0  0  0  0  0  0  0  0  0
   12.6902    7.6071    1.9141 C   0  0  1  0  0  0  0  0  0  0  0  0
   12.2773    8.9843    1.5090 N   0  0  0  0  0  0  0  0  0  0  0  0
   14.3021    5.5590   10.3658 C   0  0  2  0  0  0  0  0  0  0  0  0
   13.4097    6.0192   11.3956 O   0  0  0  0  0  0  0  0  0  0  0  0
   13.1083    2.9796    6.5812 C   0  0  2  0  0  0  0  0  0  0  0  0
   13.7229    7.0240    0.8898 C   0  0  1  0  0  0  0  0  0  0  0  0
   14.8795    7.8558    0.8511 O   0  0  0  0  0  0  0  0  0  0  0  0
   13.6850    5.8282    8.9406 C   0  0  2  0  0  0  0  0  0  0  0  0
   14.6014    5.3335    7.8947 O   0  0  0  0  0  0  0  0  0  0  0  0
   13.0274    4.3151    5.8003 C   0  0  2  0  0  0  0  0  0  0  0  0
   12.0983    5.1665    6.4632 O   0  0  0  0  0  0  0  0  0  0  0  0
   14.1305    5.5901    1.3535 C   0  0  0  0  0  0  0  0  0  0  0  0
   14.6777    5.6180    2.7312 O   0  0  0  0  0  0  0  0  0  0  0  0
   13.4320    7.3387    8.6947 C   0  0  2  0  0  0  0  0  0  0  0  0
   12.9996    7.5345    7.3508 O   0  0  0  0  0  0  0  0  0  0  0  0
   12.5391    4.0882    4.3506 C   0  0  1  0  0  0  0  0  0  0  0  0
   12.5041    5.3846    3.7085 O   0  0  0  0  0  0  0  0  0  0  0  0
   14.6937    8.1588    8.9067 C   0  0  0  0  0  0  0  0  0  0  0  0
   13.1538    6.9586   -0.5222 C   0  0  0  0  0  0  0  0  0  0  0  0
   10.8248    9.1161    1.7320 C   0  0  0  0  0  0  0  0  0  0  0  0
  1  2  1  1  0  0  0
  1  6  1  0  0  0  0
  1 23  1  0  0  0  0
  3  4  1  6  0  0  0
  3  8  1  0  0  0  0
  3 30  1  0  0  0  0
  5  9  1  0  0  0  0
  5 27  1  0  0  0  0
  5 31  1  6  0  0  0
  6  7  1  6  0  0  0
  6 11  1  0  0  0  0
  8 13  1  0  0  0  0
  9 10  1  1  0  0  0
  9 15  1  0  0  0  0
 11 12  1  1  0  0  0
 11 17  1  0  0  0  0
 13 14  1  1  0  0  0
 13 19  1  0  0  0  0
 15 16  1  6  0  0  0
 15 20  1  0  0  0  0
 16 34  1  0  0  0  0
 17 18  1  1  0  0  0
 17 22  1  0  0  0  0
 19  2  1  1  0  0  0
 19 24  1  0  0  0  0
 20 21  1  6  0  0  0
 20 26  1  0  0  0  0
 20 33  1  0  0  0  0
 22 23  1  6  0  0  0
 22 28  1  0  0  0  0
 24 25  1  1  0  0  0
 24 30  1  0  0  0  0
 26 27  1  0  0  0  0
 28 29  1  6  0  0  0
 28 32  1  0  0  0  0
 30 31  1  6  0  0  0
M  END
>  <CHROM.1>
-159.15597620,65.64933712,-100.26080733,174.35651336,-60.82185214,-164.73388720
13.65188592,5.32305466,5.67252790,-0.65100636,1.37373313,-2.14615721

>  <Name>
ligand

>  <RI>
0

>  <Rbt.Current_Directory>
/home/itssahil/PROJECTS/Mol_Feturizer/New_Systems/rnas/3TD1

>  <Rbt.Executable>
rbdock ($Id: //depot/dev/client3/rdock/2013.1/src/exe/rbdock.cxx#4 $)

>  <Rbt.Library>
libRbt.so (2013.1, Build901 2013/11/27)

>  <Rbt.Parameter_File>
/export/apps/rDock/src/rDock_2013.1_src/data/scripts/dock_solv.prm

>  <Rbt.Receptor>
prm/pocket_docking_7.prm

>  <SCORE>
-12.3784

>  <SCORE.INTER>
-7.25407

>  <SCORE.INTER.CONST>
1

>  <SCORE.INTER.POLAR>
0

>  <SCORE.INTER.ROT>
6

>  <SCORE.INTER.SOLV>
11.4432

>  <SCORE.INTER.VDW>
-16.2505

>  <SCORE.INTER.norm>
-0.213355

>  <SCORE.INTRA>
-5.12435

>  <SCORE.INTRA.DIHEDRAL>
-15.3095

>  <SCORE.INTRA.DIHEDRAL.0>
19.5869

>  <SCORE.INTRA.POLAR>
0

>  <SCORE.INTRA.POLAR.0>
0

>  <SCORE.INTRA.REPUL>
0

>  <SCORE.INTRA.REPUL.0>
0

>  <SCORE.INTRA.SOLV>
1.57858

>  <SCORE.INTRA.SOLV.lig_0>
-70.101

>  <SCORE.INTRA.VDW>
1.74113

>  <SCORE.INTRA.VDW.0>
-3.39718

>  <SCORE.INTRA.norm>
-0.150716

>  <SCORE.RESTR>
0

>  <SCORE.RESTR.CAVITY>
0

>  <SCORE.RESTR.norm>
0

>  <SCORE.SYSTEM>
0

>  <SCORE.SYSTEM.CONST>
0

>  <SCORE.SYSTEM.DIHEDRAL>
0

>  <SCORE.SYSTEM.SOLV>
0

>  <SCORE.SYSTEM.norm>
0

>  <SCORE.heavy>
34

>  <SCORE.norm>
-0.364071

>  <RMSD>
8.429

$$$$
ligand
 OpenBabel11021811483D
libRbt.so/2013.1/901 2013/11/27
 34 36  0  0  0  0  0  0  0  0999 V2000
   10.3039    9.2451    2.5403 C   0  0  2  0  0  0  0  0  0  0  0  0
   10.8707    8.2823    1.6380 O   0  0  0  0  0  0  0  0  0  0  0  0
   14.4947    6.0452    1.2868 C   0  0  2  0  0  0  0  0  0  0  0  0
   15.8838    5.6242    1.4329 N   0  0  0  0  0  0  0  0  0  0  0  0
   13.0352    3.6569    2.3480 C   0  0  2  0  0  0  0  0  0  0  0  0
    9.0190    8.6101    3.1824 C   0  0  2  0  0  0  0  0  0  0  0  0
    9.3492    7.3901    3.9352 N   0  0  0  0  0  0  0  0  0  0  0  0
   14.5054    7.5134    0.7447 C   0  0  0  0  0  0  0  0  0  0  0  0
   12.2687    2.7017    3.3315 C   0  0  2  0  0  0  0  0  0  0  0  0
   11.3131    3.4409    4.0739 O   0  0  0  0  0  0  0  0  0  0  0  0
    8.0006    8.2813    2.0692 C   0  0  1  0  0  0  0  0  0  0  0  0
    6.8188    7.7070    2.6506 O   0  0  0  0  0  0  0  0  0  0  0  0
   13.0145    7.9581    0.5654 C   0  0  2  0  0  0  0  0  0  0  0  0
   12.9582    9.3446    0.0594 N   0  0  0  0  0  0  0  0  0  0  0  0
   13.3185    2.0124    4.2867 C   0  0  1  0  0  0  0  0  0  0  0  0
   12.6360    1.1026    5.2552 N   0  0  0  0  0  0  0  0  0  0  0  0
    7.6785    9.5779    1.2889 C   0  0  2  0  0  0  0  0  0  0  0  0
    6.7383    9.2850    0.2407 O   0  0  0  0  0  0  0  0  0  0  0  0
   12.2475    7.8829    1.9103 C   0  0  2  0  0  0  0  0  0  0  0  0
   14.3476    1.2110    3.4182 C   0  0  1  0  0  0  0  0  0  0  0  0
   13.6673    0.1932    2.6887 O   0  0  0  0  0  0  0  0  0  0  0  0
    9.0067   10.1764    0.6871 C   0  0  2  0  0  0  0  0  0  0  0  0
    9.9693   10.4534    1.7710 O   0  0  0  0  0  0  0  0  0  0  0  0
   12.3075    6.4341    2.4555 C   0  0  2  0  0  0  0  0  0  0  0  0
   11.6135    6.3935    3.6981 O   0  0  0  0  0  0  0  0  0  0  0  0
   15.0315    2.1964    2.4189 C   0  0  0  0  0  0  0  0  0  0  0  0
   14.0194    2.8821    1.5799 O   0  0  0  0  0  0  0  0  0  0  0  0
    8.7491   11.4955   -0.0872 C   0  0  2  0  0  0  0  0  0  0  0  0
    7.9335   12.3573    0.7023 O   0  0  0  0  0  0  0  0  0  0  0  0
   13.7680    5.9845    2.6928 C   0  0  1  0  0  0  0  0  0  0  0  0
   13.7167    4.6270    3.1916 O   0  0  0  0  0  0  0  0  0  0  0  0
    8.0294   11.2411   -1.4014 C   0  0  0  0  0  0  0  0  0  0  0  0
   15.4123    0.5337    4.2723 C   0  0  0  0  0  0  0  0  0  0  0  0
   12.4734    1.8243    6.5318 C   0  0  0  0  0  0  0  0  0  0  0  0
  1  2  1  6  0  0  0
  1  6  1  0  0  0  0
  1 23  1  0  0  0  0
  3  4  1  1  0  0  0
  3  8  1  0  0  0  0
  3 30  1  0  0  0  0
  5  9  1  0  0  0  0
  5 27  1  0  0  0  0
  5 31  1  1  0  0  0
  6  7  1  6  0  0  0
  6 11  1  0  0  0  0
  8 13  1  0  0  0  0
  9 10  1  1  0  0  0
  9 15  1  0  0  0  0
 11 12  1  1  0  0  0
 11 17  1  0  0  0  0
 13 14  1  1  0  0  0
 13 19  1  0  0  0  0
 15 16  1  1  0  0  0
 15 20  1  0  0  0  0
 16 34  1  0  0  0  0
 17 18  1  6  0  0  0
 17 22  1  0  0  0  0
 19  2  1  6  0  0  0
 19 24  1  0  0  0  0
 20 21  1  6  0  0  0
 20 26  1  0  0  0  0
 20 33  1  0  0  0  0
 22 23  1  1  0  0  0
 22 28  1  0  0  0  0
 24 25  1  1  0  0  0
 24 30  1  0  0  0  0
 26 27  1  0  0  0  0
 28 29  1  1  0  0  0
 28 32  1  0  0  0  0
 30 31  1  6  0  0  0
M  END
>  <CHROM.1>
-121.73181941,-132.43363067,-98.12995434,47.72854027,-58.89632395,-142.36888177
11.56628038,6.28068323,2.28348308,2.16086481,0.33718621,-0.54024926

>  <Name>
ligand

>  <RI>
0

>  <Rbt.Current_Directory>
/home/itssahil/PROJECTS/Mol_Feturizer/New_Systems/rnas/3TD1

>  <Rbt.Executable>
rbdock ($Id: //depot/dev/client3/rdock/2013.1/src/exe/rbdock.cxx#4 $)

>  <Rbt.Library>
libRbt.so (2013.1, Build901 2013/11/27)

>  <Rbt.Parameter_File>
/export/apps/rDock/src/rDock_2013.1_src/data/scripts/dock_solv.prm

>  <Rbt.Receptor>
prm/blind_docking_20.prm

>  <SCORE>
16.349

>  <SCORE.INTER>
3.13015

>  <SCORE.INTER.CONST>
1

>  <SCORE.INTER.POLAR>
0

>  <SCORE.INTER.ROT>
6

>  <SCORE.INTER.SOLV>
23.6246

>  <SCORE.INTER.VDW>
-13.3881

>  <SCORE.INTER.norm>
0.0920634

>  <SCORE.INTRA>
2.58346

>  <SCORE.INTRA.DIHEDRAL>
0.494811

>  <SCORE.INTRA.DIHEDRAL.0>
19.5869

>  <SCORE.INTRA.POLAR>
0

>  <SCORE.INTRA.POLAR.0>
0

>  <SCORE.INTRA.REPUL>
0.0263762

>  <SCORE.INTRA.REPUL.0>
0

>  <SCORE.INTRA.SOLV>
1.44152

>  <SCORE.INTRA.SOLV.lig_0>
-70.101

>  <SCORE.INTRA.VDW>
1.48341

>  <SCORE.INTRA.VDW.0>
-3.39718

>  <SCORE.INTRA.norm>
0.0759841

>  <SCORE.RESTR>
10.6354

>  <SCORE.RESTR.CAVITY>
10.6354

>  <SCORE.RESTR.norm>
0.312806

>  <SCORE.SYSTEM>
0

>  <SCORE.SYSTEM.CONST>
0

>  <SCORE.SYSTEM.DIHEDRAL>
0

>  <SCORE.SYSTEM.SOLV>
0

>  <SCORE.SYSTEM.norm>
0

>  <SCORE.heavy>
34

>  <SCORE.norm>
0.480853

>  <RMSD>
8.459

$$$$
ligand
 OpenBabel11021811483D
libRbt.so/2013.1/901 2013/11/27
 34 36  0  0  0  0  0  0  0  0999 V2000
   14.0897    4.7344    9.6779 C   0  0  2  0  0  0  0  0  0  0  0  0
   12.7357    4.3142    9.4485 O   0  0  0  0  0  0  0  0  0  0  0  0
   13.8132    1.3376    6.5778 C   0  0  2  0  0  0  0  0  0  0  0  0
   13.7471    0.1919    5.6771 N   0  0  0  0  0  0  0  0  0  0  0  0
   12.4433    2.4962    3.6414 C   0  0  2  0  0  0  0  0  0  0  0  0
   14.1047    5.6441   10.9580 C   0  0  2  0  0  0  0  0  0  0  0  0
   13.6293    4.9067   12.1390 N   0  0  0  0  0  0  0  0  0  0  0  0
   13.3910    0.8394    8.0002 C   0  0  0  0  0  0  0  0  0  0  0  0
   13.1518    3.0819    2.3678 C   0  0  2  0  0  0  0  0  0  0  0  0
   14.4746    2.5789    2.2783 O   0  0  0  0  0  0  0  0  0  0  0  0
   13.2124    6.8809   10.7164 C   0  0  1  0  0  0  0  0  0  0  0  0
   13.2278    7.7220   11.8813 O   0  0  0  0  0  0  0  0  0  0  0  0
   13.4840    2.0636    8.9727 C   0  0  2  0  0  0  0  0  0  0  0  0
   13.0897    1.6564   10.3366 N   0  0  0  0  0  0  0  0  0  0  0  0
   13.1498    4.6565    2.4679 C   0  0  1  0  0  0  0  0  0  0  0  0
   13.8287    5.2635    1.2838 N   0  0  0  0  0  0  0  0  0  0  0  0
   13.7282    7.6315    9.4657 C   0  0  2  0  0  0  0  0  0  0  0  0
   12.8995    8.7814    9.2215 O   0  0  0  0  0  0  0  0  0  0  0  0
   12.5577    3.2152    8.5051 C   0  0  2  0  0  0  0  0  0  0  0  0
   11.6685    5.1587    2.5638 C   0  0  1  0  0  0  0  0  0  0  0  0
   10.9590    4.7821    1.3866 O   0  0  0  0  0  0  0  0  0  0  0  0
   13.7079    6.6630    8.2222 C   0  0  2  0  0  0  0  0  0  0  0  0
   14.5458    5.4788    8.4940 O   0  0  0  0  0  0  0  0  0  0  0  0
   12.9563    3.6449    7.0711 C   0  0  2  0  0  0  0  0  0  0  0  0
   12.0817    4.6892    6.6565 O   0  0  0  0  0  0  0  0  0  0  0  0
   10.9968    4.4971    3.8081 C   0  0  0  0  0  0  0  0  0  0  0  0
   11.0724    3.0187    3.7234 O   0  0  0  0  0  0  0  0  0  0  0  0
   14.2403    7.3550    6.9402 C   0  0  2  0  0  0  0  0  0  0  0  0
   13.3215    8.3642    6.5295 O   0  0  0  0  0  0  0  0  0  0  0  0
   12.8239    2.4683    6.0762 C   0  0  1  0  0  0  0  0  0  0  0  0
   13.2221    2.9664    4.7771 O   0  0  0  0  0  0  0  0  0  0  0  0
   14.3965    6.3676    5.7955 C   0  0  0  0  0  0  0  0  0  0  0  0
   11.5852    6.6751    2.6879 C   0  0  0  0  0  0  0  0  0  0  0  0
   14.9699    6.0651    1.7656 C   0  0  0  0  0  0  0  0  0  0  0  0
  1  2  1  6  0  0  0
  1  6  1  0  0  0  0
  1 23  1  0  0  0  0
  3  4  1  6  0  0  0
  3  8  1  0  0  0  0
  3 30  1  0  0  0  0
  5  9  1  0  0  0  0
  5 27  1  0  0  0  0
  5 31  1  1  0  0  0
  6  7  1  1  0  0  0
  6 11  1  0  0  0  0
  8 13  1  0  0  0  0
  9 10  1  1  0  0  0
  9 15  1  0  0  0  0
 11 12  1  1  0  0  0
 11 17  1  0  0  0  0
 13 14  1  1  0  0  0
 13 19  1  0  0  0  0
 15 16  1  6  0  0  0
 15 20  1  0  0  0  0
 16 34  1  0  0  0  0
 17 18  1  6  0  0  0
 17 22  1  0  0  0  0
 19  2  1  1  0  0  0
 19 24  1  0  0  0  0
 20 21  1  6  0  0  0
 20 26  1  0  0  0  0
 20 33  1  0  0  0  0
 22 23  1  1  0  0  0
 22 28  1  0  0  0  0
 24 25  1  6  0  0  0
 24 30  1  0  0  0  0
 26 27  1  0  0  0  0
 28 29  1  6  0  0  0
 28 32  1  0  0  0  0
 30 31  1  6  0  0  0
M  END
>  <CHROM.1>
-165.87907706,52.60309923,-120.50816654,-68.27534803,103.28006539,-175.34361025
13.14612443,4.63551687,6.44660253,-0.03378975,1.47540565,2.95442397

>  <Name>
ligand

>  <RI>
0

>  <Rbt.Current_Directory>
/home/itssahil/PROJECTS/Mol_Feturizer/New_Systems/rnas/3TD1

>  <Rbt.Executable>
rbdock ($Id: //depot/dev/client3/rdock/2013.1/src/exe/rbdock.cxx#4 $)

>  <Rbt.Library>
libRbt.so (2013.1, Build901 2013/11/27)

>  <Rbt.Parameter_File>
/export/apps/rDock/src/rDock_2013.1_src/data/scripts/dock_solv.prm

>  <Rbt.Receptor>
prm/pocket_docking_7.prm

>  <SCORE>
-13.576

>  <SCORE.INTER>
-7.69469

>  <SCORE.INTER.CONST>
1

>  <SCORE.INTER.POLAR>
0

>  <SCORE.INTER.ROT>
6

>  <SCORE.INTER.SOLV>
11.0958

>  <SCORE.INTER.VDW>
-16.4284

>  <SCORE.INTER.norm>
-0.226314

>  <SCORE.INTRA>
-5.88134

>  <SCORE.INTRA.DIHEDRAL>
-10.9423

>  <SCORE.INTRA.DIHEDRAL.0>
19.5869

>  <SCORE.INTRA.POLAR>
0

>  <SCORE.INTRA.POLAR.0>
0

>  <SCORE.INTRA.REPUL>
0

>  <SCORE.INTRA.REPUL.0>
0

>  <SCORE.INTRA.SOLV>
-0.69041

>  <SCORE.INTRA.SOLV.lig_0>
-70.101

>  <SCORE.INTRA.VDW>
-0.0650005

>  <SCORE.INTRA.VDW.0>
-3.39718

>  <SCORE.INTRA.norm>
-0.172981

>  <SCORE.RESTR>
0

>  <SCORE.RESTR.CAVITY>
0

>  <SCORE.RESTR.norm>
0

>  <SCORE.SYSTEM>
0

>  <SCORE.SYSTEM.CONST>
0

>  <SCORE.SYSTEM.DIHEDRAL>
0

>  <SCORE.SYSTEM.SOLV>
0

>  <SCORE.SYSTEM.norm>
0

>  <SCORE.heavy>
34

>  <SCORE.norm>
-0.399295

>  <RMSD>
8.486

$$$$
ligand
 OpenBabel11021811483D
libRbt.so/2013.1/901 2013/11/27
 34 36  0  0  0  0  0  0  0  0999 V2000
   10.8048    6.3872    7.7994 C   0  0  2  0  0  0  0  0  0  0  0  0
   10.3505    7.2798    6.7700 O   0  0  0  0  0  0  0  0  0  0  0  0
    6.6420    7.0540    4.6588 C   0  0  2  0  0  0  0  0  0  0  0  0
    5.6048    6.6442    3.7184 N   0  0  0  0  0  0  0  0  0  0  0  0
    5.3024    6.6271    7.3366 C   0  0  2  0  0  0  0  0  0  0  0  0
   10.8208    7.1792    9.1555 C   0  0  2  0  0  0  0  0  0  0  0  0
    9.4755    7.6618    9.5044 N   0  0  0  0  0  0  0  0  0  0  0  0
    7.9200    7.4000    3.8241 C   0  0  0  0  0  0  0  0  0  0  0  0
    5.1625    5.9859    8.7636 C   0  0  2  0  0  0  0  0  0  0  0  0
    6.4301    5.5422    9.2188 O   0  0  0  0  0  0  0  0  0  0  0  0
   11.7934    8.3728    9.0387 C   0  0  1  0  0  0  0  0  0  0  0  0
   11.8190    9.0976   10.2791 O   0  0  0  0  0  0  0  0  0  0  0  0
    9.0269    7.8625    4.8310 C   0  0  2  0  0  0  0  0  0  0  0  0
   10.2657    8.1987    4.1005 N   0  0  0  0  0  0  0  0  0  0  0  0
    4.1389    4.7881    8.6810 C   0  0  1  0  0  0  0  0  0  0  0  0
    3.9820    4.1324   10.0140 N   0  0  0  0  0  0  0  0  0  0  0  0
   13.1958    7.8386    8.6627 C   0  0  2  0  0  0  0  0  0  0  0  0
   14.1112    8.9411    8.5397 O   0  0  0  0  0  0  0  0  0  0  0  0
    9.3390    6.7483    5.8626 C   0  0  2  0  0  0  0  0  0  0  0  0
    2.7590    5.3316    8.1750 C   0  0  1  0  0  0  0  0  0  0  0  0
    2.2546    6.2909    9.1004 O   0  0  0  0  0  0  0  0  0  0  0  0
   13.1108    7.0385    7.3073 C   0  0  2  0  0  0  0  0  0  0  0  0
   12.1538    5.9230    7.4415 O   0  0  0  0  0  0  0  0  0  0  0  0
    8.0439    6.3807    6.6292 C   0  0  2  0  0  0  0  0  0  0  0  0
    8.3505    5.3446    7.5565 O   0  0  0  0  0  0  0  0  0  0  0  0
    2.9697    6.0120    6.7857 C   0  0  0  0  0  0  0  0  0  0  0  0
    3.9857    7.0881    6.8753 O   0  0  0  0  0  0  0  0  0  0  0  0
   14.4866    6.4553    6.8915 C   0  0  2  0  0  0  0  0  0  0  0  0
   15.4912    7.4547    7.0443 O   0  0  0  0  0  0  0  0  0  0  0  0
    6.9477    5.8699    5.6653 C   0  0  1  0  0  0  0  0  0  0  0  0
    5.7860    5.5618    6.4715 O   0  0  0  0  0  0  0  0  0  0  0  0
   14.4878    6.0058    5.4397 C   0  0  0  0  0  0  0  0  0  0  0  0
    1.7203    4.2242    8.0458 C   0  0  0  0  0  0  0  0  0  0  0  0
    4.7426    2.8682    9.9999 C   0  0  0  0  0  0  0  0  0  0  0  0
  1  2  1  6  0  0  0
  1  6  1  0  0  0  0
  1 23  1  0  0  0  0
  3  4  1  6  0  0  0
  3  8  1  0  0  0  0
  3 30  1  0  0  0  0
  5  9  1  0  0  0  0
  5 27  1  0  0  0  0
  5 31  1  6  0  0  0
  6  7  1  6  0  0  0
  6 11  1  0  0  0  0
  8 13  1  0  0  0  0
  9 10  1  6  0  0  0
  9 15  1  0  0  0  0
 11 12  1  1  0  0  0
 11 17  1  0  0  0  0
 13 14  1  6  0  0  0
 13 19  1  0  0  0  0
 15 16  1  1  0  0  0
 15 20  1  0  0  0  0
 16 34  1  0  0  0  0
 17 18  1  6  0  0  0
 17 22  1  0  0  0  0
 19  2  1  1  0  0  0
 19 24  1  0  0  0  0
 20 21  1  1  0  0  0
 20 26  1  0  0  0  0
 20 33  1  0  0  0  0
 22 23  1  1  0  0  0
 22 28  1  0  0  0  0
 24 25  1  1  0  0  0
 24 30  1  0  0  0  0
 26 27  1  0  0  0  0
 28 29  1  6  0  0  0
 28 32  1  0  0  0  0
 30 31  1  1  0  0  0
M  END
>  <CHROM.1>
-133.86482917,-178.85057803,-103.37344991,-45.74368733,-62.08690052,-129.11503891
8.35729481,6.51553327,7.38502184,-0.08663246,0.20846284,1.73794909

>  <Name>
ligand

>  <RI>
0

>  <Rbt.Current_Directory>
/home/itssahil/PROJECTS/Mol_Feturizer/New_Systems/rnas/3TD1

>  <Rbt.Executable>
rbdock ($Id: //depot/dev/client3/rdock/2013.1/src/exe/rbdock.cxx#4 $)

>  <Rbt.Library>
libRbt.so (2013.1, Build901 2013/11/27)

>  <Rbt.Parameter_File>
/export/apps/rDock/src/rDock_2013.1_src/data/scripts/dock_solv.prm

>  <Rbt.Receptor>
prm/pocket_docking_2.prm

>  <SCORE>
-7.32855

>  <SCORE.INTER>
-7.87756

>  <SCORE.INTER.CONST>
1

>  <SCORE.INTER.POLAR>
0

>  <SCORE.INTER.ROT>
6

>  <SCORE.INTER.SOLV>
20.207

>  <SCORE.INTER.VDW>
-19.5874

>  <SCORE.INTER.norm>
-0.231693

>  <SCORE.INTRA>
-0.320992

>  <SCORE.INTRA.DIHEDRAL>
-4.7033

>  <SCORE.INTRA.DIHEDRAL.0>
19.5869

>  <SCORE.INTRA.POLAR>
0

>  <SCORE.INTRA.POLAR.0>
0

>  <SCORE.INTRA.REPUL>
0.0146883

>  <SCORE.INTRA.REPUL.0>
0

>  <SCORE.INTRA.SOLV>
-0.0569923

>  <SCORE.INTRA.SOLV.lig_0>
-70.101

>  <SCORE.INTRA.VDW>
1.98571

>  <SCORE.INTRA.VDW.0>
-3.39718

>  <SCORE.INTRA.norm>
-0.00944095

>  <SCORE.RESTR>
0.870001

>  <SCORE.RESTR.CAVITY>
0.870001

>  <SCORE.RESTR.norm>
0.0255883

>  <SCORE.SYSTEM>
0

>  <SCORE.SYSTEM.CONST>
0

>  <SCORE.SYSTEM.DIHEDRAL>
0

>  <SCORE.SYSTEM.SOLV>
0

>  <SCORE.SYSTEM.norm>
0

>  <SCORE.heavy>
34

>  <SCORE.norm>
-0.215546

>  <RMSD>
8.497

$$$$
ligand
 OpenBabel11021811483D
libRbt.so/2013.1/901 2013/11/27
 34 36  0  0  0  0  0  0  0  0999 V2000
   12.4221    4.6995    8.7820 C   0  0  2  0  0  0  0  0  0  0  0  0
   11.8374    3.8600    9.7898 O   0  0  0  0  0  0  0  0  0  0  0  0
    8.5382    2.6782    7.3443 C   0  0  2  0  0  0  0  0  0  0  0  0
    7.3788    1.9532    6.8361 N   0  0  0  0  0  0  0  0  0  0  0  0
    6.5532    4.8931    9.7750 C   0  0  2  0  0  0  0  0  0  0  0  0
   13.8798    5.0632    9.2397 C   0  0  2  0  0  0  0  0  0  0  0  0
   14.7059    3.8552    9.3900 N   0  0  0  0  0  0  0  0  0  0  0  0
    9.6911    1.6382    7.5408 C   0  0  0  0  0  0  0  0  0  0  0  0
    5.3477    3.9484   10.1232 C   0  0  2  0  0  0  0  0  0  0  0  0
    5.8199    2.6327   10.3614 O   0  0  0  0  0  0  0  0  0  0  0  0
   13.8186    5.8282   10.5796 C   0  0  1  0  0  0  0  0  0  0  0  0
   15.1490    6.1711   11.0006 O   0  0  0  0  0  0  0  0  0  0  0  0
   10.9435    2.4195    8.0643 C   0  0  2  0  0  0  0  0  0  0  0  0
   12.0688    1.4865    8.2761 N   0  0  0  0  0  0  0  0  0  0  0  0
    4.3229    3.9742    8.9237 C   0  0  1  0  0  0  0  0  0  0  0  0
    3.1615    3.0762    9.1998 N   0  0  0  0  0  0  0  0  0  0  0  0
   12.9378    7.0868   10.3958 C   0  0  2  0  0  0  0  0  0  0  0  0
   12.8626    7.8047   11.6397 O   0  0  0  0  0  0  0  0  0  0  0  0
   10.6297    3.1392    9.4008 C   0  0  2  0  0  0  0  0  0  0  0  0
    3.8335    5.4465    8.7039 C   0  0  1  0  0  0  0  0  0  0  0  0
    3.1662    5.9084    9.8753 O   0  0  0  0  0  0  0  0  0  0  0  0
   11.4979    6.6589    9.9181 C   0  0  2  0  0  0  0  0  0  0  0  0
   11.5915    5.9065    8.6519 O   0  0  0  0  0  0  0  0  0  0  0  0
    9.4441    4.1145    9.1929 C   0  0  2  0  0  0  0  0  0  0  0  0
    9.1625    4.7494   10.4358 O   0  0  0  0  0  0  0  0  0  0  0  0
    5.0764    6.3492    8.4250 C   0  0  0  0  0  0  0  0  0  0  0  0
    6.0554    6.2545    9.5345 O   0  0  0  0  0  0  0  0  0  0  0  0
   10.5746    7.8846    9.6916 C   0  0  2  0  0  0  0  0  0  0  0  0
   10.4001    8.5809   10.9228 O   0  0  0  0  0  0  0  0  0  0  0  0
    8.1757    3.3635    8.7255 C   0  0  1  0  0  0  0  0  0  0  0  0
    7.1358    4.3554    8.5549 O   0  0  0  0  0  0  0  0  0  0  0  0
    9.2026    7.4661    9.1897 C   0  0  0  0  0  0  0  0  0  0  0  0
    2.8548    5.5566    7.5412 C   0  0  0  0  0  0  0  0  0  0  0  0
    3.1561    2.0026    8.1877 C   0  0  0  0  0  0  0  0  0  0  0  0
  1  2  1  1  0  0  0
  1  6  1  0  0  0  0
  1 23  1  0  0  0  0
  3  4  1  1  0  0  0
  3  8  1  0  0  0  0
  3 30  1  0  0  0  0
  5  9  1  0  0  0  0
  5 27  1  0  0  0  0
  5 31  1  6  0  0  0
  6  7  1  1  0  0  0
  6 11  1  0  0  0  0
  8 13  1  0  0  0  0
  9 10  1  6  0  0  0
  9 15  1  0  0  0  0
 11 12  1  6  0  0  0
 11 17  1  0  0  0  0
 13 14  1  1  0  0  0
 13 19  1  0  0  0  0
 15 16  1  1  0  0  0
 15 20  1  0  0  0  0
 16 34  1  0  0  0  0
 17 18  1  1  0  0  0
 17 22  1  0  0  0  0
 19  2  1  6  0  0  0
 19 24  1  0  0  0  0
 20 21  1  1  0  0  0
 20 26  1  0  0  0  0
 20 33  1  0  0  0  0
 22 23  1  6  0  0  0
 22 28  1  0  0  0  0
 24 25  1  1  0  0  0
 24 30  1  0  0  0  0
 26 27  1  0  0  0  0
 28 29  1  1  0  0  0
 28 32  1  0  0  0  0
 30 31  1  6  0  0  0
M  END
>  <CHROM.1>
-164.78477422,50.74186411,-116.82980171,-62.28238728,169.86800289,-89.55697775
8.90704626,4.76609092,9.27056661,-0.19528457,0.06442993,-2.77247790

>  <Name>
ligand

>  <RI>
0

>  <Rbt.Current_Directory>
/home/itssahil/PROJECTS/Mol_Feturizer/New_Systems/rnas/3TD1

>  <Rbt.Executable>
rbdock ($Id: //depot/dev/client3/rdock/2013.1/src/exe/rbdock.cxx#4 $)

>  <Rbt.Library>
libRbt.so (2013.1, Build901 2013/11/27)

>  <Rbt.Parameter_File>
/export/apps/rDock/src/rDock_2013.1_src/data/scripts/dock_solv.prm

>  <Rbt.Receptor>
prm/pocket_docking_6.prm

>  <SCORE>
-11.7207

>  <SCORE.INTER>
-6.35296

>  <SCORE.INTER.CONST>
1

>  <SCORE.INTER.POLAR>
0

>  <SCORE.INTER.ROT>
6

>  <SCORE.INTER.SOLV>
11.7331

>  <SCORE.INTER.VDW>
-15.7464

>  <SCORE.INTER.norm>
-0.186852

>  <SCORE.INTRA>
-5.36776

>  <SCORE.INTRA.DIHEDRAL>
-12.815

>  <SCORE.INTRA.DIHEDRAL.0>
19.5869

>  <SCORE.INTRA.POLAR>
0

>  <SCORE.INTRA.POLAR.0>
0

>  <SCORE.INTRA.REPUL>
0

>  <SCORE.INTRA.REPUL.0>
0

>  <SCORE.INTRA.SOLV>
-0.191185

>  <SCORE.INTRA.SOLV.lig_0>
-70.101

>  <SCORE.INTRA.VDW>
1.13532

>  <SCORE.INTRA.VDW.0>
-3.39718

>  <SCORE.INTRA.norm>
-0.157875

>  <SCORE.RESTR>
0

>  <SCORE.RESTR.CAVITY>
0

>  <SCORE.RESTR.norm>
0

>  <SCORE.SYSTEM>
0

>  <SCORE.SYSTEM.CONST>
0

>  <SCORE.SYSTEM.DIHEDRAL>
0

>  <SCORE.SYSTEM.SOLV>
0

>  <SCORE.SYSTEM.norm>
0

>  <SCORE.heavy>
34

>  <SCORE.norm>
-0.344727

>  <RMSD>
8.507

$$$$
ligand
 OpenBabel11021811483D
libRbt.so/2013.1/901 2013/11/27
 34 36  0  0  0  0  0  0  0  0999 V2000
   10.9758    6.4326    7.9971 C   0  0  2  0  0  0  0  0  0  0  0  0
   10.4652    7.3399    7.0078 O   0  0  0  0  0  0  0  0  0  0  0  0
    6.8168    7.0485    4.8020 C   0  0  2  0  0  0  0  0  0  0  0  0
    5.8101    6.6177    3.8381 N   0  0  0  0  0  0  0  0  0  0  0  0
    5.4574    6.5986    7.5039 C   0  0  2  0  0  0  0  0  0  0  0  0
   11.2114    7.2423    9.3220 C   0  0  2  0  0  0  0  0  0  0  0  0
    9.9557    7.8276    9.8169 N   0  0  0  0  0  0  0  0  0  0  0  0
    8.1116    7.4051    3.9983 C   0  0  0  0  0  0  0  0  0  0  0  0
    5.2931    5.9062    8.9042 C   0  0  2  0  0  0  0  0  0  0  0  0
    6.5490    5.4254    9.3541 O   0  0  0  0  0  0  0  0  0  0  0  0
   12.2450    8.3594    9.0611 C   0  0  1  0  0  0  0  0  0  0  0  0
   12.4713    9.0996   10.2717 O   0  0  0  0  0  0  0  0  0  0  0  0
    9.1855    7.8899    5.0301 C   0  0  2  0  0  0  0  0  0  0  0  0
   10.4387    8.2369    4.3296 N   0  0  0  0  0  0  0  0  0  0  0  0
    4.2518    4.7289    8.7665 C   0  0  1  0  0  0  0  0  0  0  0  0
    4.0713    4.0259   10.0720 N   0  0  0  0  0  0  0  0  0  0  0  0
   13.5504    7.7180    8.5339 C   0  0  2  0  0  0  0  0  0  0  0  0
   14.5201    8.7484    8.2759 O   0  0  0  0  0  0  0  0  0  0  0  0
    9.4849    6.7880    6.0785 C   0  0  2  0  0  0  0  0  0  0  0  0
    2.8857    5.3131    8.2684 C   0  0  1  0  0  0  0  0  0  0  0  0
    2.3871    6.2447    9.2247 O   0  0  0  0  0  0  0  0  0  0  0  0
   13.2460    6.9053    7.2180 C   0  0  2  0  0  0  0  0  0  0  0  0
   12.2356    5.8651    7.4924 O   0  0  0  0  0  0  0  0  0  0  0  0
    8.1750    6.4092    6.8138 C   0  0  2  0  0  0  0  0  0  0  0  0
    8.4706    5.3845    7.7571 O   0  0  0  0  0  0  0  0  0  0  0  0
    3.1210    6.0421    6.9080 C   0  0  0  0  0  0  0  0  0  0  0  0
    4.1527    7.0977    7.0480 O   0  0  0  0  0  0  0  0  0  0  0  0
   14.5168    6.2164    6.6555 C   0  0  2  0  0  0  0  0  0  0  0  0
   15.5505    7.1847    6.4969 O   0  0  0  0  0  0  0  0  0  0  0  0
    7.1114    5.8764    5.8257 C   0  0  1  0  0  0  0  0  0  0  0  0
    5.9330    5.5592    6.6036 O   0  0  0  0  0  0  0  0  0  0  0  0
   14.2552    5.5817    5.2996 C   0  0  0  0  0  0  0  0  0  0  0  0
    1.8313    4.2281    8.0875 C   0  0  0  0  0  0  0  0  0  0  0  0
    4.8577    2.7779   10.0380 C   0  0  0  0  0  0  0  0  0  0  0  0
  1  2  1  6  0  0  0
  1  6  1  0  0  0  0
  1 23  1  0  0  0  0
  3  4  1  6  0  0  0
  3  8  1  0  0  0  0
  3 30  1  0  0  0  0
  5  9  1  0  0  0  0
  5 27  1  0  0  0  0
  5 31  1  6  0  0  0
  6  7  1  6  0  0  0
  6 11  1  0  0  0  0
  8 13  1  0  0  0  0
  9 10  1  6  0  0  0
  9 15  1  0  0  0  0
 11 12  1  1  0  0  0
 11 17  1  0  0  0  0
 13 14  1  6  0  0  0
 13 19  1  0  0  0  0
 15 16  1  1  0  0  0
 15 20  1  0  0  0  0
 16 34  1  0  0  0  0
 17 18  1  6  0  0  0
 17 22  1  0  0  0  0
 19  2  1  1  0  0  0
 19 24  1  0  0  0  0
 20 21  1  1  0  0  0
 20 26  1  0  0  0  0
 20 33  1  0  0  0  0
 22 23  1  1  0  0  0
 22 28  1  0  0  0  0
 24 25  1  1  0  0  0
 24 30  1  0  0  0  0
 26 27  1  0  0  0  0
 28 29  1  6  0  0  0
 28 32  1  0  0  0  0
 30 31  1  1  0  0  0
M  END
>  <CHROM.1>
-144.70228329,-174.52899541,-101.05520441,-53.38026927,-65.45259070,-128.81463479
8.53678295,6.47065686,7.45578216,-0.10372624,0.20041743,1.73542303

>  <Name>
ligand

>  <RI>
0

>  <Rbt.Current_Directory>
/home/itssahil/PROJECTS/Mol_Feturizer/New_Systems/rnas/3TD1

>  <Rbt.Executable>
rbdock ($Id: //depot/dev/client3/rdock/2013.1/src/exe/rbdock.cxx#4 $)

>  <Rbt.Library>
libRbt.so (2013.1, Build901 2013/11/27)

>  <Rbt.Parameter_File>
/export/apps/rDock/src/rDock_2013.1_src/data/scripts/dock_solv.prm

>  <Rbt.Receptor>
prm/pocket_docking_2.prm

>  <SCORE>
-8.98829

>  <SCORE.INTER>
-8.60094

>  <SCORE.INTER.CONST>
1

>  <SCORE.INTER.POLAR>
0

>  <SCORE.INTER.ROT>
6

>  <SCORE.INTER.SOLV>
19.216

>  <SCORE.INTER.VDW>
-19.7393

>  <SCORE.INTER.norm>
-0.252969

>  <SCORE.INTRA>
-1.71646

>  <SCORE.INTRA.DIHEDRAL>
-6.74261

>  <SCORE.INTRA.DIHEDRAL.0>
19.5869

>  <SCORE.INTRA.POLAR>
0

>  <SCORE.INTRA.POLAR.0>
0

>  <SCORE.INTRA.REPUL>
0

>  <SCORE.INTRA.REPUL.0>
0

>  <SCORE.INTRA.SOLV>
-0.738656

>  <SCORE.INTRA.SOLV.lig_0>
-70.101

>  <SCORE.INTRA.VDW>
2.02418

>  <SCORE.INTRA.VDW.0>
-3.39718

>  <SCORE.INTRA.norm>
-0.050484

>  <SCORE.RESTR>
1.32911

>  <SCORE.RESTR.CAVITY>
1.32911

>  <SCORE.RESTR.norm>
0.0390916

>  <SCORE.SYSTEM>
0

>  <SCORE.SYSTEM.CONST>
0

>  <SCORE.SYSTEM.DIHEDRAL>
0

>  <SCORE.SYSTEM.SOLV>
0

>  <SCORE.SYSTEM.norm>
0

>  <SCORE.heavy>
34

>  <SCORE.norm>
-0.264361

>  <RMSD>
8.526

$$$$
ligand
 OpenBabel11021811483D
libRbt.so/2013.1/901 2013/11/27
 34 36  0  0  0  0  0  0  0  0999 V2000
   10.7807    8.7333    2.5358 C   0  0  2  0  0  0  0  0  0  0  0  0
   10.8537    7.4607    1.8742 O   0  0  0  0  0  0  0  0  0  0  0  0
   12.8033    3.8561    3.0859 C   0  0  2  0  0  0  0  0  0  0  0  0
   13.8394    2.8885    3.4298 N   0  0  0  0  0  0  0  0  0  0  0  0
   13.5400    3.8718    6.1763 C   0  0  2  0  0  0  0  0  0  0  0  0
    9.4887    9.4692    2.0301 C   0  0  2  0  0  0  0  0  0  0  0  0
    8.2781    8.6969    2.3503 N   0  0  0  0  0  0  0  0  0  0  0  0
   13.1239    4.3952    1.6519 C   0  0  0  0  0  0  0  0  0  0  0  0
   12.8983    3.4015    7.5306 C   0  0  2  0  0  0  0  0  0  0  0  0
   11.8296    2.5060    7.2721 O   0  0  0  0  0  0  0  0  0  0  0  0
    9.5870    9.6836    0.5041 C   0  0  1  0  0  0  0  0  0  0  0  0
    8.4111   10.3638    0.0356 O   0  0  0  0  0  0  0  0  0  0  0  0
   11.9991    5.4168    1.2725 C   0  0  2  0  0  0  0  0  0  0  0  0
   12.2506    5.9678   -0.0747 N   0  0  0  0  0  0  0  0  0  0  0  0
   12.3947    4.6721    8.3190 C   0  0  1  0  0  0  0  0  0  0  0  0
   11.7598    4.2762    9.6118 N   0  0  0  0  0  0  0  0  0  0  0  0
   10.8713   10.4891    0.1952 C   0  0  2  0  0  0  0  0  0  0  0  0
   10.9822   10.6876   -1.2250 O   0  0  0  0  0  0  0  0  0  0  0  0
   11.9440    6.5847    2.2903 C   0  0  2  0  0  0  0  0  0  0  0  0
   13.6111    5.6255    8.5784 C   0  0  1  0  0  0  0  0  0  0  0  0
   14.5815    4.9553    9.3785 O   0  0  0  0  0  0  0  0  0  0  0  0
   12.1278    9.7108    0.7430 C   0  0  2  0  0  0  0  0  0  0  0  0
   11.9916    9.4966    2.1969 O   0  0  0  0  0  0  0  0  0  0  0  0
   11.6896    6.0176    3.7093 C   0  0  2  0  0  0  0  0  0  0  0  0
   11.6613    7.1049    4.6283 O   0  0  0  0  0  0  0  0  0  0  0  0
   14.2466    6.0087    7.2048 C   0  0  0  0  0  0  0  0  0  0  0  0
   14.6487    4.7951    6.4539 O   0  0  0  0  0  0  0  0  0  0  0  0
   13.4468   10.4849    0.4842 C   0  0  2  0  0  0  0  0  0  0  0  0
   13.2402   11.8722    0.7371 O   0  0  0  0  0  0  0  0  0  0  0  0
   12.8134    5.0438    4.1338 C   0  0  1  0  0  0  0  0  0  0  0  0
   12.4822    4.5681    5.4597 O   0  0  0  0  0  0  0  0  0  0  0  0
   13.9108   10.3335   -0.9551 C   0  0  0  0  0  0  0  0  0  0  0  0
   13.1979    6.8921    9.3178 C   0  0  0  0  0  0  0  0  0  0  0  0
   10.2962    4.2689    9.4253 C   0  0  0  0  0  0  0  0  0  0  0  0
  1  2  1  6  0  0  0
  1  6  1  0  0  0  0
  1 23  1  0  0  0  0
  3  4  1  1  0  0  0
  3  8  1  0  0  0  0
  3 30  1  0  0  0  0
  5  9  1  0  0  0  0
  5 27  1  0  0  0  0
  5 31  1  6  0  0  0
  6  7  1  6  0  0  0
  6 11  1  0  0  0  0
  8 13  1  0  0  0  0
  9 10  1  6  0  0  0
  9 15  1  0  0  0  0
 11 12  1  1  0  0  0
 11 17  1  0  0  0  0
 13 14  1  6  0  0  0
 13 19  1  0  0  0  0
 15 16  1  1  0  0  0
 15 20  1  0  0  0  0
 16 34  1  0  0  0  0
 17 18  1  6  0  0  0
 17 22  1  0  0  0  0
 19  2  1  6  0  0  0
 19 24  1  0  0  0  0
 20 21  1  1  0  0  0
 20 26  1  0  0  0  0
 20 33  1  0  0  0  0
 22 23  1  1  0  0  0
 22 28  1  0  0  0  0
 24 25  1  1  0  0  0
 24 30  1  0  0  0  0
 26 27  1  0  0  0  0
 28 29  1  6  0  0  0
 28 32  1  0  0  0  0
 30 31  1  1  0  0  0
M  END
>  <CHROM.1>
-175.70829750,-169.05044964,-98.95645062,41.13826674,77.11431366,-176.96988552
12.10634129,6.80900648,3.84348517,1.99278038,1.12060366,-1.32856397

>  <Name>
ligand

>  <RI>
0

>  <Rbt.Current_Directory>
/home/itssahil/PROJECTS/Mol_Feturizer/New_Systems/rnas/3TD1

>  <Rbt.Executable>
rbdock ($Id: //depot/dev/client3/rdock/2013.1/src/exe/rbdock.cxx#4 $)

>  <Rbt.Library>
libRbt.so (2013.1, Build901 2013/11/27)

>  <Rbt.Parameter_File>
/export/apps/rDock/src/rDock_2013.1_src/data/scripts/dock_solv.prm

>  <Rbt.Receptor>
prm/pocket_docking_8.prm

>  <SCORE>
-10.7119

>  <SCORE.INTER>
-2.61842

>  <SCORE.INTER.CONST>
1

>  <SCORE.INTER.POLAR>
0

>  <SCORE.INTER.ROT>
6

>  <SCORE.INTER.SOLV>
11.842

>  <SCORE.INTER.VDW>
-13.2929

>  <SCORE.INTER.norm>
-0.0770124

>  <SCORE.INTRA>
-8.09346

>  <SCORE.INTRA.DIHEDRAL>
-15.4051

>  <SCORE.INTRA.DIHEDRAL.0>
19.5869

>  <SCORE.INTRA.POLAR>
0

>  <SCORE.INTRA.POLAR.0>
0

>  <SCORE.INTRA.REPUL>
0

>  <SCORE.INTRA.REPUL.0>
0

>  <SCORE.INTRA.SOLV>
-1.90967

>  <SCORE.INTRA.SOLV.lig_0>
-70.101

>  <SCORE.INTRA.VDW>
0.563917

>  <SCORE.INTRA.VDW.0>
-3.39718

>  <SCORE.INTRA.norm>
-0.238043

>  <SCORE.RESTR>
0

>  <SCORE.RESTR.CAVITY>
0

>  <SCORE.RESTR.norm>
0

>  <SCORE.SYSTEM>
0

>  <SCORE.SYSTEM.CONST>
0

>  <SCORE.SYSTEM.DIHEDRAL>
0

>  <SCORE.SYSTEM.SOLV>
0

>  <SCORE.SYSTEM.norm>
0

>  <SCORE.heavy>
34

>  <SCORE.norm>
-0.315055

>  <RMSD>
8.539

$$$$
ligand
 OpenBabel11021811483D
libRbt.so/2013.1/901 2013/11/27
 34 36  0  0  0  0  0  0  0  0999 V2000
   12.3606    6.8956    5.8036 C   0  0  2  0  0  0  0  0  0  0  0  0
   11.1371    6.7900    6.5482 O   0  0  0  0  0  0  0  0  0  0  0  0
    7.0781    6.8710    5.2141 C   0  0  2  0  0  0  0  0  0  0  0  0
    5.8662    6.6113    4.4447 N   0  0  0  0  0  0  0  0  0  0  0  0
    6.4112    5.8950    8.0779 C   0  0  2  0  0  0  0  0  0  0  0  0
   12.8968    5.4425    5.5435 C   0  0  2  0  0  0  0  0  0  0  0  0
   11.9320    4.6524    4.7630 N   0  0  0  0  0  0  0  0  0  0  0  0
    8.1704    7.3721    4.2114 C   0  0  0  0  0  0  0  0  0  0  0  0
    5.5856    5.0156    9.0840 C   0  0  2  0  0  0  0  0  0  0  0  0
    6.3109    3.8397    9.4034 O   0  0  0  0  0  0  0  0  0  0  0  0
   13.1715    4.7496    6.8958 C   0  0  1  0  0  0  0  0  0  0  0  0
   13.6701    3.4218    6.6651 O   0  0  0  0  0  0  0  0  0  0  0  0
    9.4649    7.6734    5.0400 C   0  0  2  0  0  0  0  0  0  0  0  0
   10.5395    8.1467    4.1440 N   0  0  0  0  0  0  0  0  0  0  0  0
    4.1964    4.6629    8.4243 C   0  0  1  0  0  0  0  0  0  0  0  0
    3.3770    3.8114    9.3380 N   0  0  0  0  0  0  0  0  0  0  0  0
   14.1805    5.6047    7.6986 C   0  0  2  0  0  0  0  0  0  0  0  0
   14.4383    4.9767    8.9666 O   0  0  0  0  0  0  0  0  0  0  0  0
    9.9545    6.4052    5.7849 C   0  0  2  0  0  0  0  0  0  0  0  0
    3.4379    5.9934    8.0926 C   0  0  1  0  0  0  0  0  0  0  0  0
    3.1934    6.7170    9.2958 O   0  0  0  0  0  0  0  0  0  0  0  0
   13.5955    7.0532    7.9094 C   0  0  2  0  0  0  0  0  0  0  0  0
   13.3172    7.6779    6.6016 O   0  0  0  0  0  0  0  0  0  0  0  0
    8.8314    5.8941    6.7217 C   0  0  2  0  0  0  0  0  0  0  0  0
    9.2963    4.7205    7.3803 O   0  0  0  0  0  0  0  0  0  0  0  0
    4.3301    6.8530    7.1426 C   0  0  0  0  0  0  0  0  0  0  0  0
    5.6545    7.1128    7.7564 O   0  0  0  0  0  0  0  0  0  0  0  0
   14.5774    7.9667    8.6887 C   0  0  2  0  0  0  0  0  0  0  0  0
   14.8218    7.4098    9.9777 O   0  0  0  0  0  0  0  0  0  0  0  0
    7.5551    5.5380    5.9243 C   0  0  1  0  0  0  0  0  0  0  0  0
    6.5718    5.0808    6.8826 O   0  0  0  0  0  0  0  0  0  0  0  0
   14.0095    9.3633    8.8802 C   0  0  0  0  0  0  0  0  0  0  0  0
    2.0914    5.7341    7.4281 C   0  0  0  0  0  0  0  0  0  0  0  0
    3.1716    2.5020    8.6898 C   0  0  0  0  0  0  0  0  0  0  0  0
  1  2  1  1  0  0  0
  1  6  1  0  0  0  0
  1 23  1  0  0  0  0
  3  4  1  6  0  0  0
  3  8  1  0  0  0  0
  3 30  1  0  0  0  0
  5  9  1  0  0  0  0
  5 27  1  0  0  0  0
  5 31  1  6  0  0  0
  6  7  1  1  0  0  0
  6 11  1  0  0  0  0
  8 13  1  0  0  0  0
  9 10  1  6  0  0  0
  9 15  1  0  0  0  0
 11 12  1  6  0  0  0
 11 17  1  0  0  0  0
 13 14  1  6  0  0  0
 13 19  1  0  0  0  0
 15 16  1  1  0  0  0
 15 20  1  0  0  0  0
 16 34  1  0  0  0  0
 17 18  1  1  0  0  0
 17 22  1  0  0  0  0
 19  2  1  1  0  0  0
 19 24  1  0  0  0  0
 20 21  1  1  0  0  0
 20 26  1  0  0  0  0
 20 33  1  0  0  0  0
 22 23  1  6  0  0  0
 22 28  1  0  0  0  0
 24 25  1  6  0  0  0
 24 30  1  0  0  0  0
 26 27  1  0  0  0  0
 28 29  1  1  0  0  0
 28 32  1  0  0  0  0
 30 31  1  1  0  0  0
M  END
>  <CHROM.1>
-77.20308748,-78.72016076,-116.30289555,-60.84968242,-69.43540472,-166.17622042
8.98937942,5.99973028,7.20249932,0.11606792,-0.08509800,-1.06915225

>  <Name>
ligand

>  <RI>
0

>  <Rbt.Current_Directory>
/home/itssahil/PROJECTS/Mol_Feturizer/New_Systems/rnas/3TD1

>  <Rbt.Executable>
rbdock ($Id: //depot/dev/client3/rdock/2013.1/src/exe/rbdock.cxx#4 $)

>  <Rbt.Library>
libRbt.so (2013.1, Build901 2013/11/27)

>  <Rbt.Parameter_File>
/export/apps/rDock/src/rDock_2013.1_src/data/scripts/dock_solv.prm

>  <Rbt.Receptor>
prm/pocket_docking_5.prm

>  <SCORE>
-15.0564

>  <SCORE.INTER>
-11.1356

>  <SCORE.INTER.CONST>
1

>  <SCORE.INTER.POLAR>
0

>  <SCORE.INTER.ROT>
6

>  <SCORE.INTER.SOLV>
14.5062

>  <SCORE.INTER.VDW>
-19.8591

>  <SCORE.INTER.norm>
-0.327516

>  <SCORE.INTRA>
-3.92085

>  <SCORE.INTRA.DIHEDRAL>
-14.0407

>  <SCORE.INTRA.DIHEDRAL.0>
19.5869

>  <SCORE.INTRA.POLAR>
0

>  <SCORE.INTRA.POLAR.0>
0

>  <SCORE.INTRA.REPUL>
0

>  <SCORE.INTRA.REPUL.0>
0

>  <SCORE.INTRA.SOLV>
2.35121

>  <SCORE.INTRA.SOLV.lig_0>
-70.101

>  <SCORE.INTRA.VDW>
1.92387

>  <SCORE.INTRA.VDW.0>
-3.39718

>  <SCORE.INTRA.norm>
-0.115319

>  <SCORE.RESTR>
0

>  <SCORE.RESTR.CAVITY>
0

>  <SCORE.RESTR.norm>
0

>  <SCORE.SYSTEM>
0

>  <SCORE.SYSTEM.CONST>
0

>  <SCORE.SYSTEM.DIHEDRAL>
0

>  <SCORE.SYSTEM.SOLV>
0

>  <SCORE.SYSTEM.norm>
0

>  <SCORE.heavy>
34

>  <SCORE.norm>
-0.442835

>  <RMSD>
8.559

$$$$
ligand
 OpenBabel11021811483D
libRbt.so/2013.1/901 2013/11/27
 34 36  0  0  0  0  0  0  0  0999 V2000
   10.9213    3.5889    9.6696 C   0  0  2  0  0  0  0  0  0  0  0  0
   10.0474    2.7339   10.4232 O   0  0  0  0  0  0  0  0  0  0  0  0
    7.0922    2.5173    7.3440 C   0  0  2  0  0  0  0  0  0  0  0  0
    5.9310    2.1044    6.5634 N   0  0  0  0  0  0  0  0  0  0  0  0
    5.1411    4.8378    9.7019 C   0  0  2  0  0  0  0  0  0  0  0  0
   12.2522    3.7619   10.4854 C   0  0  2  0  0  0  0  0  0  0  0  0
   12.9186    2.4672   10.6950 N   0  0  0  0  0  0  0  0  0  0  0  0
    7.9736    1.2456    7.5798 C   0  0  0  0  0  0  0  0  0  0  0  0
    3.8924    3.9074    9.9074 C   0  0  2  0  0  0  0  0  0  0  0  0
    4.3180    2.5778   10.1561 O   0  0  0  0  0  0  0  0  0  0  0  0
   11.9351    4.4165   11.8475 C   0  0  1  0  0  0  0  0  0  0  0  0
   13.1499    4.5851   12.5962 O   0  0  0  0  0  0  0  0  0  0  0  0
    9.2322    1.6923    8.3978 C   0  0  2  0  0  0  0  0  0  0  0  0
   10.1042    0.5291    8.6587 N   0  0  0  0  0  0  0  0  0  0  0  0
    2.9895    3.9812    8.6156 C   0  0  1  0  0  0  0  0  0  0  0  0
    1.7926    3.0985    8.7548 N   0  0  0  0  0  0  0  0  0  0  0  0
   11.2279    5.7697   11.5981 C   0  0  2  0  0  0  0  0  0  0  0  0
   10.9164    6.3869   12.8593 O   0  0  0  0  0  0  0  0  0  0  0  0
    8.8186    2.3233    9.7519 C   0  0  2  0  0  0  0  0  0  0  0  0
    2.5476    5.4672    8.3875 C   0  0  1  0  0  0  0  0  0  0  0  0
    1.7771    5.9130    9.5005 O   0  0  0  0  0  0  0  0  0  0  0  0
    9.9138    5.5329   10.7605 C   0  0  2  0  0  0  0  0  0  0  0  0
   10.2458    4.8815    9.4784 O   0  0  0  0  0  0  0  0  0  0  0  0
    7.8956    3.5399    9.4910 C   0  0  2  0  0  0  0  0  0  0  0  0
    7.5143    4.0911   10.7473 O   0  0  0  0  0  0  0  0  0  0  0  0
    3.8261    6.3532    8.2535 C   0  0  0  0  0  0  0  0  0  0  0  0
    4.6910    6.2136    9.4497 O   0  0  0  0  0  0  0  0  0  0  0  0
    9.1731    6.8614   10.4567 C   0  0  2  0  0  0  0  0  0  0  0  0
   10.1183    7.8513   10.0592 O   0  0  0  0  0  0  0  0  0  0  0  0
    6.6169    3.1203    8.7293 C   0  0  1  0  0  0  0  0  0  0  0  0
    5.8308    4.3190    8.5304 O   0  0  0  0  0  0  0  0  0  0  0  0
    8.4336    7.3814   11.6784 C   0  0  0  0  0  0  0  0  0  0  0  0
    1.6883    5.6234    7.1389 C   0  0  0  0  0  0  0  0  0  0  0  0
    2.1208    1.7799    8.1798 C   0  0  0  0  0  0  0  0  0  0  0  0
  1  2  1  1  0  0  0
  1  6  1  0  0  0  0
  1 23  1  0  0  0  0
  3  4  1  6  0  0  0
  3  8  1  0  0  0  0
  3 30  1  0  0  0  0
  5  9  1  0  0  0  0
  5 27  1  0  0  0  0
  5 31  1  6  0  0  0
  6  7  1  1  0  0  0
  6 11  1  0  0  0  0
  8 13  1  0  0  0  0
  9 10  1  6  0  0  0
  9 15  1  0  0  0  0
 11 12  1  6  0  0  0
 11 17  1  0  0  0  0
 13 14  1  1  0  0  0
 13 19  1  0  0  0  0
 15 16  1  1  0  0  0
 15 20  1  0  0  0  0
 16 34  1  0  0  0  0
 17 18  1  1  0  0  0
 17 22  1  0  0  0  0
 19  2  1  6  0  0  0
 19 24  1  0  0  0  0
 20 21  1  1  0  0  0
 20 26  1  0  0  0  0
 20 33  1  0  0  0  0
 22 23  1  6  0  0  0
 22 28  1  0  0  0  0
 24 25  1  1  0  0  0
 24 30  1  0  0  0  0
 26 27  1  0  0  0  0
 28 29  1  1  0  0  0
 28 32  1  0  0  0  0
 30 31  1  6  0  0  0
M  END
>  <CHROM.1>
-172.86410764,53.91498269,-92.50719586,43.61203212,169.65290851,-76.84198256
7.43208190,4.19754535,9.62972272,-0.14212496,0.25491587,-2.71224321

>  <Name>
ligand

>  <RI>
0

>  <Rbt.Current_Directory>
/home/itssahil/PROJECTS/Mol_Feturizer/New_Systems/rnas/3TD1

>  <Rbt.Executable>
rbdock ($Id: //depot/dev/client3/rdock/2013.1/src/exe/rbdock.cxx#4 $)

>  <Rbt.Library>
libRbt.so (2013.1, Build901 2013/11/27)

>  <Rbt.Parameter_File>
/export/apps/rDock/src/rDock_2013.1_src/data/scripts/dock_solv.prm

>  <Rbt.Receptor>
prm/pocket_docking_5.prm

>  <SCORE>
-12.1991

>  <SCORE.INTER>
-6.86392

>  <SCORE.INTER.CONST>
1

>  <SCORE.INTER.POLAR>
0

>  <SCORE.INTER.ROT>
6

>  <SCORE.INTER.SOLV>
13.7072

>  <SCORE.INTER.VDW>
-16.745

>  <SCORE.INTER.norm>
-0.20188

>  <SCORE.INTRA>
-5.33941

>  <SCORE.INTRA.DIHEDRAL>
-15.6719

>  <SCORE.INTRA.DIHEDRAL.0>
19.5869

>  <SCORE.INTRA.POLAR>
0

>  <SCORE.INTRA.POLAR.0>
0

>  <SCORE.INTRA.REPUL>
0

>  <SCORE.INTRA.REPUL.0>
0

>  <SCORE.INTRA.SOLV>
-0.151501

>  <SCORE.INTRA.SOLV.lig_0>
-70.101

>  <SCORE.INTRA.VDW>
2.5723

>  <SCORE.INTRA.VDW.0>
-3.39718

>  <SCORE.INTRA.norm>
-0.157041

>  <SCORE.RESTR>
0.00423942

>  <SCORE.RESTR.CAVITY>
0.00423942

>  <SCORE.RESTR.norm>
0.000124689

>  <SCORE.SYSTEM>
0

>  <SCORE.SYSTEM.CONST>
0

>  <SCORE.SYSTEM.DIHEDRAL>
0

>  <SCORE.SYSTEM.SOLV>
0

>  <SCORE.SYSTEM.norm>
0

>  <SCORE.heavy>
34

>  <SCORE.norm>
-0.358797

>  <RMSD>
8.568

$$$$
ligand
 OpenBabel11021811483D
libRbt.so/2013.1/901 2013/11/27
 34 36  0  0  0  0  0  0  0  0999 V2000
   10.5221    5.0634    3.5517 C   0  0  2  0  0  0  0  0  0  0  0  0
    9.2392    4.8779    4.1701 O   0  0  0  0  0  0  0  0  0  0  0  0
    8.0226    1.8432    6.9219 C   0  0  2  0  0  0  0  0  0  0  0  0
    7.9887    0.9499    8.0746 N   0  0  0  0  0  0  0  0  0  0  0  0
    6.5069    4.2504    9.2701 C   0  0  2  0  0  0  0  0  0  0  0  0
   11.2484    6.2457    4.2874 C   0  0  2  0  0  0  0  0  0  0  0  0
   11.4474    5.9417    5.7130 N   0  0  0  0  0  0  0  0  0  0  0  0
    9.4178    1.6676    6.2348 C   0  0  0  0  0  0  0  0  0  0  0  0
    5.1493    3.8607    9.9572 C   0  0  2  0  0  0  0  0  0  0  0  0
    5.1183    2.4649   10.2056 O   0  0  0  0  0  0  0  0  0  0  0  0
   10.4097    7.5334    4.1368 C   0  0  1  0  0  0  0  0  0  0  0  0
   11.0726    8.6215    4.8011 O   0  0  0  0  0  0  0  0  0  0  0  0
    9.4464    2.6092    4.9836 C   0  0  2  0  0  0  0  0  0  0  0  0
   10.7467    2.4924    4.2930 N   0  0  0  0  0  0  0  0  0  0  0  0
    3.9623    4.2947    9.0126 C   0  0  1  0  0  0  0  0  0  0  0  0
    2.6451    3.9306    9.6157 N   0  0  0  0  0  0  0  0  0  0  0  0
   10.2083    7.8243    2.6306 C   0  0  2  0  0  0  0  0  0  0  0  0
    9.4188    9.0163    2.4743 O   0  0  0  0  0  0  0  0  0  0  0  0
    9.2282    4.0873    5.3965 C   0  0  2  0  0  0  0  0  0  0  0  0
    4.0428    5.8409    8.7714 C   0  0  1  0  0  0  0  0  0  0  0  0
    3.9029    6.5263   10.0131 O   0  0  0  0  0  0  0  0  0  0  0  0
    9.4949    6.5966    1.9460 C   0  0  2  0  0  0  0  0  0  0  0  0
   10.3055    5.3773    2.1311 O   0  0  0  0  0  0  0  0  0  0  0  0
    7.8704    4.2205    6.1304 C   0  0  2  0  0  0  0  0  0  0  0  0
    7.7004    5.5807    6.5157 O   0  0  0  0  0  0  0  0  0  0  0  0
    5.4339    6.1770    8.1474 C   0  0  0  0  0  0  0  0  0  0  0  0
    6.5322    5.6982    9.0209 O   0  0  0  0  0  0  0  0  0  0  0  0
    9.2887    6.8207    0.4251 C   0  0  2  0  0  0  0  0  0  0  0  0
    8.5572    5.7261   -0.1207 O   0  0  0  0  0  0  0  0  0  0  0  0
    7.8315    3.3406    7.4016 C   0  0  1  0  0  0  0  0  0  0  0  0
    6.5305    3.5291    8.0066 O   0  0  0  0  0  0  0  0  0  0  0  0
   10.6149    6.9137   -0.3113 C   0  0  0  0  0  0  0  0  0  0  0  0
    2.9381    6.3339    7.8449 C   0  0  0  0  0  0  0  0  0  0  0  0
    2.0858    2.7966    8.8553 C   0  0  0  0  0  0  0  0  0  0  0  0
  1  2  1  1  0  0  0
  1  6  1  0  0  0  0
  1 23  1  0  0  0  0
  3  4  1  1  0  0  0
  3  8  1  0  0  0  0
  3 30  1  0  0  0  0
  5  9  1  0  0  0  0
  5 27  1  0  0  0  0
  5 31  1  6  0  0  0
  6  7  1  1  0  0  0
  6 11  1  0  0  0  0
  8 13  1  0  0  0  0
  9 10  1  6  0  0  0
  9 15  1  0  0  0  0
 11 12  1  6  0  0  0
 11 17  1  0  0  0  0
 13 14  1  1  0  0  0
 13 19  1  0  0  0  0
 15 16  1  1  0  0  0
 15 20  1  0  0  0  0
 16 34  1  0  0  0  0
 17 18  1  1  0  0  0
 17 22  1  0  0  0  0
 19  2  1  6  0  0  0
 19 24  1  0  0  0  0
 20 21  1  1  0  0  0
 20 26  1  0  0  0  0
 20 33  1  0  0  0  0
 22 23  1  6  0  0  0
 22 28  1  0  0  0  0
 24 25  1  1  0  0  0
 24 30  1  0  0  0  0
 26 27  1  0  0  0  0
 28 29  1  6  0  0  0
 28 32  1  0  0  0  0
 30 31  1  6  0  0  0
M  END
>  <CHROM.1>
-82.07939231,-73.43269365,-107.77950220,-175.87198971,133.37826697,-159.33881276
7.77225556,5.00470474,5.88883345,-0.65496781,-0.68064188,2.58839218

>  <Name>
ligand

>  <RI>
0

>  <Rbt.Current_Directory>
/home/itssahil/PROJECTS/Mol_Feturizer/New_Systems/rnas/3TD1

>  <Rbt.Executable>
rbdock ($Id: //depot/dev/client3/rdock/2013.1/src/exe/rbdock.cxx#4 $)

>  <Rbt.Library>
libRbt.so (2013.1, Build901 2013/11/27)

>  <Rbt.Parameter_File>
/export/apps/rDock/src/rDock_2013.1_src/data/scripts/dock_solv.prm

>  <Rbt.Receptor>
prm/pocket_docking_7.prm

>  <SCORE>
-11.8951

>  <SCORE.INTER>
-10.054

>  <SCORE.INTER.CONST>
1

>  <SCORE.INTER.POLAR>
0

>  <SCORE.INTER.ROT>
6

>  <SCORE.INTER.SOLV>
18.1936

>  <SCORE.INTER.VDW>
-20.3672

>  <SCORE.INTER.norm>
-0.295707

>  <SCORE.INTRA>
-1.84108

>  <SCORE.INTRA.DIHEDRAL>
-7.20277

>  <SCORE.INTRA.DIHEDRAL.0>
19.5869

>  <SCORE.INTRA.POLAR>
0

>  <SCORE.INTRA.POLAR.0>
0

>  <SCORE.INTRA.REPUL>
0

>  <SCORE.INTRA.REPUL.0>
0

>  <SCORE.INTRA.SOLV>
0.691839

>  <SCORE.INTRA.SOLV.lig_0>
-70.101

>  <SCORE.INTRA.VDW>
1.41439

>  <SCORE.INTRA.VDW.0>
-3.39718

>  <SCORE.INTRA.norm>
-0.0541494

>  <SCORE.RESTR>
0

>  <SCORE.RESTR.CAVITY>
0

>  <SCORE.RESTR.norm>
0

>  <SCORE.SYSTEM>
0

>  <SCORE.SYSTEM.CONST>
0

>  <SCORE.SYSTEM.DIHEDRAL>
0

>  <SCORE.SYSTEM.SOLV>
0

>  <SCORE.SYSTEM.norm>
0

>  <SCORE.heavy>
34

>  <SCORE.norm>
-0.349856

>  <RMSD>
8.588

$$$$
ligand
 OpenBabel11021811483D
libRbt.so/2013.1/901 2013/11/27
 34 36  0  0  0  0  0  0  0  0999 V2000
   13.3005    4.5172    1.5625 C   0  0  2  0  0  0  0  0  0  0  0  0
   12.6338    3.9794    2.7153 O   0  0  0  0  0  0  0  0  0  0  0  0
   13.8100    1.1068    5.6523 C   0  0  2  0  0  0  0  0  0  0  0  0
   14.6166    0.3339    6.5905 N   0  0  0  0  0  0  0  0  0  0  0  0
   13.0903    3.9888    8.0863 C   0  0  2  0  0  0  0  0  0  0  0  0
   14.1172    5.7785    2.0193 C   0  0  2  0  0  0  0  0  0  0  0  0
   15.1264    5.4207    3.0282 N   0  0  0  0  0  0  0  0  0  0  0  0
   14.5162    1.0334    4.2575 C   0  0  0  0  0  0  0  0  0  0  0  0
   14.5969    4.1970    8.4786 C   0  0  2  0  0  0  0  0  0  0  0  0
   15.3985    4.2341    7.3094 O   0  0  0  0  0  0  0  0  0  0  0  0
   13.1482    6.8332    2.5962 C   0  0  1  0  0  0  0  0  0  0  0  0
   13.8882    7.9937    3.0090 O   0  0  0  0  0  0  0  0  0  0  0  0
   13.6386    1.8436    3.2443 C   0  0  2  0  0  0  0  0  0  0  0  0
   14.2592    1.8165    1.9042 N   0  0  0  0  0  0  0  0  0  0  0  0
   15.0383    3.0192    9.4312 C   0  0  1  0  0  0  0  0  0  0  0  0
   16.4729    3.1629    9.8216 N   0  0  0  0  0  0  0  0  0  0  0  0
   12.0940    7.1839    1.5195 C   0  0  2  0  0  0  0  0  0  0  0  0
   11.1769    8.1585    2.0466 O   0  0  0  0  0  0  0  0  0  0  0  0
   13.4866    3.3181    3.6974 C   0  0  2  0  0  0  0  0  0  0  0  0
   14.1239    3.0237   10.7037 C   0  0  1  0  0  0  0  0  0  0  0  0
   14.2864    4.2538   11.4048 O   0  0  0  0  0  0  0  0  0  0  0  0
   11.3236    5.8779    1.0890 C   0  0  2  0  0  0  0  0  0  0  0  0
   12.2782    4.8798    0.5689 O   0  0  0  0  0  0  0  0  0  0  0  0
   12.8446    3.3588    5.1067 C   0  0  2  0  0  0  0  0  0  0  0  0
   12.7319    4.7199    5.5091 O   0  0  0  0  0  0  0  0  0  0  0  0
   12.6371    2.8776   10.2505 C   0  0  0  0  0  0  0  0  0  0  0  0
   12.2671    3.9564    9.3030 O   0  0  0  0  0  0  0  0  0  0  0  0
   10.2677    6.1641   -0.0106 C   0  0  2  0  0  0  0  0  0  0  0  0
    9.5222    4.9780   -0.2726 O   0  0  0  0  0  0  0  0  0  0  0  0
   13.7164    2.6103    6.1417 C   0  0  1  0  0  0  0  0  0  0  0  0
   13.0326    2.6996    7.4140 O   0  0  0  0  0  0  0  0  0  0  0  0
   10.9195    6.6062   -1.3104 C   0  0  0  0  0  0  0  0  0  0  0  0
   14.4751    1.8946   11.6648 C   0  0  0  0  0  0  0  0  0  0  0  0
   17.2881    2.3573    8.8923 C   0  0  0  0  0  0  0  0  0  0  0  0
  1  2  1  1  0  0  0
  1  6  1  0  0  0  0
  1 23  1  0  0  0  0
  3  4  1  1  0  0  0
  3  8  1  0  0  0  0
  3 30  1  0  0  0  0
  5  9  1  0  0  0  0
  5 27  1  0  0  0  0
  5 31  1  1  0  0  0
  6  7  1  1  0  0  0
  6 11  1  0  0  0  0
  8 13  1  0  0  0  0
  9 10  1  6  0  0  0
  9 15  1  0  0  0  0
 11 12  1  6  0  0  0
 11 17  1  0  0  0  0
 13 14  1  6  0  0  0
 13 19  1  0  0  0  0
 15 16  1  1  0  0  0
 15 20  1  0  0  0  0
 16 34  1  0  0  0  0
 17 18  1  1  0  0  0
 17 22  1  0  0  0  0
 19  2  1  6  0  0  0
 19 24  1  0  0  0  0
 20 21  1  1  0  0  0
 20 26  1  0  0  0  0
 20 33  1  0  0  0  0
 22 23  1  6  0  0  0
 22 28  1  0  0  0  0
 24 25  1  1  0  0  0
 24 30  1  0  0  0  0
 26 27  1  0  0  0  0
 28 29  1  6  0  0  0
 28 32  1  0  0  0  0
 30 31  1  1  0  0  0
M  END
>  <CHROM.1>
-71.50327721,-86.53912316,-94.56722182,-174.76936798,169.36108739,-66.42795585
13.39590220,4.09737362,5.10408083,-2.40683177,-1.17793700,1.10785659

>  <Name>
ligand

>  <RI>
0

>  <Rbt.Current_Directory>
/home/itssahil/PROJECTS/Mol_Feturizer/New_Systems/rnas/3TD1

>  <Rbt.Executable>
rbdock ($Id: //depot/dev/client3/rdock/2013.1/src/exe/rbdock.cxx#4 $)

>  <Rbt.Library>
libRbt.so (2013.1, Build901 2013/11/27)

>  <Rbt.Parameter_File>
/export/apps/rDock/src/rDock_2013.1_src/data/scripts/dock_solv.prm

>  <Rbt.Receptor>
prm/pocket_docking_7.prm

>  <SCORE>
-8.17624

>  <SCORE.INTER>
-4.79194

>  <SCORE.INTER.CONST>
1

>  <SCORE.INTER.POLAR>
0

>  <SCORE.INTER.ROT>
6

>  <SCORE.INTER.SOLV>
18.1174

>  <SCORE.INTER.VDW>
-16.8338

>  <SCORE.INTER.norm>
-0.140939

>  <SCORE.INTRA>
-3.38431

>  <SCORE.INTRA.DIHEDRAL>
-14.3451

>  <SCORE.INTRA.DIHEDRAL.0>
19.5869

>  <SCORE.INTRA.POLAR>
0

>  <SCORE.INTRA.POLAR.0>
0

>  <SCORE.INTRA.REPUL>
0

>  <SCORE.INTRA.REPUL.0>
0

>  <SCORE.INTRA.SOLV>
2.01443

>  <SCORE.INTRA.SOLV.lig_0>
-70.101

>  <SCORE.INTRA.VDW>
2.78105

>  <SCORE.INTRA.VDW.0>
-3.39718

>  <SCORE.INTRA.norm>
-0.0995384

>  <SCORE.RESTR>
0

>  <SCORE.RESTR.CAVITY>
0

>  <SCORE.RESTR.norm>
0

>  <SCORE.SYSTEM>
0

>  <SCORE.SYSTEM.CONST>
0

>  <SCORE.SYSTEM.DIHEDRAL>
0

>  <SCORE.SYSTEM.SOLV>
0

>  <SCORE.SYSTEM.norm>
0

>  <SCORE.heavy>
34

>  <SCORE.norm>
-0.240478

>  <RMSD>
8.615

$$$$
ligand
 OpenBabel11021811483D
libRbt.so/2013.1/901 2013/11/27
 34 36  0  0  0  0  0  0  0  0999 V2000
   11.6068    6.5326    8.3680 C   0  0  2  0  0  0  0  0  0  0  0  0
   10.9950    7.3754    7.3791 O   0  0  0  0  0  0  0  0  0  0  0  0
    7.1672    6.8401    5.5563 C   0  0  2  0  0  0  0  0  0  0  0  0
    6.0959    6.3368    4.7036 N   0  0  0  0  0  0  0  0  0  0  0  0
    6.1719    6.3278    8.4432 C   0  0  2  0  0  0  0  0  0  0  0  0
   12.7163    7.3698    9.0993 C   0  0  2  0  0  0  0  0  0  0  0  0
   12.1392    8.5460    9.7685 N   0  0  0  0  0  0  0  0  0  0  0  0
    8.3520    7.2566    4.6222 C   0  0  0  0  0  0  0  0  0  0  0  0
    5.2713    5.5685    9.4822 C   0  0  2  0  0  0  0  0  0  0  0  0
    6.0204    4.5402   10.1083 O   0  0  0  0  0  0  0  0  0  0  0  0
   13.7784    7.8180    8.0719 C   0  0  1  0  0  0  0  0  0  0  0  0
   14.8012    8.5782    8.7358 O   0  0  0  0  0  0  0  0  0  0  0  0
    9.4937    7.8188    5.5350 C   0  0  2  0  0  0  0  0  0  0  0  0
   10.6480    8.2250    4.7079 N   0  0  0  0  0  0  0  0  0  0  0  0
    4.0181    4.9774    8.7274 C   0  0  1  0  0  0  0  0  0  0  0  0
    3.1349    4.2297    9.6720 N   0  0  0  0  0  0  0  0  0  0  0  0
   14.3614    6.5642    7.3778 C   0  0  2  0  0  0  0  0  0  0  0  0
   15.3455    6.9670    6.4094 O   0  0  0  0  0  0  0  0  0  0  0  0
    9.9604    6.7532    6.5595 C   0  0  2  0  0  0  0  0  0  0  0  0
    3.2275    6.1520    8.0559 C   0  0  1  0  0  0  0  0  0  0  0  0
    2.7647    7.0520    9.0594 O   0  0  0  0  0  0  0  0  0  0  0  0
   13.2000    5.7577    6.6812 C   0  0  2  0  0  0  0  0  0  0  0  0
   12.1880    5.3682    7.6823 O   0  0  0  0  0  0  0  0  0  0  0  0
    8.7552    6.3126    7.4274 C   0  0  2  0  0  0  0  0  0  0  0  0
    9.2031    5.3221    8.3470 O   0  0  0  0  0  0  0  0  0  0  0  0
    4.1872    6.9081    7.0839 C   0  0  0  0  0  0  0  0  0  0  0  0
    5.3892    7.3940    7.8031 O   0  0  0  0  0  0  0  0  0  0  0  0
   13.7223    4.4722    5.9879 C   0  0  2  0  0  0  0  0  0  0  0  0
   12.6466    3.8285    5.3099 O   0  0  0  0  0  0  0  0  0  0  0  0
    7.6308    5.7038    6.5575 C   0  0  1  0  0  0  0  0  0  0  0  0
    6.5568    5.3328    7.4538 O   0  0  0  0  0  0  0  0  0  0  0  0
   14.2992    3.4895    6.9936 C   0  0  0  0  0  0  0  0  0  0  0  0
    2.0109    5.6555    7.2844 C   0  0  0  0  0  0  0  0  0  0  0  0
    2.9693    2.8555    9.1608 C   0  0  0  0  0  0  0  0  0  0  0  0
  1  2  1  6  0  0  0
  1  6  1  0  0  0  0
  1 23  1  0  0  0  0
  3  4  1  6  0  0  0
  3  8  1  0  0  0  0
  3 30  1  0  0  0  0
  5  9  1  0  0  0  0
  5 27  1  0  0  0  0
  5 31  1  6  0  0  0
  6  7  1  6  0  0  0
  6 11  1  0  0  0  0
  8 13  1  0  0  0  0
  9 10  1  6  0  0  0
  9 15  1  0  0  0  0
 11 12  1  1  0  0  0
 11 17  1  0  0  0  0
 13 14  1  6  0  0  0
 13 19  1  0  0  0  0
 15 16  1  1  0  0  0
 15 20  1  0  0  0  0
 16 34  1  0  0  0  0
 17 18  1  6  0  0  0
 17 22  1  0  0  0  0
 19  2  1  1  0  0  0
 19 24  1  0  0  0  0
 20 21  1  1  0  0  0
 20 26  1  0  0  0  0
 20 33  1  0  0  0  0
 22 23  1  1  0  0  0
 22 28  1  0  0  0  0
 24 25  1  1  0  0  0
 24 30  1  0  0  0  0
 26 27  1  0  0  0  0
 28 29  1  1  0  0  0
 28 32  1  0  0  0  0
 30 31  1  1  0  0  0
M  END
>  <CHROM.1>
178.03924272,-177.58156949,-123.69646758,-176.54670469,-69.25952784,-166.43516110
8.85749869,6.16459511,7.49269201,-0.14078351,0.03822276,2.02975761

>  <Name>
ligand

>  <RI>
0

>  <Rbt.Current_Directory>
/home/itssahil/PROJECTS/Mol_Feturizer/New_Systems/rnas/3TD1

>  <Rbt.Executable>
rbdock ($Id: //depot/dev/client3/rdock/2013.1/src/exe/rbdock.cxx#4 $)

>  <Rbt.Library>
libRbt.so (2013.1, Build901 2013/11/27)

>  <Rbt.Parameter_File>
/export/apps/rDock/src/rDock_2013.1_src/data/scripts/dock_solv.prm

>  <Rbt.Receptor>
prm/pocket_docking_4.prm

>  <SCORE>
-15.3452

>  <SCORE.INTER>
-8.5941

>  <SCORE.INTER.CONST>
1

>  <SCORE.INTER.POLAR>
0

>  <SCORE.INTER.ROT>
6

>  <SCORE.INTER.SOLV>
17.0901

>  <SCORE.INTER.VDW>
-19.0261

>  <SCORE.INTER.norm>
-0.252768

>  <SCORE.INTRA>
-6.75108

>  <SCORE.INTRA.DIHEDRAL>
-16.9533

>  <SCORE.INTRA.DIHEDRAL.0>
19.5869

>  <SCORE.INTRA.POLAR>
0

>  <SCORE.INTRA.POLAR.0>
0

>  <SCORE.INTRA.REPUL>
0

>  <SCORE.INTRA.REPUL.0>
0

>  <SCORE.INTRA.SOLV>
-1.64146

>  <SCORE.INTRA.SOLV.lig_0>
-70.101

>  <SCORE.INTRA.VDW>
2.54632

>  <SCORE.INTRA.VDW.0>
-3.39718

>  <SCORE.INTRA.norm>
-0.198561

>  <SCORE.RESTR>
0

>  <SCORE.RESTR.CAVITY>
0

>  <SCORE.RESTR.norm>
0

>  <SCORE.SYSTEM>
0

>  <SCORE.SYSTEM.CONST>
0

>  <SCORE.SYSTEM.DIHEDRAL>
0

>  <SCORE.SYSTEM.SOLV>
0

>  <SCORE.SYSTEM.norm>
0

>  <SCORE.heavy>
34

>  <SCORE.norm>
-0.451329

>  <RMSD>
8.617

$$$$
ligand
 OpenBabel11021811483D
libRbt.so/2013.1/901 2013/11/27
 34 36  0  0  0  0  0  0  0  0999 V2000
    7.4122    9.9972    0.9280 C   0  0  2  0  0  0  0  0  0  0  0  0
    8.3393   10.6578    1.8036 O   0  0  0  0  0  0  0  0  0  0  0  0
   10.9777   11.8531   -1.3383 C   0  0  2  0  0  0  0  0  0  0  0  0
   12.0088   12.5617   -2.0885 N   0  0  0  0  0  0  0  0  0  0  0  0
   13.8881   10.0734   -0.0295 C   0  0  2  0  0  0  0  0  0  0  0  0
    6.3011    9.3284    1.8138 C   0  0  2  0  0  0  0  0  0  0  0  0
    5.5744   10.3347    2.6035 N   0  0  0  0  0  0  0  0  0  0  0  0
    9.9659   12.9232   -0.8084 C   0  0  0  0  0  0  0  0  0  0  0  0
   14.7237    9.0437   -0.8713 C   0  0  2  0  0  0  0  0  0  0  0  0
   14.7794    9.4609   -2.2254 O   0  0  0  0  0  0  0  0  0  0  0  0
    6.9529    8.2922    2.7550 C   0  0  1  0  0  0  0  0  0  0  0  0
    5.9405    7.6704    3.5632 O   0  0  0  0  0  0  0  0  0  0  0  0
    8.8458   12.1611   -0.0226 C   0  0  2  0  0  0  0  0  0  0  0  0
    7.8590   13.1223    0.5101 N   0  0  0  0  0  0  0  0  0  0  0  0
   14.0504    7.6225   -0.7435 C   0  0  1  0  0  0  0  0  0  0  0  0
   14.8009    6.6070   -1.5415 N   0  0  0  0  0  0  0  0  0  0  0  0
    7.7165    7.2529    1.9003 C   0  0  2  0  0  0  0  0  0  0  0  0
    8.3386    6.2862    2.7646 O   0  0  0  0  0  0  0  0  0  0  0  0
    9.4466   11.3533    1.1562 C   0  0  2  0  0  0  0  0  0  0  0  0
   14.0145    7.2101    0.7679 C   0  0  1  0  0  0  0  0  0  0  0  0
   15.3448    7.1243    1.2717 O   0  0  0  0  0  0  0  0  0  0  0  0
    8.8008    7.9854    1.0215 C   0  0  2  0  0  0  0  0  0  0  0  0
    8.1513    8.9878    0.1545 O   0  0  0  0  0  0  0  0  0  0  0  0
   10.4905   10.3473    0.6101 C   0  0  2  0  0  0  0  0  0  0  0  0
   11.0412    9.6308    1.7105 O   0  0  0  0  0  0  0  0  0  0  0  0
   13.2278    8.2989    1.5637 C   0  0  0  0  0  0  0  0  0  0  0  0
   13.8397    9.6358    1.3723 O   0  0  0  0  0  0  0  0  0  0  0  0
    9.5835    6.9938    0.1215 C   0  0  2  0  0  0  0  0  0  0  0  0
    8.6693    6.2893   -0.7146 O   0  0  0  0  0  0  0  0  0  0  0  0
   11.6386   11.0753   -0.1271 C   0  0  1  0  0  0  0  0  0  0  0  0
   12.5500   10.0561   -0.6011 O   0  0  0  0  0  0  0  0  0  0  0  0
   10.3478    5.9726    0.9476 C   0  0  0  0  0  0  0  0  0  0  0  0
   13.3537    5.8529    0.9753 C   0  0  0  0  0  0  0  0  0  0  0  0
   14.0210    6.3055   -2.7572 C   0  0  0  0  0  0  0  0  0  0  0  0
  1  2  1  1  0  0  0
  1  6  1  0  0  0  0
  1 23  1  0  0  0  0
  3  4  1  1  0  0  0
  3  8  1  0  0  0  0
  3 30  1  0  0  0  0
  5  9  1  0  0  0  0
  5 27  1  0  0  0  0
  5 31  1  6  0  0  0
  6  7  1  1  0  0  0
  6 11  1  0  0  0  0
  8 13  1  0  0  0  0
  9 10  1  6  0  0  0
  9 15  1  0  0  0  0
 11 12  1  6  0  0  0
 11 17  1  0  0  0  0
 13 14  1  1  0  0  0
 13 19  1  0  0  0  0
 15 16  1  6  0  0  0
 15 20  1  0  0  0  0
 16 34  1  0  0  0  0
 17 18  1  1  0  0  0
 17 22  1  0  0  0  0
 19  2  1  6  0  0  0
 19 24  1  0  0  0  0
 20 21  1  1  0  0  0
 20 26  1  0  0  0  0
 20 33  1  0  0  0  0
 22 23  1  6  0  0  0
 22 28  1  0  0  0  0
 24 25  1  1  0  0  0
 24 30  1  0  0  0  0
 26 27  1  0  0  0  0
 28 29  1  6  0  0  0
 28 32  1  0  0  0  0
 30 31  1  6  0  0  0
M  END
>  <CHROM.1>
-179.48663385,45.54210227,-105.12820069,57.63977451,128.36984325,-170.90281764
10.69336522,9.02486566,0.49441808,-3.07094240,-0.36163429,2.86107626

>  <Name>
ligand

>  <RI>
0

>  <Rbt.Current_Directory>
/home/itssahil/PROJECTS/Mol_Feturizer/New_Systems/rnas/3TD1

>  <Rbt.Executable>
rbdock ($Id: //depot/dev/client3/rdock/2013.1/src/exe/rbdock.cxx#4 $)

>  <Rbt.Library>
libRbt.so (2013.1, Build901 2013/11/27)

>  <Rbt.Parameter_File>
/export/apps/rDock/src/rDock_2013.1_src/data/scripts/dock_solv.prm

>  <Rbt.Receptor>
prm/blind_docking_20.prm

>  <SCORE>
25.5364

>  <SCORE.INTER>
13.6003

>  <SCORE.INTER.CONST>
1

>  <SCORE.INTER.POLAR>
0

>  <SCORE.INTER.ROT>
6

>  <SCORE.INTER.SOLV>
32.099

>  <SCORE.INTER.VDW>
-9.23278

>  <SCORE.INTER.norm>
0.400009

>  <SCORE.INTRA>
0.577667

>  <SCORE.INTRA.DIHEDRAL>
-10.3278

>  <SCORE.INTRA.DIHEDRAL.0>
19.5869

>  <SCORE.INTRA.POLAR>
0

>  <SCORE.INTRA.POLAR.0>
0

>  <SCORE.INTRA.REPUL>
0

>  <SCORE.INTRA.REPUL.0>
0

>  <SCORE.INTRA.SOLV>
-1.27801

>  <SCORE.INTRA.SOLV.lig_0>
-70.101

>  <SCORE.INTRA.VDW>
6.38058

>  <SCORE.INTRA.VDW.0>
-3.39718

>  <SCORE.INTRA.norm>
0.0169902

>  <SCORE.RESTR>
11.3584

>  <SCORE.RESTR.CAVITY>
11.3584

>  <SCORE.RESTR.norm>
0.334071

>  <SCORE.SYSTEM>
0

>  <SCORE.SYSTEM.CONST>
0

>  <SCORE.SYSTEM.DIHEDRAL>
0

>  <SCORE.SYSTEM.SOLV>
0

>  <SCORE.SYSTEM.norm>
0

>  <SCORE.heavy>
34

>  <SCORE.norm>
0.75107

>  <RMSD>
8.622

$$$$
ligand
 OpenBabel11021811483D
libRbt.so/2013.1/901 2013/11/27
 34 36  0  0  0  0  0  0  0  0999 V2000
   11.5653    6.4923    8.3209 C   0  0  2  0  0  0  0  0  0  0  0  0
   10.9648    7.3251    7.3167 O   0  0  0  0  0  0  0  0  0  0  0  0
    7.0983    6.8351    5.5641 C   0  0  2  0  0  0  0  0  0  0  0  0
    6.0037    6.3385    4.7375 N   0  0  0  0  0  0  0  0  0  0  0  0
    6.0997    6.4151    8.4366 C   0  0  2  0  0  0  0  0  0  0  0  0
   12.6557    7.3417    9.0666 C   0  0  2  0  0  0  0  0  0  0  0  0
   12.0586    8.5173    9.7190 N   0  0  0  0  0  0  0  0  0  0  0  0
    8.2760    7.2111    4.6042 C   0  0  0  0  0  0  0  0  0  0  0  0
    5.2350    5.6971    9.5338 C   0  0  2  0  0  0  0  0  0  0  0  0
    6.0180    4.7220   10.2024 O   0  0  0  0  0  0  0  0  0  0  0  0
   13.7324    7.7920    8.0554 C   0  0  1  0  0  0  0  0  0  0  0  0
   14.7379    8.5633    8.7327 O   0  0  0  0  0  0  0  0  0  0  0  0
    9.4431    7.7662    5.4888 C   0  0  2  0  0  0  0  0  0  0  0  0
   10.5918    8.1346    4.6365 N   0  0  0  0  0  0  0  0  0  0  0  0
    3.9818    5.0378    8.8378 C   0  0  1  0  0  0  0  0  0  0  0  0
    3.1326    4.3264    9.8399 N   0  0  0  0  0  0  0  0  0  0  0  0
   14.3364    6.5386    7.3787 C   0  0  2  0  0  0  0  0  0  0  0  0
   15.3344    6.9432    6.4253 O   0  0  0  0  0  0  0  0  0  0  0  0
    9.9050    6.7096    6.5247 C   0  0  2  0  0  0  0  0  0  0  0  0
    3.1535    6.1555    8.1165 C   0  0  1  0  0  0  0  0  0  0  0  0
    2.6890    7.1010    9.0765 O   0  0  0  0  0  0  0  0  0  0  0  0
   13.1933    5.7198    6.6665 C   0  0  2  0  0  0  0  0  0  0  0  0
   12.1668    5.3285    7.6521 O   0  0  0  0  0  0  0  0  0  0  0  0
    8.7054    6.3086    7.4191 C   0  0  2  0  0  0  0  0  0  0  0  0
    9.1483    5.3256    8.3491 O   0  0  0  0  0  0  0  0  0  0  0  0
    4.0785    6.8753    7.0852 C   0  0  0  0  0  0  0  0  0  0  0  0
    5.2823    7.4265    7.7526 O   0  0  0  0  0  0  0  0  0  0  0  0
   13.7368    4.4343    5.9898 C   0  0  2  0  0  0  0  0  0  0  0  0
   12.6788    3.7813    5.2931 O   0  0  0  0  0  0  0  0  0  0  0  0
    7.5553    5.7074    6.5780 C   0  0  1  0  0  0  0  0  0  0  0  0
    6.4887    5.3739    7.4975 O   0  0  0  0  0  0  0  0  0  0  0  0
   14.2989    3.4595    7.0114 C   0  0  0  0  0  0  0  0  0  0  0  0
    1.9345    5.5905    7.3977 C   0  0  0  0  0  0  0  0  0  0  0  0
    2.8393    2.9763    9.3222 C   0  0  0  0  0  0  0  0  0  0  0  0
  1  2  1  6  0  0  0
  1  6  1  0  0  0  0
  1 23  1  0  0  0  0
  3  4  1  6  0  0  0
  3  8  1  0  0  0  0
  3 30  1  0  0  0  0
  5  9  1  0  0  0  0
  5 27  1  0  0  0  0
  5 31  1  6  0  0  0
  6  7  1  6  0  0  0
  6 11  1  0  0  0  0
  8 13  1  0  0  0  0
  9 10  1  6  0  0  0
  9 15  1  0  0  0  0
 11 12  1  1  0  0  0
 11 17  1  0  0  0  0
 13 14  1  6  0  0  0
 13 19  1  0  0  0  0
 15 16  1  1  0  0  0
 15 20  1  0  0  0  0
 16 34  1  0  0  0  0
 17 18  1  6  0  0  0
 17 22  1  0  0  0  0
 19  2  1  1  0  0  0
 19 24  1  0  0  0  0
 20 21  1  1  0  0  0
 20 26  1  0  0  0  0
 20 33  1  0  0  0  0
 22 23  1  1  0  0  0
 22 28  1  0  0  0  0
 24 25  1  1  0  0  0
 24 30  1  0  0  0  0
 26 27  1  0  0  0  0
 28 29  1  1  0  0  0
 28 32  1  0  0  0  0
 30 31  1  1  0  0  0
M  END
>  <CHROM.1>
-179.17695721,-178.25342018,-131.11306375,-176.35732292,-66.65660392,-165.30251147
8.80745881,6.16640721,7.50511128,-0.14101230,0.03719404,1.93433576

>  <Name>
ligand

>  <RI>
0

>  <Rbt.Current_Directory>
/home/itssahil/PROJECTS/Mol_Feturizer/New_Systems/rnas/3TD1

>  <Rbt.Executable>
rbdock ($Id: //depot/dev/client3/rdock/2013.1/src/exe/rbdock.cxx#4 $)

>  <Rbt.Library>
libRbt.so (2013.1, Build901 2013/11/27)

>  <Rbt.Parameter_File>
/export/apps/rDock/src/rDock_2013.1_src/data/scripts/dock_solv.prm

>  <Rbt.Receptor>
prm/pocket_docking_4.prm

>  <SCORE>
-15.436

>  <SCORE.INTER>
-8.72497

>  <SCORE.INTER.CONST>
1

>  <SCORE.INTER.POLAR>
0

>  <SCORE.INTER.ROT>
6

>  <SCORE.INTER.SOLV>
17.3504

>  <SCORE.INTER.VDW>
-19.2001

>  <SCORE.INTER.norm>
-0.256617

>  <SCORE.INTRA>
-6.711

>  <SCORE.INTRA.DIHEDRAL>
-17.1171

>  <SCORE.INTRA.DIHEDRAL.0>
19.5869

>  <SCORE.INTRA.POLAR>
0

>  <SCORE.INTRA.POLAR.0>
0

>  <SCORE.INTRA.REPUL>
0

>  <SCORE.INTRA.REPUL.0>
0

>  <SCORE.INTRA.SOLV>
-1.61995

>  <SCORE.INTRA.SOLV.lig_0>
-70.101

>  <SCORE.INTRA.VDW>
2.65753

>  <SCORE.INTRA.VDW.0>
-3.39718

>  <SCORE.INTRA.norm>
-0.197382

>  <SCORE.RESTR>
0

>  <SCORE.RESTR.CAVITY>
0

>  <SCORE.RESTR.norm>
0

>  <SCORE.SYSTEM>
0

>  <SCORE.SYSTEM.CONST>
0

>  <SCORE.SYSTEM.DIHEDRAL>
0

>  <SCORE.SYSTEM.SOLV>
0

>  <SCORE.SYSTEM.norm>
0

>  <SCORE.heavy>
34

>  <SCORE.norm>
-0.453999

>  <RMSD>
8.628

$$$$
ligand
 OpenBabel11021811483D
libRbt.so/2013.1/901 2013/11/27
 34 36  0  0  0  0  0  0  0  0999 V2000
   12.6247    4.9777    7.6643 C   0  0  2  0  0  0  0  0  0  0  0  0
   11.3200    5.1341    8.2438 O   0  0  0  0  0  0  0  0  0  0  0  0
    7.5459    6.0536    6.4627 C   0  0  2  0  0  0  0  0  0  0  0  0
    6.4141    6.0687    5.5424 N   0  0  0  0  0  0  0  0  0  0  0  0
    6.3575    5.0744    9.1533 C   0  0  2  0  0  0  0  0  0  0  0  0
   13.5273    4.2167    8.7000 C   0  0  2  0  0  0  0  0  0  0  0  0
   12.9797    2.8856    9.0042 N   0  0  0  0  0  0  0  0  0  0  0  0
    8.8292    6.3884    5.6317 C   0  0  0  0  0  0  0  0  0  0  0  0
    5.1745    4.3935    9.9305 C   0  0  2  0  0  0  0  0  0  0  0  0
    5.5131    3.0529   10.2452 O   0  0  0  0  0  0  0  0  0  0  0  0
   13.6324    5.0503    9.9956 C   0  0  1  0  0  0  0  0  0  0  0  0
   14.4637    4.3633   10.9452 O   0  0  0  0  0  0  0  0  0  0  0  0
   10.0416    6.3952    6.6231 C   0  0  2  0  0  0  0  0  0  0  0  0
   11.2890    6.7006    5.8937 N   0  0  0  0  0  0  0  0  0  0  0  0
    3.8786    4.4549    9.0325 C   0  0  1  0  0  0  0  0  0  0  0  0
    2.7246    3.8041    9.7225 N   0  0  0  0  0  0  0  0  0  0  0  0
   14.2016    6.4459    9.6460 C   0  0  2  0  0  0  0  0  0  0  0  0
   14.2954    7.2383   10.8425 O   0  0  0  0  0  0  0  0  0  0  0  0
   10.1932    5.0207    7.3236 C   0  0  2  0  0  0  0  0  0  0  0  0
    3.5495    5.9538    8.7154 C   0  0  1  0  0  0  0  0  0  0  0  0
    3.2886    6.6531    9.9294 O   0  0  0  0  0  0  0  0  0  0  0  0
   13.2655    7.1492    8.5907 C   0  0  2  0  0  0  0  0  0  0  0  0
   13.1623    6.3164    7.3766 O   0  0  0  0  0  0  0  0  0  0  0  0
    8.8864    4.6854    8.0851 C   0  0  2  0  0  0  0  0  0  0  0  0
    9.0422    3.4127    8.7042 O   0  0  0  0  0  0  0  0  0  0  0  0
    4.7812    6.5951    8.0018 C   0  0  0  0  0  0  0  0  0  0  0  0
    6.0000    6.4637    8.8358 O   0  0  0  0  0  0  0  0  0  0  0  0
   13.8010    8.5462    8.1814 C   0  0  2  0  0  0  0  0  0  0  0  0
   13.9255    9.3650    9.3413 O   0  0  0  0  0  0  0  0  0  0  0  0
    7.6778    4.6197    7.1226 C   0  0  1  0  0  0  0  0  0  0  0  0
    6.5144    4.3096    7.9254 O   0  0  0  0  0  0  0  0  0  0  0  0
   12.8607    9.2437    7.2124 C   0  0  0  0  0  0  0  0  0  0  0  0
    2.3187    6.0941    7.8281 C   0  0  0  0  0  0  0  0  0  0  0  0
    2.2674    2.6732    8.8925 C   0  0  0  0  0  0  0  0  0  0  0  0
  1  2  1  1  0  0  0
  1  6  1  0  0  0  0
  1 23  1  0  0  0  0
  3  4  1  6  0  0  0
  3  8  1  0  0  0  0
  3 30  1  0  0  0  0
  5  9  1  0  0  0  0
  5 27  1  0  0  0  0
  5 31  1  6  0  0  0
  6  7  1  1  0  0  0
  6 11  1  0  0  0  0
  8 13  1  0  0  0  0
  9 10  1  6  0  0  0
  9 15  1  0  0  0  0
 11 12  1  1  0  0  0
 11 17  1  0  0  0  0
 13 14  1  6  0  0  0
 13 19  1  0  0  0  0
 15 16  1  1  0  0  0
 15 20  1  0  0  0  0
 16 34  1  0  0  0  0
 17 18  1  1  0  0  0
 17 22  1  0  0  0  0
 19  2  1  1  0  0  0
 19 24  1  0  0  0  0
 20 21  1  1  0  0  0
 20 26  1  0  0  0  0
 20 33  1  0  0  0  0
 22 23  1  6  0  0  0
 22 28  1  0  0  0  0
 24 25  1  6  0  0  0
 24 30  1  0  0  0  0
 26 27  1  0  0  0  0
 28 29  1  1  0  0  0
 28 32  1  0  0  0  0
 30 31  1  1  0  0  0
M  END
>  <CHROM.1>
-143.44329737,-81.64882450,-119.24109227,-57.90994059,-69.62201790,-171.15197589
9.01283418,5.58776908,8.42530901,-0.13105893,0.10167280,2.53753941

>  <Name>
ligand

>  <RI>
0

>  <Rbt.Current_Directory>
/home/itssahil/PROJECTS/Mol_Feturizer/New_Systems/rnas/3TD1

>  <Rbt.Executable>
rbdock ($Id: //depot/dev/client3/rdock/2013.1/src/exe/rbdock.cxx#4 $)

>  <Rbt.Library>
libRbt.so (2013.1, Build901 2013/11/27)

>  <Rbt.Parameter_File>
/export/apps/rDock/src/rDock_2013.1_src/data/scripts/dock_solv.prm

>  <Rbt.Receptor>
prm/pocket_docking_5.prm

>  <SCORE>
-11.6002

>  <SCORE.INTER>
-10.0145

>  <SCORE.INTER.CONST>
1

>  <SCORE.INTER.POLAR>
0

>  <SCORE.INTER.ROT>
6

>  <SCORE.INTER.SOLV>
12.0449

>  <SCORE.INTER.VDW>
-18.2913

>  <SCORE.INTER.norm>
-0.294545

>  <SCORE.INTRA>
-1.5857

>  <SCORE.INTRA.DIHEDRAL>
-10.5912

>  <SCORE.INTRA.DIHEDRAL.0>
19.5869

>  <SCORE.INTRA.POLAR>
0

>  <SCORE.INTRA.POLAR.0>
0

>  <SCORE.INTRA.REPUL>
0

>  <SCORE.INTRA.REPUL.0>
0

>  <SCORE.INTRA.SOLV>
2.56415

>  <SCORE.INTRA.SOLV.lig_0>
-70.101

>  <SCORE.INTRA.VDW>
2.42783

>  <SCORE.INTRA.VDW.0>
-3.39718

>  <SCORE.INTRA.norm>
-0.0466384

>  <SCORE.RESTR>
0

>  <SCORE.RESTR.CAVITY>
0

>  <SCORE.RESTR.norm>
0

>  <SCORE.SYSTEM>
0

>  <SCORE.SYSTEM.CONST>
0

>  <SCORE.SYSTEM.DIHEDRAL>
0

>  <SCORE.SYSTEM.SOLV>
0

>  <SCORE.SYSTEM.norm>
0

>  <SCORE.heavy>
34

>  <SCORE.norm>
-0.341183

>  <RMSD>
8.634

$$$$
ligand
 OpenBabel11021811483D
libRbt.so/2013.1/901 2013/11/27
 34 36  0  0  0  0  0  0  0  0999 V2000
   11.1026    4.1328    3.7783 C   0  0  2  0  0  0  0  0  0  0  0  0
   11.6631    4.9299    4.8334 O   0  0  0  0  0  0  0  0  0  0  0  0
    9.8869    6.9465    8.1560 C   0  0  2  0  0  0  0  0  0  0  0  0
    9.0509    7.8407    8.9494 N   0  0  0  0  0  0  0  0  0  0  0  0
    7.3514    5.7017    9.2581 C   0  0  2  0  0  0  0  0  0  0  0  0
   12.1304    2.9975    3.4301 C   0  0  2  0  0  0  0  0  0  0  0  0
   12.3832    2.1347    4.5945 N   0  0  0  0  0  0  0  0  0  0  0  0
   10.6535    7.8258    7.1126 C   0  0  0  0  0  0  0  0  0  0  0  0
    7.0025    4.6487   10.3701 C   0  0  2  0  0  0  0  0  0  0  0  0
    8.1748    4.2987   11.0869 O   0  0  0  0  0  0  0  0  0  0  0  0
   13.4528    3.6348    2.9511 C   0  0  1  0  0  0  0  0  0  0  0  0
   14.3955    2.6011    2.6230 O   0  0  0  0  0  0  0  0  0  0  0  0
   11.5690    6.8695    6.2757 C   0  0  2  0  0  0  0  0  0  0  0  0
   12.3175    7.6435    5.2646 N   0  0  0  0  0  0  0  0  0  0  0  0
    6.3593    3.3825    9.6826 C   0  0  1  0  0  0  0  0  0  0  0  0
    6.0227    2.3413   10.6994 N   0  0  0  0  0  0  0  0  0  0  0  0
   13.1570    4.5424    1.7336 C   0  0  2  0  0  0  0  0  0  0  0  0
   14.3790    5.1520    1.2825 O   0  0  0  0  0  0  0  0  0  0  0  0
   10.7272    5.7851    5.5558 C   0  0  2  0  0  0  0  0  0  0  0  0
    5.0711    3.8236    8.9069 C   0  0  1  0  0  0  0  0  0  0  0  0
    4.1243    4.3675    9.8228 O   0  0  0  0  0  0  0  0  0  0  0  0
   12.1073    5.6460    2.1397 C   0  0  2  0  0  0  0  0  0  0  0  0
   10.8664    5.0069    2.6191 O   0  0  0  0  0  0  0  0  0  0  0  0
    9.9301    4.9722    6.6064 C   0  0  2  0  0  0  0  0  0  0  0  0
    9.1518    3.9960    5.9218 O   0  0  0  0  0  0  0  0  0  0  0  0
    5.4667    4.9136    7.8615 C   0  0  0  0  0  0  0  0  0  0  0  0
    6.1306    6.0620    8.5240 O   0  0  0  0  0  0  0  0  0  0  0  0
   11.7513    6.5732    0.9483 C   0  0  2  0  0  0  0  0  0  0  0  0
   11.4802    5.7809   -0.2049 O   0  0  0  0  0  0  0  0  0  0  0  0
    8.9769    5.8831    7.4146 C   0  0  1  0  0  0  0  0  0  0  0  0
    8.2888    5.0368    8.3657 O   0  0  0  0  0  0  0  0  0  0  0  0
   12.8947    7.5163    0.6125 C   0  0  0  0  0  0  0  0  0  0  0  0
    4.4041    2.6540    8.1935 C   0  0  0  0  0  0  0  0  0  0  0  0
    7.2250    1.5192   10.9351 C   0  0  0  0  0  0  0  0  0  0  0  0
  1  2  1  1  0  0  0
  1  6  1  0  0  0  0
  1 23  1  0  0  0  0
  3  4  1  6  0  0  0
  3  8  1  0  0  0  0
  3 30  1  0  0  0  0
  5  9  1  0  0  0  0
  5 27  1  0  0  0  0
  5 31  1  6  0  0  0
  6  7  1  1  0  0  0
  6 11  1  0  0  0  0
  8 13  1  0  0  0  0
  9 10  1  6  0  0  0
  9 15  1  0  0  0  0
 11 12  1  6  0  0  0
 11 17  1  0  0  0  0
 13 14  1  6  0  0  0
 13 19  1  0  0  0  0
 15 16  1  1  0  0  0
 15 20  1  0  0  0  0
 16 34  1  0  0  0  0
 17 18  1  1  0  0  0
 17 22  1  0  0  0  0
 19  2  1  1  0  0  0
 19 24  1  0  0  0  0
 20 21  1  1  0  0  0
 20 26  1  0  0  0  0
 20 33  1  0  0  0  0
 22 23  1  6  0  0  0
 22 28  1  0  0  0  0
 24 25  1  6  0  0  0
 24 30  1  0  0  0  0
 26 27  1  0  0  0  0
 28 29  1  6  0  0  0
 28 32  1  0  0  0  0
 30 31  1  1  0  0  0
M  END
>  <CHROM.1>
-163.08679942,-161.14017013,-85.74941483,47.10742804,62.85201391,-167.57398865
9.69185022,4.90074289,6.04911724,0.04204521,-0.86786033,-2.95558617

>  <Name>
ligand

>  <RI>
0

>  <Rbt.Current_Directory>
/home/itssahil/PROJECTS/Mol_Feturizer/New_Systems/rnas/3TD1

>  <Rbt.Executable>
rbdock ($Id: //depot/dev/client3/rdock/2013.1/src/exe/rbdock.cxx#4 $)

>  <Rbt.Library>
libRbt.so (2013.1, Build901 2013/11/27)

>  <Rbt.Parameter_File>
/export/apps/rDock/src/rDock_2013.1_src/data/scripts/dock_solv.prm

>  <Rbt.Receptor>
prm/pocket_docking_7.prm

>  <SCORE>
-14.344

>  <SCORE.INTER>
-8.29979

>  <SCORE.INTER.CONST>
1

>  <SCORE.INTER.POLAR>
0

>  <SCORE.INTER.ROT>
6

>  <SCORE.INTER.SOLV>
16.8042

>  <SCORE.INTER.VDW>
-18.7346

>  <SCORE.INTER.norm>
-0.244112

>  <SCORE.INTRA>
-6.04423

>  <SCORE.INTRA.DIHEDRAL>
-14.7557

>  <SCORE.INTRA.DIHEDRAL.0>
19.5869

>  <SCORE.INTRA.POLAR>
0

>  <SCORE.INTRA.POLAR.0>
0

>  <SCORE.INTRA.REPUL>
0

>  <SCORE.INTRA.REPUL.0>
0

>  <SCORE.INTRA.SOLV>
-0.75785

>  <SCORE.INTRA.SOLV.lig_0>
-70.101

>  <SCORE.INTRA.VDW>
1.71256

>  <SCORE.INTRA.VDW.0>
-3.39718

>  <SCORE.INTRA.norm>
-0.177772

>  <SCORE.RESTR>
0

>  <SCORE.RESTR.CAVITY>
0

>  <SCORE.RESTR.norm>
0

>  <SCORE.SYSTEM>
0

>  <SCORE.SYSTEM.CONST>
0

>  <SCORE.SYSTEM.DIHEDRAL>
0

>  <SCORE.SYSTEM.SOLV>
0

>  <SCORE.SYSTEM.norm>
0

>  <SCORE.heavy>
34

>  <SCORE.norm>
-0.421883

>  <RMSD>
8.637

$$$$
ligand
 OpenBabel11021811483D
libRbt.so/2013.1/901 2013/11/27
 34 36  0  0  0  0  0  0  0  0999 V2000
    9.8405    8.5415   11.3964 C   0  0  2  0  0  0  0  0  0  0  0  0
   10.2312    7.5667   12.3761 O   0  0  0  0  0  0  0  0  0  0  0  0
    8.9789    3.4930   12.6894 C   0  0  2  0  0  0  0  0  0  0  0  0
    8.1642    2.3080   12.9345 N   0  0  0  0  0  0  0  0  0  0  0  0
    7.5218    2.4032   10.1951 C   0  0  2  0  0  0  0  0  0  0  0  0
   11.0225    9.5621   11.2297 C   0  0  2  0  0  0  0  0  0  0  0  0
   12.2453    8.8874   10.7674 N   0  0  0  0  0  0  0  0  0  0  0  0
    8.9692    4.3468   14.0010 C   0  0  0  0  0  0  0  0  0  0  0  0
    7.4512    2.0065    8.6769 C   0  0  2  0  0  0  0  0  0  0  0  0
    8.7425    1.6508    8.2114 O   0  0  0  0  0  0  0  0  0  0  0  0
   11.2871   10.2624   12.5803 C   0  0  1  0  0  0  0  0  0  0  0  0
   12.3627   11.2038   12.4330 O   0  0  0  0  0  0  0  0  0  0  0  0
    9.8627    5.6078   13.7465 C   0  0  2  0  0  0  0  0  0  0  0  0
    9.8884    6.4604   14.9523 N   0  0  0  0  0  0  0  0  0  0  0  0
    6.8713    3.2271    7.8624 C   0  0  1  0  0  0  0  0  0  0  0  0
    6.7986    2.9051    6.4055 N   0  0  0  0  0  0  0  0  0  0  0  0
    9.9847   10.9549   13.0468 C   0  0  2  0  0  0  0  0  0  0  0  0
   10.2130   11.6032   14.3101 O   0  0  0  0  0  0  0  0  0  0  0  0
    9.3224    6.4392   12.5551 C   0  0  2  0  0  0  0  0  0  0  0  0
    5.4475    3.5776    8.4150 C   0  0  1  0  0  0  0  0  0  0  0  0
    4.5774    2.4634    8.2355 O   0  0  0  0  0  0  0  0  0  0  0  0
    8.8342    9.8851   13.1758 C   0  0  2  0  0  0  0  0  0  0  0  0
    8.6243    9.2140   11.8782 O   0  0  0  0  0  0  0  0  0  0  0  0
    9.2824    5.5519   11.2858 C   0  0  2  0  0  0  0  0  0  0  0  0
    8.7665    6.3300   10.2107 O   0  0  0  0  0  0  0  0  0  0  0  0
    5.5688    3.9009    9.9376 C   0  0  0  0  0  0  0  0  0  0  0  0
    6.1793    2.7654   10.6699 O   0  0  0  0  0  0  0  0  0  0  0  0
    7.4930   10.5271   13.6172 C   0  0  2  0  0  0  0  0  0  0  0  0
    7.4210   11.8621   13.1235 O   0  0  0  0  0  0  0  0  0  0  0  0
    8.3646    4.3239   11.4890 C   0  0  1  0  0  0  0  0  0  0  0  0
    8.3999    3.5617   10.2593 O   0  0  0  0  0  0  0  0  0  0  0  0
    7.3690   10.5784   15.1310 C   0  0  0  0  0  0  0  0  0  0  0  0
    4.8296    4.7674    7.6909 C   0  0  0  0  0  0  0  0  0  0  0  0
    8.0623    3.3308    5.7741 C   0  0  0  0  0  0  0  0  0  0  0  0
  1  2  1  1  0  0  0
  1  6  1  0  0  0  0
  1 23  1  0  0  0  0
  3  4  1  1  0  0  0
  3  8  1  0  0  0  0
  3 30  1  0  0  0  0
  5  9  1  0  0  0  0
  5 27  1  0  0  0  0
  5 31  1  6  0  0  0
  6  7  1  1  0  0  0
  6 11  1  0  0  0  0
  8 13  1  0  0  0  0
  9 10  1  6  0  0  0
  9 15  1  0  0  0  0
 11 12  1  6  0  0  0
 11 17  1  0  0  0  0
 13 14  1  1  0  0  0
 13 19  1  0  0  0  0
 15 16  1  6  0  0  0
 15 20  1  0  0  0  0
 16 34  1  0  0  0  0
 17 18  1  1  0  0  0
 17 22  1  0  0  0  0
 19  2  1  6  0  0  0
 19 24  1  0  0  0  0
 20 21  1  6  0  0  0
 20 26  1  0  0  0  0
 20 33  1  0  0  0  0
 22 23  1  6  0  0  0
 22 28  1  0  0  0  0
 24 25  1  6  0  0  0
 24 30  1  0  0  0  0
 26 27  1  0  0  0  0
 28 29  1  1  0  0  0
 28 32  1  0  0  0  0
 30 31  1  6  0  0  0
M  END
>  <CHROM.1>
-173.04756985,-174.25655734,-91.17905435,30.77636251,68.38423998,164.85363492
8.48830209,6.26101263,11.19935661,0.56767678,-1.17105774,-0.41386370

>  <Name>
ligand

>  <RI>
0

>  <Rbt.Current_Directory>
/home/itssahil/PROJECTS/Mol_Feturizer/New_Systems/rnas/3TD1

>  <Rbt.Executable>
rbdock ($Id: //depot/dev/client3/rdock/2013.1/src/exe/rbdock.cxx#4 $)

>  <Rbt.Library>
libRbt.so (2013.1, Build901 2013/11/27)

>  <Rbt.Parameter_File>
/export/apps/rDock/src/rDock_2013.1_src/data/scripts/dock_solv.prm

>  <Rbt.Receptor>
prm/pocket_docking_8.prm

>  <SCORE>
-14.3151

>  <SCORE.INTER>
-7.90669

>  <SCORE.INTER.CONST>
1

>  <SCORE.INTER.POLAR>
0

>  <SCORE.INTER.ROT>
6

>  <SCORE.INTER.SOLV>
14.4529

>  <SCORE.INTER.VDW>
-17.6888

>  <SCORE.INTER.norm>
-0.23255

>  <SCORE.INTRA>
-6.43939

>  <SCORE.INTRA.DIHEDRAL>
-14.5056

>  <SCORE.INTRA.DIHEDRAL.0>
19.5869

>  <SCORE.INTRA.POLAR>
0

>  <SCORE.INTRA.POLAR.0>
0

>  <SCORE.INTRA.REPUL>
0

>  <SCORE.INTRA.REPUL.0>
0

>  <SCORE.INTRA.SOLV>
-1.36137

>  <SCORE.INTRA.SOLV.lig_0>
-70.101

>  <SCORE.INTRA.VDW>
1.49408

>  <SCORE.INTRA.VDW.0>
-3.39718

>  <SCORE.INTRA.norm>
-0.189394

>  <SCORE.RESTR>
0.0310212

>  <SCORE.RESTR.CAVITY>
0.0310212

>  <SCORE.RESTR.norm>
0.000912387

>  <SCORE.SYSTEM>
0

>  <SCORE.SYSTEM.CONST>
0

>  <SCORE.SYSTEM.DIHEDRAL>
0

>  <SCORE.SYSTEM.SOLV>
0

>  <SCORE.SYSTEM.norm>
0

>  <SCORE.heavy>
34

>  <SCORE.norm>
-0.421031

>  <RMSD>
8.640

$$$$
ligand
 OpenBabel11021811483D
libRbt.so/2013.1/901 2013/11/27
 34 36  0  0  0  0  0  0  0  0999 V2000
   12.0371    7.2700    6.7028 C   0  0  2  0  0  0  0  0  0  0  0  0
   10.8239    6.8395    7.3395 O   0  0  0  0  0  0  0  0  0  0  0  0
    6.9167    6.7491    5.6110 C   0  0  2  0  0  0  0  0  0  0  0  0
    5.8035    6.4550    4.7153 N   0  0  0  0  0  0  0  0  0  0  0  0
    6.0920    5.5680    8.3969 C   0  0  2  0  0  0  0  0  0  0  0  0
   12.7771    5.9964    6.1580 C   0  0  2  0  0  0  0  0  0  0  0  0
   11.9503    5.2831    5.1721 N   0  0  0  0  0  0  0  0  0  0  0  0
    8.0693    7.3539    4.7417 C   0  0  0  0  0  0  0  0  0  0  0  0
    5.1250    4.6381    9.2137 C   0  0  2  0  0  0  0  0  0  0  0  0
    5.7657    3.4045    9.4942 O   0  0  0  0  0  0  0  0  0  0  0  0
   13.1155    5.0586    7.3371 C   0  0  1  0  0  0  0  0  0  0  0  0
   13.8001    3.8944    6.8465 O   0  0  0  0  0  0  0  0  0  0  0  0
    9.2563    7.6915    5.7060 C   0  0  2  0  0  0  0  0  0  0  0  0
   10.3826    8.2629    4.9401 N   0  0  0  0  0  0  0  0  0  0  0  0
    3.8089    4.4148    8.3727 C   0  0  1  0  0  0  0  0  0  0  0  0
    2.8596    3.5210    9.1016 N   0  0  0  0  0  0  0  0  0  0  0  0
   13.9764    5.8355    8.3612 C   0  0  2  0  0  0  0  0  0  0  0  0
   14.2908    4.9771    9.4716 O   0  0  0  0  0  0  0  0  0  0  0  0
    9.7466    6.4220    6.4481 C   0  0  2  0  0  0  0  0  0  0  0  0
    3.1423    5.8049    8.0917 C   0  0  1  0  0  0  0  0  0  0  0  0
    2.7877    6.4231    9.3258 O   0  0  0  0  0  0  0  0  0  0  0  0
   13.1899    7.1094    8.8545 C   0  0  2  0  0  0  0  0  0  0  0  0
   12.8564    7.9708    7.7034 O   0  0  0  0  0  0  0  0  0  0  0  0
    8.5706    5.8085    7.2483 C   0  0  2  0  0  0  0  0  0  0  0  0
    9.0390    4.6355    7.9056 O   0  0  0  0  0  0  0  0  0  0  0  0
    4.1683    6.7067    7.3358 C   0  0  0  0  0  0  0  0  0  0  0  0
    5.4220    6.8450    8.1152 O   0  0  0  0  0  0  0  0  0  0  0  0
   14.0163    7.9444    9.8672 C   0  0  2  0  0  0  0  0  0  0  0  0
   15.3245    8.1633    9.3456 O   0  0  0  0  0  0  0  0  0  0  0  0
    7.4018    5.4158    6.3149 C   0  0  1  0  0  0  0  0  0  0  0  0
    6.3592    4.8629    7.1524 O   0  0  0  0  0  0  0  0  0  0  0  0
   14.1556    7.2284   11.2005 C   0  0  0  0  0  0  0  0  0  0  0  0
    1.8725    5.6729    7.2598 C   0  0  0  0  0  0  0  0  0  0  0  0
    2.8777    2.1974    8.4500 C   0  0  0  0  0  0  0  0  0  0  0  0
  1  2  1  1  0  0  0
  1  6  1  0  0  0  0
  1 23  1  0  0  0  0
  3  4  1  6  0  0  0
  3  8  1  0  0  0  0
  3 30  1  0  0  0  0
  5  9  1  0  0  0  0
  5 27  1  0  0  0  0
  5 31  1  6  0  0  0
  6  7  1  6  0  0  0
  6 11  1  0  0  0  0
  8 13  1  0  0  0  0
  9 10  1  6  0  0  0
  9 15  1  0  0  0  0
 11 12  1  6  0  0  0
 11 17  1  0  0  0  0
 13 14  1  6  0  0  0
 13 19  1  0  0  0  0
 15 16  1  1  0  0  0
 15 20  1  0  0  0  0
 16 34  1  0  0  0  0
 17 18  1  1  0  0  0
 17 22  1  0  0  0  0
 19  2  1  1  0  0  0
 19 24  1  0  0  0  0
 20 21  1  1  0  0  0
 20 26  1  0  0  0  0
 20 33  1  0  0  0  0
 22 23  1  6  0  0  0
 22 28  1  0  0  0  0
 24 25  1  6  0  0  0
 24 30  1  0  0  0  0
 26 27  1  0  0  0  0
 28 29  1  6  0  0  0
 28 32  1  0  0  0  0
 30 31  1  1  0  0  0
M  END
>  <CHROM.1>
-74.28691609,-68.25438148,-105.74941953,49.10255291,-73.16953327,-170.25735568
8.77478230,5.93696533,7.63502206,0.05950699,-0.15031091,-1.09270717

>  <Name>
ligand

>  <RI>
0

>  <Rbt.Current_Directory>
/home/itssahil/PROJECTS/Mol_Feturizer/New_Systems/rnas/3TD1

>  <Rbt.Executable>
rbdock ($Id: //depot/dev/client3/rdock/2013.1/src/exe/rbdock.cxx#4 $)

>  <Rbt.Library>
libRbt.so (2013.1, Build901 2013/11/27)

>  <Rbt.Parameter_File>
/export/apps/rDock/src/rDock_2013.1_src/data/scripts/dock_solv.prm

>  <Rbt.Receptor>
prm/pocket_docking_4.prm

>  <SCORE>
-11.1274

>  <SCORE.INTER>
-8.90418

>  <SCORE.INTER.CONST>
1

>  <SCORE.INTER.POLAR>
0

>  <SCORE.INTER.ROT>
6

>  <SCORE.INTER.SOLV>
14.674

>  <SCORE.INTER.VDW>
-18.4274

>  <SCORE.INTER.norm>
-0.261888

>  <SCORE.INTRA>
-2.22339

>  <SCORE.INTRA.DIHEDRAL>
-15.4971

>  <SCORE.INTRA.DIHEDRAL.0>
19.5869

>  <SCORE.INTRA.POLAR>
0

>  <SCORE.INTRA.POLAR.0>
0

>  <SCORE.INTRA.REPUL>
0

>  <SCORE.INTRA.REPUL.0>
0

>  <SCORE.INTRA.SOLV>
3.26385

>  <SCORE.INTRA.SOLV.lig_0>
-70.101

>  <SCORE.INTRA.VDW>
3.89323

>  <SCORE.INTRA.VDW.0>
-3.39718

>  <SCORE.INTRA.norm>
-0.0653939

>  <SCORE.RESTR>
0.000176227

>  <SCORE.RESTR.CAVITY>
0.000176227

>  <SCORE.RESTR.norm>
5.18315e-06

>  <SCORE.SYSTEM>
0

>  <SCORE.SYSTEM.CONST>
0

>  <SCORE.SYSTEM.DIHEDRAL>
0

>  <SCORE.SYSTEM.SOLV>
0

>  <SCORE.SYSTEM.norm>
0

>  <SCORE.heavy>
34

>  <SCORE.norm>
-0.327276

>  <RMSD>
8.649

$$$$
ligand
 OpenBabel11021811483D
libRbt.so/2013.1/901 2013/11/27
 34 36  0  0  0  0  0  0  0  0999 V2000
   11.6032    6.3189    8.1891 C   0  0  2  0  0  0  0  0  0  0  0  0
   10.8935    7.2563    7.3644 O   0  0  0  0  0  0  0  0  0  0  0  0
    7.0231    6.9283    5.5826 C   0  0  2  0  0  0  0  0  0  0  0  0
    5.9218    6.4953    4.7296 N   0  0  0  0  0  0  0  0  0  0  0  0
    5.9970    6.3846    8.4152 C   0  0  2  0  0  0  0  0  0  0  0  0
   12.7179    7.1050    8.9676 C   0  0  2  0  0  0  0  0  0  0  0  0
   12.1320    8.1456    9.8268 N   0  0  0  0  0  0  0  0  0  0  0  0
    8.2097    7.3325    4.6455 C   0  0  0  0  0  0  0  0  0  0  0  0
    5.1149    5.6309    9.4740 C   0  0  2  0  0  0  0  0  0  0  0  0
    5.8812    4.6197   10.1073 O   0  0  0  0  0  0  0  0  0  0  0  0
   13.6923    7.7461    7.9557 C   0  0  1  0  0  0  0  0  0  0  0  0
   14.7198    8.4607    8.6616 O   0  0  0  0  0  0  0  0  0  0  0  0
    9.3844    7.8196    5.5596 C   0  0  2  0  0  0  0  0  0  0  0  0
   10.5417    8.2111    4.7295 N   0  0  0  0  0  0  0  0  0  0  0  0
    3.8606    5.0159    8.7406 C   0  0  1  0  0  0  0  0  0  0  0  0
    2.9949    4.2727    9.7047 N   0  0  0  0  0  0  0  0  0  0  0  0
   14.2859    6.6325    7.0606 C   0  0  2  0  0  0  0  0  0  0  0  0
   15.1884    7.2163    6.1049 O   0  0  0  0  0  0  0  0  0  0  0  0
    9.8247    6.7022    6.5397 C   0  0  2  0  0  0  0  0  0  0  0  0
    3.0510    6.1723    8.0603 C   0  0  1  0  0  0  0  0  0  0  0  0
    2.5887    7.0818    9.0554 O   0  0  0  0  0  0  0  0  0  0  0  0
   13.1203    5.8693    6.3235 C   0  0  2  0  0  0  0  0  0  0  0  0
   12.1915    5.2926    7.3150 O   0  0  0  0  0  0  0  0  0  0  0  0
    8.6159    6.2768    7.4101 C   0  0  2  0  0  0  0  0  0  0  0  0
    9.0388    5.2388    8.2882 O   0  0  0  0  0  0  0  0  0  0  0  0
    3.9928    6.9242    7.0678 C   0  0  0  0  0  0  0  0  0  0  0  0
    5.1968    7.4331    7.7678 O   0  0  0  0  0  0  0  0  0  0  0  0
   13.6548    4.7210    5.4283 C   0  0  2  0  0  0  0  0  0  0  0  0
   14.3358    5.2732    4.3047 O   0  0  0  0  0  0  0  0  0  0  0  0
    7.4573    5.7411    6.5371 C   0  0  1  0  0  0  0  0  0  0  0  0
    6.3827    5.3794    7.4363 O   0  0  0  0  0  0  0  0  0  0  0  0
   12.5266    3.8445    4.9099 C   0  0  0  0  0  0  0  0  0  0  0  0
    1.8321    5.6520    7.3083 C   0  0  0  0  0  0  0  0  0  0  0  0
    2.8209    2.8959    9.2036 C   0  0  0  0  0  0  0  0  0  0  0  0
  1  2  1  6  0  0  0
  1  6  1  0  0  0  0
  1 23  1  0  0  0  0
  3  4  1  6  0  0  0
  3  8  1  0  0  0  0
  3 30  1  0  0  0  0
  5  9  1  0  0  0  0
  5 27  1  0  0  0  0
  5 31  1  6  0  0  0
  6  7  1  6  0  0  0
  6 11  1  0  0  0  0
  8 13  1  0  0  0  0
  9 10  1  6  0  0  0
  9 15  1  0  0  0  0
 11 12  1  1  0  0  0
 11 17  1  0  0  0  0
 13 14  1  6  0  0  0
 13 19  1  0  0  0  0
 15 16  1  1  0  0  0
 15 20  1  0  0  0  0
 16 34  1  0  0  0  0
 17 18  1  6  0  0  0
 17 22  1  0  0  0  0
 19  2  1  1  0  0  0
 19 24  1  0  0  0  0
 20 21  1  1  0  0  0
 20 26  1  0  0  0  0
 20 33  1  0  0  0  0
 22 23  1  1  0  0  0
 22 28  1  0  0  0  0
 24 25  1  1  0  0  0
 24 30  1  0  0  0  0
 26 27  1  0  0  0  0
 28 29  1  6  0  0  0
 28 32  1  0  0  0  0
 30 31  1  1  0  0  0
M  END
>  <CHROM.1>
178.93337468,-169.79432733,-124.60282625,-70.17562362,-65.79375511,-165.53594475
8.74199710,6.22526607,7.32645686,-0.16482620,0.10371377,1.58060583

>  <Name>
ligand

>  <RI>
0

>  <Rbt.Current_Directory>
/home/itssahil/PROJECTS/Mol_Feturizer/New_Systems/rnas/3TD1

>  <Rbt.Executable>
rbdock ($Id: //depot/dev/client3/rdock/2013.1/src/exe/rbdock.cxx#4 $)

>  <Rbt.Library>
libRbt.so (2013.1, Build901 2013/11/27)

>  <Rbt.Parameter_File>
/export/apps/rDock/src/rDock_2013.1_src/data/scripts/dock_solv.prm

>  <Rbt.Receptor>
prm/pocket_docking_4.prm

>  <SCORE>
-15.9274

>  <SCORE.INTER>
-8.74094

>  <SCORE.INTER.CONST>
1

>  <SCORE.INTER.POLAR>
0

>  <SCORE.INTER.ROT>
6

>  <SCORE.INTER.SOLV>
16.8772

>  <SCORE.INTER.VDW>
-19.053

>  <SCORE.INTER.norm>
-0.257086

>  <SCORE.INTRA>
-7.18648

>  <SCORE.INTRA.DIHEDRAL>
-16.3169

>  <SCORE.INTRA.DIHEDRAL.0>
19.5869

>  <SCORE.INTRA.POLAR>
0

>  <SCORE.INTRA.POLAR.0>
0

>  <SCORE.INTRA.REPUL>
0

>  <SCORE.INTRA.REPUL.0>
0

>  <SCORE.INTRA.SOLV>
-1.17466

>  <SCORE.INTRA.SOLV.lig_0>
-70.101

>  <SCORE.INTRA.VDW>
1.55932

>  <SCORE.INTRA.VDW.0>
-3.39718

>  <SCORE.INTRA.norm>
-0.211367

>  <SCORE.RESTR>
0

>  <SCORE.RESTR.CAVITY>
0

>  <SCORE.RESTR.norm>
0

>  <SCORE.SYSTEM>
0

>  <SCORE.SYSTEM.CONST>
0

>  <SCORE.SYSTEM.DIHEDRAL>
0

>  <SCORE.SYSTEM.SOLV>
0

>  <SCORE.SYSTEM.norm>
0

>  <SCORE.heavy>
34

>  <SCORE.norm>
-0.468453

>  <RMSD>
8.660

$$$$
ligand
 OpenBabel11021811483D
libRbt.so/2013.1/901 2013/11/27
 34 36  0  0  0  0  0  0  0  0999 V2000
    8.8825    7.1894    4.9368 C   0  0  2  0  0  0  0  0  0  0  0  0
    9.0729    5.8265    4.5258 O   0  0  0  0  0  0  0  0  0  0  0  0
    7.7537    2.3464    6.6259 C   0  0  2  0  0  0  0  0  0  0  0  0
    7.6762    1.2571    7.5931 N   0  0  0  0  0  0  0  0  0  0  0  0
    6.1189    4.4992    9.2237 C   0  0  2  0  0  0  0  0  0  0  0  0
    8.9099    8.0917    3.6516 C   0  0  2  0  0  0  0  0  0  0  0  0
    7.8333    7.7214    2.7199 N   0  0  0  0  0  0  0  0  0  0  0  0
    9.1746    2.2911    5.9718 C   0  0  0  0  0  0  0  0  0  0  0  0
    4.8048    3.9591    9.8933 C   0  0  2  0  0  0  0  0  0  0  0  0
    4.9132    2.5618   10.1091 O   0  0  0  0  0  0  0  0  0  0  0  0
   10.2805    7.9473    2.9551 C   0  0  1  0  0  0  0  0  0  0  0  0
   10.3154    8.7766    1.7821 O   0  0  0  0  0  0  0  0  0  0  0  0
    9.2505    3.4460    4.9166 C   0  0  2  0  0  0  0  0  0  0  0  0
   10.5766    3.4497    4.2662 N   0  0  0  0  0  0  0  0  0  0  0  0
    3.5837    4.2941    8.9519 C   0  0  1  0  0  0  0  0  0  0  0  0
    2.3075    3.7855    9.5384 N   0  0  0  0  0  0  0  0  0  0  0  0
   11.3931    8.3335    3.9583 C   0  0  2  0  0  0  0  0  0  0  0  0
   12.6775    8.1935    3.3264 O   0  0  0  0  0  0  0  0  0  0  0  0
    9.0153    4.8246    5.5851 C   0  0  2  0  0  0  0  0  0  0  0  0
    3.5094    5.8459    8.7472 C   0  0  1  0  0  0  0  0  0  0  0  0
    3.2968    6.4842   10.0036 O   0  0  0  0  0  0  0  0  0  0  0  0
   11.3011    7.4087    5.2314 C   0  0  2  0  0  0  0  0  0  0  0  0
    9.9720    7.5472    5.8580 O   0  0  0  0  0  0  0  0  0  0  0  0
    7.6301    4.8294    6.2788 C   0  0  2  0  0  0  0  0  0  0  0  0
    7.4442    6.0970    6.9003 O   0  0  0  0  0  0  0  0  0  0  0  0
    4.8620    6.3345    8.1396 C   0  0  0  0  0  0  0  0  0  0  0  0
    5.9996    5.9478    9.0083 O   0  0  0  0  0  0  0  0  0  0  0  0
   12.3793    7.7673    6.2872 C   0  0  2  0  0  0  0  0  0  0  0  0
   12.3189    6.8342    7.3628 O   0  0  0  0  0  0  0  0  0  0  0  0
    7.5430    3.7317    7.3645 C   0  0  1  0  0  0  0  0  0  0  0  0
    6.2195    3.8141    7.9439 O   0  0  0  0  0  0  0  0  0  0  0  0
   12.1612    9.1585    6.8590 C   0  0  0  0  0  0  0  0  0  0  0  0
    2.3642    6.2474    7.8257 C   0  0  0  0  0  0  0  0  0  0  0  0
    1.8999    2.5830    8.7868 C   0  0  0  0  0  0  0  0  0  0  0  0
  1  2  1  6  0  0  0
  1  6  1  0  0  0  0
  1 23  1  0  0  0  0
  3  4  1  1  0  0  0
  3  8  1  0  0  0  0
  3 30  1  0  0  0  0
  5  9  1  0  0  0  0
  5 27  1  0  0  0  0
  5 31  1  6  0  0  0
  6  7  1  6  0  0  0
  6 11  1  0  0  0  0
  8 13  1  0  0  0  0
  9 10  1  6  0  0  0
  9 15  1  0  0  0  0
 11 12  1  6  0  0  0
 11 17  1  0  0  0  0
 13 14  1  1  0  0  0
 13 19  1  0  0  0  0
 15 16  1  1  0  0  0
 15 20  1  0  0  0  0
 16 34  1  0  0  0  0
 17 18  1  6  0  0  0
 17 22  1  0  0  0  0
 19  2  1  6  0  0  0
 19 24  1  0  0  0  0
 20 21  1  1  0  0  0
 20 26  1  0  0  0  0
 20 33  1  0  0  0  0
 22 23  1  1  0  0  0
 22 28  1  0  0  0  0
 24 25  1  1  0  0  0
 24 30  1  0  0  0  0
 26 27  1  0  0  0  0
 28 29  1  1  0  0  0
 28 32  1  0  0  0  0
 30 31  1  6  0  0  0
M  END
>  <CHROM.1>
-177.25825131,-179.77179237,-105.24953124,-175.33396360,143.44757031,-157.29946975
7.74958725,5.59769299,6.57887633,0.52217147,0.47277567,-0.27279063

>  <Name>
ligand

>  <RI>
0

>  <Rbt.Current_Directory>
/home/itssahil/PROJECTS/Mol_Feturizer/New_Systems/rnas/3TD1

>  <Rbt.Executable>
rbdock ($Id: //depot/dev/client3/rdock/2013.1/src/exe/rbdock.cxx#4 $)

>  <Rbt.Library>
libRbt.so (2013.1, Build901 2013/11/27)

>  <Rbt.Parameter_File>
/export/apps/rDock/src/rDock_2013.1_src/data/scripts/dock_solv.prm

>  <Rbt.Receptor>
prm/pocket_docking_6.prm

>  <SCORE>
-16.9096

>  <SCORE.INTER>
-11.3743

>  <SCORE.INTER.CONST>
1

>  <SCORE.INTER.POLAR>
0

>  <SCORE.INTER.ROT>
6

>  <SCORE.INTER.SOLV>
16.8793

>  <SCORE.INTER.VDW>
-20.8093

>  <SCORE.INTER.norm>
-0.334539

>  <SCORE.INTRA>
-5.53531

>  <SCORE.INTRA.DIHEDRAL>
-11.3732

>  <SCORE.INTRA.DIHEDRAL.0>
19.5869

>  <SCORE.INTRA.POLAR>
0

>  <SCORE.INTRA.POLAR.0>
0

>  <SCORE.INTRA.REPUL>
0

>  <SCORE.INTRA.REPUL.0>
0

>  <SCORE.INTRA.SOLV>
-3.17828

>  <SCORE.INTRA.SOLV.lig_0>
-70.101

>  <SCORE.INTRA.VDW>
1.74045

>  <SCORE.INTRA.VDW.0>
-3.39718

>  <SCORE.INTRA.norm>
-0.162803

>  <SCORE.RESTR>
0

>  <SCORE.RESTR.CAVITY>
0

>  <SCORE.RESTR.norm>
0

>  <SCORE.SYSTEM>
0

>  <SCORE.SYSTEM.CONST>
0

>  <SCORE.SYSTEM.DIHEDRAL>
0

>  <SCORE.SYSTEM.SOLV>
0

>  <SCORE.SYSTEM.norm>
0

>  <SCORE.heavy>
34

>  <SCORE.norm>
-0.497342

>  <RMSD>
8.670

$$$$
ligand
 OpenBabel11021811483D
libRbt.so/2013.1/901 2013/11/27
 34 36  0  0  0  0  0  0  0  0999 V2000
   11.7004    5.7112    7.6137 C   0  0  2  0  0  0  0  0  0  0  0  0
   10.9327    6.7797    7.0380 O   0  0  0  0  0  0  0  0  0  0  0  0
    6.9581    6.7646    5.4682 C   0  0  2  0  0  0  0  0  0  0  0  0
    5.8034    6.4888    4.6205 N   0  0  0  0  0  0  0  0  0  0  0  0
    6.2063    5.6364    8.2865 C   0  0  2  0  0  0  0  0  0  0  0  0
   12.8464    6.3485    8.4780 C   0  0  2  0  0  0  0  0  0  0  0  0
   12.2958    7.1761    9.5625 N   0  0  0  0  0  0  0  0  0  0  0  0
    8.0880    7.3359    4.5482 C   0  0  0  0  0  0  0  0  0  0  0  0
    5.2844    4.7201    9.1683 C   0  0  2  0  0  0  0  0  0  0  0  0
    5.9459    3.4973    9.4473 O   0  0  0  0  0  0  0  0  0  0  0  0
   13.7535    7.2074    7.5703 C   0  0  1  0  0  0  0  0  0  0  0  0
   14.8093    7.7875    8.3535 O   0  0  0  0  0  0  0  0  0  0  0  0
    9.3202    7.6542    5.4611 C   0  0  2  0  0  0  0  0  0  0  0  0
   10.4273    8.1935    4.6456 N   0  0  0  0  0  0  0  0  0  0  0  0
    3.9325    4.4695    8.3943 C   0  0  1  0  0  0  0  0  0  0  0  0
    3.0241    3.5874    9.1867 N   0  0  0  0  0  0  0  0  0  0  0  0
   14.3108    6.3160    6.4352 C   0  0  2  0  0  0  0  0  0  0  0  0
   15.1500    7.1055    5.5744 O   0  0  0  0  0  0  0  0  0  0  0  0
    9.8113    6.3798    6.1942 C   0  0  2  0  0  0  0  0  0  0  0  0
    3.2440    5.8486    8.1123 C   0  0  1  0  0  0  0  0  0  0  0  0
    2.9422    6.4935    9.3469 O   0  0  0  0  0  0  0  0  0  0  0  0
   13.1160    5.6912    5.6187 C   0  0  2  0  0  0  0  0  0  0  0  0
   12.2525    4.9007    6.5173 O   0  0  0  0  0  0  0  0  0  0  0  0
    8.6549    5.7997    7.0464 C   0  0  2  0  0  0  0  0  0  0  0  0
    9.1230    4.6216    7.6949 O   0  0  0  0  0  0  0  0  0  0  0  0
    4.2278    6.7386    7.2893 C   0  0  0  0  0  0  0  0  0  0  0  0
    5.5151    6.9025    8.0065 O   0  0  0  0  0  0  0  0  0  0  0  0
   13.6148    4.7644    4.4794 C   0  0  2  0  0  0  0  0  0  0  0  0
   14.3743    5.5274    3.5454 O   0  0  0  0  0  0  0  0  0  0  0  0
    7.4410    5.4262    6.1640 C   0  0  1  0  0  0  0  0  0  0  0  0
    6.4208    4.9040    7.0476 O   0  0  0  0  0  0  0  0  0  0  0  0
   12.4568    4.1241    3.7319 C   0  0  0  0  0  0  0  0  0  0  0  0
    1.9383    5.6897    7.3432 C   0  0  0  0  0  0  0  0  0  0  0  0
    2.9582    2.2729    8.5198 C   0  0  0  0  0  0  0  0  0  0  0  0
  1  2  1  6  0  0  0
  1  6  1  0  0  0  0
  1 23  1  0  0  0  0
  3  4  1  6  0  0  0
  3  8  1  0  0  0  0
  3 30  1  0  0  0  0
  5  9  1  0  0  0  0
  5 27  1  0  0  0  0
  5 31  1  6  0  0  0
  6  7  1  1  0  0  0
  6 11  1  0  0  0  0
  8 13  1  0  0  0  0
  9 10  1  6  0  0  0
  9 15  1  0  0  0  0
 11 12  1  1  0  0  0
 11 17  1  0  0  0  0
 13 14  1  6  0  0  0
 13 19  1  0  0  0  0
 15 16  1  1  0  0  0
 15 20  1  0  0  0  0
 16 34  1  0  0  0  0
 17 18  1  6  0  0  0
 17 22  1  0  0  0  0
 19  2  1  1  0  0  0
 19 24  1  0  0  0  0
 20 21  1  1  0  0  0
 20 26  1  0  0  0  0
 20 33  1  0  0  0  0
 22 23  1  1  0  0  0
 22 28  1  0  0  0  0
 24 25  1  6  0  0  0
 24 30  1  0  0  0  0
 26 27  1  0  0  0  0
 28 29  1  6  0  0  0
 28 32  1  0  0  0  0
 30 31  1  1  0  0  0
M  END
>  <CHROM.1>
-179.94939461,-168.62848691,-109.08983315,-62.71576191,-72.29688851,-168.91241160
8.80512395,5.83552130,6.96307829,-0.22919002,0.09262958,1.73845833

>  <Name>
ligand

>  <RI>
0

>  <Rbt.Current_Directory>
/home/itssahil/PROJECTS/Mol_Feturizer/New_Systems/rnas/3TD1

>  <Rbt.Executable>
rbdock ($Id: //depot/dev/client3/rdock/2013.1/src/exe/rbdock.cxx#4 $)

>  <Rbt.Library>
libRbt.so (2013.1, Build901 2013/11/27)

>  <Rbt.Parameter_File>
/export/apps/rDock/src/rDock_2013.1_src/data/scripts/dock_solv.prm

>  <Rbt.Receptor>
prm/pocket_docking_5.prm

>  <SCORE>
-16.8421

>  <SCORE.INTER>
-9.63436

>  <SCORE.INTER.CONST>
1

>  <SCORE.INTER.POLAR>
0

>  <SCORE.INTER.ROT>
6

>  <SCORE.INTER.SOLV>
14.8185

>  <SCORE.INTER.VDW>
-18.9624

>  <SCORE.INTER.norm>
-0.283363

>  <SCORE.INTRA>
-7.20771

>  <SCORE.INTRA.DIHEDRAL>
-16.4671

>  <SCORE.INTRA.DIHEDRAL.0>
19.5869

>  <SCORE.INTRA.POLAR>
0

>  <SCORE.INTRA.POLAR.0>
0

>  <SCORE.INTRA.REPUL>
0

>  <SCORE.INTRA.REPUL.0>
0

>  <SCORE.INTRA.SOLV>
-1.13451

>  <SCORE.INTRA.SOLV.lig_0>
-70.101

>  <SCORE.INTRA.VDW>
1.5931

>  <SCORE.INTRA.VDW.0>
-3.39718

>  <SCORE.INTRA.norm>
-0.211992

>  <SCORE.RESTR>
0

>  <SCORE.RESTR.CAVITY>
0

>  <SCORE.RESTR.norm>
0

>  <SCORE.SYSTEM>
0

>  <SCORE.SYSTEM.CONST>
0

>  <SCORE.SYSTEM.DIHEDRAL>
0

>  <SCORE.SYSTEM.SOLV>
0

>  <SCORE.SYSTEM.norm>
0

>  <SCORE.heavy>
34

>  <SCORE.norm>
-0.495355

>  <RMSD>
8.678

$$$$
ligand
 OpenBabel11021811483D
libRbt.so/2013.1/901 2013/11/27
 34 36  0  0  0  0  0  0  0  0999 V2000
   11.7209    5.6823    7.5135 C   0  0  2  0  0  0  0  0  0  0  0  0
   10.9700    6.7655    6.9430 O   0  0  0  0  0  0  0  0  0  0  0  0
    6.9817    6.8035    5.4088 C   0  0  2  0  0  0  0  0  0  0  0  0
    5.8176    6.5496    4.5670 N   0  0  0  0  0  0  0  0  0  0  0  0
    6.2247    5.6523    8.2001 C   0  0  2  0  0  0  0  0  0  0  0  0
   12.8474    6.2971    8.4187 C   0  0  2  0  0  0  0  0  0  0  0  0
   12.2730    7.1026    9.5076 N   0  0  0  0  0  0  0  0  0  0  0  0
    8.1074    7.3823    4.4883 C   0  0  0  0  0  0  0  0  0  0  0  0
    5.2902    4.7398    9.0727 C   0  0  2  0  0  0  0  0  0  0  0  0
    5.9424    3.5128    9.3552 O   0  0  0  0  0  0  0  0  0  0  0  0
   13.7783    7.1727    7.5520 C   0  0  1  0  0  0  0  0  0  0  0  0
   14.8165    7.7323    8.3728 O   0  0  0  0  0  0  0  0  0  0  0  0
    9.3498    7.6770    5.3953 C   0  0  2  0  0  0  0  0  0  0  0  0
   10.4533    8.2223    4.5789 N   0  0  0  0  0  0  0  0  0  0  0  0
    3.9436    4.4980    8.2869 C   0  0  1  0  0  0  0  0  0  0  0  0
    3.0235    3.6199    9.0702 N   0  0  0  0  0  0  0  0  0  0  0  0
   14.3604    6.3045    6.4114 C   0  0  2  0  0  0  0  0  0  0  0  0
   15.2221    7.1100    5.5884 O   0  0  0  0  0  0  0  0  0  0  0  0
    9.8385    6.3873    6.1028 C   0  0  2  0  0  0  0  0  0  0  0  0
    3.2652    5.8815    8.0014 C   0  0  1  0  0  0  0  0  0  0  0  0
    2.9568    6.5261    9.2345 O   0  0  0  0  0  0  0  0  0  0  0  0
   13.1840    5.7014    5.5531 C   0  0  2  0  0  0  0  0  0  0  0  0
   12.2971    4.8941    6.4133 O   0  0  0  0  0  0  0  0  0  0  0  0
    8.6857    5.8009    6.9555 C   0  0  2  0  0  0  0  0  0  0  0  0
    9.1513    4.6091    7.5802 O   0  0  0  0  0  0  0  0  0  0  0  0
    4.2609    6.7672    7.1881 C   0  0  0  0  0  0  0  0  0  0  0  0
    5.5430    6.9226    7.9164 O   0  0  0  0  0  0  0  0  0  0  0  0
   13.7077    4.7980    4.4061 C   0  0  2  0  0  0  0  0  0  0  0  0
   14.5424    5.5646    3.5420 O   0  0  0  0  0  0  0  0  0  0  0  0
    7.4615    5.4504    6.0780 C   0  0  1  0  0  0  0  0  0  0  0  0
    6.4455    4.9206    6.9619 O   0  0  0  0  0  0  0  0  0  0  0  0
   12.5678    4.2302    3.5765 C   0  0  0  0  0  0  0  0  0  0  0  0
    1.9651    5.7312    7.2211 C   0  0  0  0  0  0  0  0  0  0  0  0
    3.0053    2.2874    8.4370 C   0  0  0  0  0  0  0  0  0  0  0  0
  1  2  1  6  0  0  0
  1  6  1  0  0  0  0
  1 23  1  0  0  0  0
  3  4  1  6  0  0  0
  3  8  1  0  0  0  0
  3 30  1  0  0  0  0
  5  9  1  0  0  0  0
  5 27  1  0  0  0  0
  5 31  1  6  0  0  0
  6  7  1  1  0  0  0
  6 11  1  0  0  0  0
  8 13  1  0  0  0  0
  9 10  1  6  0  0  0
  9 15  1  0  0  0  0
 11 12  1  1  0  0  0
 11 17  1  0  0  0  0
 13 14  1  6  0  0  0
 13 19  1  0  0  0  0
 15 16  1  1  0  0  0
 15 20  1  0  0  0  0
 16 34  1  0  0  0  0
 17 18  1  6  0  0  0
 17 22  1  0  0  0  0
 19  2  1  1  0  0  0
 19 24  1  0  0  0  0
 20 21  1  1  0  0  0
 20 26  1  0  0  0  0
 20 33  1  0  0  0  0
 22 23  1  1  0  0  0
 22 28  1  0  0  0  0
 24 25  1  6  0  0  0
 24 30  1  0  0  0  0
 26 27  1  0  0  0  0
 28 29  1  6  0  0  0
 28 32  1  0  0  0  0
 30 31  1  1  0  0  0
M  END
>  <CHROM.1>
-177.81575120,-169.70454546,-106.45504826,-60.01940731,-70.87353836,-169.85305240
8.83877258,5.84826742,6.88645276,-0.22598979,0.08139982,1.76940369

>  <Name>
ligand

>  <RI>
0

>  <Rbt.Current_Directory>
/home/itssahil/PROJECTS/Mol_Feturizer/New_Systems/rnas/3TD1

>  <Rbt.Executable>
rbdock ($Id: //depot/dev/client3/rdock/2013.1/src/exe/rbdock.cxx#4 $)

>  <Rbt.Library>
libRbt.so (2013.1, Build901 2013/11/27)

>  <Rbt.Parameter_File>
/export/apps/rDock/src/rDock_2013.1_src/data/scripts/dock_solv.prm

>  <Rbt.Receptor>
prm/pocket_docking_6.prm

>  <SCORE>
-16.8941

>  <SCORE.INTER>
-9.56879

>  <SCORE.INTER.CONST>
1

>  <SCORE.INTER.POLAR>
0

>  <SCORE.INTER.ROT>
6

>  <SCORE.INTER.SOLV>
14.835

>  <SCORE.INTER.VDW>
-18.9242

>  <SCORE.INTER.norm>
-0.281435

>  <SCORE.INTRA>
-7.32535

>  <SCORE.INTRA.DIHEDRAL>
-16.8703

>  <SCORE.INTRA.DIHEDRAL.0>
19.5869

>  <SCORE.INTRA.POLAR>
0

>  <SCORE.INTRA.POLAR.0>
0

>  <SCORE.INTRA.REPUL>
0

>  <SCORE.INTRA.REPUL.0>
0

>  <SCORE.INTRA.SOLV>
-1.05575

>  <SCORE.INTRA.SOLV.lig_0>
-70.101

>  <SCORE.INTRA.VDW>
1.63769

>  <SCORE.INTRA.VDW.0>
-3.39718

>  <SCORE.INTRA.norm>
-0.215451

>  <SCORE.RESTR>
0

>  <SCORE.RESTR.CAVITY>
0

>  <SCORE.RESTR.norm>
0

>  <SCORE.SYSTEM>
0

>  <SCORE.SYSTEM.CONST>
0

>  <SCORE.SYSTEM.DIHEDRAL>
0

>  <SCORE.SYSTEM.SOLV>
0

>  <SCORE.SYSTEM.norm>
0

>  <SCORE.heavy>
34

>  <SCORE.norm>
-0.496886

>  <RMSD>
8.694

$$$$
ligand
 OpenBabel11021811483D
libRbt.so/2013.1/901 2013/11/27
 34 36  0  0  0  0  0  0  0  0999 V2000
   10.8352    6.5142    7.2772 C   0  0  2  0  0  0  0  0  0  0  0  0
   10.0301    7.3781    6.4598 O   0  0  0  0  0  0  0  0  0  0  0  0
    6.0966    6.7375    4.9173 C   0  0  2  0  0  0  0  0  0  0  0  0
    4.9820    6.2100    4.1380 N   0  0  0  0  0  0  0  0  0  0  0  0
    5.4081    6.1098    7.9160 C   0  0  2  0  0  0  0  0  0  0  0  0
   10.9360    7.1554    8.7073 C   0  0  2  0  0  0  0  0  0  0  0  0
    9.6070    7.2902    9.3236 N   0  0  0  0  0  0  0  0  0  0  0  0
    7.1936    7.2084    3.9051 C   0  0  0  0  0  0  0  0  0  0  0  0
    4.6056    5.2867    8.9863 C   0  0  2  0  0  0  0  0  0  0  0  0
    5.4004    4.2139    9.4642 O   0  0  0  0  0  0  0  0  0  0  0  0
   11.6084    8.5413    8.5996 C   0  0  1  0  0  0  0  0  0  0  0  0
   11.7111    9.1306    9.9061 O   0  0  0  0  0  0  0  0  0  0  0  0
    8.3810    7.7964    4.7402 C   0  0  2  0  0  0  0  0  0  0  0  0
    9.4560    8.2545    3.8367 N   0  0  0  0  0  0  0  0  0  0  0  0
    3.2765    4.7554    8.3224 C   0  0  1  0  0  0  0  0  0  0  0  0
    2.4822    3.9501    9.2981 N   0  0  0  0  0  0  0  0  0  0  0  0
   12.9980    8.3718    7.9411 C   0  0  2  0  0  0  0  0  0  0  0  0
   13.6327    9.6571    7.8242 O   0  0  0  0  0  0  0  0  0  0  0  0
    8.9584    6.7326    5.7086 C   0  0  2  0  0  0  0  0  0  0  0  0
    2.4379    5.9774    7.8135 C   0  0  1  0  0  0  0  0  0  0  0  0
    2.0881    6.8096    8.9162 O   0  0  0  0  0  0  0  0  0  0  0  0
   12.8326    7.7073    6.5213 C   0  0  2  0  0  0  0  0  0  0  0  0
   12.1626    6.3989    6.6539 O   0  0  0  0  0  0  0  0  0  0  0  0
    7.8369    6.2378    6.6559 C   0  0  2  0  0  0  0  0  0  0  0  0
    8.3852    5.2500    7.5224 O   0  0  0  0  0  0  0  0  0  0  0  0
    3.3057    6.7924    6.8035 C   0  0  0  0  0  0  0  0  0  0  0  0
    4.5791    7.2215    7.4302 O   0  0  0  0  0  0  0  0  0  0  0  0
   14.1993    7.4881    5.8214 C   0  0  2  0  0  0  0  0  0  0  0  0
   13.9828    6.9948    4.5019 O   0  0  0  0  0  0  0  0  0  0  0  0
    6.6716    5.6033    5.8615 C   0  0  1  0  0  0  0  0  0  0  0  0
    5.6807    5.1822    6.8285 O   0  0  0  0  0  0  0  0  0  0  0  0
   15.0537    6.4764    6.5671 C   0  0  0  0  0  0  0  0  0  0  0  0
    1.1447    5.5414    7.1356 C   0  0  0  0  0  0  0  0  0  0  0  0
    2.4135    2.5615    8.8042 C   0  0  0  0  0  0  0  0  0  0  0  0
  1  2  1  6  0  0  0
  1  6  1  0  0  0  0
  1 23  1  0  0  0  0
  3  4  1  6  0  0  0
  3  8  1  0  0  0  0
  3 30  1  0  0  0  0
  5  9  1  0  0  0  0
  5 27  1  0  0  0  0
  5 31  1  6  0  0  0
  6  7  1  6  0  0  0
  6 11  1  0  0  0  0
  8 13  1  0  0  0  0
  9 10  1  6  0  0  0
  9 15  1  0  0  0  0
 11 12  1  1  0  0  0
 11 17  1  0  0  0  0
 13 14  1  6  0  0  0
 13 19  1  0  0  0  0
 15 16  1  1  0  0  0
 15 20  1  0  0  0  0
 16 34  1  0  0  0  0
 17 18  1  6  0  0  0
 17 22  1  0  0  0  0
 19  2  1  1  0  0  0
 19 24  1  0  0  0  0
 20 21  1  1  0  0  0
 20 26  1  0  0  0  0
 20 33  1  0  0  0  0
 22 23  1  1  0  0  0
 22 28  1  0  0  0  0
 24 25  1  1  0  0  0
 24 30  1  0  0  0  0
 26 27  1  0  0  0  0
 28 29  1  6  0  0  0
 28 32  1  0  0  0  0
 30 31  1  1  0  0  0
M  END
>  <CHROM.1>
-131.02536722,-171.10163714,-115.75323823,-175.00925936,-73.53773417,-166.03100697
7.96985708,6.57032518,7.11253359,-0.13036320,0.23627972,1.69025192

>  <Name>
ligand

>  <RI>
0

>  <Rbt.Current_Directory>
/home/itssahil/PROJECTS/Mol_Feturizer/New_Systems/rnas/3TD1

>  <Rbt.Executable>
rbdock ($Id: //depot/dev/client3/rdock/2013.1/src/exe/rbdock.cxx#4 $)

>  <Rbt.Library>
libRbt.so (2013.1, Build901 2013/11/27)

>  <Rbt.Parameter_File>
/export/apps/rDock/src/rDock_2013.1_src/data/scripts/dock_solv.prm

>  <Rbt.Receptor>
prm/pocket_docking_2.prm

>  <SCORE>
-9.78865

>  <SCORE.INTER>
-7.54224

>  <SCORE.INTER.CONST>
1

>  <SCORE.INTER.POLAR>
0

>  <SCORE.INTER.ROT>
6

>  <SCORE.INTER.SOLV>
21.091

>  <SCORE.INTER.VDW>
-19.6585

>  <SCORE.INTER.norm>
-0.221831

>  <SCORE.INTRA>
-2.78241

>  <SCORE.INTRA.DIHEDRAL>
-9.46052

>  <SCORE.INTRA.DIHEDRAL.0>
19.5869

>  <SCORE.INTRA.POLAR>
0

>  <SCORE.INTRA.POLAR.0>
0

>  <SCORE.INTRA.REPUL>
0

>  <SCORE.INTRA.REPUL.0>
0

>  <SCORE.INTRA.SOLV>
-0.275616

>  <SCORE.INTRA.SOLV.lig_0>
-70.101

>  <SCORE.INTRA.VDW>
2.08566

>  <SCORE.INTRA.VDW.0>
-3.39718

>  <SCORE.INTRA.norm>
-0.0818356

>  <SCORE.RESTR>
0.536

>  <SCORE.RESTR.CAVITY>
0.536

>  <SCORE.RESTR.norm>
0.0157647

>  <SCORE.SYSTEM>
0

>  <SCORE.SYSTEM.CONST>
0

>  <SCORE.SYSTEM.DIHEDRAL>
0

>  <SCORE.SYSTEM.SOLV>
0

>  <SCORE.SYSTEM.norm>
0

>  <SCORE.heavy>
34

>  <SCORE.norm>
-0.287901

>  <RMSD>
8.707

$$$$
ligand
 OpenBabel11021811483D
libRbt.so/2013.1/901 2013/11/27
 34 36  0  0  0  0  0  0  0  0999 V2000
   11.2511    8.1499    5.7226 C   0  0  2  0  0  0  0  0  0  0  0  0
   10.3432    7.3147    6.4579 O   0  0  0  0  0  0  0  0  0  0  0  0
    6.3420    6.8197    5.0413 C   0  0  2  0  0  0  0  0  0  0  0  0
    5.1919    6.3699    4.2646 N   0  0  0  0  0  0  0  0  0  0  0  0
    5.7996    5.8833    7.9940 C   0  0  2  0  0  0  0  0  0  0  0  0
   12.1528    7.2208    4.8336 C   0  0  2  0  0  0  0  0  0  0  0  0
   11.3412    6.4471    3.8811 N   0  0  0  0  0  0  0  0  0  0  0  0
    7.3915    7.3949    4.0327 C   0  0  0  0  0  0  0  0  0  0  0  0
    4.9936    4.9707    8.9863 C   0  0  2  0  0  0  0  0  0  0  0  0
    5.7606    3.8251    9.3181 O   0  0  0  0  0  0  0  0  0  0  0  0
   12.9518    6.2623    5.7432 C   0  0  1  0  0  0  0  0  0  0  0  0
   13.7852    5.4142    4.9364 O   0  0  0  0  0  0  0  0  0  0  0  0
    8.6168    7.8993    4.8675 C   0  0  2  0  0  0  0  0  0  0  0  0
    9.6493    8.4507    3.9667 N   0  0  0  0  0  0  0  0  0  0  0  0
    3.6311    4.5623    8.3034 C   0  0  1  0  0  0  0  0  0  0  0  0
    2.8317    3.6780    9.2035 N   0  0  0  0  0  0  0  0  0  0  0  0
   13.7878    7.1006    6.7391 C   0  0  2  0  0  0  0  0  0  0  0  0
   14.5301    6.2204    7.6009 O   0  0  0  0  0  0  0  0  0  0  0  0
    9.2373    6.7449    5.6953 C   0  0  2  0  0  0  0  0  0  0  0  0
    2.8250    5.8611    7.9587 C   0  0  1  0  0  0  0  0  0  0  0  0
    2.5312    6.5737    9.1575 O   0  0  0  0  0  0  0  0  0  0  0  0
   12.8313    8.0241    7.5858 C   0  0  2  0  0  0  0  0  0  0  0  0
   12.0618    8.9076    6.6882 O   0  0  0  0  0  0  0  0  0  0  0  0
    8.1602    6.1524    6.6380 C   0  0  2  0  0  0  0  0  0  0  0  0
    8.7470    5.0837    7.3736 O   0  0  0  0  0  0  0  0  0  0  0  0
    3.6974    6.7566    7.0236 C   0  0  0  0  0  0  0  0  0  0  0  0
    4.9998    7.0696    7.6595 O   0  0  0  0  0  0  0  0  0  0  0  0
   13.6180    8.9096    8.5872 C   0  0  2  0  0  0  0  0  0  0  0  0
   14.5847    8.1130    9.2669 O   0  0  0  0  0  0  0  0  0  0  0  0
    6.9588    5.5975    5.8379 C   0  0  1  0  0  0  0  0  0  0  0  0
    6.0132    5.0768    6.8018 O   0  0  0  0  0  0  0  0  0  0  0  0
   12.6998    9.5259    9.6297 C   0  0  0  0  0  0  0  0  0  0  0  0
    1.5015    5.5477    7.2717 C   0  0  0  0  0  0  0  0  0  0  0  0
    2.8351    2.3160    8.6360 C   0  0  0  0  0  0  0  0  0  0  0  0
  1  2  1  1  0  0  0
  1  6  1  0  0  0  0
  1 23  1  0  0  0  0
  3  4  1  6  0  0  0
  3  8  1  0  0  0  0
  3 30  1  0  0  0  0
  5  9  1  0  0  0  0
  5 27  1  0  0  0  0
  5 31  1  6  0  0  0
  6  7  1  6  0  0  0
  6 11  1  0  0  0  0
  8 13  1  0  0  0  0
  9 10  1  6  0  0  0
  9 15  1  0  0  0  0
 11 12  1  6  0  0  0
 11 17  1  0  0  0  0
 13 14  1  6  0  0  0
 13 19  1  0  0  0  0
 15 16  1  1  0  0  0
 15 20  1  0  0  0  0
 16 34  1  0  0  0  0
 17 18  1  1  0  0  0
 17 22  1  0  0  0  0
 19  2  1  1  0  0  0
 19 24  1  0  0  0  0
 20 21  1  1  0  0  0
 20 26  1  0  0  0  0
 20 33  1  0  0  0  0
 22 23  1  6  0  0  0
 22 28  1  0  0  0  0
 24 25  1  6  0  0  0
 24 30  1  0  0  0  0
 26 27  1  0  0  0  0
 28 29  1  1  0  0  0
 28 32  1  0  0  0  0
 30 31  1  1  0  0  0
M  END
>  <CHROM.1>
-74.59007937,-47.44236997,-109.21471415,-46.03932003,-73.98294054,-168.25915569
8.36157494,6.46378256,6.91388322,0.16185006,-0.22548468,-1.37135971

>  <Name>
ligand

>  <RI>
0

>  <Rbt.Current_Directory>
/home/itssahil/PROJECTS/Mol_Feturizer/New_Systems/rnas/3TD1

>  <Rbt.Executable>
rbdock ($Id: //depot/dev/client3/rdock/2013.1/src/exe/rbdock.cxx#4 $)

>  <Rbt.Library>
libRbt.so (2013.1, Build901 2013/11/27)

>  <Rbt.Parameter_File>
/export/apps/rDock/src/rDock_2013.1_src/data/scripts/dock_solv.prm

>  <Rbt.Receptor>
prm/pocket_docking_2.prm

>  <SCORE>
-4.85487

>  <SCORE.INTER>
-9.32923

>  <SCORE.INTER.CONST>
1

>  <SCORE.INTER.POLAR>
0

>  <SCORE.INTER.ROT>
6

>  <SCORE.INTER.SOLV>
17.5821

>  <SCORE.INTER.VDW>
-19.6802

>  <SCORE.INTER.norm>
-0.274389

>  <SCORE.INTRA>
2.9707

>  <SCORE.INTRA.DIHEDRAL>
-14.3896

>  <SCORE.INTRA.DIHEDRAL.0>
19.5869

>  <SCORE.INTRA.POLAR>
0

>  <SCORE.INTRA.POLAR.0>
0

>  <SCORE.INTRA.REPUL>
0

>  <SCORE.INTRA.REPUL.0>
0

>  <SCORE.INTRA.SOLV>
4.51583

>  <SCORE.INTRA.SOLV.lig_0>
-70.101

>  <SCORE.INTRA.VDW>
7.90757

>  <SCORE.INTRA.VDW.0>
-3.39718

>  <SCORE.INTRA.norm>
0.0873736

>  <SCORE.RESTR>
1.50365

>  <SCORE.RESTR.CAVITY>
1.50365

>  <SCORE.RESTR.norm>
0.0442251

>  <SCORE.SYSTEM>
0

>  <SCORE.SYSTEM.CONST>
0

>  <SCORE.SYSTEM.DIHEDRAL>
0

>  <SCORE.SYSTEM.SOLV>
0

>  <SCORE.SYSTEM.norm>
0

>  <SCORE.heavy>
34

>  <SCORE.norm>
-0.14279

>  <RMSD>
8.712

$$$$
ligand
 OpenBabel11021811483D
libRbt.so/2013.1/901 2013/11/27
 34 36  0  0  0  0  0  0  0  0999 V2000
   11.2512    8.1610    5.6788 C   0  0  2  0  0  0  0  0  0  0  0  0
   10.3549    7.3130    6.4136 O   0  0  0  0  0  0  0  0  0  0  0  0
    6.3464    6.8322    5.0129 C   0  0  2  0  0  0  0  0  0  0  0  0
    5.1916    6.3861    4.2411 N   0  0  0  0  0  0  0  0  0  0  0  0
    5.7970    5.9108    7.9594 C   0  0  2  0  0  0  0  0  0  0  0  0
   12.1790    7.2438    4.8044 C   0  0  2  0  0  0  0  0  0  0  0  0
   11.3914    6.4460    3.8519 N   0  0  0  0  0  0  0  0  0  0  0  0
    7.3943    7.4022    3.9996 C   0  0  0  0  0  0  0  0  0  0  0  0
    4.9769    5.0113    8.9521 C   0  0  2  0  0  0  0  0  0  0  0  0
    5.7346    3.8647    9.3014 O   0  0  0  0  0  0  0  0  0  0  0  0
   12.9904    6.3093    5.7279 C   0  0  1  0  0  0  0  0  0  0  0  0
   13.8477    5.4724    4.9346 O   0  0  0  0  0  0  0  0  0  0  0  0
    8.6248    7.9027    4.8293 C   0  0  2  0  0  0  0  0  0  0  0  0
    9.6560    8.4490    3.9239 N   0  0  0  0  0  0  0  0  0  0  0  0
    3.6187    4.6038    8.2601 C   0  0  1  0  0  0  0  0  0  0  0  0
    2.8062    3.7317    9.1604 N   0  0  0  0  0  0  0  0  0  0  0  0
   13.8009    7.1727    6.7236 C   0  0  2  0  0  0  0  0  0  0  0  0
   14.5543    6.3149    7.5983 O   0  0  0  0  0  0  0  0  0  0  0  0
    9.2439    6.7467    5.6559 C   0  0  2  0  0  0  0  0  0  0  0  0
    2.8227    5.9037    7.8962 C   0  0  1  0  0  0  0  0  0  0  0  0
    2.5214    6.6284    9.0857 O   0  0  0  0  0  0  0  0  0  0  0  0
   12.8187    8.0828    7.5553 C   0  0  2  0  0  0  0  0  0  0  0  0
   12.0383    8.9429    6.6446 O   0  0  0  0  0  0  0  0  0  0  0  0
    8.1681    6.1595    6.6034 C   0  0  2  0  0  0  0  0  0  0  0  0
    8.7535    5.0893    7.3378 O   0  0  0  0  0  0  0  0  0  0  0  0
    3.7086    6.7862    6.9615 C   0  0  0  0  0  0  0  0  0  0  0  0
    5.0065    7.0981    7.6069 O   0  0  0  0  0  0  0  0  0  0  0  0
   13.5788    8.9923    8.5557 C   0  0  2  0  0  0  0  0  0  0  0  0
   14.5990    8.2365    9.2031 O   0  0  0  0  0  0  0  0  0  0  0  0
    6.9614    5.6085    5.8085 C   0  0  1  0  0  0  0  0  0  0  0  0
    6.0175    5.0926    6.7765 O   0  0  0  0  0  0  0  0  0  0  0  0
   12.6514    9.5437    9.6260 C   0  0  0  0  0  0  0  0  0  0  0  0
    1.5041    5.5910    7.1995 C   0  0  0  0  0  0  0  0  0  0  0  0
    2.8350    2.3579    8.6230 C   0  0  0  0  0  0  0  0  0  0  0  0
  1  2  1  1  0  0  0
  1  6  1  0  0  0  0
  1 23  1  0  0  0  0
  3  4  1  6  0  0  0
  3  8  1  0  0  0  0
  3 30  1  0  0  0  0
  5  9  1  0  0  0  0
  5 27  1  0  0  0  0
  5 31  1  6  0  0  0
  6  7  1  6  0  0  0
  6 11  1  0  0  0  0
  8 13  1  0  0  0  0
  9 10  1  6  0  0  0
  9 15  1  0  0  0  0
 11 12  1  6  0  0  0
 11 17  1  0  0  0  0
 13 14  1  6  0  0  0
 13 19  1  0  0  0  0
 15 16  1  1  0  0  0
 15 20  1  0  0  0  0
 16 34  1  0  0  0  0
 17 18  1  1  0  0  0
 17 22  1  0  0  0  0
 19  2  1  1  0  0  0
 19 24  1  0  0  0  0
 20 21  1  1  0  0  0
 20 26  1  0  0  0  0
 20 33  1  0  0  0  0
 22 23  1  6  0  0  0
 22 28  1  0  0  0  0
 24 25  1  6  0  0  0
 24 30  1  0  0  0  0
 26 27  1  0  0  0  0
 28 29  1  1  0  0  0
 28 32  1  0  0  0  0
 30 31  1  1  0  0  0
M  END
>  <CHROM.1>
-76.37787583,-46.48400285,-107.85683542,-43.27500710,-73.11088099,-169.06214294
8.36439493,6.49793086,6.87887297,0.15670057,-0.22892943,-1.38757453

>  <Name>
ligand

>  <RI>
0

>  <Rbt.Current_Directory>
/home/itssahil/PROJECTS/Mol_Feturizer/New_Systems/rnas/3TD1

>  <Rbt.Executable>
rbdock ($Id: //depot/dev/client3/rdock/2013.1/src/exe/rbdock.cxx#4 $)

>  <Rbt.Library>
libRbt.so (2013.1, Build901 2013/11/27)

>  <Rbt.Parameter_File>
/export/apps/rDock/src/rDock_2013.1_src/data/scripts/dock_solv.prm

>  <Rbt.Receptor>
prm/pocket_docking_2.prm

>  <SCORE>
-4.7236

>  <SCORE.INTER>
-9.52743

>  <SCORE.INTER.CONST>
1

>  <SCORE.INTER.POLAR>
0

>  <SCORE.INTER.ROT>
6

>  <SCORE.INTER.SOLV>
17.7331

>  <SCORE.INTER.VDW>
-19.8626

>  <SCORE.INTER.norm>
-0.280219

>  <SCORE.INTRA>
3.33669

>  <SCORE.INTRA.DIHEDRAL>
-13.9631

>  <SCORE.INTRA.DIHEDRAL.0>
19.5869

>  <SCORE.INTRA.POLAR>
0

>  <SCORE.INTRA.POLAR.0>
0

>  <SCORE.INTRA.REPUL>
0

>  <SCORE.INTRA.REPUL.0>
0

>  <SCORE.INTRA.SOLV>
4.4928

>  <SCORE.INTRA.SOLV.lig_0>
-70.101

>  <SCORE.INTRA.VDW>
8.07185

>  <SCORE.INTRA.VDW.0>
-3.39718

>  <SCORE.INTRA.norm>
0.0981379

>  <SCORE.RESTR>
1.46714

>  <SCORE.RESTR.CAVITY>
1.46714

>  <SCORE.RESTR.norm>
0.0431512

>  <SCORE.SYSTEM>
0

>  <SCORE.SYSTEM.CONST>
0

>  <SCORE.SYSTEM.DIHEDRAL>
0

>  <SCORE.SYSTEM.SOLV>
0

>  <SCORE.SYSTEM.norm>
0

>  <SCORE.heavy>
34

>  <SCORE.norm>
-0.138929

>  <RMSD>
8.720

$$$$
ligand
 OpenBabel11021811483D
libRbt.so/2013.1/901 2013/11/27
 34 36  0  0  0  0  0  0  0  0999 V2000
    8.3489    6.1447    3.8180 C   0  0  2  0  0  0  0  0  0  0  0  0
    8.7919    4.8039    4.0796 O   0  0  0  0  0  0  0  0  0  0  0  0
    8.4505    2.4495    7.6295 C   0  0  2  0  0  0  0  0  0  0  0  0
    8.6234    1.9679    8.9956 N   0  0  0  0  0  0  0  0  0  0  0  0
    6.1665    4.3371    9.5005 C   0  0  2  0  0  0  0  0  0  0  0  0
    8.1325    6.2904    2.2693 C   0  0  2  0  0  0  0  0  0  0  0  0
    7.1107    5.3492    1.7851 N   0  0  0  0  0  0  0  0  0  0  0  0
    9.8762    2.5899    6.9990 C   0  0  0  0  0  0  0  0  0  0  0  0
    4.7368    3.8697    9.9532 C   0  0  2  0  0  0  0  0  0  0  0  0
    4.7065    2.4568   10.0702 O   0  0  0  0  0  0  0  0  0  0  0  0
    9.4696    6.0352    1.5404 C   0  0  1  0  0  0  0  0  0  0  0  0
    9.2806    6.1747    0.1228 O   0  0  0  0  0  0  0  0  0  0  0  0
    9.6904    3.0847    5.5247 C   0  0  2  0  0  0  0  0  0  0  0  0
   11.0075    3.2431    4.8753 N   0  0  0  0  0  0  0  0  0  0  0  0
    3.6818    4.3735    8.8937 C   0  0  1  0  0  0  0  0  0  0  0  0
    2.3032    3.9398    9.2715 N   0  0  0  0  0  0  0  0  0  0  0  0
   10.5267    7.0308    2.0742 C   0  0  2  0  0  0  0  0  0  0  0  0
   11.7817    6.7980    1.4114 O   0  0  0  0  0  0  0  0  0  0  0  0
    8.9446    4.4430    5.4852 C   0  0  2  0  0  0  0  0  0  0  0  0
    3.7564    5.9362    8.8042 C   0  0  1  0  0  0  0  0  0  0  0  0
    3.4288    6.5037   10.0698 O   0  0  0  0  0  0  0  0  0  0  0  0
   10.6839    6.8499    3.6321 C   0  0  2  0  0  0  0  0  0  0  0  0
    9.3852    7.0720    4.2973 O   0  0  0  0  0  0  0  0  0  0  0  0
    7.5644    4.2912    6.1722 C   0  0  2  0  0  0  0  0  0  0  0  0
    6.9063    5.5535    6.1402 O   0  0  0  0  0  0  0  0  0  0  0  0
    5.2118    6.3447    8.4137 C   0  0  0  0  0  0  0  0  0  0  0  0
    6.1900    5.8018    9.3866 O   0  0  0  0  0  0  0  0  0  0  0  0
   11.7154    7.8424    4.2295 C   0  0  2  0  0  0  0  0  0  0  0  0
   11.4826    9.1447    3.6993 O   0  0  0  0  0  0  0  0  0  0  0  0
    7.7176    3.8535    7.6474 C   0  0  1  0  0  0  0  0  0  0  0  0
    6.3828    3.7344    8.1939 O   0  0  0  0  0  0  0  0  0  0  0  0
   13.1406    7.4425    3.8850 C   0  0  0  0  0  0  0  0  0  0  0  0
    2.7789    6.4980    7.7793 C   0  0  0  0  0  0  0  0  0  0  0  0
    2.0250    2.6522    8.6070 C   0  0  0  0  0  0  0  0  0  0  0  0
  1  2  1  6  0  0  0
  1  6  1  0  0  0  0
  1 23  1  0  0  0  0
  3  4  1  1  0  0  0
  3  8  1  0  0  0  0
  3 30  1  0  0  0  0
  5  9  1  0  0  0  0
  5 27  1  0  0  0  0
  5 31  1  6  0  0  0
  6  7  1  6  0  0  0
  6 11  1  0  0  0  0
  8 13  1  0  0  0  0
  9 10  1  6  0  0  0
  9 15  1  0  0  0  0
 11 12  1  6  0  0  0
 11 17  1  0  0  0  0
 13 14  1  1  0  0  0
 13 19  1  0  0  0  0
 15 16  1  1  0  0  0
 15 20  1  0  0  0  0
 16 34  1  0  0  0  0
 17 18  1  6  0  0  0
 17 22  1  0  0  0  0
 19  2  1  6  0  0  0
 19 24  1  0  0  0  0
 20 21  1  1  0  0  0
 20 26  1  0  0  0  0
 20 33  1  0  0  0  0
 22 23  1  1  0  0  0
 22 28  1  0  0  0  0
 24 25  1  1  0  0  0
 24 30  1  0  0  0  0
 26 27  1  0  0  0  0
 28 29  1  6  0  0  0
 28 32  1  0  0  0  0
 30 31  1  6  0  0  0
M  END
>  <CHROM.1>
-175.24533008,-168.81100746,-92.49916153,45.50009035,110.09549903,-171.08800365
7.64224395,5.17284054,6.03087633,0.75013664,0.38127725,-0.84452635

>  <Name>
ligand

>  <RI>
0

>  <Rbt.Current_Directory>
/home/itssahil/PROJECTS/Mol_Feturizer/New_Systems/rnas/3TD1

>  <Rbt.Executable>
rbdock ($Id: //depot/dev/client3/rdock/2013.1/src/exe/rbdock.cxx#4 $)

>  <Rbt.Library>
libRbt.so (2013.1, Build901 2013/11/27)

>  <Rbt.Parameter_File>
/export/apps/rDock/src/rDock_2013.1_src/data/scripts/dock_solv.prm

>  <Rbt.Receptor>
prm/pocket_docking_8.prm

>  <SCORE>
-14.9135

>  <SCORE.INTER>
-9.25851

>  <SCORE.INTER.CONST>
1

>  <SCORE.INTER.POLAR>
0

>  <SCORE.INTER.ROT>
6

>  <SCORE.INTER.SOLV>
17.5551

>  <SCORE.INTER.VDW>
-19.6241

>  <SCORE.INTER.norm>
-0.272309

>  <SCORE.INTRA>
-5.65496

>  <SCORE.INTRA.DIHEDRAL>
-10.3875

>  <SCORE.INTRA.DIHEDRAL.0>
19.5869

>  <SCORE.INTRA.POLAR>
0

>  <SCORE.INTRA.POLAR.0>
0

>  <SCORE.INTRA.REPUL>
0

>  <SCORE.INTRA.REPUL.0>
0

>  <SCORE.INTRA.SOLV>
-2.30081

>  <SCORE.INTRA.SOLV.lig_0>
-70.101

>  <SCORE.INTRA.VDW>
0.689175

>  <SCORE.INTRA.VDW.0>
-3.39718

>  <SCORE.INTRA.norm>
-0.166322

>  <SCORE.RESTR>
0

>  <SCORE.RESTR.CAVITY>
0

>  <SCORE.RESTR.norm>
0

>  <SCORE.SYSTEM>
0

>  <SCORE.SYSTEM.CONST>
0

>  <SCORE.SYSTEM.DIHEDRAL>
0

>  <SCORE.SYSTEM.SOLV>
0

>  <SCORE.SYSTEM.norm>
0

>  <SCORE.heavy>
34

>  <SCORE.norm>
-0.438631

>  <RMSD>
8.729

$$$$
ligand
 OpenBabel11021811483D
libRbt.so/2013.1/901 2013/11/27
 34 36  0  0  0  0  0  0  0  0999 V2000
    8.7051    7.0382    4.9039 C   0  0  2  0  0  0  0  0  0  0  0  0
    8.9461    5.6733    4.5278 O   0  0  0  0  0  0  0  0  0  0  0  0
    7.8209    2.1525    6.6724 C   0  0  2  0  0  0  0  0  0  0  0  0
    7.7897    1.0853    7.6664 N   0  0  0  0  0  0  0  0  0  0  0  0
    5.9127    4.2303    9.1410 C   0  0  2  0  0  0  0  0  0  0  0  0
    8.7845    7.9198    3.6066 C   0  0  2  0  0  0  0  0  0  0  0  0
    7.7688    7.5112    2.6239 N   0  0  0  0  0  0  0  0  0  0  0  0
    9.2679    2.1954    6.0773 C   0  0  0  0  0  0  0  0  0  0  0  0
    4.5949    3.6324    9.7519 C   0  0  2  0  0  0  0  0  0  0  0  0
    4.7672    2.2483   10.0074 O   0  0  0  0  0  0  0  0  0  0  0  0
   10.1941    7.7940    2.9888 C   0  0  1  0  0  0  0  0  0  0  0  0
   10.2763    8.6047    1.8053 O   0  0  0  0  0  0  0  0  0  0  0  0
    9.2959    3.3255    4.9933 C   0  0  2  0  0  0  0  0  0  0  0  0
   10.6437    3.4196    4.3964 N   0  0  0  0  0  0  0  0  0  0  0  0
    3.4112    3.8785    8.7381 C   0  0  1  0  0  0  0  0  0  0  0  0
    2.1342    3.3124    9.2673 N   0  0  0  0  0  0  0  0  0  0  0  0
   11.2414    8.2206    4.0446 C   0  0  2  0  0  0  0  0  0  0  0  0
   12.5613    8.0983    3.4866 O   0  0  0  0  0  0  0  0  0  0  0  0
    8.9240    4.6972    5.6122 C   0  0  2  0  0  0  0  0  0  0  0  0
    3.2639    5.4191    8.4917 C   0  0  1  0  0  0  0  0  0  0  0  0
    2.9479    6.0714    9.7188 O   0  0  0  0  0  0  0  0  0  0  0  0
   11.0986    7.3148    5.3267 C   0  0  2  0  0  0  0  0  0  0  0  0
    9.7344    7.4345    5.8771 O   0  0  0  0  0  0  0  0  0  0  0  0
    7.5149    4.6078    6.2497 C   0  0  2  0  0  0  0  0  0  0  0  0
    7.2029    5.8716    6.8268 O   0  0  0  0  0  0  0  0  0  0  0  0
    4.6194    5.9691    7.9461 C   0  0  0  0  0  0  0  0  0  0  0  0
    5.7267    5.6651    8.8841 O   0  0  0  0  0  0  0  0  0  0  0  0
   12.1093    7.7140    6.4336 C   0  0  2  0  0  0  0  0  0  0  0  0
   11.9832    6.8196    7.5360 O   0  0  0  0  0  0  0  0  0  0  0  0
    7.4699    3.5345    7.3621 C   0  0  1  0  0  0  0  0  0  0  0  0
    6.1208    3.5246    7.8857 O   0  0  0  0  0  0  0  0  0  0  0  0
   11.8553    9.1239    6.9407 C   0  0  0  0  0  0  0  0  0  0  0  0
    2.1511    5.7362    7.5003 C   0  0  0  0  0  0  0  0  0  0  0  0
    1.7815    2.1306    8.4575 C   0  0  0  0  0  0  0  0  0  0  0  0
  1  2  1  6  0  0  0
  1  6  1  0  0  0  0
  1 23  1  0  0  0  0
  3  4  1  1  0  0  0
  3  8  1  0  0  0  0
  3 30  1  0  0  0  0
  5  9  1  0  0  0  0
  5 27  1  0  0  0  0
  5 31  1  6  0  0  0
  6  7  1  6  0  0  0
  6 11  1  0  0  0  0
  8 13  1  0  0  0  0
  9 10  1  6  0  0  0
  9 15  1  0  0  0  0
 11 12  1  6  0  0  0
 11 17  1  0  0  0  0
 13 14  1  1  0  0  0
 13 19  1  0  0  0  0
 15 16  1  1  0  0  0
 15 20  1  0  0  0  0
 16 34  1  0  0  0  0
 17 18  1  6  0  0  0
 17 22  1  0  0  0  0
 19  2  1  6  0  0  0
 19 24  1  0  0  0  0
 20 21  1  1  0  0  0
 20 26  1  0  0  0  0
 20 33  1  0  0  0  0
 22 23  1  1  0  0  0
 22 28  1  0  0  0  0
 24 25  1  1  0  0  0
 24 30  1  0  0  0  0
 26 27  1  0  0  0  0
 28 29  1  1  0  0  0
 28 32  1  0  0  0  0
 30 31  1  6  0  0  0
M  END
>  <CHROM.1>
179.48488078,-176.39317587,-109.46732509,-176.93631827,143.38736164,-158.92118340
7.60507482,5.37823359,6.53770628,0.57611925,0.39160203,-0.34646056

>  <Name>
ligand

>  <RI>
0

>  <Rbt.Current_Directory>
/home/itssahil/PROJECTS/Mol_Feturizer/New_Systems/rnas/3TD1

>  <Rbt.Executable>
rbdock ($Id: //depot/dev/client3/rdock/2013.1/src/exe/rbdock.cxx#4 $)

>  <Rbt.Library>
libRbt.so (2013.1, Build901 2013/11/27)

>  <Rbt.Parameter_File>
/export/apps/rDock/src/rDock_2013.1_src/data/scripts/dock_solv.prm

>  <Rbt.Receptor>
prm/pocket_docking_5.prm

>  <SCORE>
-16.8967

>  <SCORE.INTER>
-11.2191

>  <SCORE.INTER.CONST>
1

>  <SCORE.INTER.POLAR>
0

>  <SCORE.INTER.ROT>
6

>  <SCORE.INTER.SOLV>
15.3354

>  <SCORE.INTER.VDW>
-20.1912

>  <SCORE.INTER.norm>
-0.329972

>  <SCORE.INTRA>
-5.67767

>  <SCORE.INTRA.DIHEDRAL>
-11.5779

>  <SCORE.INTRA.DIHEDRAL.0>
19.5869

>  <SCORE.INTRA.POLAR>
0

>  <SCORE.INTRA.POLAR.0>
0

>  <SCORE.INTRA.REPUL>
0

>  <SCORE.INTRA.REPUL.0>
0

>  <SCORE.INTRA.SOLV>
-3.13668

>  <SCORE.INTRA.SOLV.lig_0>
-70.101

>  <SCORE.INTRA.VDW>
1.67965

>  <SCORE.INTRA.VDW.0>
-3.39718

>  <SCORE.INTRA.norm>
-0.16699

>  <SCORE.RESTR>
0

>  <SCORE.RESTR.CAVITY>
0

>  <SCORE.RESTR.norm>
0

>  <SCORE.SYSTEM>
0

>  <SCORE.SYSTEM.CONST>
0

>  <SCORE.SYSTEM.DIHEDRAL>
0

>  <SCORE.SYSTEM.SOLV>
0

>  <SCORE.SYSTEM.norm>
0

>  <SCORE.heavy>
34

>  <SCORE.norm>
-0.496962

>  <RMSD>
8.734

$$$$
ligand
 OpenBabel11021811483D
libRbt.so/2013.1/901 2013/11/27
 34 36  0  0  0  0  0  0  0  0999 V2000
    8.6376    7.3784    4.7731 C   0  0  2  0  0  0  0  0  0  0  0  0
    8.9015    6.0076    4.4357 O   0  0  0  0  0  0  0  0  0  0  0  0
    7.8130    2.5352    6.6761 C   0  0  2  0  0  0  0  0  0  0  0  0
    7.7928    1.4953    7.6991 N   0  0  0  0  0  0  0  0  0  0  0  0
    5.9054    4.5598    9.1448 C   0  0  2  0  0  0  0  0  0  0  0  0
    8.5923    8.2059    3.4390 C   0  0  2  0  0  0  0  0  0  0  0  0
    7.5253    7.7214    2.5497 N   0  0  0  0  0  0  0  0  0  0  0  0
    9.2596    2.5770    6.0800 C   0  0  0  0  0  0  0  0  0  0  0  0
    4.5988    3.9248    9.7420 C   0  0  2  0  0  0  0  0  0  0  0  0
    4.7798    2.5299    9.9219 O   0  0  0  0  0  0  0  0  0  0  0  0
    9.9582    8.1015    2.7264 C   0  0  1  0  0  0  0  0  0  0  0  0
    9.9264    8.8632    1.5084 O   0  0  0  0  0  0  0  0  0  0  0  0
    9.2760    3.6772    4.9655 C   0  0  2  0  0  0  0  0  0  0  0  0
   10.6229    3.7692    4.3663 N   0  0  0  0  0  0  0  0  0  0  0  0
    3.3997    4.2186    8.7594 C   0  0  1  0  0  0  0  0  0  0  0  0
    2.1325    3.6198    9.2761 N   0  0  0  0  0  0  0  0  0  0  0  0
   11.0613    8.6081    3.6857 C   0  0  2  0  0  0  0  0  0  0  0  0
   12.3420    8.5069    3.0390 O   0  0  0  0  0  0  0  0  0  0  0  0
    8.8894    5.0613    5.5465 C   0  0  2  0  0  0  0  0  0  0  0  0
    3.2432    5.7692    8.5964 C   0  0  1  0  0  0  0  0  0  0  0  0
    2.9424    6.3548    9.8605 O   0  0  0  0  0  0  0  0  0  0  0  0
   11.0432    7.7537    5.0102 C   0  0  2  0  0  0  0  0  0  0  0  0
    9.7180    7.8505    5.6525 O   0  0  0  0  0  0  0  0  0  0  0  0
    7.4811    4.9746    6.1862 C   0  0  2  0  0  0  0  0  0  0  0  0
    7.1555    6.2503    6.7284 O   0  0  0  0  0  0  0  0  0  0  0  0
    4.5886    6.3531    8.0614 C   0  0  0  0  0  0  0  0  0  0  0  0
    5.7104    6.0052    8.9663 O   0  0  0  0  0  0  0  0  0  0  0  0
   12.1145    8.2338    6.0240 C   0  0  2  0  0  0  0  0  0  0  0  0
   13.4059    8.1431    5.4281 O   0  0  0  0  0  0  0  0  0  0  0  0
    7.4471    3.9317    7.3276 C   0  0  1  0  0  0  0  0  0  0  0  0
    6.0981    3.9219    7.8513 O   0  0  0  0  0  0  0  0  0  0  0  0
   12.1162    7.3807    7.2818 C   0  0  0  0  0  0  0  0  0  0  0  0
    2.1152    6.1331    7.6389 C   0  0  0  0  0  0  0  0  0  0  0  0
    1.9010    2.3457    8.5689 C   0  0  0  0  0  0  0  0  0  0  0  0
  1  2  1  6  0  0  0
  1  6  1  0  0  0  0
  1 23  1  0  0  0  0
  3  4  1  1  0  0  0
  3  8  1  0  0  0  0
  3 30  1  0  0  0  0
  5  9  1  0  0  0  0
  5 27  1  0  0  0  0
  5 31  1  6  0  0  0
  6  7  1  6  0  0  0
  6 11  1  0  0  0  0
  8 13  1  0  0  0  0
  9 10  1  6  0  0  0
  9 15  1  0  0  0  0
 11 12  1  6  0  0  0
 11 17  1  0  0  0  0
 13 14  1  1  0  0  0
 13 19  1  0  0  0  0
 15 16  1  1  0  0  0
 15 20  1  0  0  0  0
 16 34  1  0  0  0  0
 17 18  1  6  0  0  0
 17 22  1  0  0  0  0
 19  2  1  6  0  0  0
 19 24  1  0  0  0  0
 20 21  1  1  0  0  0
 20 26  1  0  0  0  0
 20 33  1  0  0  0  0
 22 23  1  1  0  0  0
 22 28  1  0  0  0  0
 24 25  1  1  0  0  0
 24 30  1  0  0  0  0
 26 27  1  0  0  0  0
 28 29  1  6  0  0  0
 28 32  1  0  0  0  0
 30 31  1  6  0  0  0
M  END
>  <CHROM.1>
-175.93255270,-176.76996360,-99.44879901,-58.92359434,138.21725122,-157.21324823
7.60697012,5.69477112,6.40662713,0.61987702,0.34236310,-0.48826883

>  <Name>
ligand

>  <RI>
0

>  <Rbt.Current_Directory>
/home/itssahil/PROJECTS/Mol_Feturizer/New_Systems/rnas/3TD1

>  <Rbt.Executable>
rbdock ($Id: //depot/dev/client3/rdock/2013.1/src/exe/rbdock.cxx#4 $)

>  <Rbt.Library>
libRbt.so (2013.1, Build901 2013/11/27)

>  <Rbt.Parameter_File>
/export/apps/rDock/src/rDock_2013.1_src/data/scripts/dock_solv.prm

>  <Rbt.Receptor>
prm/pocket_docking_6.prm

>  <SCORE>
-16.5489

>  <SCORE.INTER>
-10.6258

>  <SCORE.INTER.CONST>
1

>  <SCORE.INTER.POLAR>
0

>  <SCORE.INTER.ROT>
6

>  <SCORE.INTER.SOLV>
16.1729

>  <SCORE.INTER.VDW>
-20.0748

>  <SCORE.INTER.norm>
-0.312524

>  <SCORE.INTRA>
-5.92306

>  <SCORE.INTRA.DIHEDRAL>
-10.6282

>  <SCORE.INTRA.DIHEDRAL.0>
19.5869

>  <SCORE.INTRA.POLAR>
0

>  <SCORE.INTRA.POLAR.0>
0

>  <SCORE.INTRA.REPUL>
0

>  <SCORE.INTRA.REPUL.0>
0

>  <SCORE.INTRA.SOLV>
-2.77067

>  <SCORE.INTRA.SOLV.lig_0>
-70.101

>  <SCORE.INTRA.VDW>
0.776366

>  <SCORE.INTRA.VDW.0>
-3.39718

>  <SCORE.INTRA.norm>
-0.174208

>  <SCORE.RESTR>
0

>  <SCORE.RESTR.CAVITY>
0

>  <SCORE.RESTR.norm>
0

>  <SCORE.SYSTEM>
0

>  <SCORE.SYSTEM.CONST>
0

>  <SCORE.SYSTEM.DIHEDRAL>
0

>  <SCORE.SYSTEM.SOLV>
0

>  <SCORE.SYSTEM.norm>
0

>  <SCORE.heavy>
34

>  <SCORE.norm>
-0.486732

>  <RMSD>
8.762

$$$$
ligand
 OpenBabel11021811483D
libRbt.so/2013.1/901 2013/11/27
 34 36  0  0  0  0  0  0  0  0999 V2000
    8.5777    7.5732    4.6963 C   0  0  2  0  0  0  0  0  0  0  0  0
    8.9020    6.1859    4.5152 O   0  0  0  0  0  0  0  0  0  0  0  0
    8.1052    2.8532    7.0687 C   0  0  2  0  0  0  0  0  0  0  0  0
    8.1404    1.9356    8.2022 N   0  0  0  0  0  0  0  0  0  0  0  0
    5.7864    4.7360    9.2233 C   0  0  2  0  0  0  0  0  0  0  0  0
    8.6338    8.2717    3.2908 C   0  0  2  0  0  0  0  0  0  0  0  0
    7.6624    7.6739    2.3616 N   0  0  0  0  0  0  0  0  0  0  0  0
    9.5769    3.0342    6.5674 C   0  0  0  0  0  0  0  0  0  0  0  0
    4.4970    3.9963    9.7307 C   0  0  2  0  0  0  0  0  0  0  0  0
    4.7829    2.6247    9.9492 O   0  0  0  0  0  0  0  0  0  0  0  0
   10.0603    8.1443    2.7136 C   0  0  1  0  0  0  0  0  0  0  0  0
   10.1210    8.7884    1.4305 O   0  0  0  0  0  0  0  0  0  0  0  0
    9.5374    4.0010    5.3359 C   0  0  2  0  0  0  0  0  0  0  0  0
   10.9041    4.2169    4.8192 N   0  0  0  0  0  0  0  0  0  0  0  0
    3.3569    4.1731    8.6544 C   0  0  1  0  0  0  0  0  0  0  0  0
    2.1097    3.4721    9.0838 N   0  0  0  0  0  0  0  0  0  0  0  0
   11.0608    8.7717    3.7131 C   0  0  2  0  0  0  0  0  0  0  0  0
   12.3964    8.6509    3.1935 O   0  0  0  0  0  0  0  0  0  0  0  0
    8.9256    5.3709    5.7254 C   0  0  2  0  0  0  0  0  0  0  0  0
    3.0806    5.7022    8.4518 C   0  0  1  0  0  0  0  0  0  0  0  0
    2.6335    6.2738    9.6784 O   0  0  0  0  0  0  0  0  0  0  0  0
   10.9430    8.0436    5.1061 C   0  0  2  0  0  0  0  0  0  0  0  0
    9.5635    8.1583    5.6180 O   0  0  0  0  0  0  0  0  0  0  0  0
    7.4943    5.1558    6.2776 C   0  0  2  0  0  0  0  0  0  0  0  0
    6.9603    6.4236    6.6453 O   0  0  0  0  0  0  0  0  0  0  0  0
    4.4081    6.3951    8.0103 C   0  0  0  0  0  0  0  0  0  0  0  0
    5.4822    6.1567    9.0043 O   0  0  0  0  0  0  0  0  0  0  0  0
   11.9074    8.6487    6.1595 C   0  0  2  0  0  0  0  0  0  0  0  0
   13.2549    8.4030    5.7655 O   0  0  0  0  0  0  0  0  0  0  0  0
    7.5066    4.2459    7.5280 C   0  0  1  0  0  0  0  0  0  0  0  0
    6.1330    4.1025    7.9601 O   0  0  0  0  0  0  0  0  0  0  0  0
   11.6982    8.0283    7.5310 C   0  0  0  0  0  0  0  0  0  0  0  0
    2.0030    5.9553    7.4046 C   0  0  0  0  0  0  0  0  0  0  0  0
    2.0777    2.1467    8.4362 C   0  0  0  0  0  0  0  0  0  0  0  0
  1  2  1  6  0  0  0
  1  6  1  0  0  0  0
  1 23  1  0  0  0  0
  3  4  1  1  0  0  0
  3  8  1  0  0  0  0
  3 30  1  0  0  0  0
  5  9  1  0  0  0  0
  5 27  1  0  0  0  0
  5 31  1  6  0  0  0
  6  7  1  6  0  0  0
  6 11  1  0  0  0  0
  8 13  1  0  0  0  0
  9 10  1  6  0  0  0
  9 15  1  0  0  0  0
 11 12  1  6  0  0  0
 11 17  1  0  0  0  0
 13 14  1  1  0  0  0
 13 19  1  0  0  0  0
 15 16  1  1  0  0  0
 15 20  1  0  0  0  0
 16 34  1  0  0  0  0
 17 18  1  6  0  0  0
 17 22  1  0  0  0  0
 19  2  1  6  0  0  0
 19 24  1  0  0  0  0
 20 21  1  1  0  0  0
 20 26  1  0  0  0  0
 20 33  1  0  0  0  0
 22 23  1  1  0  0  0
 22 28  1  0  0  0  0
 24 25  1  1  0  0  0
 24 30  1  0  0  0  0
 26 27  1  0  0  0  0
 28 29  1  6  0  0  0
 28 32  1  0  0  0  0
 30 31  1  6  0  0  0
M  END
>  <CHROM.1>
178.89468638,-170.02496011,-96.67634416,-65.72477592,132.54135309,-158.36448957
7.59730942,5.85621103,6.47365501,0.66847542,0.21390540,-0.62960340

>  <Name>
ligand

>  <RI>
0

>  <Rbt.Current_Directory>
/home/itssahil/PROJECTS/Mol_Feturizer/New_Systems/rnas/3TD1

>  <Rbt.Executable>
rbdock ($Id: //depot/dev/client3/rdock/2013.1/src/exe/rbdock.cxx#4 $)

>  <Rbt.Library>
libRbt.so (2013.1, Build901 2013/11/27)

>  <Rbt.Parameter_File>
/export/apps/rDock/src/rDock_2013.1_src/data/scripts/dock_solv.prm

>  <Rbt.Receptor>
prm/pocket_docking_4.prm

>  <SCORE>
-16.1412

>  <SCORE.INTER>
-10.4581

>  <SCORE.INTER.CONST>
1

>  <SCORE.INTER.POLAR>
0

>  <SCORE.INTER.ROT>
6

>  <SCORE.INTER.SOLV>
13.5989

>  <SCORE.INTER.VDW>
-19.105

>  <SCORE.INTER.norm>
-0.307592

>  <SCORE.INTRA>
-5.7449

>  <SCORE.INTRA.DIHEDRAL>
-9.68666

>  <SCORE.INTRA.DIHEDRAL.0>
19.5869

>  <SCORE.INTRA.POLAR>
0

>  <SCORE.INTRA.POLAR.0>
0

>  <SCORE.INTRA.REPUL>
0

>  <SCORE.INTRA.REPUL.0>
0

>  <SCORE.INTRA.SOLV>
-2.47776

>  <SCORE.INTRA.SOLV.lig_0>
-70.101

>  <SCORE.INTRA.VDW>
0.337307

>  <SCORE.INTRA.VDW.0>
-3.39718

>  <SCORE.INTRA.norm>
-0.168968

>  <SCORE.RESTR>
0.0617915

>  <SCORE.RESTR.CAVITY>
0.0617915

>  <SCORE.RESTR.norm>
0.0018174

>  <SCORE.SYSTEM>
0

>  <SCORE.SYSTEM.CONST>
0

>  <SCORE.SYSTEM.DIHEDRAL>
0

>  <SCORE.SYSTEM.SOLV>
0

>  <SCORE.SYSTEM.norm>
0

>  <SCORE.heavy>
34

>  <SCORE.norm>
-0.474742

>  <RMSD>
8.768

$$$$
ligand
 OpenBabel11021811483D
libRbt.so/2013.1/901 2013/11/27
 34 36  0  0  0  0  0  0  0  0999 V2000
    8.6351    7.3410    4.7980 C   0  0  2  0  0  0  0  0  0  0  0  0
    8.9488    5.9672    4.5209 O   0  0  0  0  0  0  0  0  0  0  0  0
    7.9555    2.5314    6.8599 C   0  0  2  0  0  0  0  0  0  0  0  0
    7.9498    1.5324    7.9229 N   0  0  0  0  0  0  0  0  0  0  0  0
    5.8571    4.5310    9.1826 C   0  0  2  0  0  0  0  0  0  0  0  0
    8.6465    8.1249    3.4372 C   0  0  2  0  0  0  0  0  0  0  0  0
    7.6427    7.5866    2.5060 N   0  0  0  0  0  0  0  0  0  0  0  0
    9.4198    2.6266    6.3153 C   0  0  0  0  0  0  0  0  0  0  0  0
    4.5469    3.8660    9.7379 C   0  0  2  0  0  0  0  0  0  0  0  0
    4.7657    2.4827    9.9601 O   0  0  0  0  0  0  0  0  0  0  0  0
   10.0525    8.0319    2.8057 C   0  0  1  0  0  0  0  0  0  0  0  0
   10.0723    8.7539    1.5635 O   0  0  0  0  0  0  0  0  0  0  0  0
    9.4222    3.6822    5.1583 C   0  0  2  0  0  0  0  0  0  0  0  0
   10.7844    3.8221    4.6049 N   0  0  0  0  0  0  0  0  0  0  0  0
    3.3836    4.0958    8.6971 C   0  0  1  0  0  0  0  0  0  0  0  0
    2.1152    3.4665    9.1729 N   0  0  0  0  0  0  0  0  0  0  0  0
   11.0877    8.5953    3.8079 C   0  0  2  0  0  0  0  0  0  0  0  0
   12.4049    8.5053    3.2373 O   0  0  0  0  0  0  0  0  0  0  0  0
    8.9429    5.0654    5.6681 C   0  0  2  0  0  0  0  0  0  0  0  0
    3.1835    5.6360    8.4890 C   0  0  1  0  0  0  0  0  0  0  0  0
    2.8078    6.2404    9.7238 O   0  0  0  0  0  0  0  0  0  0  0  0
   11.0143    7.7826    5.1565 C   0  0  2  0  0  0  0  0  0  0  0  0
    9.6530    7.8669    5.7204 O   0  0  0  0  0  0  0  0  0  0  0  0
    7.5176    4.9291    6.2595 C   0  0  2  0  0  0  0  0  0  0  0  0
    7.1063    6.2058    6.7372 O   0  0  0  0  0  0  0  0  0  0  0  0
    4.5313    6.2527    7.9986 C   0  0  0  0  0  0  0  0  0  0  0  0
    5.6228    5.9644    8.9599 O   0  0  0  0  0  0  0  0  0  0  0  0
   12.0153    8.3205    6.2123 C   0  0  2  0  0  0  0  0  0  0  0  0
   13.3312    8.3138    5.6650 O   0  0  0  0  0  0  0  0  0  0  0  0
    7.4937    3.9309    7.4404 C   0  0  1  0  0  0  0  0  0  0  0  0
    6.1279    3.8699    7.9149 O   0  0  0  0  0  0  0  0  0  0  0  0
   12.0228    7.4601    7.4651 C   0  0  0  0  0  0  0  0  0  0  0  0
    2.0876    5.9388    7.4745 C   0  0  0  0  0  0  0  0  0  0  0  0
    1.9791    2.1499    8.5209 C   0  0  0  0  0  0  0  0  0  0  0  0
  1  2  1  6  0  0  0
  1  6  1  0  0  0  0
  1 23  1  0  0  0  0
  3  4  1  1  0  0  0
  3  8  1  0  0  0  0
  3 30  1  0  0  0  0
  5  9  1  0  0  0  0
  5 27  1  0  0  0  0
  5 31  1  6  0  0  0
  6  7  1  6  0  0  0
  6 11  1  0  0  0  0
  8 13  1  0  0  0  0
  9 10  1  6  0  0  0
  9 15  1  0  0  0  0
 11 12  1  6  0  0  0
 11 17  1  0  0  0  0
 13 14  1  1  0  0  0
 13 19  1  0  0  0  0
 15 16  1  1  0  0  0
 15 20  1  0  0  0  0
 16 34  1  0  0  0  0
 17 18  1  6  0  0  0
 17 22  1  0  0  0  0
 19  2  1  6  0  0  0
 19 24  1  0  0  0  0
 20 21  1  1  0  0  0
 20 26  1  0  0  0  0
 20 33  1  0  0  0  0
 22 23  1  1  0  0  0
 22 28  1  0  0  0  0
 24 25  1  1  0  0  0
 24 30  1  0  0  0  0
 26 27  1  0  0  0  0
 28 29  1  6  0  0  0
 28 32  1  0  0  0  0
 30 31  1  6  0  0  0
M  END
>  <CHROM.1>
-178.07640894,-175.25141215,-97.65953451,-55.65731525,137.41765906,-158.11910419
7.62417246,5.65680990,6.47014360,0.63697480,0.28432785,-0.53455291

>  <Name>
ligand

>  <RI>
0

>  <Rbt.Current_Directory>
/home/itssahil/PROJECTS/Mol_Feturizer/New_Systems/rnas/3TD1

>  <Rbt.Executable>
rbdock ($Id: //depot/dev/client3/rdock/2013.1/src/exe/rbdock.cxx#4 $)

>  <Rbt.Library>
libRbt.so (2013.1, Build901 2013/11/27)

>  <Rbt.Parameter_File>
/export/apps/rDock/src/rDock_2013.1_src/data/scripts/dock_solv.prm

>  <Rbt.Receptor>
prm/pocket_docking_5.prm

>  <SCORE>
-16.4959

>  <SCORE.INTER>
-10.5641

>  <SCORE.INTER.CONST>
1

>  <SCORE.INTER.POLAR>
0

>  <SCORE.INTER.ROT>
6

>  <SCORE.INTER.SOLV>
14.4166

>  <SCORE.INTER.VDW>
-19.4483

>  <SCORE.INTER.norm>
-0.310709

>  <SCORE.INTRA>
-5.93174

>  <SCORE.INTRA.DIHEDRAL>
-10.6517

>  <SCORE.INTRA.DIHEDRAL.0>
19.5869

>  <SCORE.INTRA.POLAR>
0

>  <SCORE.INTRA.POLAR.0>
0

>  <SCORE.INTRA.REPUL>
0

>  <SCORE.INTRA.REPUL.0>
0

>  <SCORE.INTRA.SOLV>
-2.73588

>  <SCORE.INTRA.SOLV.lig_0>
-70.101

>  <SCORE.INTRA.VDW>
0.762052

>  <SCORE.INTRA.VDW.0>
-3.39718

>  <SCORE.INTRA.norm>
-0.174463

>  <SCORE.RESTR>
0

>  <SCORE.RESTR.CAVITY>
0

>  <SCORE.RESTR.norm>
0

>  <SCORE.SYSTEM>
0

>  <SCORE.SYSTEM.CONST>
0

>  <SCORE.SYSTEM.DIHEDRAL>
0

>  <SCORE.SYSTEM.SOLV>
0

>  <SCORE.SYSTEM.norm>
0

>  <SCORE.heavy>
34

>  <SCORE.norm>
-0.485172

>  <RMSD>
8.771

$$$$
ligand
 OpenBabel11021811483D
libRbt.so/2013.1/901 2013/11/27
 34 36  0  0  0  0  0  0  0  0999 V2000
    8.5537    7.5789    4.6590 C   0  0  2  0  0  0  0  0  0  0  0  0
    8.8322    6.1814    4.4799 O   0  0  0  0  0  0  0  0  0  0  0  0
    8.0758    2.8648    7.0664 C   0  0  2  0  0  0  0  0  0  0  0  0
    8.1265    1.9560    8.2063 N   0  0  0  0  0  0  0  0  0  0  0  0
    5.7770    4.7353    9.2416 C   0  0  2  0  0  0  0  0  0  0  0  0
    8.6108    8.2691    3.2495 C   0  0  2  0  0  0  0  0  0  0  0  0
    7.6077    7.6977    2.3375 N   0  0  0  0  0  0  0  0  0  0  0  0
    9.5415    3.0481    6.5486 C   0  0  0  0  0  0  0  0  0  0  0  0
    4.4857    4.0010    9.7518 C   0  0  2  0  0  0  0  0  0  0  0  0
    4.7619    2.6248    9.9532 O   0  0  0  0  0  0  0  0  0  0  0  0
   10.0240    8.0950    2.6521 C   0  0  1  0  0  0  0  0  0  0  0  0
   10.0856    8.7314    1.3653 O   0  0  0  0  0  0  0  0  0  0  0  0
    9.4852    4.0053    5.3103 C   0  0  2  0  0  0  0  0  0  0  0  0
   10.8456    4.2231    4.7779 N   0  0  0  0  0  0  0  0  0  0  0  0
    3.3381    4.1988    8.6872 C   0  0  1  0  0  0  0  0  0  0  0  0
    2.0887    3.5036    9.1196 N   0  0  0  0  0  0  0  0  0  0  0  0
   11.0580    8.6954    3.6339 C   0  0  2  0  0  0  0  0  0  0  0  0
   12.3815    8.5309    3.0954 O   0  0  0  0  0  0  0  0  0  0  0  0
    8.8717    5.3757    5.6958 C   0  0  2  0  0  0  0  0  0  0  0  0
    3.0730    5.7323    8.5034 C   0  0  1  0  0  0  0  0  0  0  0  0
    2.6410    6.2943    9.7397 O   0  0  0  0  0  0  0  0  0  0  0  0
   10.9383    7.9773    5.0320 C   0  0  2  0  0  0  0  0  0  0  0  0
    9.5707    8.1370    5.5634 O   0  0  0  0  0  0  0  0  0  0  0  0
    7.4471    5.1588    6.2644 C   0  0  2  0  0  0  0  0  0  0  0  0
    6.9115    6.4271    6.6280 O   0  0  0  0  0  0  0  0  0  0  0  0
    4.4026    6.4188    8.0581 C   0  0  0  0  0  0  0  0  0  0  0  0
    5.4829    6.1608    9.0403 O   0  0  0  0  0  0  0  0  0  0  0  0
   11.9364    8.5568    6.0683 C   0  0  2  0  0  0  0  0  0  0  0  0
   13.2701    8.3406    5.6146 O   0  0  0  0  0  0  0  0  0  0  0  0
    7.4762    4.2584    7.5214 C   0  0  1  0  0  0  0  0  0  0  0  0
    6.1076    4.1126    7.9687 O   0  0  0  0  0  0  0  0  0  0  0  0
   11.7867    7.8869    7.4242 C   0  0  0  0  0  0  0  0  0  0  0  0
    1.9889    6.0056    7.4681 C   0  0  0  0  0  0  0  0  0  0  0  0
    2.0271    2.1966    8.4379 C   0  0  0  0  0  0  0  0  0  0  0  0
  1  2  1  6  0  0  0
  1  6  1  0  0  0  0
  1 23  1  0  0  0  0
  3  4  1  1  0  0  0
  3  8  1  0  0  0  0
  3 30  1  0  0  0  0
  5  9  1  0  0  0  0
  5 27  1  0  0  0  0
  5 31  1  6  0  0  0
  6  7  1  6  0  0  0
  6 11  1  0  0  0  0
  8 13  1  0  0  0  0
  9 10  1  6  0  0  0
  9 15  1  0  0  0  0
 11 12  1  6  0  0  0
 11 17  1  0  0  0  0
 13 14  1  1  0  0  0
 13 19  1  0  0  0  0
 15 16  1  1  0  0  0
 15 20  1  0  0  0  0
 16 34  1  0  0  0  0
 17 18  1  6  0  0  0
 17 22  1  0  0  0  0
 19  2  1  6  0  0  0
 19 24  1  0  0  0  0
 20 21  1  1  0  0  0
 20 26  1  0  0  0  0
 20 33  1  0  0  0  0
 22 23  1  1  0  0  0
 22 28  1  0  0  0  0
 24 25  1  1  0  0  0
 24 30  1  0  0  0  0
 26 27  1  0  0  0  0
 28 29  1  6  0  0  0
 28 32  1  0  0  0  0
 30 31  1  6  0  0  0
M  END
>  <CHROM.1>
177.85290450,-167.75616526,-97.76153102,-62.15388376,131.55395604,-158.84551010
7.57781129,5.84583380,6.45294730,0.66894060,0.21773528,-0.64819642

>  <Name>
ligand

>  <RI>
0

>  <Rbt.Current_Directory>
/home/itssahil/PROJECTS/Mol_Feturizer/New_Systems/rnas/3TD1

>  <Rbt.Executable>
rbdock ($Id: //depot/dev/client3/rdock/2013.1/src/exe/rbdock.cxx#4 $)

>  <Rbt.Library>
libRbt.so (2013.1, Build901 2013/11/27)

>  <Rbt.Parameter_File>
/export/apps/rDock/src/rDock_2013.1_src/data/scripts/dock_solv.prm

>  <Rbt.Receptor>
prm/pocket_docking_4.prm

>  <SCORE>
-16.0637

>  <SCORE.INTER>
-10.4136

>  <SCORE.INTER.CONST>
1

>  <SCORE.INTER.POLAR>
0

>  <SCORE.INTER.ROT>
6

>  <SCORE.INTER.SOLV>
13.6047

>  <SCORE.INTER.VDW>
-19.0773

>  <SCORE.INTER.norm>
-0.306281

>  <SCORE.INTRA>
-5.72068

>  <SCORE.INTRA.DIHEDRAL>
-9.47644

>  <SCORE.INTRA.DIHEDRAL.0>
19.5869

>  <SCORE.INTRA.POLAR>
0

>  <SCORE.INTRA.POLAR.0>
0

>  <SCORE.INTRA.REPUL>
0

>  <SCORE.INTRA.REPUL.0>
0

>  <SCORE.INTRA.SOLV>
-2.26919

>  <SCORE.INTRA.SOLV.lig_0>
-70.101

>  <SCORE.INTRA.VDW>
0.152134

>  <SCORE.INTRA.VDW.0>
-3.39718

>  <SCORE.INTRA.norm>
-0.168255

>  <SCORE.RESTR>
0.0705246

>  <SCORE.RESTR.CAVITY>
0.0705246

>  <SCORE.RESTR.norm>
0.00207425

>  <SCORE.SYSTEM>
0

>  <SCORE.SYSTEM.CONST>
0

>  <SCORE.SYSTEM.DIHEDRAL>
0

>  <SCORE.SYSTEM.SOLV>
0

>  <SCORE.SYSTEM.norm>
0

>  <SCORE.heavy>
34

>  <SCORE.norm>
-0.472462

>  <RMSD>
8.775

$$$$
ligand
 OpenBabel11021811483D
libRbt.so/2013.1/901 2013/11/27
 34 36  0  0  0  0  0  0  0  0999 V2000
    8.8208    7.2823    4.7820 C   0  0  2  0  0  0  0  0  0  0  0  0
    9.0872    5.9203    4.4125 O   0  0  0  0  0  0  0  0  0  0  0  0
    7.9337    2.4116    6.5620 C   0  0  2  0  0  0  0  0  0  0  0  0
    7.8946    1.3455    7.5570 N   0  0  0  0  0  0  0  0  0  0  0  0
    6.0605    4.4542    9.0631 C   0  0  2  0  0  0  0  0  0  0  0  0
    8.6627    8.1203    3.4632 C   0  0  2  0  0  0  0  0  0  0  0  0
    7.5442    7.6216    2.6481 N   0  0  0  0  0  0  0  0  0  0  0  0
    9.3800    2.4409    5.9644 C   0  0  0  0  0  0  0  0  0  0  0  0
    4.7495    3.8358    9.6678 C   0  0  2  0  0  0  0  0  0  0  0  0
    4.9202    2.4418    9.8638 O   0  0  0  0  0  0  0  0  0  0  0  0
    9.9754    8.0507    2.6532 C   0  0  1  0  0  0  0  0  0  0  0  0
    9.8405    8.8222    1.4485 O   0  0  0  0  0  0  0  0  0  0  0  0
    9.4165    3.5698    4.8795 C   0  0  2  0  0  0  0  0  0  0  0  0
   10.7640    3.6512    4.2803 N   0  0  0  0  0  0  0  0  0  0  0  0
    3.5523    4.1271    8.6822 C   0  0  1  0  0  0  0  0  0  0  0  0
    2.2809    3.5437    9.2060 N   0  0  0  0  0  0  0  0  0  0  0  0
   11.1344    8.5718    3.5357 C   0  0  2  0  0  0  0  0  0  0  0  0
   12.3669    8.5029    2.7975 O   0  0  0  0  0  0  0  0  0  0  0  0
    9.0580    4.9453    5.4978 C   0  0  2  0  0  0  0  0  0  0  0  0
    3.4073    5.6769    8.5014 C   0  0  1  0  0  0  0  0  0  0  0  0
    3.1112    6.2792    9.7586 O   0  0  0  0  0  0  0  0  0  0  0  0
   11.2292    7.7055    4.8492 C   0  0  2  0  0  0  0  0  0  0  0  0
    9.9521    7.7691    5.5862 O   0  0  0  0  0  0  0  0  0  0  0  0
    7.6492    4.8693    6.1378 C   0  0  2  0  0  0  0  0  0  0  0  0
    7.3497    6.1363    6.7143 O   0  0  0  0  0  0  0  0  0  0  0  0
    4.7568    6.2446    7.9593 C   0  0  0  0  0  0  0  0  0  0  0  0
    5.8762    5.8989    8.8680 O   0  0  0  0  0  0  0  0  0  0  0  0
   12.3609    8.1990    5.7882 C   0  0  2  0  0  0  0  0  0  0  0  0
   13.6124    8.1046    5.1129 O   0  0  0  0  0  0  0  0  0  0  0  0
    7.5964    3.7973    7.2511 C   0  0  1  0  0  0  0  0  0  0  0  0
    6.2482    3.8000    7.7770 O   0  0  0  0  0  0  0  0  0  0  0  0
   12.4444    7.3595    7.0524 C   0  0  0  0  0  0  0  0  0  0  0  0
    2.2816    6.0380    7.5399 C   0  0  0  0  0  0  0  0  0  0  0  0
    2.0632    2.2418    8.5467 C   0  0  0  0  0  0  0  0  0  0  0  0
  1  2  1  6  0  0  0
  1  6  1  0  0  0  0
  1 23  1  0  0  0  0
  3  4  1  1  0  0  0
  3  8  1  0  0  0  0
  3 30  1  0  0  0  0
  5  9  1  0  0  0  0
  5 27  1  0  0  0  0
  5 31  1  6  0  0  0
  6  7  1  6  0  0  0
  6 11  1  0  0  0  0
  8 13  1  0  0  0  0
  9 10  1  6  0  0  0
  9 15  1  0  0  0  0
 11 12  1  6  0  0  0
 11 17  1  0  0  0  0
 13 14  1  1  0  0  0
 13 19  1  0  0  0  0
 15 16  1  1  0  0  0
 15 20  1  0  0  0  0
 16 34  1  0  0  0  0
 17 18  1  6  0  0  0
 17 22  1  0  0  0  0
 19  2  1  6  0  0  0
 19 24  1  0  0  0  0
 20 21  1  1  0  0  0
 20 26  1  0  0  0  0
 20 33  1  0  0  0  0
 22 23  1  1  0  0  0
 22 28  1  0  0  0  0
 24 25  1  1  0  0  0
 24 30  1  0  0  0  0
 26 27  1  0  0  0  0
 28 29  1  6  0  0  0
 28 32  1  0  0  0  0
 30 31  1  6  0  0  0
M  END
>  <CHROM.1>
-170.74795907,-178.13358798,-97.57430301,-60.55784167,140.58550891,-157.38797378
7.75092084,5.60761586,6.31428715,0.62134003,0.35107976,-0.47342776

>  <Name>
ligand

>  <RI>
0

>  <Rbt.Current_Directory>
/home/itssahil/PROJECTS/Mol_Feturizer/New_Systems/rnas/3TD1

>  <Rbt.Executable>
rbdock ($Id: //depot/dev/client3/rdock/2013.1/src/exe/rbdock.cxx#4 $)

>  <Rbt.Library>
libRbt.so (2013.1, Build901 2013/11/27)

>  <Rbt.Parameter_File>
/export/apps/rDock/src/rDock_2013.1_src/data/scripts/dock_solv.prm

>  <Rbt.Receptor>
prm/pocket_docking_5.prm

>  <SCORE>
-16.4795

>  <SCORE.INTER>
-10.7653

>  <SCORE.INTER.CONST>
1

>  <SCORE.INTER.POLAR>
0

>  <SCORE.INTER.ROT>
6

>  <SCORE.INTER.SOLV>
16.0897

>  <SCORE.INTER.VDW>
-20.1401

>  <SCORE.INTER.norm>
-0.316628

>  <SCORE.INTRA>
-5.71414

>  <SCORE.INTRA.DIHEDRAL>
-10.7912

>  <SCORE.INTRA.DIHEDRAL.0>
19.5869

>  <SCORE.INTRA.POLAR>
0

>  <SCORE.INTRA.POLAR.0>
0

>  <SCORE.INTRA.REPUL>
0

>  <SCORE.INTRA.REPUL.0>
0

>  <SCORE.INTRA.SOLV>
-2.79872

>  <SCORE.INTRA.SOLV.lig_0>
-70.101

>  <SCORE.INTRA.VDW>
1.08084

>  <SCORE.INTRA.VDW.0>
-3.39718

>  <SCORE.INTRA.norm>
-0.168063

>  <SCORE.RESTR>
0

>  <SCORE.RESTR.CAVITY>
0

>  <SCORE.RESTR.norm>
0

>  <SCORE.SYSTEM>
0

>  <SCORE.SYSTEM.CONST>
0

>  <SCORE.SYSTEM.DIHEDRAL>
0

>  <SCORE.SYSTEM.SOLV>
0

>  <SCORE.SYSTEM.norm>
0

>  <SCORE.heavy>
34

>  <SCORE.norm>
-0.484691

>  <RMSD>
8.778

$$$$
ligand
 OpenBabel11021811483D
libRbt.so/2013.1/901 2013/11/27
 34 36  0  0  0  0  0  0  0  0999 V2000
    8.6245    7.4082    4.7317 C   0  0  2  0  0  0  0  0  0  0  0  0
    8.8761    6.0272    4.4283 O   0  0  0  0  0  0  0  0  0  0  0  0
    7.8418    2.5870    6.7428 C   0  0  2  0  0  0  0  0  0  0  0  0
    7.8313    1.5746    7.7931 N   0  0  0  0  0  0  0  0  0  0  0  0
    5.8340    4.6301    9.1183 C   0  0  2  0  0  0  0  0  0  0  0  0
    8.6077    8.2064    3.3793 C   0  0  2  0  0  0  0  0  0  0  0  0
    7.5470    7.7152    2.4860 N   0  0  0  0  0  0  0  0  0  0  0  0
    9.2972    2.6528    6.1710 C   0  0  0  0  0  0  0  0  0  0  0  0
    4.5486    3.9607    9.7238 C   0  0  2  0  0  0  0  0  0  0  0  0
    4.7865    2.5819    9.9543 O   0  0  0  0  0  0  0  0  0  0  0  0
    9.9818    8.0699    2.6883 C   0  0  1  0  0  0  0  0  0  0  0  0
    9.9761    8.8047    1.4534 O   0  0  0  0  0  0  0  0  0  0  0  0
    9.3040    3.7230    5.0275 C   0  0  2  0  0  0  0  0  0  0  0  0
   10.6584    3.8362    4.4494 N   0  0  0  0  0  0  0  0  0  0  0  0
    3.3499    4.1688    8.7192 C   0  0  1  0  0  0  0  0  0  0  0  0
    2.1032    3.5346    9.2434 N   0  0  0  0  0  0  0  0  0  0  0  0
   11.0779    8.5843    3.6514 C   0  0  2  0  0  0  0  0  0  0  0  0
   12.3659    8.4533    3.0250 O   0  0  0  0  0  0  0  0  0  0  0  0
    8.8695    5.1109    5.5639 C   0  0  2  0  0  0  0  0  0  0  0  0
    3.1297    5.7048    8.5005 C   0  0  1  0  0  0  0  0  0  0  0  0
    2.7894    6.3202    9.7400 O   0  0  0  0  0  0  0  0  0  0  0  0
   11.0312    7.7597    4.9940 C   0  0  2  0  0  0  0  0  0  0  0  0
    9.6986    7.8867    5.6155 O   0  0  0  0  0  0  0  0  0  0  0  0
    7.4528    5.0024    6.1813 C   0  0  2  0  0  0  0  0  0  0  0  0
    7.0830    6.2827    6.6829 O   0  0  0  0  0  0  0  0  0  0  0  0
    4.4554    6.3269    7.9592 C   0  0  0  0  0  0  0  0  0  0  0  0
    5.5801    6.0588    8.8874 O   0  0  0  0  0  0  0  0  0  0  0  0
   12.0943    8.2492    6.0118 C   0  0  2  0  0  0  0  0  0  0  0  0
   13.3926    8.1293    5.4363 O   0  0  0  0  0  0  0  0  0  0  0  0
    7.4265    3.9898    7.3498 C   0  0  1  0  0  0  0  0  0  0  0  0
    6.0689    3.9567    7.8500 O   0  0  0  0  0  0  0  0  0  0  0  0
   12.0679    7.4246    7.2882 C   0  0  0  0  0  0  0  0  0  0  0  0
    1.9986    5.9868    7.5191 C   0  0  0  0  0  0  0  0  0  0  0  0
    1.9473    2.2174    8.5971 C   0  0  0  0  0  0  0  0  0  0  0  0
  1  2  1  6  0  0  0
  1  6  1  0  0  0  0
  1 23  1  0  0  0  0
  3  4  1  1  0  0  0
  3  8  1  0  0  0  0
  3 30  1  0  0  0  0
  5  9  1  0  0  0  0
  5 27  1  0  0  0  0
  5 31  1  6  0  0  0
  6  7  1  6  0  0  0
  6 11  1  0  0  0  0
  8 13  1  0  0  0  0
  9 10  1  6  0  0  0
  9 15  1  0  0  0  0
 11 12  1  6  0  0  0
 11 17  1  0  0  0  0
 13 14  1  1  0  0  0
 13 19  1  0  0  0  0
 15 16  1  1  0  0  0
 15 20  1  0  0  0  0
 16 34  1  0  0  0  0
 17 18  1  6  0  0  0
 17 22  1  0  0  0  0
 19  2  1  6  0  0  0
 19 24  1  0  0  0  0
 20 21  1  1  0  0  0
 20 26  1  0  0  0  0
 20 33  1  0  0  0  0
 22 23  1  1  0  0  0
 22 28  1  0  0  0  0
 24 25  1  1  0  0  0
 24 30  1  0  0  0  0
 26 27  1  0  0  0  0
 28 29  1  6  0  0  0
 28 32  1  0  0  0  0
 30 31  1  6  0  0  0
M  END
>  <CHROM.1>
-177.38001996,-174.24516186,-98.43486448,-58.94578199,138.56803778,-156.36080274
7.58293767,5.69897599,6.38973361,0.63184845,0.30389954,-0.53678877

>  <Name>
ligand

>  <RI>
0

>  <Rbt.Current_Directory>
/home/itssahil/PROJECTS/Mol_Feturizer/New_Systems/rnas/3TD1

>  <Rbt.Executable>
rbdock ($Id: //depot/dev/client3/rdock/2013.1/src/exe/rbdock.cxx#4 $)

>  <Rbt.Library>
libRbt.so (2013.1, Build901 2013/11/27)

>  <Rbt.Parameter_File>
/export/apps/rDock/src/rDock_2013.1_src/data/scripts/dock_solv.prm

>  <Rbt.Receptor>
prm/pocket_docking_7.prm

>  <SCORE>
-16.599

>  <SCORE.INTER>
-10.5742

>  <SCORE.INTER.CONST>
1

>  <SCORE.INTER.POLAR>
0

>  <SCORE.INTER.ROT>
6

>  <SCORE.INTER.SOLV>
15.4172

>  <SCORE.INTER.VDW>
-19.7886

>  <SCORE.INTER.norm>
-0.311006

>  <SCORE.INTRA>
-6.02477

>  <SCORE.INTRA.DIHEDRAL>
-10.4969

>  <SCORE.INTRA.DIHEDRAL.0>
19.5869

>  <SCORE.INTRA.POLAR>
0

>  <SCORE.INTRA.POLAR.0>
0

>  <SCORE.INTRA.REPUL>
0

>  <SCORE.INTRA.REPUL.0>
0

>  <SCORE.INTRA.SOLV>
-2.71782

>  <SCORE.INTRA.SOLV.lig_0>
-70.101

>  <SCORE.INTRA.VDW>
0.582578

>  <SCORE.INTRA.VDW.0>
-3.39718

>  <SCORE.INTRA.norm>
-0.177199

>  <SCORE.RESTR>
0

>  <SCORE.RESTR.CAVITY>
0

>  <SCORE.RESTR.norm>
0

>  <SCORE.SYSTEM>
0

>  <SCORE.SYSTEM.CONST>
0

>  <SCORE.SYSTEM.DIHEDRAL>
0

>  <SCORE.SYSTEM.SOLV>
0

>  <SCORE.SYSTEM.norm>
0

>  <SCORE.heavy>
34

>  <SCORE.norm>
-0.488205

>  <RMSD>
8.790

$$$$
ligand
 OpenBabel11021811483D
libRbt.so/2013.1/901 2013/11/27
 34 36  0  0  0  0  0  0  0  0999 V2000
    8.6530    7.2815    4.8864 C   0  0  2  0  0  0  0  0  0  0  0  0
    8.9037    5.9141    4.5258 O   0  0  0  0  0  0  0  0  0  0  0  0
    7.7904    2.4046    6.6950 C   0  0  2  0  0  0  0  0  0  0  0  0
    7.7592    1.3473    7.6996 N   0  0  0  0  0  0  0  0  0  0  0  0
    5.8540    4.4108    9.1666 C   0  0  2  0  0  0  0  0  0  0  0  0
    8.6967    8.1445    3.5750 C   0  0  2  0  0  0  0  0  0  0  0  0
    7.6675    7.7089    2.6182 N   0  0  0  0  0  0  0  0  0  0  0  0
    9.2430    2.4556    6.1145 C   0  0  0  0  0  0  0  0  0  0  0  0
    4.5242    3.7967    9.7336 C   0  0  2  0  0  0  0  0  0  0  0  0
    4.6779    2.3987    9.9143 O   0  0  0  0  0  0  0  0  0  0  0  0
   10.0956    8.0266    2.9321 C   0  0  1  0  0  0  0  0  0  0  0  0
   10.1452    8.8204    1.7354 O   0  0  0  0  0  0  0  0  0  0  0  0
    9.2715    3.5748    5.0193 C   0  0  2  0  0  0  0  0  0  0  0  0
   10.6244    3.6761    4.4355 N   0  0  0  0  0  0  0  0  0  0  0  0
    3.3521    4.1124    8.7257 C   0  0  1  0  0  0  0  0  0  0  0  0
    2.0640    3.5340    9.2132 N   0  0  0  0  0  0  0  0  0  0  0  0
   11.1576    8.4816    3.9611 C   0  0  2  0  0  0  0  0  0  0  0  0
   12.4680    8.3670    3.3796 O   0  0  0  0  0  0  0  0  0  0  0  0
    8.8797    4.9490    5.6200 C   0  0  2  0  0  0  0  0  0  0  0  0
    3.2252    5.6658    8.5629 C   0  0  1  0  0  0  0  0  0  0  0  0
    2.9066    6.2539    9.8213 O   0  0  0  0  0  0  0  0  0  0  0  0
   11.0505    7.5934    5.2589 C   0  0  2  0  0  0  0  0  0  0  0  0
    9.6957    7.7047    5.8336 O   0  0  0  0  0  0  0  0  0  0  0  0
    7.4649    4.8523    6.2437 C   0  0  2  0  0  0  0  0  0  0  0  0
    7.1346    6.1188    6.8044 O   0  0  0  0  0  0  0  0  0  0  0  0
    4.5916    6.2280    8.0587 C   0  0  0  0  0  0  0  0  0  0  0  0
    5.6873    5.8596    8.9872 O   0  0  0  0  0  0  0  0  0  0  0  0
   12.0772    8.0212    6.3400 C   0  0  2  0  0  0  0  0  0  0  0  0
   12.0521    9.4390    6.4833 O   0  0  0  0  0  0  0  0  0  0  0  0
    7.4187    3.7900    7.3666 C   0  0  1  0  0  0  0  0  0  0  0  0
    6.0644    3.7722    7.8762 O   0  0  0  0  0  0  0  0  0  0  0  0
   13.4911    7.6120    5.9617 C   0  0  0  0  0  0  0  0  0  0  0  0
    2.1246    6.0503    7.5817 C   0  0  0  0  0  0  0  0  0  0  0  0
    1.8387    2.2534    8.5158 C   0  0  0  0  0  0  0  0  0  0  0  0
  1  2  1  6  0  0  0
  1  6  1  0  0  0  0
  1 23  1  0  0  0  0
  3  4  1  1  0  0  0
  3  8  1  0  0  0  0
  3 30  1  0  0  0  0
  5  9  1  0  0  0  0
  5 27  1  0  0  0  0
  5 31  1  6  0  0  0
  6  7  1  6  0  0  0
  6 11  1  0  0  0  0
  8 13  1  0  0  0  0
  9 10  1  6  0  0  0
  9 15  1  0  0  0  0
 11 12  1  6  0  0  0
 11 17  1  0  0  0  0
 13 14  1  1  0  0  0
 13 19  1  0  0  0  0
 15 16  1  1  0  0  0
 15 20  1  0  0  0  0
 16 34  1  0  0  0  0
 17 18  1  6  0  0  0
 17 22  1  0  0  0  0
 19  2  1  6  0  0  0
 19 24  1  0  0  0  0
 20 21  1  1  0  0  0
 20 26  1  0  0  0  0
 20 33  1  0  0  0  0
 22 23  1  1  0  0  0
 22 28  1  0  0  0  0
 24 25  1  1  0  0  0
 24 30  1  0  0  0  0
 26 27  1  0  0  0  0
 28 29  1  6  0  0  0
 28 32  1  0  0  0  0
 30 31  1  6  0  0  0
M  END
>  <CHROM.1>
-178.96845526,-176.05162195,-98.45579540,46.61386576,139.36845993,-158.71451120
7.60909928,5.63761676,6.47044627,0.57509682,0.39316423,-0.34205999

>  <Name>
ligand

>  <RI>
0

>  <Rbt.Current_Directory>
/home/itssahil/PROJECTS/Mol_Feturizer/New_Systems/rnas/3TD1

>  <Rbt.Executable>
rbdock ($Id: //depot/dev/client3/rdock/2013.1/src/exe/rbdock.cxx#4 $)

>  <Rbt.Library>
libRbt.so (2013.1, Build901 2013/11/27)

>  <Rbt.Parameter_File>
/export/apps/rDock/src/rDock_2013.1_src/data/scripts/dock_solv.prm

>  <Rbt.Receptor>
prm/pocket_docking_8.prm

>  <SCORE>
-16.5855

>  <SCORE.INTER>
-11.508

>  <SCORE.INTER.CONST>
1

>  <SCORE.INTER.POLAR>
0

>  <SCORE.INTER.ROT>
6

>  <SCORE.INTER.SOLV>
16.3686

>  <SCORE.INTER.VDW>
-20.7282

>  <SCORE.INTER.norm>
-0.33847

>  <SCORE.INTRA>
-5.07758

>  <SCORE.INTRA.DIHEDRAL>
-10.5247

>  <SCORE.INTRA.DIHEDRAL.0>
19.5869

>  <SCORE.INTRA.POLAR>
0

>  <SCORE.INTRA.POLAR.0>
0

>  <SCORE.INTRA.REPUL>
0

>  <SCORE.INTRA.REPUL.0>
0

>  <SCORE.INTRA.SOLV>
-2.65531

>  <SCORE.INTRA.SOLV.lig_0>
-70.101

>  <SCORE.INTRA.VDW>
1.51242

>  <SCORE.INTRA.VDW.0>
-3.39718

>  <SCORE.INTRA.norm>
-0.149341

>  <SCORE.RESTR>
0

>  <SCORE.RESTR.CAVITY>
0

>  <SCORE.RESTR.norm>
0

>  <SCORE.SYSTEM>
0

>  <SCORE.SYSTEM.CONST>
0

>  <SCORE.SYSTEM.DIHEDRAL>
0

>  <SCORE.SYSTEM.SOLV>
0

>  <SCORE.SYSTEM.norm>
0

>  <SCORE.heavy>
34

>  <SCORE.norm>
-0.48781

>  <RMSD>
8.791

$$$$
ligand
 OpenBabel11021811483D
libRbt.so/2013.1/901 2013/11/27
 34 36  0  0  0  0  0  0  0  0999 V2000
    8.6802    7.5080    5.0264 C   0  0  2  0  0  0  0  0  0  0  0  0
    9.0874    6.1321    5.0856 O   0  0  0  0  0  0  0  0  0  0  0  0
    8.2968    3.1071    7.9987 C   0  0  2  0  0  0  0  0  0  0  0  0
    8.2661    2.3667    9.2552 N   0  0  0  0  0  0  0  0  0  0  0  0
    5.5626    4.7328    9.6710 C   0  0  2  0  0  0  0  0  0  0  0  0
    8.7920    7.9829    3.5335 C   0  0  2  0  0  0  0  0  0  0  0  0
    7.9161    7.1898    2.6571 N   0  0  0  0  0  0  0  0  0  0  0  0
    9.7971    3.4082    7.6697 C   0  0  0  0  0  0  0  0  0  0  0  0
    4.2591    3.9091    9.9701 C   0  0  2  0  0  0  0  0  0  0  0  0
    4.5833    2.5390   10.1393 O   0  0  0  0  0  0  0  0  0  0  0  0
   10.2580    7.8560    3.0655 C   0  0  1  0  0  0  0  0  0  0  0  0
   10.3691    8.2965    1.7022 O   0  0  0  0  0  0  0  0  0  0  0  0
    9.8326    4.1828    6.3089 C   0  0  2  0  0  0  0  0  0  0  0  0
   11.2281    4.5025    5.9458 N   0  0  0  0  0  0  0  0  0  0  0  0
    3.2497    4.1091    8.7740 C   0  0  1  0  0  0  0  0  0  0  0  0
    1.9956    3.3307    9.0035 N   0  0  0  0  0  0  0  0  0  0  0  0
   11.1567    8.6909    4.0082 C   0  0  2  0  0  0  0  0  0  0  0  0
   12.5281    8.5738    3.5907 O   0  0  0  0  0  0  0  0  0  0  0  0
    9.0228    5.5015    6.3999 C   0  0  2  0  0  0  0  0  0  0  0  0
    2.9255    5.6356    8.6312 C   0  0  1  0  0  0  0  0  0  0  0  0
    2.3066    6.1066    9.8255 O   0  0  0  0  0  0  0  0  0  0  0  0
   10.9859    8.1811    5.4899 C   0  0  2  0  0  0  0  0  0  0  0  0
    9.5717    8.2882    5.8983 O   0  0  0  0  0  0  0  0  0  0  0  0
    7.5584    5.1791    6.7893 C   0  0  2  0  0  0  0  0  0  0  0  0
    6.8396    6.4045    6.8847 O   0  0  0  0  0  0  0  0  0  0  0  0
    4.2612    6.4099    8.3992 C   0  0  0  0  0  0  0  0  0  0  0  0
    5.2181    6.1512    9.5019 O   0  0  0  0  0  0  0  0  0  0  0  0
   11.8464    9.0001    6.4873 C   0  0  2  0  0  0  0  0  0  0  0  0
   13.2271    8.8120    6.1883 O   0  0  0  0  0  0  0  0  0  0  0  0
    7.4873    4.4593    8.1562 C   0  0  1  0  0  0  0  0  0  0  0  0
    6.0893    4.1983    8.4243 O   0  0  0  0  0  0  0  0  0  0  0  0
   11.6117    8.5582    7.9223 C   0  0  0  0  0  0  0  0  0  0  0  0
    1.9709    5.9123    7.4763 C   0  0  0  0  0  0  0  0  0  0  0  0
    2.1495    2.0079    8.3684 C   0  0  0  0  0  0  0  0  0  0  0  0
  1  2  1  6  0  0  0
  1  6  1  0  0  0  0
  1 23  1  0  0  0  0
  3  4  1  1  0  0  0
  3  8  1  0  0  0  0
  3 30  1  0  0  0  0
  5  9  1  0  0  0  0
  5 27  1  0  0  0  0
  5 31  1  6  0  0  0
  6  7  1  6  0  0  0
  6 11  1  0  0  0  0
  8 13  1  0  0  0  0
  9 10  1  6  0  0  0
  9 15  1  0  0  0  0
 11 12  1  6  0  0  0
 11 17  1  0  0  0  0
 13 14  1  1  0  0  0
 13 19  1  0  0  0  0
 15 16  1  1  0  0  0
 15 20  1  0  0  0  0
 16 34  1  0  0  0  0
 17 18  1  6  0  0  0
 17 22  1  0  0  0  0
 19  2  1  6  0  0  0
 19 24  1  0  0  0  0
 20 21  1  1  0  0  0
 20 26  1  0  0  0  0
 20 33  1  0  0  0  0
 22 23  1  1  0  0  0
 22 28  1  0  0  0  0
 24 25  1  1  0  0  0
 24 30  1  0  0  0  0
 26 27  1  0  0  0  0
 28 29  1  6  0  0  0
 28 32  1  0  0  0  0
 30 31  1  6  0  0  0
M  END
>  <CHROM.1>
-178.73427314,-165.65482463,-92.23900990,-63.97510586,120.53340293,-160.08158807
7.61370907,5.88167439,6.89208977,0.66539537,0.06754479,-0.77759279

>  <Name>
ligand

>  <RI>
0

>  <Rbt.Current_Directory>
/home/itssahil/PROJECTS/Mol_Feturizer/New_Systems/rnas/3TD1

>  <Rbt.Executable>
rbdock ($Id: //depot/dev/client3/rdock/2013.1/src/exe/rbdock.cxx#4 $)

>  <Rbt.Library>
libRbt.so (2013.1, Build901 2013/11/27)

>  <Rbt.Parameter_File>
/export/apps/rDock/src/rDock_2013.1_src/data/scripts/dock_solv.prm

>  <Rbt.Receptor>
prm/pocket_docking_4.prm

>  <SCORE>
-15.5304

>  <SCORE.INTER>
-10.1116

>  <SCORE.INTER.CONST>
1

>  <SCORE.INTER.POLAR>
0

>  <SCORE.INTER.ROT>
6

>  <SCORE.INTER.SOLV>
13.0371

>  <SCORE.INTER.VDW>
-18.6868

>  <SCORE.INTER.norm>
-0.297401

>  <SCORE.INTRA>
-5.41873

>  <SCORE.INTRA.DIHEDRAL>
-8.94147

>  <SCORE.INTRA.DIHEDRAL.0>
19.5869

>  <SCORE.INTRA.POLAR>
0

>  <SCORE.INTRA.POLAR.0>
0

>  <SCORE.INTRA.REPUL>
0

>  <SCORE.INTRA.REPUL.0>
0

>  <SCORE.INTRA.SOLV>
-2.01905

>  <SCORE.INTRA.SOLV.lig_0>
-70.101

>  <SCORE.INTRA.VDW>
0.0615341

>  <SCORE.INTRA.VDW.0>
-3.39718

>  <SCORE.INTRA.norm>
-0.159374

>  <SCORE.RESTR>
0

>  <SCORE.RESTR.CAVITY>
0

>  <SCORE.RESTR.norm>
0

>  <SCORE.SYSTEM>
0

>  <SCORE.SYSTEM.CONST>
0

>  <SCORE.SYSTEM.DIHEDRAL>
0

>  <SCORE.SYSTEM.SOLV>
0

>  <SCORE.SYSTEM.norm>
0

>  <SCORE.heavy>
34

>  <SCORE.norm>
-0.456775

>  <RMSD>
8.796

$$$$
ligand
 OpenBabel11021811483D
libRbt.so/2013.1/901 2013/11/27
 34 36  0  0  0  0  0  0  0  0999 V2000
    8.7517    7.2013    4.8110 C   0  0  2  0  0  0  0  0  0  0  0  0
    9.0108    5.8346    4.4537 O   0  0  0  0  0  0  0  0  0  0  0  0
    7.8544    2.3449    6.6323 C   0  0  2  0  0  0  0  0  0  0  0  0
    7.8132    1.2883    7.6373 N   0  0  0  0  0  0  0  0  0  0  0  0
    5.9611    4.4500    9.0838 C   0  0  2  0  0  0  0  0  0  0  0  0
    8.7935    8.0620    3.4980 C   0  0  2  0  0  0  0  0  0  0  0  0
    7.7688    7.6189    2.5399 N   0  0  0  0  0  0  0  0  0  0  0  0
    9.3026    2.3704    6.0394 C   0  0  0  0  0  0  0  0  0  0  0  0
    4.6597    3.8362    9.7136 C   0  0  2  0  0  0  0  0  0  0  0  0
    4.8544    2.4554    9.9716 O   0  0  0  0  0  0  0  0  0  0  0  0
   10.1945    7.9505    2.8583 C   0  0  1  0  0  0  0  0  0  0  0  0
   10.2422    8.7423    1.6602 O   0  0  0  0  0  0  0  0  0  0  0  0
    9.3414    3.4891    4.9439 C   0  0  2  0  0  0  0  0  0  0  0  0
   10.6909    3.5666    4.3486 N   0  0  0  0  0  0  0  0  0  0  0  0
    3.4599    4.0623    8.7143 C   0  0  1  0  0  0  0  0  0  0  0  0
    2.1976    3.4806    9.2618 N   0  0  0  0  0  0  0  0  0  0  0  0
   11.2516    8.4133    3.8888 C   0  0  2  0  0  0  0  0  0  0  0  0
   12.5640    8.3048    3.3103 O   0  0  0  0  0  0  0  0  0  0  0  0
    8.9791    4.8699    5.5480 C   0  0  2  0  0  0  0  0  0  0  0  0
    3.2882    5.5998    8.4646 C   0  0  1  0  0  0  0  0  0  0  0  0
    2.9789    6.2521    9.6934 O   0  0  0  0  0  0  0  0  0  0  0  0
   11.1467    7.5270    5.1881 C   0  0  2  0  0  0  0  0  0  0  0  0
    9.7901    7.6321    5.7597 O   0  0  0  0  0  0  0  0  0  0  0  0
    7.5683    4.7981    6.1839 C   0  0  2  0  0  0  0  0  0  0  0  0
    7.2651    6.0701    6.7473 O   0  0  0  0  0  0  0  0  0  0  0  0
    4.6288    6.1664    7.8997 C   0  0  0  0  0  0  0  0  0  0  0  0
    5.7521    5.8811    8.8245 O   0  0  0  0  0  0  0  0  0  0  0  0
   12.1686    7.9626    6.2706 C   0  0  2  0  0  0  0  0  0  0  0  0
   12.1519    9.3824    6.3947 O   0  0  0  0  0  0  0  0  0  0  0  0
    7.5130    3.7366    7.3071 C   0  0  1  0  0  0  0  0  0  0  0  0
    6.1630    3.7426    7.8284 O   0  0  0  0  0  0  0  0  0  0  0  0
   13.5824    7.5391    5.9077 C   0  0  0  0  0  0  0  0  0  0  0  0
    2.1585    5.8981    7.4864 C   0  0  0  0  0  0  0  0  0  0  0  0
    1.9260    2.2153    8.5531 C   0  0  0  0  0  0  0  0  0  0  0  0
  1  2  1  6  0  0  0
  1  6  1  0  0  0  0
  1 23  1  0  0  0  0
  3  4  1  1  0  0  0
  3  8  1  0  0  0  0
  3 30  1  0  0  0  0
  5  9  1  0  0  0  0
  5 27  1  0  0  0  0
  5 31  1  6  0  0  0
  6  7  1  6  0  0  0
  6 11  1  0  0  0  0
  8 13  1  0  0  0  0
  9 10  1  6  0  0  0
  9 15  1  0  0  0  0
 11 12  1  6  0  0  0
 11 17  1  0  0  0  0
 13 14  1  1  0  0  0
 13 19  1  0  0  0  0
 15 16  1  1  0  0  0
 15 20  1  0  0  0  0
 16 34  1  0  0  0  0
 17 18  1  6  0  0  0
 17 22  1  0  0  0  0
 19  2  1  6  0  0  0
 19 24  1  0  0  0  0
 20 21  1  1  0  0  0
 20 26  1  0  0  0  0
 20 33  1  0  0  0  0
 22 23  1  1  0  0  0
 22 28  1  0  0  0  0
 24 25  1  1  0  0  0
 24 30  1  0  0  0  0
 26 27  1  0  0  0  0
 28 29  1  6  0  0  0
 28 32  1  0  0  0  0
 30 31  1  6  0  0  0
M  END
>  <CHROM.1>
-178.49731830,-177.66176572,-103.68847184,45.61958626,142.71045239,-157.20498804
7.70125839,5.58308112,6.40504929,0.57241069,0.39580142,-0.34557202

>  <Name>
ligand

>  <RI>
0

>  <Rbt.Current_Directory>
/home/itssahil/PROJECTS/Mol_Feturizer/New_Systems/rnas/3TD1

>  <Rbt.Executable>
rbdock ($Id: //depot/dev/client3/rdock/2013.1/src/exe/rbdock.cxx#4 $)

>  <Rbt.Library>
libRbt.so (2013.1, Build901 2013/11/27)

>  <Rbt.Parameter_File>
/export/apps/rDock/src/rDock_2013.1_src/data/scripts/dock_solv.prm

>  <Rbt.Receptor>
prm/pocket_docking_5.prm

>  <SCORE>
-16.6291

>  <SCORE.INTER>
-11.4516

>  <SCORE.INTER.CONST>
1

>  <SCORE.INTER.POLAR>
0

>  <SCORE.INTER.ROT>
6

>  <SCORE.INTER.SOLV>
16.1664

>  <SCORE.INTER.VDW>
-20.6232

>  <SCORE.INTER.norm>
-0.336811

>  <SCORE.INTRA>
-5.1775

>  <SCORE.INTRA.DIHEDRAL>
-10.6325

>  <SCORE.INTRA.DIHEDRAL.0>
19.5869

>  <SCORE.INTRA.POLAR>
0

>  <SCORE.INTRA.POLAR.0>
0

>  <SCORE.INTRA.REPUL>
0

>  <SCORE.INTRA.REPUL.0>
0

>  <SCORE.INTRA.SOLV>
-2.73287

>  <SCORE.INTRA.SOLV.lig_0>
-70.101

>  <SCORE.INTRA.VDW>
1.50518

>  <SCORE.INTRA.VDW.0>
-3.39718

>  <SCORE.INTRA.norm>
-0.152279

>  <SCORE.RESTR>
0

>  <SCORE.RESTR.CAVITY>
0

>  <SCORE.RESTR.norm>
0

>  <SCORE.SYSTEM>
0

>  <SCORE.SYSTEM.CONST>
0

>  <SCORE.SYSTEM.DIHEDRAL>
0

>  <SCORE.SYSTEM.SOLV>
0

>  <SCORE.SYSTEM.norm>
0

>  <SCORE.heavy>
34

>  <SCORE.norm>
-0.489091

>  <RMSD>
8.798

$$$$
ligand
 OpenBabel11021811483D
libRbt.so/2013.1/901 2013/11/27
 34 36  0  0  0  0  0  0  0  0999 V2000
   10.4419    6.9786    5.9913 C   0  0  2  0  0  0  0  0  0  0  0  0
   10.3819    5.6970    5.3460 O   0  0  0  0  0  0  0  0  0  0  0  0
    8.2143    2.2467    6.6338 C   0  0  2  0  0  0  0  0  0  0  0  0
    7.8212    1.0531    7.3747 N   0  0  0  0  0  0  0  0  0  0  0  0
    6.6430    4.4133    9.3172 C   0  0  2  0  0  0  0  0  0  0  0  0
   10.6705    8.0687    4.8840 C   0  0  2  0  0  0  0  0  0  0  0  0
    9.5667    8.0774    3.9115 N   0  0  0  0  0  0  0  0  0  0  0  0
    9.6799    2.0241    6.1318 C   0  0  0  0  0  0  0  0  0  0  0  0
    5.2517    3.9470    9.8776 C   0  0  2  0  0  0  0  0  0  0  0  0
    5.2529    2.5408   10.0606 O   0  0  0  0  0  0  0  0  0  0  0  0
   12.0060    7.7900    4.1607 C   0  0  1  0  0  0  0  0  0  0  0  0
   12.2255    8.7887    3.1512 O   0  0  0  0  0  0  0  0  0  0  0  0
   10.0947    3.2953    5.3164 C   0  0  2  0  0  0  0  0  0  0  0  0
   11.4775    3.1475    4.8188 N   0  0  0  0  0  0  0  0  0  0  0  0
    4.1258    4.3856    8.8631 C   0  0  1  0  0  0  0  0  0  0  0  0
    2.7803    3.9502    9.3442 N   0  0  0  0  0  0  0  0  0  0  0  0
   13.1464    7.7775    5.2062 C   0  0  2  0  0  0  0  0  0  0  0  0
   14.3966    7.5082    4.5481 O   0  0  0  0  0  0  0  0  0  0  0  0
   10.0108    4.5697    6.1949 C   0  0  2  0  0  0  0  0  0  0  0  0
    4.1680    5.9434    8.6980 C   0  0  1  0  0  0  0  0  0  0  0  0
    3.9081    6.5644    9.9541 O   0  0  0  0  0  0  0  0  0  0  0  0
   12.8504    6.6800    6.2982 C   0  0  2  0  0  0  0  0  0  0  0  0
   11.5562    6.9572    6.9512 O   0  0  0  0  0  0  0  0  0  0  0  0
    8.5659    4.7303    6.7302 C   0  0  2  0  0  0  0  0  0  0  0  0
    8.5175    5.8950    7.5478 O   0  0  0  0  0  0  0  0  0  0  0  0
    5.5896    6.3542    8.2006 C   0  0  0  0  0  0  0  0  0  0  0  0
    6.6343    5.8713    9.1354 O   0  0  0  0  0  0  0  0  0  0  0  0
   13.9505    6.6382    7.3907 C   0  0  2  0  0  0  0  0  0  0  0  0
   13.6642    5.5895    8.3124 O   0  0  0  0  0  0  0  0  0  0  0  0
    8.1459    3.5116    7.5846 C   0  0  1  0  0  0  0  0  0  0  0  0
    6.7900    3.7536    8.0286 O   0  0  0  0  0  0  0  0  0  0  0  0
   14.0164    7.9424    8.1682 C   0  0  0  0  0  0  0  0  0  0  0  0
    3.1204    6.4427    7.7105 C   0  0  0  0  0  0  0  0  0  0  0  0
    2.4571    2.6589    8.7078 C   0  0  0  0  0  0  0  0  0  0  0  0
  1  2  1  6  0  0  0
  1  6  1  0  0  0  0
  1 23  1  0  0  0  0
  3  4  1  1  0  0  0
  3  8  1  0  0  0  0
  3 30  1  0  0  0  0
  5  9  1  0  0  0  0
  5 27  1  0  0  0  0
  5 31  1  6  0  0  0
  6  7  1  6  0  0  0
  6 11  1  0  0  0  0
  8 13  1  0  0  0  0
  9 10  1  6  0  0  0
  9 15  1  0  0  0  0
 11 12  1  6  0  0  0
 11 17  1  0  0  0  0
 13 14  1  1  0  0  0
 13 19  1  0  0  0  0
 15 16  1  1  0  0  0
 15 20  1  0  0  0  0
 16 34  1  0  0  0  0
 17 18  1  6  0  0  0
 17 22  1  0  0  0  0
 19  2  1  6  0  0  0
 19 24  1  0  0  0  0
 20 21  1  1  0  0  0
 20 26  1  0  0  0  0
 20 33  1  0  0  0  0
 22 23  1  1  0  0  0
 22 28  1  0  0  0  0
 24 25  1  1  0  0  0
 24 30  1  0  0  0  0
 26 27  1  0  0  0  0
 28 29  1  1  0  0  0
 28 32  1  0  0  0  0
 30 31  1  6  0  0  0
M  END
>  <CHROM.1>
-172.78341920,-176.63658575,-95.11965840,-177.28629232,152.03804838,-153.09631960
8.77297062,5.36953125,7.09428495,0.35671998,0.34870517,-0.13755211

>  <Name>
ligand

>  <RI>
0

>  <Rbt.Current_Directory>
/home/itssahil/PROJECTS/Mol_Feturizer/New_Systems/rnas/3TD1

>  <Rbt.Executable>
rbdock ($Id: //depot/dev/client3/rdock/2013.1/src/exe/rbdock.cxx#4 $)

>  <Rbt.Library>
libRbt.so (2013.1, Build901 2013/11/27)

>  <Rbt.Parameter_File>
/export/apps/rDock/src/rDock_2013.1_src/data/scripts/dock_solv.prm

>  <Rbt.Receptor>
prm/pocket_docking_7.prm

>  <SCORE>
-16.7669

>  <SCORE.INTER>
-11.0342

>  <SCORE.INTER.CONST>
1

>  <SCORE.INTER.POLAR>
0

>  <SCORE.INTER.ROT>
6

>  <SCORE.INTER.SOLV>
14.5631

>  <SCORE.INTER.VDW>
-19.8105

>  <SCORE.INTER.norm>
-0.324536

>  <SCORE.INTRA>
-5.73265

>  <SCORE.INTRA.DIHEDRAL>
-12.2379

>  <SCORE.INTRA.DIHEDRAL.0>
19.5869

>  <SCORE.INTRA.POLAR>
0

>  <SCORE.INTRA.POLAR.0>
0

>  <SCORE.INTRA.REPUL>
0

>  <SCORE.INTRA.REPUL.0>
0

>  <SCORE.INTRA.SOLV>
-3.17035

>  <SCORE.INTRA.SOLV.lig_0>
-70.101

>  <SCORE.INTRA.VDW>
1.97147

>  <SCORE.INTRA.VDW.0>
-3.39718

>  <SCORE.INTRA.norm>
-0.168607

>  <SCORE.RESTR>
0

>  <SCORE.RESTR.CAVITY>
0

>  <SCORE.RESTR.norm>
0

>  <SCORE.SYSTEM>
0

>  <SCORE.SYSTEM.CONST>
0

>  <SCORE.SYSTEM.DIHEDRAL>
0

>  <SCORE.SYSTEM.SOLV>
0

>  <SCORE.SYSTEM.norm>
0

>  <SCORE.heavy>
34

>  <SCORE.norm>
-0.493143

>  <RMSD>
8.802

$$$$
ligand
 OpenBabel11021811483D
libRbt.so/2013.1/901 2013/11/27
 34 36  0  0  0  0  0  0  0  0999 V2000
    8.7252    7.3531    5.0005 C   0  0  2  0  0  0  0  0  0  0  0  0
    9.1952    6.0144    5.2232 O   0  0  0  0  0  0  0  0  0  0  0  0
    8.3428    3.2320    8.3526 C   0  0  2  0  0  0  0  0  0  0  0  0
    8.2524    2.6122    9.6700 N   0  0  0  0  0  0  0  0  0  0  0  0
    5.4516    4.6557    9.7541 C   0  0  2  0  0  0  0  0  0  0  0  0
    8.9300    7.6923    3.4807 C   0  0  2  0  0  0  0  0  0  0  0  0
    8.1668    6.7718    2.6237 N   0  0  0  0  0  0  0  0  0  0  0  0
    9.8455    3.5951    8.1084 C   0  0  0  0  0  0  0  0  0  0  0  0
    4.1515    3.7918    9.9293 C   0  0  2  0  0  0  0  0  0  0  0  0
    4.4943    2.4190   10.0220 O   0  0  0  0  0  0  0  0  0  0  0  0
   10.4328    7.6070    3.1363 C   0  0  1  0  0  0  0  0  0  0  0  0
   10.6285    7.9240    1.7485 O   0  0  0  0  0  0  0  0  0  0  0  0
    9.9470    4.2394    6.6845 C   0  0  2  0  0  0  0  0  0  0  0  0
   11.3472    4.6111    6.3968 N   0  0  0  0  0  0  0  0  0  0  0  0
    3.1997    4.0565    8.6991 C   0  0  1  0  0  0  0  0  0  0  0  0
    1.9515    3.2434    8.8105 N   0  0  0  0  0  0  0  0  0  0  0  0
   11.2115    8.5766    4.0567 C   0  0  2  0  0  0  0  0  0  0  0  0
   12.6155    8.5001    3.7545 O   0  0  0  0  0  0  0  0  0  0  0  0
    9.0604    5.5070    6.5847 C   0  0  2  0  0  0  0  0  0  0  0  0
    2.8524    5.5835    8.6433 C   0  0  1  0  0  0  0  0  0  0  0  0
    2.1648    5.9612    9.8331 O   0  0  0  0  0  0  0  0  0  0  0  0
   10.9505    8.1982    5.5645 C   0  0  2  0  0  0  0  0  0  0  0  0
    9.5049    8.2613    5.8554 O   0  0  0  0  0  0  0  0  0  0  0  0
    7.5897    5.1307    6.8936 C   0  0  2  0  0  0  0  0  0  0  0  0
    6.7985    6.3119    6.8141 O   0  0  0  0  0  0  0  0  0  0  0  0
    4.1822    6.3940    8.5332 C   0  0  0  0  0  0  0  0  0  0  0  0
    5.0874    6.0764    9.6637 O   0  0  0  0  0  0  0  0  0  0  0  0
   11.6875    9.1549    6.5378 C   0  0  2  0  0  0  0  0  0  0  0  0
   13.0945    9.0376    6.3436 O   0  0  0  0  0  0  0  0  0  0  0  0
    7.4492    4.5392    8.3155 C   0  0  1  0  0  0  0  0  0  0  0  0
    6.0509    4.2168    8.5030 O   0  0  0  0  0  0  0  0  0  0  0  0
   11.3837    8.8195    7.9887 C   0  0  0  0  0  0  0  0  0  0  0  0
    1.9516    5.9227    7.4620 C   0  0  0  0  0  0  0  0  0  0  0  0
    2.1945    1.9337    8.1759 C   0  0  0  0  0  0  0  0  0  0  0  0
  1  2  1  6  0  0  0
  1  6  1  0  0  0  0
  1 23  1  0  0  0  0
  3  4  1  1  0  0  0
  3  8  1  0  0  0  0
  3 30  1  0  0  0  0
  5  9  1  0  0  0  0
  5 27  1  0  0  0  0
  5 31  1  6  0  0  0
  6  7  1  6  0  0  0
  6 11  1  0  0  0  0
  8 13  1  0  0  0  0
  9 10  1  6  0  0  0
  9 15  1  0  0  0  0
 11 12  1  6  0  0  0
 11 17  1  0  0  0  0
 13 14  1  1  0  0  0
 13 19  1  0  0  0  0
 15 16  1  1  0  0  0
 15 20  1  0  0  0  0
 16 34  1  0  0  0  0
 17 18  1  6  0  0  0
 17 22  1  0  0  0  0
 19  2  1  6  0  0  0
 19 24  1  0  0  0  0
 20 21  1  1  0  0  0
 20 26  1  0  0  0  0
 20 33  1  0  0  0  0
 22 23  1  1  0  0  0
 22 28  1  0  0  0  0
 24 25  1  1  0  0  0
 24 30  1  0  0  0  0
 26 27  1  0  0  0  0
 28 29  1  1  0  0  0
 28 32  1  0  0  0  0
 30 31  1  6  0  0  0
M  END
>  <CHROM.1>
-178.79256645,-165.30831367,-88.44751848,-62.90663555,111.20361716,-161.11722251
7.61139768,5.84337874,6.97568071,0.65459343,-0.00252426,-0.85882529

>  <Name>
ligand

>  <RI>
0

>  <Rbt.Current_Directory>
/home/itssahil/PROJECTS/Mol_Feturizer/New_Systems/rnas/3TD1

>  <Rbt.Executable>
rbdock ($Id: //depot/dev/client3/rdock/2013.1/src/exe/rbdock.cxx#4 $)

>  <Rbt.Library>
libRbt.so (2013.1, Build901 2013/11/27)

>  <Rbt.Parameter_File>
/export/apps/rDock/src/rDock_2013.1_src/data/scripts/dock_solv.prm

>  <Rbt.Receptor>
prm/pocket_docking_4.prm

>  <SCORE>
-15.3856

>  <SCORE.INTER>
-9.83019

>  <SCORE.INTER.CONST>
1

>  <SCORE.INTER.POLAR>
0

>  <SCORE.INTER.ROT>
6

>  <SCORE.INTER.SOLV>
12.9942

>  <SCORE.INTER.VDW>
-18.4849

>  <SCORE.INTER.norm>
-0.289123

>  <SCORE.INTRA>
-5.55545

>  <SCORE.INTRA.DIHEDRAL>
-9.57547

>  <SCORE.INTRA.DIHEDRAL.0>
19.5869

>  <SCORE.INTRA.POLAR>
0

>  <SCORE.INTRA.POLAR.0>
0

>  <SCORE.INTRA.REPUL>
0

>  <SCORE.INTRA.REPUL.0>
0

>  <SCORE.INTRA.SOLV>
-1.88543

>  <SCORE.INTRA.SOLV.lig_0>
-70.101

>  <SCORE.INTRA.VDW>
0.175006

>  <SCORE.INTRA.VDW.0>
-3.39718

>  <SCORE.INTRA.norm>
-0.163395

>  <SCORE.RESTR>
0

>  <SCORE.RESTR.CAVITY>
0

>  <SCORE.RESTR.norm>
0

>  <SCORE.SYSTEM>
0

>  <SCORE.SYSTEM.CONST>
0

>  <SCORE.SYSTEM.DIHEDRAL>
0

>  <SCORE.SYSTEM.SOLV>
0

>  <SCORE.SYSTEM.norm>
0

>  <SCORE.heavy>
34

>  <SCORE.norm>
-0.452519

>  <RMSD>
8.813

$$$$
ligand
 OpenBabel11021811483D
libRbt.so/2013.1/901 2013/11/27
 34 36  0  0  0  0  0  0  0  0999 V2000
   11.8432    4.6149    2.6432 C   0  0  2  0  0  0  0  0  0  0  0  0
   11.2472    5.6150    3.4840 O   0  0  0  0  0  0  0  0  0  0  0  0
    7.9959    5.5048    6.2550 C   0  0  2  0  0  0  0  0  0  0  0  0
    6.6676    5.3133    6.8269 N   0  0  0  0  0  0  0  0  0  0  0  0
    7.6409    2.4475    7.3809 C   0  0  2  0  0  0  0  0  0  0  0  0
   13.3700    4.9523    2.4960 C   0  0  2  0  0  0  0  0  0  0  0  0
   14.0452    4.9385    3.8029 N   0  0  0  0  0  0  0  0  0  0  0  0
    7.8373    6.4307    5.0032 C   0  0  0  0  0  0  0  0  0  0  0  0
    7.9877    1.8913    8.8083 C   0  0  2  0  0  0  0  0  0  0  0  0
    8.1569    2.9670    9.7165 O   0  0  0  0  0  0  0  0  0  0  0  0
   13.5253    6.3410    1.8388 C   0  0  1  0  0  0  0  0  0  0  0  0
   14.9204    6.6529    1.6938 O   0  0  0  0  0  0  0  0  0  0  0  0
    9.2660    6.6557    4.4022 C   0  0  2  0  0  0  0  0  0  0  0  0
    9.1812    7.5213    3.2084 N   0  0  0  0  0  0  0  0  0  0  0  0
    9.3014    1.0233    8.7067 C   0  0  1  0  0  0  0  0  0  0  0  0
    9.6838    0.4824   10.0455 N   0  0  0  0  0  0  0  0  0  0  0  0
   12.7995    6.3303    0.4725 C   0  0  2  0  0  0  0  0  0  0  0  0
   12.9265    7.6219   -0.1473 O   0  0  0  0  0  0  0  0  0  0  0  0
    9.9172    5.3079    3.9998 C   0  0  2  0  0  0  0  0  0  0  0  0
    9.0607   -0.1479    7.6939 C   0  0  1  0  0  0  0  0  0  0  0  0
    8.0068   -0.9815    8.1687 O   0  0  0  0  0  0  0  0  0  0  0  0
   11.2803    5.9670    0.6838 C   0  0  2  0  0  0  0  0  0  0  0  0
   11.1652    4.6492    1.3383 O   0  0  0  0  0  0  0  0  0  0  0  0
   10.0031    4.3876    5.2431 C   0  0  2  0  0  0  0  0  0  0  0  0
   10.5866    3.1509    4.8461 O   0  0  0  0  0  0  0  0  0  0  0  0
    8.6588    0.4606    6.3135 C   0  0  0  0  0  0  0  0  0  0  0  0
    7.4627    1.3264    6.4480 O   0  0  0  0  0  0  0  0  0  0  0  0
   10.5048    5.9159   -0.6585 C   0  0  2  0  0  0  0  0  0  0  0  0
   10.6282    7.1693   -1.3256 O   0  0  0  0  0  0  0  0  0  0  0  0
    8.6002    4.1041    5.8287 C   0  0  1  0  0  0  0  0  0  0  0  0
    8.7879    3.2484    6.9806 O   0  0  0  0  0  0  0  0  0  0  0  0
    9.0257    5.6434   -0.4398 C   0  0  0  0  0  0  0  0  0  0  0  0
   10.2983   -1.0204    7.5233 C   0  0  0  0  0  0  0  0  0  0  0  0
   10.7986    1.2936   10.5709 C   0  0  0  0  0  0  0  0  0  0  0  0
  1  2  1  1  0  0  0
  1  6  1  0  0  0  0
  1 23  1  0  0  0  0
  3  4  1  6  0  0  0
  3  8  1  0  0  0  0
  3 30  1  0  0  0  0
  5  9  1  0  0  0  0
  5 27  1  0  0  0  0
  5 31  1  6  0  0  0
  6  7  1  1  0  0  0
  6 11  1  0  0  0  0
  8 13  1  0  0  0  0
  9 10  1  1  0  0  0
  9 15  1  0  0  0  0
 11 12  1  6  0  0  0
 11 17  1  0  0  0  0
 13 14  1  6  0  0  0
 13 19  1  0  0  0  0
 15 16  1  1  0  0  0
 15 20  1  0  0  0  0
 16 34  1  0  0  0  0
 17 18  1  1  0  0  0
 17 22  1  0  0  0  0
 19  2  1  1  0  0  0
 19 24  1  0  0  0  0
 20 21  1  1  0  0  0
 20 26  1  0  0  0  0
 20 33  1  0  0  0  0
 22 23  1  6  0  0  0
 22 28  1  0  0  0  0
 24 25  1  6  0  0  0
 24 30  1  0  0  0  0
 26 27  1  0  0  0  0
 28 29  1  1  0  0  0
 28 32  1  0  0  0  0
 30 31  1  1  0  0  0
M  END
>  <CHROM.1>
-165.89439056,-159.27527053,-102.52517215,-57.24964980,86.81844550,-167.09437620
10.10394438,4.04222501,4.68862782,-1.21953704,-0.35121104,2.29819805

>  <Name>
ligand

>  <RI>
0

>  <Rbt.Current_Directory>
/home/itssahil/PROJECTS/Mol_Feturizer/New_Systems/rnas/3TD1

>  <Rbt.Executable>
rbdock ($Id: //depot/dev/client3/rdock/2013.1/src/exe/rbdock.cxx#4 $)

>  <Rbt.Library>
libRbt.so (2013.1, Build901 2013/11/27)

>  <Rbt.Parameter_File>
/export/apps/rDock/src/rDock_2013.1_src/data/scripts/dock_solv.prm

>  <Rbt.Receptor>
prm/pocket_docking_7.prm

>  <SCORE>
-12.7032

>  <SCORE.INTER>
-5.93129

>  <SCORE.INTER.CONST>
1

>  <SCORE.INTER.POLAR>
0

>  <SCORE.INTER.ROT>
6

>  <SCORE.INTER.SOLV>
10.9591

>  <SCORE.INTER.VDW>
-15.2072

>  <SCORE.INTER.norm>
-0.17445

>  <SCORE.INTRA>
-6.77189

>  <SCORE.INTRA.DIHEDRAL>
-11.9139

>  <SCORE.INTRA.DIHEDRAL.0>
19.5869

>  <SCORE.INTRA.POLAR>
0

>  <SCORE.INTRA.POLAR.0>
0

>  <SCORE.INTRA.REPUL>
0

>  <SCORE.INTRA.REPUL.0>
0

>  <SCORE.INTRA.SOLV>
-0.958132

>  <SCORE.INTRA.SOLV.lig_0>
-70.101

>  <SCORE.INTRA.VDW>
-0.335861

>  <SCORE.INTRA.VDW.0>
-3.39718

>  <SCORE.INTRA.norm>
-0.199173

>  <SCORE.RESTR>
0

>  <SCORE.RESTR.CAVITY>
0

>  <SCORE.RESTR.norm>
0

>  <SCORE.SYSTEM>
0

>  <SCORE.SYSTEM.CONST>
0

>  <SCORE.SYSTEM.DIHEDRAL>
0

>  <SCORE.SYSTEM.SOLV>
0

>  <SCORE.SYSTEM.norm>
0

>  <SCORE.heavy>
34

>  <SCORE.norm>
-0.373623

>  <RMSD>
8.838

$$$$
ligand
 OpenBabel11021811483D
libRbt.so/2013.1/901 2013/11/27
 34 36  0  0  0  0  0  0  0  0999 V2000
   -1.4183    0.5943    5.8064 C   0  0  2  0  0  0  0  0  0  0  0  0
   -0.4408    1.5408    5.3468 O   0  0  0  0  0  0  0  0  0  0  0  0
    0.3661    5.7083    5.8389 C   0  0  2  0  0  0  0  0  0  0  0  0
    0.2943    7.0887    6.3052 N   0  0  0  0  0  0  0  0  0  0  0  0
    2.4073    6.5048    7.7263 C   0  0  2  0  0  0  0  0  0  0  0  0
   -0.8964   -0.0275    7.1509 C   0  0  2  0  0  0  0  0  0  0  0  0
   -0.7167    1.0081    8.1803 N   0  0  0  0  0  0  0  0  0  0  0  0
   -1.0602    5.3113    5.3312 C   0  0  0  0  0  0  0  0  0  0  0  0
    3.2933    6.9783    6.5188 C   0  0  2  0  0  0  0  0  0  0  0  0
    2.5743    6.8281    5.3058 O   0  0  0  0  0  0  0  0  0  0  0  0
    0.4435   -0.7505    6.8932 C   0  0  1  0  0  0  0  0  0  0  0  0
    0.9230   -1.3288    8.1181 O   0  0  0  0  0  0  0  0  0  0  0  0
   -0.9786    3.8370    4.8088 C   0  0  2  0  0  0  0  0  0  0  0  0
   -2.3020    3.4005    4.3195 N   0  0  0  0  0  0  0  0  0  0  0  0
    4.6201    6.1248    6.5006 C   0  0  1  0  0  0  0  0  0  0  0  0
    5.4932    6.5271    5.3573 N   0  0  0  0  0  0  0  0  0  0  0  0
    0.2282   -1.8260    5.8022 C   0  0  2  0  0  0  0  0  0  0  0  0
    1.4714   -2.5014    5.5435 O   0  0  0  0  0  0  0  0  0  0  0  0
   -0.5165    2.8749    5.9330 C   0  0  2  0  0  0  0  0  0  0  0  0
    5.3739    6.3265    7.8596 C   0  0  1  0  0  0  0  0  0  0  0  0
    5.7246    7.6994    8.0125 O   0  0  0  0  0  0  0  0  0  0  0  0
   -0.3131   -1.1447    4.4879 C   0  0  2  0  0  0  0  0  0  0  0  0
   -1.5779   -0.4392    4.7720 O   0  0  0  0  0  0  0  0  0  0  0  0
    0.8675    3.3286    6.4607 C   0  0  2  0  0  0  0  0  0  0  0  0
    1.2625    2.4427    7.5030 O   0  0  0  0  0  0  0  0  0  0  0  0
    4.4256    5.9006    9.0243 C   0  0  0  0  0  0  0  0  0  0  0  0
    3.1581    6.6684    8.9787 O   0  0  0  0  0  0  0  0  0  0  0  0
   -0.5730   -2.1807    3.3630 C   0  0  2  0  0  0  0  0  0  0  0  0
   -1.0289   -1.5063    2.1932 O   0  0  0  0  0  0  0  0  0  0  0  0
    0.8065    4.7643    7.0321 C   0  0  1  0  0  0  0  0  0  0  0  0
    2.1393    5.0944    7.4893 O   0  0  0  0  0  0  0  0  0  0  0  0
   -1.6343   -3.1906    3.7671 C   0  0  0  0  0  0  0  0  0  0  0  0
    6.6595    5.5113    7.9274 C   0  0  0  0  0  0  0  0  0  0  0  0
    6.1308    5.3131    4.8126 C   0  0  0  0  0  0  0  0  0  0  0  0
  1  2  1  6  0  0  0
  1  6  1  0  0  0  0
  1 23  1  0  0  0  0
  3  4  1  1  0  0  0
  3  8  1  0  0  0  0
  3 30  1  0  0  0  0
  5  9  1  0  0  0  0
  5 27  1  0  0  0  0
  5 31  1  6  0  0  0
  6  7  1  1  0  0  0
  6 11  1  0  0  0  0
  8 13  1  0  0  0  0
  9 10  1  6  0  0  0
  9 15  1  0  0  0  0
 11 12  1  1  0  0  0
 11 17  1  0  0  0  0
 13 14  1  1  0  0  0
 13 19  1  0  0  0  0
 15 16  1  6  0  0  0
 15 20  1  0  0  0  0
 16 34  1  0  0  0  0
 17 18  1  6  0  0  0
 17 22  1  0  0  0  0
 19  2  1  6  0  0  0
 19 24  1  0  0  0  0
 20 21  1  1  0  0  0
 20 26  1  0  0  0  0
 20 33  1  0  0  0  0
 22 23  1  1  0  0  0
 22 28  1  0  0  0  0
 24 25  1  1  0  0  0
 24 30  1  0  0  0  0
 26 27  1  0  0  0  0
 28 29  1  6  0  0  0
 28 32  1  0  0  0  0
 30 31  1  6  0  0  0
M  END
>  <CHROM.1>
-83.27744768,-111.16327317,-142.20130446,-178.61904328,47.83292552,-105.14156093
1.35292860,2.98956671,6.18948738,2.17018923,0.37449271,-3.10642668

>  <Name>
ligand

>  <RI>
0

>  <Rbt.Current_Directory>
/home/itssahil/PROJECTS/Mol_Feturizer/New_Systems/rnas/3TD1

>  <Rbt.Executable>
rbdock ($Id: //depot/dev/client3/rdock/2013.1/src/exe/rbdock.cxx#4 $)

>  <Rbt.Library>
libRbt.so (2013.1, Build901 2013/11/27)

>  <Rbt.Parameter_File>
/export/apps/rDock/src/rDock_2013.1_src/data/scripts/dock_solv.prm

>  <Rbt.Receptor>
prm/blind_docking_80.prm

>  <SCORE>
59.1233

>  <SCORE.INTER>
40.2731

>  <SCORE.INTER.CONST>
1

>  <SCORE.INTER.POLAR>
0

>  <SCORE.INTER.ROT>
6

>  <SCORE.INTER.SOLV>
17.8679

>  <SCORE.INTER.VDW>
13.2928

>  <SCORE.INTER.norm>
1.1845

>  <SCORE.INTRA>
5.79501

>  <SCORE.INTRA.DIHEDRAL>
-2.65118

>  <SCORE.INTRA.DIHEDRAL.0>
19.5869

>  <SCORE.INTRA.POLAR>
0

>  <SCORE.INTRA.POLAR.0>
0

>  <SCORE.INTRA.REPUL>
0

>  <SCORE.INTRA.REPUL.0>
0

>  <SCORE.INTRA.SOLV>
3.1251

>  <SCORE.INTRA.SOLV.lig_0>
-70.101

>  <SCORE.INTRA.VDW>
5.55805

>  <SCORE.INTRA.VDW.0>
-3.39718

>  <SCORE.INTRA.norm>
0.170441

>  <SCORE.RESTR>
13.0552

>  <SCORE.RESTR.CAVITY>
13.0552

>  <SCORE.RESTR.norm>
0.383976

>  <SCORE.SYSTEM>
0

>  <SCORE.SYSTEM.CONST>
0

>  <SCORE.SYSTEM.DIHEDRAL>
0

>  <SCORE.SYSTEM.SOLV>
0

>  <SCORE.SYSTEM.norm>
0

>  <SCORE.heavy>
34

>  <SCORE.norm>
1.73892

>  <RMSD>
8.871

$$$$
ligand
 OpenBabel11021811483D
libRbt.so/2013.1/901 2013/11/27
 34 36  0  0  0  0  0  0  0  0999 V2000
    8.9221    8.9667    2.5731 C   0  0  2  0  0  0  0  0  0  0  0  0
    8.7098    7.5498    2.4738 O   0  0  0  0  0  0  0  0  0  0  0  0
    7.9577    4.3918    5.2528 C   0  0  2  0  0  0  0  0  0  0  0  0
    8.0278    3.5384    6.4338 N   0  0  0  0  0  0  0  0  0  0  0  0
    5.6185    6.8847    6.9625 C   0  0  2  0  0  0  0  0  0  0  0  0
    8.5061    9.6164    1.2051 C   0  0  2  0  0  0  0  0  0  0  0  0
    7.0866    9.3681    0.9093 N   0  0  0  0  0  0  0  0  0  0  0  0
    9.4047    4.4982    4.6659 C   0  0  0  0  0  0  0  0  0  0  0  0
    6.1597    6.6352    8.4157 C   0  0  2  0  0  0  0  0  0  0  0  0
    7.5773    6.6016    8.4026 O   0  0  0  0  0  0  0  0  0  0  0  0
    9.3871    9.0385    0.0762 C   0  0  1  0  0  0  0  0  0  0  0  0
    9.0171    9.6347   -1.1777 O   0  0  0  0  0  0  0  0  0  0  0  0
    9.3264    5.3954    3.3845 C   0  0  2  0  0  0  0  0  0  0  0  0
   10.6689    5.5391    2.7856 N   0  0  0  0  0  0  0  0  0  0  0  0
    5.5655    5.2745    8.9493 C   0  0  1  0  0  0  0  0  0  0  0  0
    6.0642    4.9826   10.3268 N   0  0  0  0  0  0  0  0  0  0  0  0
   10.8726    9.3052    0.4167 C   0  0  2  0  0  0  0  0  0  0  0  0
   11.7068    8.7625   -0.6217 O   0  0  0  0  0  0  0  0  0  0  0  0
    8.7755    6.8035    3.7259 C   0  0  2  0  0  0  0  0  0  0  0  0
    4.0011    5.3651    8.9436 C   0  0  1  0  0  0  0  0  0  0  0  0
    3.5798    6.4118    9.8143 O   0  0  0  0  0  0  0  0  0  0  0  0
   11.2228    8.6473    1.8056 C   0  0  2  0  0  0  0  0  0  0  0  0
   10.3466    9.1983    2.8577 O   0  0  0  0  0  0  0  0  0  0  0  0
    7.3705    6.6646    4.3635 C   0  0  2  0  0  0  0  0  0  0  0  0
    6.8932    7.9670    4.6850 O   0  0  0  0  0  0  0  0  0  0  0  0
    3.5244    5.6763    7.4899 C   0  0  0  0  0  0  0  0  0  0  0  0
    4.1498    6.9228    6.9863 O   0  0  0  0  0  0  0  0  0  0  0  0
   12.6973    8.9042    2.2130 C   0  0  2  0  0  0  0  0  0  0  0  0
   13.5620    8.4526    1.1739 O   0  0  0  0  0  0  0  0  0  0  0  0
    7.4244    5.8261    5.6618 C   0  0  1  0  0  0  0  0  0  0  0  0
    6.0725    5.7502    6.1725 O   0  0  0  0  0  0  0  0  0  0  0  0
   13.0635    8.1596    3.4862 C   0  0  0  0  0  0  0  0  0  0  0  0
    3.3513    4.0739    9.4257 C   0  0  0  0  0  0  0  0  0  0  0  0
    6.7283    3.6652   10.3087 C   0  0  0  0  0  0  0  0  0  0  0  0
  1  2  1  6  0  0  0
  1  6  1  0  0  0  0
  1 23  1  0  0  0  0
  3  4  1  1  0  0  0
  3  8  1  0  0  0  0
  3 30  1  0  0  0  0
  5  9  1  0  0  0  0
  5 27  1  0  0  0  0
  5 31  1  6  0  0  0
  6  7  1  6  0  0  0
  6 11  1  0  0  0  0
  8 13  1  0  0  0  0
  9 10  1  6  0  0  0
  9 15  1  0  0  0  0
 11 12  1  6  0  0  0
 11 17  1  0  0  0  0
 13 14  1  1  0  0  0
 13 19  1  0  0  0  0
 15 16  1  1  0  0  0
 15 20  1  0  0  0  0
 16 34  1  0  0  0  0
 17 18  1  6  0  0  0
 17 22  1  0  0  0  0
 19  2  1  6  0  0  0
 19 24  1  0  0  0  0
 20 21  1  1  0  0  0
 20 26  1  0  0  0  0
 20 33  1  0  0  0  0
 22 23  1  1  0  0  0
 22 28  1  0  0  0  0
 24 25  1  1  0  0  0
 24 30  1  0  0  0  0
 26 27  1  0  0  0  0
 28 29  1  6  0  0  0
 28 32  1  0  0  0  0
 30 31  1  6  0  0  0
M  END
>  <CHROM.1>
-167.82566205,-148.25476231,-123.12366092,-55.16541845,161.23101762,-82.89149309
8.04414397,6.91452982,4.72002227,0.95080125,0.26251994,-0.96988904

>  <Name>
ligand

>  <RI>
0

>  <Rbt.Current_Directory>
/home/itssahil/PROJECTS/Mol_Feturizer/New_Systems/rnas/3TD1

>  <Rbt.Executable>
rbdock ($Id: //depot/dev/client3/rdock/2013.1/src/exe/rbdock.cxx#4 $)

>  <Rbt.Library>
libRbt.so (2013.1, Build901 2013/11/27)

>  <Rbt.Parameter_File>
/export/apps/rDock/src/rDock_2013.1_src/data/scripts/dock_solv.prm

>  <Rbt.Receptor>
prm/pocket_docking_7.prm

>  <SCORE>
-13.0497

>  <SCORE.INTER>
-8.26443

>  <SCORE.INTER.CONST>
1

>  <SCORE.INTER.POLAR>
0

>  <SCORE.INTER.ROT>
6

>  <SCORE.INTER.SOLV>
17.9489

>  <SCORE.INTER.VDW>
-19.0926

>  <SCORE.INTER.norm>
-0.243071

>  <SCORE.INTRA>
-4.78532

>  <SCORE.INTRA.DIHEDRAL>
-9.73567

>  <SCORE.INTRA.DIHEDRAL.0>
19.5869

>  <SCORE.INTRA.POLAR>
0

>  <SCORE.INTRA.POLAR.0>
0

>  <SCORE.INTRA.REPUL>
0

>  <SCORE.INTRA.REPUL.0>
0

>  <SCORE.INTRA.SOLV>
0.64049

>  <SCORE.INTRA.SOLV.lig_0>
-70.101

>  <SCORE.INTRA.VDW>
-0.237724

>  <SCORE.INTRA.VDW.0>
-3.39718

>  <SCORE.INTRA.norm>
-0.140745

>  <SCORE.RESTR>
0

>  <SCORE.RESTR.CAVITY>
0

>  <SCORE.RESTR.norm>
0

>  <SCORE.SYSTEM>
0

>  <SCORE.SYSTEM.CONST>
0

>  <SCORE.SYSTEM.DIHEDRAL>
0

>  <SCORE.SYSTEM.SOLV>
0

>  <SCORE.SYSTEM.norm>
0

>  <SCORE.heavy>
34

>  <SCORE.norm>
-0.383816

>  <RMSD>
8.886

$$$$
ligand
 OpenBabel11021811483D
libRbt.so/2013.1/901 2013/11/27
 34 36  0  0  0  0  0  0  0  0999 V2000
   10.8758    5.6202    9.3224 C   0  0  2  0  0  0  0  0  0  0  0  0
    9.8153    5.8079    8.3723 O   0  0  0  0  0  0  0  0  0  0  0  0
    6.4270    3.3878    7.4112 C   0  0  2  0  0  0  0  0  0  0  0  0
    5.2634    2.5175    7.5406 N   0  0  0  0  0  0  0  0  0  0  0  0
    4.4628    6.6189    8.0540 C   0  0  2  0  0  0  0  0  0  0  0  0
   10.4852    6.3787   10.6410 C   0  0  2  0  0  0  0  0  0  0  0  0
    9.2375    5.8462   11.2101 N   0  0  0  0  0  0  0  0  0  0  0  0
    7.6175    2.6901    8.1499 C   0  0  0  0  0  0  0  0  0  0  0  0
    3.5159    6.0293    9.1599 C   0  0  2  0  0  0  0  0  0  0  0  0
    4.2723    5.2659   10.0850 O   0  0  0  0  0  0  0  0  0  0  0  0
   10.3235    7.8837   10.3360 C   0  0  1  0  0  0  0  0  0  0  0  0
    9.9737    8.5852   11.5402 O   0  0  0  0  0  0  0  0  0  0  0  0
    8.8731    3.6128    7.9916 C   0  0  2  0  0  0  0  0  0  0  0  0
   10.0338    3.0083    8.6765 N   0  0  0  0  0  0  0  0  0  0  0  0
    2.4137    5.1428    8.4608 C   0  0  1  0  0  0  0  0  0  0  0  0
    1.4940    4.5442    9.4744 N   0  0  0  0  0  0  0  0  0  0  0  0
   11.6448    8.4149    9.7313 C   0  0  2  0  0  0  0  0  0  0  0  0
   11.5057    9.8147    9.4317 O   0  0  0  0  0  0  0  0  0  0  0  0
    8.6097    5.0165    8.5942 C   0  0  2  0  0  0  0  0  0  0  0  0
    1.6090    6.0322    7.4524 C   0  0  1  0  0  0  0  0  0  0  0  0
    0.9579    7.0854    8.1580 O   0  0  0  0  0  0  0  0  0  0  0  0
   11.9924    7.6034    8.4255 C   0  0  2  0  0  0  0  0  0  0  0  0
   12.1125    6.1672    8.7436 O   0  0  0  0  0  0  0  0  0  0  0  0
    7.3879    5.6570    7.8893 C   0  0  2  0  0  0  0  0  0  0  0  0
    7.1540    6.9355    8.4708 O   0  0  0  0  0  0  0  0  0  0  0  0
    2.6069    6.6408    6.4174 C   0  0  0  0  0  0  0  0  0  0  0  0
    3.6716    7.4118    7.1032 O   0  0  0  0  0  0  0  0  0  0  0  0
   13.3246    8.0760    7.7870 C   0  0  2  0  0  0  0  0  0  0  0  0
   13.2084    9.4441    7.4049 O   0  0  0  0  0  0  0  0  0  0  0  0
    6.1183    4.7933    8.0730 C   0  0  1  0  0  0  0  0  0  0  0  0
    5.0434    5.4685    7.3781 O   0  0  0  0  0  0  0  0  0  0  0  0
   13.6673    7.2688    6.5458 C   0  0  0  0  0  0  0  0  0  0  0  0
    0.5370    5.2371    6.7173 C   0  0  0  0  0  0  0  0  0  0  0  0
    1.6430    3.0772    9.4249 C   0  0  0  0  0  0  0  0  0  0  0  0
  1  2  1  6  0  0  0
  1  6  1  0  0  0  0
  1 23  1  0  0  0  0
  3  4  1  1  0  0  0
  3  8  1  0  0  0  0
  3 30  1  0  0  0  0
  5  9  1  0  0  0  0
  5 27  1  0  0  0  0
  5 31  1  6  0  0  0
  6  7  1  6  0  0  0
  6 11  1  0  0  0  0
  8 13  1  0  0  0  0
  9 10  1  1  0  0  0
  9 15  1  0  0  0  0
 11 12  1  1  0  0  0
 11 17  1  0  0  0  0
 13 14  1  1  0  0  0
 13 19  1  0  0  0  0
 15 16  1  1  0  0  0
 15 20  1  0  0  0  0
 16 34  1  0  0  0  0
 17 18  1  6  0  0  0
 17 22  1  0  0  0  0
 19  2  1  6  0  0  0
 19 24  1  0  0  0  0
 20 21  1  1  0  0  0
 20 26  1  0  0  0  0
 20 33  1  0  0  0  0
 22 23  1  1  0  0  0
 22 28  1  0  0  0  0
 24 25  1  1  0  0  0
 24 30  1  0  0  0  0
 26 27  1  0  0  0  0
 28 29  1  6  0  0  0
 28 32  1  0  0  0  0
 30 31  1  6  0  0  0
M  END
>  <CHROM.1>
-76.01286929,-82.33997045,-116.18776161,-61.72180743,166.71656610,-77.61438124
7.29144171,6.01700457,8.53334100,-0.23631122,0.06198393,-3.07669283

>  <Name>
ligand

>  <RI>
0

>  <Rbt.Current_Directory>
/home/itssahil/PROJECTS/Mol_Feturizer/New_Systems/rnas/3TD1

>  <Rbt.Executable>
rbdock ($Id: //depot/dev/client3/rdock/2013.1/src/exe/rbdock.cxx#4 $)

>  <Rbt.Library>
libRbt.so (2013.1, Build901 2013/11/27)

>  <Rbt.Parameter_File>
/export/apps/rDock/src/rDock_2013.1_src/data/scripts/dock_solv.prm

>  <Rbt.Receptor>
prm/pocket_docking_6.prm

>  <SCORE>
-10.5186

>  <SCORE.INTER>
-6.37562

>  <SCORE.INTER.CONST>
1

>  <SCORE.INTER.POLAR>
0

>  <SCORE.INTER.ROT>
6

>  <SCORE.INTER.SOLV>
16.4558

>  <SCORE.INTER.VDW>
-17.3357

>  <SCORE.INTER.norm>
-0.187518

>  <SCORE.INTRA>
-4.14295

>  <SCORE.INTRA.DIHEDRAL>
-12.6855

>  <SCORE.INTRA.DIHEDRAL.0>
19.5869

>  <SCORE.INTRA.POLAR>
0

>  <SCORE.INTRA.POLAR.0>
0

>  <SCORE.INTRA.REPUL>
0

>  <SCORE.INTRA.REPUL.0>
0

>  <SCORE.INTRA.SOLV>
1.8608

>  <SCORE.INTRA.SOLV.lig_0>
-70.101

>  <SCORE.INTRA.VDW>
1.26939

>  <SCORE.INTRA.VDW.0>
-3.39718

>  <SCORE.INTRA.norm>
-0.121851

>  <SCORE.RESTR>
0

>  <SCORE.RESTR.CAVITY>
0

>  <SCORE.RESTR.norm>
0

>  <SCORE.SYSTEM>
0

>  <SCORE.SYSTEM.CONST>
0

>  <SCORE.SYSTEM.DIHEDRAL>
0

>  <SCORE.SYSTEM.SOLV>
0

>  <SCORE.SYSTEM.norm>
0

>  <SCORE.heavy>
34

>  <SCORE.norm>
-0.30937

>  <RMSD>
8.909

$$$$
ligand
 OpenBabel11021811483D
libRbt.so/2013.1/901 2013/11/27
 34 36  0  0  0  0  0  0  0  0999 V2000
    8.3608    7.7036    4.4744 C   0  0  2  0  0  0  0  0  0  0  0  0
    8.5122    6.2917    4.2600 O   0  0  0  0  0  0  0  0  0  0  0  0
    7.1050    3.0912    6.7173 C   0  0  2  0  0  0  0  0  0  0  0  0
    6.9701    2.1467    7.8209 N   0  0  0  0  0  0  0  0  0  0  0  0
    5.1437    5.6866    8.6737 C   0  0  2  0  0  0  0  0  0  0  0  0
    8.5244    8.4247    3.0888 C   0  0  2  0  0  0  0  0  0  0  0  0
    7.5000    7.9765    2.1328 N   0  0  0  0  0  0  0  0  0  0  0  0
    8.5806    3.0023    6.2032 C   0  0  0  0  0  0  0  0  0  0  0  0
    3.9508    5.1325    9.5323 C   0  0  2  0  0  0  0  0  0  0  0  0
    4.3375    3.9285   10.1739 O   0  0  0  0  0  0  0  0  0  0  0  0
    9.9323    8.1345    2.5249 C   0  0  1  0  0  0  0  0  0  0  0  0
   10.0918    8.7980    1.2604 O   0  0  0  0  0  0  0  0  0  0  0  0
    8.7201    3.9991    5.0033 C   0  0  2  0  0  0  0  0  0  0  0  0
   10.0994    3.9653    4.4761 N   0  0  0  0  0  0  0  0  0  0  0  0
    2.7124    4.8967    8.5835 C   0  0  1  0  0  0  0  0  0  0  0  0
    1.5524    4.3531    9.3518 N   0  0  0  0  0  0  0  0  0  0  0  0
   10.9882    8.6066    3.5524 C   0  0  2  0  0  0  0  0  0  0  0  0
   12.3060    8.3328    3.0452 O   0  0  0  0  0  0  0  0  0  0  0  0
    8.3863    5.4474    5.4435 C   0  0  2  0  0  0  0  0  0  0  0  0
    2.3271    6.2542    7.9022 C   0  0  1  0  0  0  0  0  0  0  0  0
    1.9550    7.2012    8.9002 O   0  0  0  0  0  0  0  0  0  0  0  0
   10.7600    7.8641    4.9240 C   0  0  2  0  0  0  0  0  0  0  0  0
    9.3981    8.1375    5.4227 O   0  0  0  0  0  0  0  0  0  0  0  0
    6.9440    5.4934    6.0070 C   0  0  2  0  0  0  0  0  0  0  0  0
    6.6667    6.8272    6.4212 O   0  0  0  0  0  0  0  0  0  0  0  0
    3.5665    6.7880    7.1171 C   0  0  0  0  0  0  0  0  0  0  0  0
    4.7358    6.9360    8.0167 O   0  0  0  0  0  0  0  0  0  0  0  0
   11.7766    8.3173    6.0043 C   0  0  2  0  0  0  0  0  0  0  0  0
   13.0991    8.0139    5.5681 O   0  0  0  0  0  0  0  0  0  0  0  0
    6.7890    4.5569    7.2279 C   0  0  1  0  0  0  0  0  0  0  0  0
    5.4163    4.6661    7.6729 O   0  0  0  0  0  0  0  0  0  0  0  0
   11.5426    7.6050    7.3263 C   0  0  0  0  0  0  0  0  0  0  0  0
    1.1488    6.1017    6.9483 C   0  0  0  0  0  0  0  0  0  0  0  0
    1.4950    2.8951    9.1331 C   0  0  0  0  0  0  0  0  0  0  0  0
  1  2  1  6  0  0  0
  1  6  1  0  0  0  0
  1 23  1  0  0  0  0
  3  4  1  1  0  0  0
  3  8  1  0  0  0  0
  3 30  1  0  0  0  0
  5  9  1  0  0  0  0
  5 27  1  0  0  0  0
  5 31  1  6  0  0  0
  6  7  1  6  0  0  0
  6 11  1  0  0  0  0
  8 13  1  0  0  0  0
  9 10  1  6  0  0  0
  9 15  1  0  0  0  0
 11 12  1  6  0  0  0
 11 17  1  0  0  0  0
 13 14  1  1  0  0  0
 13 19  1  0  0  0  0
 15 16  1  1  0  0  0
 15 20  1  0  0  0  0
 16 34  1  0  0  0  0
 17 18  1  6  0  0  0
 17 22  1  0  0  0  0
 19  2  1  6  0  0  0
 19 24  1  0  0  0  0
 20 21  1  1  0  0  0
 20 26  1  0  0  0  0
 20 33  1  0  0  0  0
 22 23  1  1  0  0  0
 22 28  1  0  0  0  0
 24 25  1  1  0  0  0
 24 30  1  0  0  0  0
 26 27  1  0  0  0  0
 28 29  1  6  0  0  0
 28 32  1  0  0  0  0
 30 31  1  6  0  0  0
M  END
>  <CHROM.1>
-179.78286010,-174.59391977,-100.13116226,-60.95526969,153.53625079,-149.25807400
7.10523102,6.13027233,6.21154426,0.56622620,0.25535845,-0.63888491

>  <Name>
ligand

>  <RI>
0

>  <Rbt.Current_Directory>
/home/itssahil/PROJECTS/Mol_Feturizer/New_Systems/rnas/3TD1

>  <Rbt.Executable>
rbdock ($Id: //depot/dev/client3/rdock/2013.1/src/exe/rbdock.cxx#4 $)

>  <Rbt.Library>
libRbt.so (2013.1, Build901 2013/11/27)

>  <Rbt.Parameter_File>
/export/apps/rDock/src/rDock_2013.1_src/data/scripts/dock_solv.prm

>  <Rbt.Receptor>
prm/pocket_docking_4.prm

>  <SCORE>
-15.4242

>  <SCORE.INTER>
-8.9674

>  <SCORE.INTER.CONST>
1

>  <SCORE.INTER.POLAR>
0

>  <SCORE.INTER.ROT>
6

>  <SCORE.INTER.SOLV>
17.8431

>  <SCORE.INTER.VDW>
-19.526

>  <SCORE.INTER.norm>
-0.263747

>  <SCORE.INTRA>
-6.45773

>  <SCORE.INTRA.DIHEDRAL>
-11.8436

>  <SCORE.INTRA.DIHEDRAL.0>
19.5869

>  <SCORE.INTRA.POLAR>
0

>  <SCORE.INTRA.POLAR.0>
0

>  <SCORE.INTRA.REPUL>
0

>  <SCORE.INTRA.REPUL.0>
0

>  <SCORE.INTRA.SOLV>
-2.94624

>  <SCORE.INTRA.SOLV.lig_0>
-70.101

>  <SCORE.INTRA.VDW>
0.937161

>  <SCORE.INTRA.VDW.0>
-3.39718

>  <SCORE.INTRA.norm>
-0.189933

>  <SCORE.RESTR>
0.000891735

>  <SCORE.RESTR.CAVITY>
0.000891735

>  <SCORE.RESTR.norm>
2.62275e-05

>  <SCORE.SYSTEM>
0

>  <SCORE.SYSTEM.CONST>
0

>  <SCORE.SYSTEM.DIHEDRAL>
0

>  <SCORE.SYSTEM.SOLV>
0

>  <SCORE.SYSTEM.norm>
0

>  <SCORE.heavy>
34

>  <SCORE.norm>
-0.453654

>  <RMSD>
8.916

$$$$
ligand
 OpenBabel11021811483D
libRbt.so/2013.1/901 2013/11/27
 34 36  0  0  0  0  0  0  0  0999 V2000
    9.5269    5.9581    4.0522 C   0  0  2  0  0  0  0  0  0  0  0  0
    9.4096    4.5293    4.1388 O   0  0  0  0  0  0  0  0  0  0  0  0
    8.3496    1.9140    7.3479 C   0  0  2  0  0  0  0  0  0  0  0  0
    8.3436    1.2361    8.6396 N   0  0  0  0  0  0  0  0  0  0  0  0
    6.5448    4.2561    9.3656 C   0  0  2  0  0  0  0  0  0  0  0  0
    9.2796    6.3752    2.5584 C   0  0  2  0  0  0  0  0  0  0  0  0
    7.9341    5.9809    2.1129 N   0  0  0  0  0  0  0  0  0  0  0  0
    9.7864    1.7616    6.7462 C   0  0  0  0  0  0  0  0  0  0  0  0
    5.1136    3.8930    9.9012 C   0  0  2  0  0  0  0  0  0  0  0  0
    5.0014    2.4887   10.0624 O   0  0  0  0  0  0  0  0  0  0  0  0
   10.3461    5.7125    1.6597 C   0  0  1  0  0  0  0  0  0  0  0  0
   10.1305    6.0964    0.2918 O   0  0  0  0  0  0  0  0  0  0  0  0
    9.7872    2.4691    5.3489 C   0  0  2  0  0  0  0  0  0  0  0  0
   11.1244    2.3643    4.7304 N   0  0  0  0  0  0  0  0  0  0  0  0
    4.0398    4.4337    8.8794 C   0  0  1  0  0  0  0  0  0  0  0  0
    2.6577    4.0990    9.3367 N   0  0  0  0  0  0  0  0  0  0  0  0
   11.7492    6.1361    2.1551 C   0  0  2  0  0  0  0  0  0  0  0  0
   12.7543    5.5173    1.3333 O   0  0  0  0  0  0  0  0  0  0  0  0
    9.4133    3.9672    5.4854 C   0  0  2  0  0  0  0  0  0  0  0  0
    4.2067    5.9855    8.7388 C   0  0  1  0  0  0  0  0  0  0  0  0
    3.9792    6.6070   10.0010 O   0  0  0  0  0  0  0  0  0  0  0  0
   11.9289    5.7089    3.6617 C   0  0  2  0  0  0  0  0  0  0  0  0
   10.8798    6.3346    4.4900 O   0  0  0  0  0  0  0  0  0  0  0  0
    8.0154    4.0900    6.1418 C   0  0  2  0  0  0  0  0  0  0  0  0
    7.7017    5.4726    6.2735 O   0  0  0  0  0  0  0  0  0  0  0  0
    5.6631    6.2899    8.2658 C   0  0  0  0  0  0  0  0  0  0  0  0
    6.6535    5.7127    9.2062 O   0  0  0  0  0  0  0  0  0  0  0  0
   13.3119    6.1314    4.2227 C   0  0  2  0  0  0  0  0  0  0  0  0
   14.3434    5.5409    3.4362 O   0  0  0  0  0  0  0  0  0  0  0  0
    7.9976    3.4453    7.5474 C   0  0  1  0  0  0  0  0  0  0  0  0
    6.6572    3.6054    8.0689 O   0  0  0  0  0  0  0  0  0  0  0  0
   13.4961    5.6733    5.6600 C   0  0  0  0  0  0  0  0  0  0  0  0
    3.2155    6.5801    7.7460 C   0  0  0  0  0  0  0  0  0  0  0  0
    2.2349    2.8573    8.6611 C   0  0  0  0  0  0  0  0  0  0  0  0
  1  2  1  6  0  0  0
  1  6  1  0  0  0  0
  1 23  1  0  0  0  0
  3  4  1  1  0  0  0
  3  8  1  0  0  0  0
  3 30  1  0  0  0  0
  5  9  1  0  0  0  0
  5 27  1  0  0  0  0
  5 31  1  6  0  0  0
  6  7  1  6  0  0  0
  6 11  1  0  0  0  0
  8 13  1  0  0  0  0
  9 10  1  6  0  0  0
  9 15  1  0  0  0  0
 11 12  1  6  0  0  0
 11 17  1  0  0  0  0
 13 14  1  1  0  0  0
 13 19  1  0  0  0  0
 15 16  1  1  0  0  0
 15 20  1  0  0  0  0
 16 34  1  0  0  0  0
 17 18  1  6  0  0  0
 17 22  1  0  0  0  0
 19  2  1  6  0  0  0
 19 24  1  0  0  0  0
 20 21  1  1  0  0  0
 20 26  1  0  0  0  0
 20 33  1  0  0  0  0
 22 23  1  1  0  0  0
 22 28  1  0  0  0  0
 24 25  1  1  0  0  0
 24 30  1  0  0  0  0
 26 27  1  0  0  0  0
 28 29  1  6  0  0  0
 28 32  1  0  0  0  0
 30 31  1  6  0  0  0
M  END
>  <CHROM.1>
-171.34498407,-160.15046603,-95.94784736,-58.50857622,118.79350486,-162.08202634
8.28592746,4.70297238,6.06362613,0.59672131,0.41988609,-0.84666006

>  <Name>
ligand

>  <RI>
0

>  <Rbt.Current_Directory>
/home/itssahil/PROJECTS/Mol_Feturizer/New_Systems/rnas/3TD1

>  <Rbt.Executable>
rbdock ($Id: //depot/dev/client3/rdock/2013.1/src/exe/rbdock.cxx#4 $)

>  <Rbt.Library>
libRbt.so (2013.1, Build901 2013/11/27)

>  <Rbt.Parameter_File>
/export/apps/rDock/src/rDock_2013.1_src/data/scripts/dock_solv.prm

>  <Rbt.Receptor>
prm/pocket_docking_6.prm

>  <SCORE>
-15.2848

>  <SCORE.INTER>
-10.306

>  <SCORE.INTER.CONST>
1

>  <SCORE.INTER.POLAR>
0

>  <SCORE.INTER.ROT>
6

>  <SCORE.INTER.SOLV>
16.1415

>  <SCORE.INTER.VDW>
-19.8512

>  <SCORE.INTER.norm>
-0.303118

>  <SCORE.INTRA>
-4.97882

>  <SCORE.INTRA.DIHEDRAL>
-8.03047

>  <SCORE.INTRA.DIHEDRAL.0>
19.5869

>  <SCORE.INTRA.POLAR>
0

>  <SCORE.INTRA.POLAR.0>
0

>  <SCORE.INTRA.REPUL>
0

>  <SCORE.INTRA.REPUL.0>
0

>  <SCORE.INTRA.SOLV>
-1.40856

>  <SCORE.INTRA.SOLV.lig_0>
-70.101

>  <SCORE.INTRA.VDW>
-0.259305

>  <SCORE.INTRA.VDW.0>
-3.39718

>  <SCORE.INTRA.norm>
-0.146436

>  <SCORE.RESTR>
0

>  <SCORE.RESTR.CAVITY>
0

>  <SCORE.RESTR.norm>
0

>  <SCORE.SYSTEM>
0

>  <SCORE.SYSTEM.CONST>
0

>  <SCORE.SYSTEM.DIHEDRAL>
0

>  <SCORE.SYSTEM.SOLV>
0

>  <SCORE.SYSTEM.norm>
0

>  <SCORE.heavy>
34

>  <SCORE.norm>
-0.449554

>  <RMSD>
8.916

$$$$
ligand
 OpenBabel11021811483D
libRbt.so/2013.1/901 2013/11/27
 34 36  0  0  0  0  0  0  0  0999 V2000
   10.7247    6.4888    5.3817 C   0  0  2  0  0  0  0  0  0  0  0  0
   10.2966    5.2471    4.8009 O   0  0  0  0  0  0  0  0  0  0  0  0
    8.0164    2.0434    6.4738 C   0  0  2  0  0  0  0  0  0  0  0  0
    7.6106    0.9209    7.3125 N   0  0  0  0  0  0  0  0  0  0  0  0
    6.8820    4.4937    9.1456 C   0  0  2  0  0  0  0  0  0  0  0  0
   10.8522    7.5457    4.2271 C   0  0  2  0  0  0  0  0  0  0  0  0
    9.5607    7.7558    3.5546 N   0  0  0  0  0  0  0  0  0  0  0  0
    9.4051    1.6823    5.8487 C   0  0  0  0  0  0  0  0  0  0  0  0
    5.5898    4.0814    9.9376 C   0  0  2  0  0  0  0  0  0  0  0  0
    5.6322    2.6969   10.2414 O   0  0  0  0  0  0  0  0  0  0  0  0
   11.9042    7.0619    3.2055 C   0  0  1  0  0  0  0  0  0  0  0  0
   12.0317    8.0285    2.1498 O   0  0  0  0  0  0  0  0  0  0  0  0
    9.8308    2.8769    4.9297 C   0  0  2  0  0  0  0  0  0  0  0  0
   11.1433    2.5970    4.3128 N   0  0  0  0  0  0  0  0  0  0  0  0
    4.3263    4.4304    9.0594 C   0  0  1  0  0  0  0  0  0  0  0  0
    3.0677    4.0417    9.7639 N   0  0  0  0  0  0  0  0  0  0  0  0
   13.2478    6.8407    3.9398 C   0  0  2  0  0  0  0  0  0  0  0  0
   14.2358    6.3791    3.0021 O   0  0  0  0  0  0  0  0  0  0  0  0
    9.9281    4.1939    5.7413 C   0  0  2  0  0  0  0  0  0  0  0  0
    4.3275    5.9673    8.7537 C   0  0  1  0  0  0  0  0  0  0  0  0
    4.2422    6.6976    9.9745 O   0  0  0  0  0  0  0  0  0  0  0  0
   13.0509    5.7879    5.0964 C   0  0  2  0  0  0  0  0  0  0  0  0
   12.0210    6.2647    6.0398 O   0  0  0  0  0  0  0  0  0  0  0  0
    8.5587    4.4932    6.4009 C   0  0  2  0  0  0  0  0  0  0  0  0
    8.6771    5.6954    7.1546 O   0  0  0  0  0  0  0  0  0  0  0  0
    5.6595    6.3300    8.0244 C   0  0  0  0  0  0  0  0  0  0  0  0
    6.8317    5.9299    8.8394 O   0  0  0  0  0  0  0  0  0  0  0  0
   14.3629    5.5437    5.8869 C   0  0  2  0  0  0  0  0  0  0  0  0
   14.1298    4.5735    6.9046 O   0  0  0  0  0  0  0  0  0  0  0  0
    8.1356    3.3532    7.3563 C   0  0  1  0  0  0  0  0  0  0  0  0
    6.8514    3.7223    7.9122 O   0  0  0  0  0  0  0  0  0  0  0  0
   14.8584    6.8157    6.5548 C   0  0  0  0  0  0  0  0  0  0  0  0
    3.1448    6.3791    7.8856 C   0  0  0  0  0  0  0  0  0  0  0  0
    2.4659    2.9043    9.0420 C   0  0  0  0  0  0  0  0  0  0  0  0
  1  2  1  6  0  0  0
  1  6  1  0  0  0  0
  1 23  1  0  0  0  0
  3  4  1  1  0  0  0
  3  8  1  0  0  0  0
  3 30  1  0  0  0  0
  5  9  1  0  0  0  0
  5 27  1  0  0  0  0
  5 31  1  6  0  0  0
  6  7  1  6  0  0  0
  6 11  1  0  0  0  0
  8 13  1  0  0  0  0
  9 10  1  6  0  0  0
  9 15  1  0  0  0  0
 11 12  1  6  0  0  0
 11 17  1  0  0  0  0
 13 14  1  1  0  0  0
 13 19  1  0  0  0  0
 15 16  1  1  0  0  0
 15 20  1  0  0  0  0
 16 34  1  0  0  0  0
 17 18  1  6  0  0  0
 17 22  1  0  0  0  0
 19  2  1  6  0  0  0
 19 24  1  0  0  0  0
 20 21  1  1  0  0  0
 20 26  1  0  0  0  0
 20 33  1  0  0  0  0
 22 23  1  1  0  0  0
 22 28  1  0  0  0  0
 24 25  1  1  0  0  0
 24 30  1  0  0  0  0
 26 27  1  0  0  0  0
 28 29  1  1  0  0  0
 28 32  1  0  0  0  0
 30 31  1  6  0  0  0
M  END
>  <CHROM.1>
-171.15319462,-166.89152054,-110.93770239,-179.23909661,154.19886876,-148.60407304
8.87908000,5.01746519,6.62780420,0.31710189,0.44401567,-0.27545251

>  <Name>
ligand

>  <RI>
0

>  <Rbt.Current_Directory>
/home/itssahil/PROJECTS/Mol_Feturizer/New_Systems/rnas/3TD1

>  <Rbt.Executable>
rbdock ($Id: //depot/dev/client3/rdock/2013.1/src/exe/rbdock.cxx#4 $)

>  <Rbt.Library>
libRbt.so (2013.1, Build901 2013/11/27)

>  <Rbt.Parameter_File>
/export/apps/rDock/src/rDock_2013.1_src/data/scripts/dock_solv.prm

>  <Rbt.Receptor>
prm/pocket_docking_6.prm

>  <SCORE>
-16.6863

>  <SCORE.INTER>
-10.9246

>  <SCORE.INTER.CONST>
1

>  <SCORE.INTER.POLAR>
0

>  <SCORE.INTER.ROT>
6

>  <SCORE.INTER.SOLV>
16.7436

>  <SCORE.INTER.VDW>
-20.4643

>  <SCORE.INTER.norm>
-0.321313

>  <SCORE.INTRA>
-5.76161

>  <SCORE.INTRA.DIHEDRAL>
-10.5603

>  <SCORE.INTRA.DIHEDRAL.0>
19.5869

>  <SCORE.INTRA.POLAR>
0

>  <SCORE.INTRA.POLAR.0>
0

>  <SCORE.INTRA.REPUL>
0

>  <SCORE.INTRA.REPUL.0>
0

>  <SCORE.INTRA.SOLV>
-2.83897

>  <SCORE.INTRA.SOLV.lig_0>
-70.101

>  <SCORE.INTRA.VDW>
0.938005

>  <SCORE.INTRA.VDW.0>
-3.39718

>  <SCORE.INTRA.norm>
-0.169459

>  <SCORE.RESTR>
0

>  <SCORE.RESTR.CAVITY>
0

>  <SCORE.RESTR.norm>
0

>  <SCORE.SYSTEM>
0

>  <SCORE.SYSTEM.CONST>
0

>  <SCORE.SYSTEM.DIHEDRAL>
0

>  <SCORE.SYSTEM.SOLV>
0

>  <SCORE.SYSTEM.norm>
0

>  <SCORE.heavy>
34

>  <SCORE.norm>
-0.490772

>  <RMSD>
8.922

$$$$
ligand
 OpenBabel11021811483D
libRbt.so/2013.1/901 2013/11/27
 34 36  0  0  0  0  0  0  0  0999 V2000
    8.1990    7.7460    4.7989 C   0  0  2  0  0  0  0  0  0  0  0  0
    8.1522    6.3629    4.4151 O   0  0  0  0  0  0  0  0  0  0  0  0
    7.0735    2.8665    6.6228 C   0  0  2  0  0  0  0  0  0  0  0  0
    7.0676    1.8070    7.6256 N   0  0  0  0  0  0  0  0  0  0  0  0
    5.2499    5.0243    9.1068 C   0  0  2  0  0  0  0  0  0  0  0  0
    7.8210    8.6105    3.5435 C   0  0  2  0  0  0  0  0  0  0  0  0
    6.4645    8.2943    3.0699 N   0  0  0  0  0  0  0  0  0  0  0  0
    8.5003    2.8943    5.9800 C   0  0  0  0  0  0  0  0  0  0  0  0
    4.0208    4.3777    9.8403 C   0  0  2  0  0  0  0  0  0  0  0  0
    4.3067    3.0259   10.1592 O   0  0  0  0  0  0  0  0  0  0  0  0
    8.8448    8.3507    2.4171 C   0  0  1  0  0  0  0  0  0  0  0  0
    8.5094    9.1448    1.2675 O   0  0  0  0  0  0  0  0  0  0  0  0
    8.5005    4.0161    4.8870 C   0  0  2  0  0  0  0  0  0  0  0  0
    9.8284    4.0959    4.2453 N   0  0  0  0  0  0  0  0  0  0  0  0
    2.7584    4.4833    8.8996 C   0  0  1  0  0  0  0  0  0  0  0  0
    1.5621    3.8661    9.5472 N   0  0  0  0  0  0  0  0  0  0  0  0
   10.2611    8.6821    2.9441 C   0  0  2  0  0  0  0  0  0  0  0  0
   11.2277    8.4344    1.9083 O   0  0  0  0  0  0  0  0  0  0  0  0
    8.1590    5.3950    5.5072 C   0  0  2  0  0  0  0  0  0  0  0  0
    2.4870    5.9931    8.5794 C   0  0  1  0  0  0  0  0  0  0  0  0
    2.2073    6.6952    9.7876 O   0  0  0  0  0  0  0  0  0  0  0  0
   10.5732    7.7993    4.2122 C   0  0  2  0  0  0  0  0  0  0  0  0
    9.5630    8.0486    5.2589 O   0  0  0  0  0  0  0  0  0  0  0  0
    6.7711    5.3208    6.1915 C   0  0  2  0  0  0  0  0  0  0  0  0
    6.4873    6.5911    6.7688 O   0  0  0  0  0  0  0  0  0  0  0  0
    3.7614    6.5984    7.9109 C   0  0  0  0  0  0  0  0  0  0  0  0
    4.9468    6.4255    8.7846 O   0  0  0  0  0  0  0  0  0  0  0  0
   11.9745    8.1071    4.8017 C   0  0  2  0  0  0  0  0  0  0  0  0
   12.9729    7.8217    3.8255 O   0  0  0  0  0  0  0  0  0  0  0  0
    6.7553    4.2562    7.3130 C   0  0  1  0  0  0  0  0  0  0  0  0
    5.4242    4.2601    7.8809 O   0  0  0  0  0  0  0  0  0  0  0  0
   12.2627    7.2601    6.0302 C   0  0  0  0  0  0  0  0  0  0  0  0
    1.2917    6.1755    7.6521 C   0  0  0  0  0  0  0  0  0  0  0  0
    1.3448    2.5366    8.9455 C   0  0  0  0  0  0  0  0  0  0  0  0
  1  2  1  6  0  0  0
  1  6  1  0  0  0  0
  1 23  1  0  0  0  0
  3  4  1  1  0  0  0
  3  8  1  0  0  0  0
  3 30  1  0  0  0  0
  5  9  1  0  0  0  0
  5 27  1  0  0  0  0
  5 31  1  6  0  0  0
  6  7  1  6  0  0  0
  6 11  1  0  0  0  0
  8 13  1  0  0  0  0
  9 10  1  6  0  0  0
  9 15  1  0  0  0  0
 11 12  1  6  0  0  0
 11 17  1  0  0  0  0
 13 14  1  1  0  0  0
 13 19  1  0  0  0  0
 15 16  1  1  0  0  0
 15 20  1  0  0  0  0
 16 34  1  0  0  0  0
 17 18  1  6  0  0  0
 17 22  1  0  0  0  0
 19  2  1  6  0  0  0
 19 24  1  0  0  0  0
 20 21  1  1  0  0  0
 20 26  1  0  0  0  0
 20 33  1  0  0  0  0
 22 23  1  1  0  0  0
 22 28  1  0  0  0  0
 24 25  1  1  0  0  0
 24 30  1  0  0  0  0
 26 27  1  0  0  0  0
 28 29  1  6  0  0  0
 28 32  1  0  0  0  0
 30 31  1  6  0  0  0
M  END
>  <CHROM.1>
-165.91495815,-164.55789052,-102.32150944,-60.96840654,145.92295851,-154.94468979
6.92557304,5.94528726,6.20038354,0.64040163,0.36199881,-0.57741052

>  <Name>
ligand

>  <RI>
0

>  <Rbt.Current_Directory>
/home/itssahil/PROJECTS/Mol_Feturizer/New_Systems/rnas/3TD1

>  <Rbt.Executable>
rbdock ($Id: //depot/dev/client3/rdock/2013.1/src/exe/rbdock.cxx#4 $)

>  <Rbt.Library>
libRbt.so (2013.1, Build901 2013/11/27)

>  <Rbt.Parameter_File>
/export/apps/rDock/src/rDock_2013.1_src/data/scripts/dock_solv.prm

>  <Rbt.Receptor>
prm/pocket_docking_4.prm

>  <SCORE>
-14.8046

>  <SCORE.INTER>
-9.39834

>  <SCORE.INTER.CONST>
1

>  <SCORE.INTER.POLAR>
0

>  <SCORE.INTER.ROT>
6

>  <SCORE.INTER.SOLV>
21.5418

>  <SCORE.INTER.VDW>
-21.0462

>  <SCORE.INTER.norm>
-0.276422

>  <SCORE.INTRA>
-5.41218

>  <SCORE.INTRA.DIHEDRAL>
-9.53478

>  <SCORE.INTRA.DIHEDRAL.0>
19.5869

>  <SCORE.INTRA.POLAR>
0

>  <SCORE.INTRA.POLAR.0>
0

>  <SCORE.INTRA.REPUL>
0

>  <SCORE.INTRA.REPUL.0>
0

>  <SCORE.INTRA.SOLV>
-1.99251

>  <SCORE.INTRA.SOLV.lig_0>
-70.101

>  <SCORE.INTRA.VDW>
0.351467

>  <SCORE.INTRA.VDW.0>
-3.39718

>  <SCORE.INTRA.norm>
-0.159182

>  <SCORE.RESTR>
0.00591226

>  <SCORE.RESTR.CAVITY>
0.00591226

>  <SCORE.RESTR.norm>
0.00017389

>  <SCORE.SYSTEM>
0

>  <SCORE.SYSTEM.CONST>
0

>  <SCORE.SYSTEM.DIHEDRAL>
0

>  <SCORE.SYSTEM.SOLV>
0

>  <SCORE.SYSTEM.norm>
0

>  <SCORE.heavy>
34

>  <SCORE.norm>
-0.43543

>  <RMSD>
8.925

$$$$
ligand
 OpenBabel11021811483D
libRbt.so/2013.1/901 2013/11/27
 34 36  0  0  0  0  0  0  0  0999 V2000
   11.1077    4.9466    2.5089 C   0  0  2  0  0  0  0  0  0  0  0  0
   10.9699    5.2470    3.9065 O   0  0  0  0  0  0  0  0  0  0  0  0
    7.9047    5.0718    6.8790 C   0  0  2  0  0  0  0  0  0  0  0  0
    6.6254    4.8355    7.5389 N   0  0  0  0  0  0  0  0  0  0  0  0
    7.7560    2.0876    8.1543 C   0  0  2  0  0  0  0  0  0  0  0  0
   12.1525    3.7830    2.3639 C   0  0  2  0  0  0  0  0  0  0  0  0
   11.7006    2.5728    3.0678 N   0  0  0  0  0  0  0  0  0  0  0  0
    7.6231    5.9469    5.6123 C   0  0  0  0  0  0  0  0  0  0  0  0
    8.3562    1.2967    9.3713 C   0  0  2  0  0  0  0  0  0  0  0  0
    8.8099    2.2061   10.3603 O   0  0  0  0  0  0  0  0  0  0  0  0
   13.5127    4.2440    2.9312 C   0  0  1  0  0  0  0  0  0  0  0  0
   14.4759    3.1865    2.7944 O   0  0  0  0  0  0  0  0  0  0  0  0
    8.9990    6.2206    4.9159 C   0  0  2  0  0  0  0  0  0  0  0  0
    8.7976    7.0410    3.7042 N   0  0  0  0  0  0  0  0  0  0  0  0
    9.5376    0.3895    8.8510 C   0  0  1  0  0  0  0  0  0  0  0  0
   10.1546   -0.3742    9.9768 N   0  0  0  0  0  0  0  0  0  0  0  0
   13.9593    5.5210    2.1806 C   0  0  2  0  0  0  0  0  0  0  0  0
   15.2210    5.9688    2.7060 O   0  0  0  0  0  0  0  0  0  0  0  0
    9.6913    4.8932    4.5141 C   0  0  2  0  0  0  0  0  0  0  0  0
    8.9836   -0.5940    7.7640 C   0  0  1  0  0  0  0  0  0  0  0  0
    7.9912   -1.4368    8.3433 O   0  0  0  0  0  0  0  0  0  0  0  0
   12.8637    6.6420    2.3465 C   0  0  2  0  0  0  0  0  0  0  0  0
   11.5704    6.1621    1.8218 O   0  0  0  0  0  0  0  0  0  0  0  0
    9.8997    4.0200    5.7767 C   0  0  2  0  0  0  0  0  0  0  0  0
   10.5192    2.8005    5.3812 O   0  0  0  0  0  0  0  0  0  0  0  0
    8.3444    0.2439    6.6122 C   0  0  0  0  0  0  0  0  0  0  0  0
    7.2844    1.1378    7.1372 O   0  0  0  0  0  0  0  0  0  0  0  0
   13.2458    7.9419    1.5914 C   0  0  2  0  0  0  0  0  0  0  0  0
   12.2281    8.9203    1.7863 O   0  0  0  0  0  0  0  0  0  0  0  0
    8.5514    3.6886    6.4579 C   0  0  1  0  0  0  0  0  0  0  0  0
    8.8524    2.8817    7.6209 O   0  0  0  0  0  0  0  0  0  0  0  0
   13.3857    7.7003    0.0975 C   0  0  0  0  0  0  0  0  0  0  0  0
   10.0756   -1.4909    7.1940 C   0  0  0  0  0  0  0  0  0  0  0  0
   11.4337    0.2719   10.3279 C   0  0  0  0  0  0  0  0  0  0  0  0
  1  2  1  1  0  0  0
  1  6  1  0  0  0  0
  1 23  1  0  0  0  0
  3  4  1  6  0  0  0
  3  8  1  0  0  0  0
  3 30  1  0  0  0  0
  5  9  1  0  0  0  0
  5 27  1  0  0  0  0
  5 31  1  6  0  0  0
  6  7  1  1  0  0  0
  6 11  1  0  0  0  0
  8 13  1  0  0  0  0
  9 10  1  1  0  0  0
  9 15  1  0  0  0  0
 11 12  1  6  0  0  0
 11 17  1  0  0  0  0
 13 14  1  6  0  0  0
 13 19  1  0  0  0  0
 15 16  1  1  0  0  0
 15 20  1  0  0  0  0
 16 34  1  0  0  0  0
 17 18  1  1  0  0  0
 17 22  1  0  0  0  0
 19  2  1  1  0  0  0
 19 24  1  0  0  0  0
 20 21  1  1  0  0  0
 20 26  1  0  0  0  0
 20 33  1  0  0  0  0
 22 23  1  6  0  0  0
 22 28  1  0  0  0  0
 24 25  1  6  0  0  0
 24 30  1  0  0  0  0
 26 27  1  0  0  0  0
 28 29  1  6  0  0  0
 28 32  1  0  0  0  0
 30 31  1  1  0  0  0
M  END
>  <CHROM.1>
-110.99928243,-113.75864280,-103.52871349,-179.48499019,84.04351477,178.71702723
10.39629302,3.63697329,5.36920704,-1.06862432,-0.53787258,2.56863227

>  <Name>
ligand

>  <RI>
0

>  <Rbt.Current_Directory>
/home/itssahil/PROJECTS/Mol_Feturizer/New_Systems/rnas/3TD1

>  <Rbt.Executable>
rbdock ($Id: //depot/dev/client3/rdock/2013.1/src/exe/rbdock.cxx#4 $)

>  <Rbt.Library>
libRbt.so (2013.1, Build901 2013/11/27)

>  <Rbt.Parameter_File>
/export/apps/rDock/src/rDock_2013.1_src/data/scripts/dock_solv.prm

>  <Rbt.Receptor>
prm/pocket_docking_8.prm

>  <SCORE>
-6.40675

>  <SCORE.INTER>
-5.56581

>  <SCORE.INTER.CONST>
1

>  <SCORE.INTER.POLAR>
0

>  <SCORE.INTER.ROT>
6

>  <SCORE.INTER.SOLV>
14.1836

>  <SCORE.INTER.VDW>
-16.0384

>  <SCORE.INTER.norm>
-0.1637

>  <SCORE.INTRA>
-0.840935

>  <SCORE.INTRA.DIHEDRAL>
-2.24293

>  <SCORE.INTRA.DIHEDRAL.0>
19.5869

>  <SCORE.INTRA.POLAR>
0

>  <SCORE.INTRA.POLAR.0>
0

>  <SCORE.INTRA.REPUL>
0

>  <SCORE.INTRA.REPUL.0>
0

>  <SCORE.INTRA.SOLV>
0.180424

>  <SCORE.INTRA.SOLV.lig_0>
-70.101

>  <SCORE.INTRA.VDW>
0.190316

>  <SCORE.INTRA.VDW.0>
-3.39718

>  <SCORE.INTRA.norm>
-0.0247334

>  <SCORE.RESTR>
0

>  <SCORE.RESTR.CAVITY>
0

>  <SCORE.RESTR.norm>
0

>  <SCORE.SYSTEM>
0

>  <SCORE.SYSTEM.CONST>
0

>  <SCORE.SYSTEM.DIHEDRAL>
0

>  <SCORE.SYSTEM.SOLV>
0

>  <SCORE.SYSTEM.norm>
0

>  <SCORE.heavy>
34

>  <SCORE.norm>
-0.188434

>  <RMSD>
8.927

$$$$
ligand
 OpenBabel11021811483D
libRbt.so/2013.1/901 2013/11/27
 34 36  0  0  0  0  0  0  0  0999 V2000
   12.0188    5.0652    5.8452 C   0  0  2  0  0  0  0  0  0  0  0  0
   10.8327    4.3684    6.2578 O   0  0  0  0  0  0  0  0  0  0  0  0
    9.1453    3.9098   10.1571 C   0  0  2  0  0  0  0  0  0  0  0  0
    8.6508    4.2055   11.4972 N   0  0  0  0  0  0  0  0  0  0  0  0
    6.0431    4.6091   10.2071 C   0  0  2  0  0  0  0  0  0  0  0  0
   11.5861    6.4630    5.2746 C   0  0  2  0  0  0  0  0  0  0  0  0
   10.8962    7.2637    6.2979 N   0  0  0  0  0  0  0  0  0  0  0  0
   10.6140    4.4440   10.0719 C   0  0  0  0  0  0  0  0  0  0  0  0
    4.7111    3.7812   10.1198 C   0  0  2  0  0  0  0  0  0  0  0  0
    4.9868    2.4035   10.3118 O   0  0  0  0  0  0  0  0  0  0  0  0
   10.6588    6.2533    4.0578 C   0  0  1  0  0  0  0  0  0  0  0  0
   10.2653    7.5287    3.5257 O   0  0  0  0  0  0  0  0  0  0  0  0
   11.1537    4.1061    8.6410 C   0  0  2  0  0  0  0  0  0  0  0  0
   12.5406    4.5931    8.4962 N   0  0  0  0  0  0  0  0  0  0  0  0
    4.0496    4.0358    8.7102 C   0  0  1  0  0  0  0  0  0  0  0  0
    2.7833    3.2558    8.5706 N   0  0  0  0  0  0  0  0  0  0  0  0
   11.4048    5.4022    3.0030 C   0  0  2  0  0  0  0  0  0  0  0  0
   10.5488    5.1893    1.8670 O   0  0  0  0  0  0  0  0  0  0  0  0
   10.2741    4.7632    7.5468 C   0  0  2  0  0  0  0  0  0  0  0  0
    3.7662    5.5686    8.5502 C   0  0  1  0  0  0  0  0  0  0  0  0
    2.8532    5.9938    9.5586 O   0  0  0  0  0  0  0  0  0  0  0  0
   11.8291    4.0241    3.6397 C   0  0  2  0  0  0  0  0  0  0  0  0
   12.6903    4.2578    4.8153 O   0  0  0  0  0  0  0  0  0  0  0  0
    8.8142    4.2664    7.6945 C   0  0  2  0  0  0  0  0  0  0  0  0
    8.0227    4.8961    6.6923 O   0  0  0  0  0  0  0  0  0  0  0  0
    5.1118    6.3442    8.7085 C   0  0  0  0  0  0  0  0  0  0  0  0
    5.7474    6.0351   10.0119 O   0  0  0  0  0  0  0  0  0  0  0  0
   12.6059    3.1356    2.6332 C   0  0  2  0  0  0  0  0  0  0  0  0
   12.9835    1.9173    3.2691 O   0  0  0  0  0  0  0  0  0  0  0  0
    8.2351    4.6324    9.0809 C   0  0  1  0  0  0  0  0  0  0  0  0
    6.8811    4.1232    9.1213 O   0  0  0  0  0  0  0  0  0  0  0  0
   13.8704    3.8210    2.1422 C   0  0  0  0  0  0  0  0  0  0  0  0
    3.1463    5.8978    7.1977 C   0  0  0  0  0  0  0  0  0  0  0  0
    3.1226    1.9078    8.0758 C   0  0  0  0  0  0  0  0  0  0  0  0
  1  2  1  6  0  0  0
  1  6  1  0  0  0  0
  1 23  1  0  0  0  0
  3  4  1  1  0  0  0
  3  8  1  0  0  0  0
  3 30  1  0  0  0  0
  5  9  1  0  0  0  0
  5 27  1  0  0  0  0
  5 31  1  6  0  0  0
  6  7  1  1  0  0  0
  6 11  1  0  0  0  0
  8 13  1  0  0  0  0
  9 10  1  6  0  0  0
  9 15  1  0  0  0  0
 11 12  1  6  0  0  0
 11 17  1  0  0  0  0
 13 14  1  1  0  0  0
 13 19  1  0  0  0  0
 15 16  1  1  0  0  0
 15 20  1  0  0  0  0
 16 34  1  0  0  0  0
 17 18  1  6  0  0  0
 17 22  1  0  0  0  0
 19  2  1  6  0  0  0
 19 24  1  0  0  0  0
 20 21  1  1  0  0  0
 20 26  1  0  0  0  0
 20 33  1  0  0  0  0
 22 23  1  1  0  0  0
 22 28  1  0  0  0  0
 24 25  1  6  0  0  0
 24 30  1  0  0  0  0
 26 27  1  0  0  0  0
 28 29  1  1  0  0  0
 28 32  1  0  0  0  0
 30 31  1  6  0  0  0
M  END
>  <CHROM.1>
-79.16118184,-77.35992655,-86.42825175,178.95833991,77.44478068,-173.32598047
8.59514398,4.65402610,7.07592275,-0.61217133,-0.08419723,1.72627269

>  <Name>
ligand

>  <RI>
0

>  <Rbt.Current_Directory>
/home/itssahil/PROJECTS/Mol_Feturizer/New_Systems/rnas/3TD1

>  <Rbt.Executable>
rbdock ($Id: //depot/dev/client3/rdock/2013.1/src/exe/rbdock.cxx#4 $)

>  <Rbt.Library>
libRbt.so (2013.1, Build901 2013/11/27)

>  <Rbt.Parameter_File>
/export/apps/rDock/src/rDock_2013.1_src/data/scripts/dock_solv.prm

>  <Rbt.Receptor>
prm/pocket_docking_6.prm

>  <SCORE>
-13.8515

>  <SCORE.INTER>
-9.07449

>  <SCORE.INTER.CONST>
1

>  <SCORE.INTER.POLAR>
0

>  <SCORE.INTER.ROT>
6

>  <SCORE.INTER.SOLV>
12.5598

>  <SCORE.INTER.VDW>
-17.8363

>  <SCORE.INTER.norm>
-0.266897

>  <SCORE.INTRA>
-4.77701

>  <SCORE.INTRA.DIHEDRAL>
-14.3741

>  <SCORE.INTRA.DIHEDRAL.0>
19.5869

>  <SCORE.INTRA.POLAR>
0

>  <SCORE.INTRA.POLAR.0>
0

>  <SCORE.INTRA.REPUL>
0

>  <SCORE.INTRA.REPUL.0>
0

>  <SCORE.INTRA.SOLV>
1.21722

>  <SCORE.INTRA.SOLV.lig_0>
-70.101

>  <SCORE.INTRA.VDW>
1.8014

>  <SCORE.INTRA.VDW.0>
-3.39718

>  <SCORE.INTRA.norm>
-0.1405

>  <SCORE.RESTR>
0

>  <SCORE.RESTR.CAVITY>
0

>  <SCORE.RESTR.norm>
0

>  <SCORE.SYSTEM>
0

>  <SCORE.SYSTEM.CONST>
0

>  <SCORE.SYSTEM.DIHEDRAL>
0

>  <SCORE.SYSTEM.SOLV>
0

>  <SCORE.SYSTEM.norm>
0

>  <SCORE.heavy>
34

>  <SCORE.norm>
-0.407397

>  <RMSD>
8.930

$$$$
ligand
 OpenBabel11021811483D
libRbt.so/2013.1/901 2013/11/27
 34 36  0  0  0  0  0  0  0  0999 V2000
    8.6066    3.7235    8.2302 C   0  0  2  0  0  0  0  0  0  0  0  0
    8.0363    4.3721    9.3777 O   0  0  0  0  0  0  0  0  0  0  0  0
    4.0618    3.0191    8.5809 C   0  0  2  0  0  0  0  0  0  0  0  0
    2.6260    2.7891    8.6979 N   0  0  0  0  0  0  0  0  0  0  0  0
    3.7160    6.4400    6.8746 C   0  0  2  0  0  0  0  0  0  0  0  0
   10.0817    3.3182    8.5856 C   0  0  2  0  0  0  0  0  0  0  0  0
   10.1168    2.3871    9.7242 N   0  0  0  0  0  0  0  0  0  0  0  0
    4.7213    2.5509    9.9208 C   0  0  0  0  0  0  0  0  0  0  0  0
    2.5301    6.9617    7.7627 C   0  0  2  0  0  0  0  0  0  0  0  0
    2.7972    6.6930    9.1292 O   0  0  0  0  0  0  0  0  0  0  0  0
   10.8940    4.5881    8.9199 C   0  0  1  0  0  0  0  0  0  0  0  0
   12.2474    4.2251    9.2385 O   0  0  0  0  0  0  0  0  0  0  0  0
    6.2655    2.7759    9.7873 C   0  0  2  0  0  0  0  0  0  0  0  0
    6.9463    2.3564   11.0291 N   0  0  0  0  0  0  0  0  0  0  0  0
    1.1998    6.2537    7.2954 C   0  0  1  0  0  0  0  0  0  0  0  0
    0.0406    6.7056    8.1221 N   0  0  0  0  0  0  0  0  0  0  0  0
   10.8329    5.5519    7.7113 C   0  0  2  0  0  0  0  0  0  0  0  0
   11.5771    6.7453    8.0122 O   0  0  0  0  0  0  0  0  0  0  0  0
    6.5875    4.2679    9.5176 C   0  0  2  0  0  0  0  0  0  0  0  0
    0.9521    6.5825    5.7833 C   0  0  1  0  0  0  0  0  0  0  0  0
    0.7941    7.9894    5.6197 O   0  0  0  0  0  0  0  0  0  0  0  0
    9.3302    5.9048    7.3922 C   0  0  2  0  0  0  0  0  0  0  0  0
    8.5742    4.6702    7.1049 O   0  0  0  0  0  0  0  0  0  0  0  0
    5.8708    4.7218    8.2213 C   0  0  2  0  0  0  0  0  0  0  0  0
    6.1657    6.0978    8.0041 O   0  0  0  0  0  0  0  0  0  0  0  0
    2.1870    6.0999    4.9589 C   0  0  0  0  0  0  0  0  0  0  0  0
    3.4331    6.7268    5.4616 O   0  0  0  0  0  0  0  0  0  0  0  0
    9.2043    6.8511    6.1696 C   0  0  2  0  0  0  0  0  0  0  0  0
   10.0772    6.4069    5.1342 O   0  0  0  0  0  0  0  0  0  0  0  0
    4.3376    4.5605    8.3426 C   0  0  1  0  0  0  0  0  0  0  0  0
    3.7656    5.0016    7.0886 O   0  0  0  0  0  0  0  0  0  0  0  0
    9.5855    8.2785    6.5256 C   0  0  0  0  0  0  0  0  0  0  0  0
   -0.3078    5.9113    5.2507 C   0  0  0  0  0  0  0  0  0  0  0  0
   -0.3117    5.6200    9.0571 C   0  0  0  0  0  0  0  0  0  0  0  0
  1  2  1  1  0  0  0
  1  6  1  0  0  0  0
  1 23  1  0  0  0  0
  3  4  1  1  0  0  0
  3  8  1  0  0  0  0
  3 30  1  0  0  0  0
  5  9  1  0  0  0  0
  5 27  1  0  0  0  0
  5 31  1  6  0  0  0
  6  7  1  1  0  0  0
  6 11  1  0  0  0  0
  8 13  1  0  0  0  0
  9 10  1  1  0  0  0
  9 15  1  0  0  0  0
 11 12  1  6  0  0  0
 11 17  1  0  0  0  0
 13 14  1  1  0  0  0
 13 19  1  0  0  0  0
 15 16  1  1  0  0  0
 15 20  1  0  0  0  0
 16 34  1  0  0  0  0
 17 18  1  1  0  0  0
 17 22  1  0  0  0  0
 19  2  1  6  0  0  0
 19 24  1  0  0  0  0
 20 21  1  6  0  0  0
 20 26  1  0  0  0  0
 20 33  1  0  0  0  0
 22 23  1  6  0  0  0
 22 28  1  0  0  0  0
 24 25  1  1  0  0  0
 24 30  1  0  0  0  0
 26 27  1  0  0  0  0
 28 29  1  6  0  0  0
 28 32  1  0  0  0  0
 30 31  1  6  0  0  0
M  END
>  <CHROM.1>
-152.32595408,66.62492833,-105.18993603,43.84337795,168.23575136,-75.91935343
5.82567483,5.24970679,7.81996486,0.19604377,0.00438976,2.39365953

>  <Name>
ligand

>  <RI>
0

>  <Rbt.Current_Directory>
/home/itssahil/PROJECTS/Mol_Feturizer/New_Systems/rnas/3TD1

>  <Rbt.Executable>
rbdock ($Id: //depot/dev/client3/rdock/2013.1/src/exe/rbdock.cxx#4 $)

>  <Rbt.Library>
libRbt.so (2013.1, Build901 2013/11/27)

>  <Rbt.Parameter_File>
/export/apps/rDock/src/rDock_2013.1_src/data/scripts/dock_solv.prm

>  <Rbt.Receptor>
prm/pocket_docking_4.prm

>  <SCORE>
-10.5005

>  <SCORE.INTER>
-6.3248

>  <SCORE.INTER.CONST>
1

>  <SCORE.INTER.POLAR>
0

>  <SCORE.INTER.ROT>
6

>  <SCORE.INTER.SOLV>
15.4098

>  <SCORE.INTER.VDW>
-16.9531

>  <SCORE.INTER.norm>
-0.186023

>  <SCORE.INTRA>
-4.17569

>  <SCORE.INTRA.DIHEDRAL>
-12.3865

>  <SCORE.INTRA.DIHEDRAL.0>
19.5869

>  <SCORE.INTRA.POLAR>
0

>  <SCORE.INTRA.POLAR.0>
0

>  <SCORE.INTRA.REPUL>
0

>  <SCORE.INTRA.REPUL.0>
0

>  <SCORE.INTRA.SOLV>
0.685193

>  <SCORE.INTRA.SOLV.lig_0>
-70.101

>  <SCORE.INTRA.VDW>
1.67497

>  <SCORE.INTRA.VDW.0>
-3.39718

>  <SCORE.INTRA.norm>
-0.122814

>  <SCORE.RESTR>
0

>  <SCORE.RESTR.CAVITY>
0

>  <SCORE.RESTR.norm>
0

>  <SCORE.SYSTEM>
0

>  <SCORE.SYSTEM.CONST>
0

>  <SCORE.SYSTEM.DIHEDRAL>
0

>  <SCORE.SYSTEM.SOLV>
0

>  <SCORE.SYSTEM.norm>
0

>  <SCORE.heavy>
34

>  <SCORE.norm>
-0.308838

>  <RMSD>
8.937

$$$$
ligand
 OpenBabel11021811483D
libRbt.so/2013.1/901 2013/11/27
 34 36  0  0  0  0  0  0  0  0999 V2000
    9.5479    5.9482    4.0474 C   0  0  2  0  0  0  0  0  0  0  0  0
    9.4357    4.5204    4.1543 O   0  0  0  0  0  0  0  0  0  0  0  0
    8.3862    1.9362    7.3920 C   0  0  2  0  0  0  0  0  0  0  0  0
    8.3788    1.2771    8.6933 N   0  0  0  0  0  0  0  0  0  0  0  0
    6.5285    4.2762    9.3609 C   0  0  2  0  0  0  0  0  0  0  0  0
    9.2297    6.3496    2.5627 C   0  0  2  0  0  0  0  0  0  0  0  0
    7.8648    5.9505    2.1858 N   0  0  0  0  0  0  0  0  0  0  0  0
    9.8305    1.7969    6.8053 C   0  0  0  0  0  0  0  0  0  0  0  0
    5.1084    3.8769    9.9003 C   0  0  2  0  0  0  0  0  0  0  0  0
    5.0390    2.4720   10.0803 O   0  0  0  0  0  0  0  0  0  0  0  0
   10.2527    5.6777    1.6213 C   0  0  1  0  0  0  0  0  0  0  0  0
    9.9721    6.0472    0.2613 O   0  0  0  0  0  0  0  0  0  0  0  0
    9.8334    2.4840    5.3978 C   0  0  2  0  0  0  0  0  0  0  0  0
   11.1775    2.3905    4.7927 N   0  0  0  0  0  0  0  0  0  0  0  0
    4.0198    4.3709    8.8706 C   0  0  1  0  0  0  0  0  0  0  0  0
    2.6480    4.0003    9.3314 N   0  0  0  0  0  0  0  0  0  0  0  0
   11.6774    6.1066    2.0451 C   0  0  2  0  0  0  0  0  0  0  0  0
   12.6428    5.4794    1.1829 O   0  0  0  0  0  0  0  0  0  0  0  0
    9.4357    3.9781    5.5090 C   0  0  2  0  0  0  0  0  0  0  0  0
    4.1395    5.9250    8.7094 C   0  0  1  0  0  0  0  0  0  0  0  0
    3.8918    6.5561    9.9630 O   0  0  0  0  0  0  0  0  0  0  0  0
   11.9288    5.6952    3.5458 C   0  0  2  0  0  0  0  0  0  0  0  0
   10.9198    6.3294    4.4164 O   0  0  0  0  0  0  0  0  0  0  0  0
    8.0303    4.0891    6.1512 C   0  0  2  0  0  0  0  0  0  0  0  0
    7.6946    5.4685    6.2598 O   0  0  0  0  0  0  0  0  0  0  0  0
    5.5864    6.2674    8.2334 C   0  0  0  0  0  0  0  0  0  0  0  0
    6.5930    5.7332    9.1821 O   0  0  0  0  0  0  0  0  0  0  0  0
   13.3366    6.1238    4.0360 C   0  0  2  0  0  0  0  0  0  0  0  0
   14.3303    5.5157    3.2149 O   0  0  0  0  0  0  0  0  0  0  0  0
    8.0094    3.4648    7.5659 C   0  0  1  0  0  0  0  0  0  0  0  0
    6.6621    3.6120    8.0732 O   0  0  0  0  0  0  0  0  0  0  0  0
   13.5844    5.6917    5.4718 C   0  0  0  0  0  0  0  0  0  0  0  0
    3.1318    6.4758    7.7080 C   0  0  0  0  0  0  0  0  0  0  0  0
    2.2445    2.7637    8.6351 C   0  0  0  0  0  0  0  0  0  0  0  0
  1  2  1  6  0  0  0
  1  6  1  0  0  0  0
  1 23  1  0  0  0  0
  3  4  1  1  0  0  0
  3  8  1  0  0  0  0
  3 30  1  0  0  0  0
  5  9  1  0  0  0  0
  5 27  1  0  0  0  0
  5 31  1  6  0  0  0
  6  7  1  6  0  0  0
  6 11  1  0  0  0  0
  8 13  1  0  0  0  0
  9 10  1  6  0  0  0
  9 15  1  0  0  0  0
 11 12  1  6  0  0  0
 11 17  1  0  0  0  0
 13 14  1  1  0  0  0
 13 19  1  0  0  0  0
 15 16  1  1  0  0  0
 15 20  1  0  0  0  0
 16 34  1  0  0  0  0
 17 18  1  6  0  0  0
 17 22  1  0  0  0  0
 19  2  1  6  0  0  0
 19 24  1  0  0  0  0
 20 21  1  1  0  0  0
 20 26  1  0  0  0  0
 20 33  1  0  0  0  0
 22 23  1  1  0  0  0
 22 28  1  0  0  0  0
 24 25  1  1  0  0  0
 24 30  1  0  0  0  0
 26 27  1  0  0  0  0
 28 29  1  6  0  0  0
 28 32  1  0  0  0  0
 30 31  1  6  0  0  0
M  END
>  <CHROM.1>
-168.35647428,-159.45530685,-97.97330744,-59.02055635,118.62064548,-161.02217950
8.27099275,4.68576154,6.03546917,0.61075555,0.40573088,-0.87212064

>  <Name>
ligand

>  <RI>
0

>  <Rbt.Current_Directory>
/home/itssahil/PROJECTS/Mol_Feturizer/New_Systems/rnas/3TD1

>  <Rbt.Executable>
rbdock ($Id: //depot/dev/client3/rdock/2013.1/src/exe/rbdock.cxx#4 $)

>  <Rbt.Library>
libRbt.so (2013.1, Build901 2013/11/27)

>  <Rbt.Parameter_File>
/export/apps/rDock/src/rDock_2013.1_src/data/scripts/dock_solv.prm

>  <Rbt.Receptor>
prm/pocket_docking_7.prm

>  <SCORE>
-15.2163

>  <SCORE.INTER>
-10.5244

>  <SCORE.INTER.CONST>
1

>  <SCORE.INTER.POLAR>
0

>  <SCORE.INTER.ROT>
6

>  <SCORE.INTER.SOLV>
15.9424

>  <SCORE.INTER.VDW>
-19.9304

>  <SCORE.INTER.norm>
-0.30954

>  <SCORE.INTRA>
-4.69192

>  <SCORE.INTRA.DIHEDRAL>
-7.41544

>  <SCORE.INTRA.DIHEDRAL.0>
19.5869

>  <SCORE.INTRA.POLAR>
0

>  <SCORE.INTRA.POLAR.0>
0

>  <SCORE.INTRA.REPUL>
0

>  <SCORE.INTRA.REPUL.0>
0

>  <SCORE.INTRA.SOLV>
-1.2472

>  <SCORE.INTRA.SOLV.lig_0>
-70.101

>  <SCORE.INTRA.VDW>
-0.360606

>  <SCORE.INTRA.VDW.0>
-3.39718

>  <SCORE.INTRA.norm>
-0.137998

>  <SCORE.RESTR>
0

>  <SCORE.RESTR.CAVITY>
0

>  <SCORE.RESTR.norm>
0

>  <SCORE.SYSTEM>
0

>  <SCORE.SYSTEM.CONST>
0

>  <SCORE.SYSTEM.DIHEDRAL>
0

>  <SCORE.SYSTEM.SOLV>
0

>  <SCORE.SYSTEM.norm>
0

>  <SCORE.heavy>
34

>  <SCORE.norm>
-0.447538

>  <RMSD>
8.940

$$$$
ligand
 OpenBabel11021811483D
libRbt.so/2013.1/901 2013/11/27
 34 36  0  0  0  0  0  0  0  0999 V2000
   10.7365    6.4853    5.3769 C   0  0  2  0  0  0  0  0  0  0  0  0
   10.3055    5.2333    4.8208 O   0  0  0  0  0  0  0  0  0  0  0  0
    8.0980    1.9974    6.5290 C   0  0  2  0  0  0  0  0  0  0  0  0
    7.7108    0.8851    7.3897 N   0  0  0  0  0  0  0  0  0  0  0  0
    6.8058    4.3786    9.1603 C   0  0  2  0  0  0  0  0  0  0  0  0
   10.8803    7.5148    4.1996 C   0  0  2  0  0  0  0  0  0  0  0  0
    9.5958    7.7174    3.5115 N   0  0  0  0  0  0  0  0  0  0  0  0
    9.5146    1.6695    5.9497 C   0  0  0  0  0  0  0  0  0  0  0  0
    5.4448    3.9795    9.8352 C   0  0  2  0  0  0  0  0  0  0  0  0
    5.4137    2.5808   10.0665 O   0  0  0  0  0  0  0  0  0  0  0  0
   11.9377    7.0014    3.1982 C   0  0  1  0  0  0  0  0  0  0  0  0
   12.0802    7.9427    2.1220 O   0  0  0  0  0  0  0  0  0  0  0  0
    9.9212    2.8523    5.0071 C   0  0  2  0  0  0  0  0  0  0  0  0
   11.2584    2.6030    4.4317 N   0  0  0  0  0  0  0  0  0  0  0  0
    4.2626    4.4240    8.8896 C   0  0  1  0  0  0  0  0  0  0  0  0
    2.9425    4.0516    9.4811 N   0  0  0  0  0  0  0  0  0  0  0  0
   13.2737    6.7887    3.9488 C   0  0  2  0  0  0  0  0  0  0  0  0
   14.2666    6.2998    3.0303 O   0  0  0  0  0  0  0  0  0  0  0  0
    9.9503    4.1945    5.7821 C   0  0  2  0  0  0  0  0  0  0  0  0
    4.3431    5.9732    8.6677 C   0  0  1  0  0  0  0  0  0  0  0  0
    4.1959    6.6433    9.9168 O   0  0  0  0  0  0  0  0  0  0  0  0
   13.0606    5.7639    5.1274 C   0  0  2  0  0  0  0  0  0  0  0  0
   12.0258    6.2684    6.0509 O   0  0  0  0  0  0  0  0  0  0  0  0
    8.5544    4.4623    6.3982 C   0  0  2  0  0  0  0  0  0  0  0  0
    8.6102    5.6888    7.1192 O   0  0  0  0  0  0  0  0  0  0  0  0
    5.7372    6.3178    8.0553 C   0  0  0  0  0  0  0  0  0  0  0  0
    6.8312    5.8294    8.9288 O   0  0  0  0  0  0  0  0  0  0  0  0
   14.3643    5.5297    5.9344 C   0  0  2  0  0  0  0  0  0  0  0  0
   14.1117    4.5995    6.9842 O   0  0  0  0  0  0  0  0  0  0  0  0
    8.1474    3.3351    7.3756 C   0  0  1  0  0  0  0  0  0  0  0  0
    6.8369    3.6728    7.8882 O   0  0  0  0  0  0  0  0  0  0  0  0
   14.8736    6.8176    6.5601 C   0  0  0  0  0  0  0  0  0  0  0  0
    3.2430    6.4764    7.7412 C   0  0  0  0  0  0  0  0  0  0  0  0
    2.4636    2.8280    8.8100 C   0  0  0  0  0  0  0  0  0  0  0  0
  1  2  1  6  0  0  0
  1  6  1  0  0  0  0
  1 23  1  0  0  0  0
  3  4  1  1  0  0  0
  3  8  1  0  0  0  0
  3 30  1  0  0  0  0
  5  9  1  0  0  0  0
  5 27  1  0  0  0  0
  5 31  1  6  0  0  0
  6  7  1  6  0  0  0
  6 11  1  0  0  0  0
  8 13  1  0  0  0  0
  9 10  1  6  0  0  0
  9 15  1  0  0  0  0
 11 12  1  6  0  0  0
 11 17  1  0  0  0  0
 13 14  1  1  0  0  0
 13 19  1  0  0  0  0
 15 16  1  1  0  0  0
 15 20  1  0  0  0  0
 16 34  1  0  0  0  0
 17 18  1  6  0  0  0
 17 22  1  0  0  0  0
 19  2  1  6  0  0  0
 19 24  1  0  0  0  0
 20 21  1  1  0  0  0
 20 26  1  0  0  0  0
 20 33  1  0  0  0  0
 22 23  1  1  0  0  0
 22 28  1  0  0  0  0
 24 25  1  1  0  0  0
 24 30  1  0  0  0  0
 26 27  1  0  0  0  0
 28 29  1  1  0  0  0
 28 32  1  0  0  0  0
 30 31  1  6  0  0  0
M  END
>  <CHROM.1>
-172.44407686,-163.96085532,-101.10715307,179.90559653,149.01600678,-151.36781987
8.88371402,4.98594516,6.61064120,0.32443217,0.42216097,-0.29839062

>  <Name>
ligand

>  <RI>
0

>  <Rbt.Current_Directory>
/home/itssahil/PROJECTS/Mol_Feturizer/New_Systems/rnas/3TD1

>  <Rbt.Executable>
rbdock ($Id: //depot/dev/client3/rdock/2013.1/src/exe/rbdock.cxx#4 $)

>  <Rbt.Library>
libRbt.so (2013.1, Build901 2013/11/27)

>  <Rbt.Parameter_File>
/export/apps/rDock/src/rDock_2013.1_src/data/scripts/dock_solv.prm

>  <Rbt.Receptor>
prm/pocket_docking_6.prm

>  <SCORE>
-16.6538

>  <SCORE.INTER>
-11.0819

>  <SCORE.INTER.CONST>
1

>  <SCORE.INTER.POLAR>
0

>  <SCORE.INTER.ROT>
6

>  <SCORE.INTER.SOLV>
15.2201

>  <SCORE.INTER.VDW>
-20.0613

>  <SCORE.INTER.norm>
-0.325939

>  <SCORE.INTRA>
-5.57183

>  <SCORE.INTRA.DIHEDRAL>
-10.0501

>  <SCORE.INTRA.DIHEDRAL.0>
19.5869

>  <SCORE.INTRA.POLAR>
0

>  <SCORE.INTRA.POLAR.0>
0

>  <SCORE.INTRA.REPUL>
0

>  <SCORE.INTRA.REPUL.0>
0

>  <SCORE.INTRA.SOLV>
-2.59902

>  <SCORE.INTRA.SOLV.lig_0>
-70.101

>  <SCORE.INTRA.VDW>
0.752711

>  <SCORE.INTRA.VDW.0>
-3.39718

>  <SCORE.INTRA.norm>
-0.163877

>  <SCORE.RESTR>
0

>  <SCORE.RESTR.CAVITY>
0

>  <SCORE.RESTR.norm>
0

>  <SCORE.SYSTEM>
0

>  <SCORE.SYSTEM.CONST>
0

>  <SCORE.SYSTEM.DIHEDRAL>
0

>  <SCORE.SYSTEM.SOLV>
0

>  <SCORE.SYSTEM.norm>
0

>  <SCORE.heavy>
34

>  <SCORE.norm>
-0.489816

>  <RMSD>
8.941

$$$$
ligand
 OpenBabel11021811483D
libRbt.so/2013.1/901 2013/11/27
 34 36  0  0  0  0  0  0  0  0999 V2000
    9.5437    6.1642    4.1121 C   0  0  2  0  0  0  0  0  0  0  0  0
    9.2576    4.7578    4.0580 O   0  0  0  0  0  0  0  0  0  0  0  0
    8.1588    1.8746    7.0145 C   0  0  2  0  0  0  0  0  0  0  0  0
    8.1615    1.0590    8.2241 N   0  0  0  0  0  0  0  0  0  0  0  0
    6.5921    4.2854    9.2695 C   0  0  2  0  0  0  0  0  0  0  0  0
    9.0893    6.8040    2.7517 C   0  0  2  0  0  0  0  0  0  0  0  0
    7.6458    6.6207    2.5346 N   0  0  0  0  0  0  0  0  0  0  0  0
    9.5549    1.6993    6.3290 C   0  0  0  0  0  0  0  0  0  0  0  0
    5.2181    3.9142    9.9340 C   0  0  2  0  0  0  0  0  0  0  0  0
    5.1566    2.5164   10.1647 O   0  0  0  0  0  0  0  0  0  0  0  0
    9.8811    6.1586    1.5938 C   0  0  1  0  0  0  0  0  0  0  0  0
    9.4758    6.7452    0.3462 O   0  0  0  0  0  0  0  0  0  0  0  0
    9.5446    2.5562    5.0181 C   0  0  2  0  0  0  0  0  0  0  0  0
   10.8439    2.4362    4.3259 N   0  0  0  0  0  0  0  0  0  0  0  0
    4.0525    4.3828    8.9794 C   0  0  1  0  0  0  0  0  0  0  0  0
    2.7205    4.0375    9.5607 N   0  0  0  0  0  0  0  0  0  0  0  0
   11.3935    6.3579    1.8516 C   0  0  2  0  0  0  0  0  0  0  0  0
   12.1450    5.7518    0.7855 O   0  0  0  0  0  0  0  0  0  0  0  0
    9.2802    4.0505    5.3341 C   0  0  2  0  0  0  0  0  0  0  0  0
    4.1663    5.9300    8.7585 C   0  0  1  0  0  0  0  0  0  0  0  0
    4.0233    6.6030   10.0066 O   0  0  0  0  0  0  0  0  0  0  0  0
   11.7830    5.7136    3.2364 C   0  0  2  0  0  0  0  0  0  0  0  0
   10.9906    6.3303    4.3181 O   0  0  0  0  0  0  0  0  0  0  0  0
    7.9232    4.1878    6.0688 C   0  0  2  0  0  0  0  0  0  0  0  0
    7.7107    5.5643    6.3646 O   0  0  0  0  0  0  0  0  0  0  0  0
    5.5719    6.2462    8.1569 C   0  0  0  0  0  0  0  0  0  0  0  0
    6.6489    5.7354    9.0386 O   0  0  0  0  0  0  0  0  0  0  0  0
   13.2874    5.9052    3.5619 C   0  0  2  0  0  0  0  0  0  0  0  0
   13.6500    7.2663    3.3449 O   0  0  0  0  0  0  0  0  0  0  0  0
    7.9212    3.3935    7.3956 C   0  0  1  0  0  0  0  0  0  0  0  0
    6.6184    3.5792    7.9976 O   0  0  0  0  0  0  0  0  0  0  0  0
   14.1661    5.0377    2.6759 C   0  0  0  0  0  0  0  0  0  0  0  0
    3.0839    6.4558    7.8237 C   0  0  0  0  0  0  0  0  0  0  0  0
    2.2356    2.8068    8.9071 C   0  0  0  0  0  0  0  0  0  0  0  0
  1  2  1  6  0  0  0
  1  6  1  0  0  0  0
  1 23  1  0  0  0  0
  3  4  1  1  0  0  0
  3  8  1  0  0  0  0
  3 30  1  0  0  0  0
  5  9  1  0  0  0  0
  5 27  1  0  0  0  0
  5 31  1  6  0  0  0
  6  7  1  6  0  0  0
  6 11  1  0  0  0  0
  8 13  1  0  0  0  0
  9 10  1  6  0  0  0
  9 15  1  0  0  0  0
 11 12  1  6  0  0  0
 11 17  1  0  0  0  0
 13 14  1  1  0  0  0
 13 19  1  0  0  0  0
 15 16  1  1  0  0  0
 15 20  1  0  0  0  0
 16 34  1  0  0  0  0
 17 18  1  6  0  0  0
 17 22  1  0  0  0  0
 19  2  1  6  0  0  0
 19 24  1  0  0  0  0
 20 21  1  1  0  0  0
 20 26  1  0  0  0  0
 20 33  1  0  0  0  0
 22 23  1  1  0  0  0
 22 28  1  0  0  0  0
 24 25  1  1  0  0  0
 24 30  1  0  0  0  0
 26 27  1  0  0  0  0
 28 29  1  6  0  0  0
 28 32  1  0  0  0  0
 30 31  1  6  0  0  0
M  END
>  <CHROM.1>
-164.59881430,-156.74694324,-99.84645116,47.98044353,128.39412952,-160.40346692
8.16496969,4.81835668,5.87261648,0.58107715,0.53028631,-0.68587978

>  <Name>
ligand

>  <RI>
0

>  <Rbt.Current_Directory>
/home/itssahil/PROJECTS/Mol_Feturizer/New_Systems/rnas/3TD1

>  <Rbt.Executable>
rbdock ($Id: //depot/dev/client3/rdock/2013.1/src/exe/rbdock.cxx#4 $)

>  <Rbt.Library>
libRbt.so (2013.1, Build901 2013/11/27)

>  <Rbt.Parameter_File>
/export/apps/rDock/src/rDock_2013.1_src/data/scripts/dock_solv.prm

>  <Rbt.Receptor>
prm/pocket_docking_7.prm

>  <SCORE>
-15.1413

>  <SCORE.INTER>
-11.8054

>  <SCORE.INTER.CONST>
1

>  <SCORE.INTER.POLAR>
0

>  <SCORE.INTER.ROT>
6

>  <SCORE.INTER.SOLV>
17.4144

>  <SCORE.INTER.VDW>
-21.2751

>  <SCORE.INTER.norm>
-0.347217

>  <SCORE.INTRA>
-3.33587

>  <SCORE.INTRA.DIHEDRAL>
-6.16705

>  <SCORE.INTRA.DIHEDRAL.0>
19.5869

>  <SCORE.INTRA.POLAR>
0

>  <SCORE.INTRA.POLAR.0>
0

>  <SCORE.INTRA.REPUL>
0

>  <SCORE.INTRA.REPUL.0>
0

>  <SCORE.INTRA.SOLV>
-1.19716

>  <SCORE.INTRA.SOLV.lig_0>
-70.101

>  <SCORE.INTRA.VDW>
0.346235

>  <SCORE.INTRA.VDW.0>
-3.39718

>  <SCORE.INTRA.norm>
-0.098114

>  <SCORE.RESTR>
0

>  <SCORE.RESTR.CAVITY>
0

>  <SCORE.RESTR.norm>
0

>  <SCORE.SYSTEM>
0

>  <SCORE.SYSTEM.CONST>
0

>  <SCORE.SYSTEM.DIHEDRAL>
0

>  <SCORE.SYSTEM.SOLV>
0

>  <SCORE.SYSTEM.norm>
0

>  <SCORE.heavy>
34

>  <SCORE.norm>
-0.445331

>  <RMSD>
8.943

$$$$
ligand
 OpenBabel11021811483D
libRbt.so/2013.1/901 2013/11/27
 34 36  0  0  0  0  0  0  0  0999 V2000
   11.9961    4.9521    2.4044 C   0  0  2  0  0  0  0  0  0  0  0  0
   11.3483    6.0448    3.0744 O   0  0  0  0  0  0  0  0  0  0  0  0
    7.7216    6.1737    5.3310 C   0  0  2  0  0  0  0  0  0  0  0  0
    6.3096    6.1048    5.6910 N   0  0  0  0  0  0  0  0  0  0  0  0
    7.7774    2.4483    5.7130 C   0  0  2  0  0  0  0  0  0  0  0  0
   13.5304    5.2765    2.3194 C   0  0  2  0  0  0  0  0  0  0  0  0
   14.1164    5.4263    3.6604 N   0  0  0  0  0  0  0  0  0  0  0  0
    7.8492    7.1638    4.1255 C   0  0  0  0  0  0  0  0  0  0  0  0
    7.2210    1.8400    7.0500 C   0  0  2  0  0  0  0  0  0  0  0  0
    6.0796    2.5680    7.4721 O   0  0  0  0  0  0  0  0  0  0  0  0
   13.7339    6.5749    1.5088 C   0  0  1  0  0  0  0  0  0  0  0  0
   15.1367    6.8736    1.4203 O   0  0  0  0  0  0  0  0  0  0  0  0
    9.3677    7.2563    3.7532 C   0  0  2  0  0  0  0  0  0  0  0  0
    9.5530    8.1759    2.6123 N   0  0  0  0  0  0  0  0  0  0  0  0
    8.3604    1.8902    8.1403 C   0  0  1  0  0  0  0  0  0  0  0  0
    7.8750    1.3356    9.4396 N   0  0  0  0  0  0  0  0  0  0  0  0
   13.1014    6.3932    0.1086 C   0  0  2  0  0  0  0  0  0  0  0  0
   13.2739    7.5997   -0.6551 O   0  0  0  0  0  0  0  0  0  0  0  0
    9.9314    5.8635    3.3722 C   0  0  2  0  0  0  0  0  0  0  0  0
    9.5941    1.0727    7.6254 C   0  0  1  0  0  0  0  0  0  0  0  0
    9.2182   -0.2881    7.4302 O   0  0  0  0  0  0  0  0  0  0  0  0
   11.5702    6.0510    0.2607 C   0  0  2  0  0  0  0  0  0  0  0  0
   11.4072    4.8228    1.0627 O   0  0  0  0  0  0  0  0  0  0  0  0
    9.7342    4.8875    4.5589 C   0  0  2  0  0  0  0  0  0  0  0  0
   10.2418    3.6123    4.1798 O   0  0  0  0  0  0  0  0  0  0  0  0
   10.0639    1.6810    6.2664 C   0  0  0  0  0  0  0  0  0  0  0  0
    8.9563    1.6853    5.2807 O   0  0  0  0  0  0  0  0  0  0  0  0
   10.8862    5.8319   -1.1140 C   0  0  2  0  0  0  0  0  0  0  0  0
   11.0185    7.0114   -1.9030 O   0  0  0  0  0  0  0  0  0  0  0  0
    8.2374    4.7347    4.9163 C   0  0  1  0  0  0  0  0  0  0  0  0
    8.1607    3.8154    6.0314 O   0  0  0  0  0  0  0  0  0  0  0  0
    9.4041    5.5331   -0.9599 C   0  0  0  0  0  0  0  0  0  0  0  0
   10.7498    1.0946    8.6182 C   0  0  0  0  0  0  0  0  0  0  0  0
    7.4430    2.4610   10.2903 C   0  0  0  0  0  0  0  0  0  0  0  0
  1  2  1  6  0  0  0
  1  6  1  0  0  0  0
  1 23  1  0  0  0  0
  3  4  1  6  0  0  0
  3  8  1  0  0  0  0
  3 30  1  0  0  0  0
  5  9  1  0  0  0  0
  5 27  1  0  0  0  0
  5 31  1  1  0  0  0
  6  7  1  1  0  0  0
  6 11  1  0  0  0  0
  8 13  1  0  0  0  0
  9 10  1  1  0  0  0
  9 15  1  0  0  0  0
 11 12  1  6  0  0  0
 11 17  1  0  0  0  0
 13 14  1  6  0  0  0
 13 19  1  0  0  0  0
 15 16  1  1  0  0  0
 15 20  1  0  0  0  0
 16 34  1  0  0  0  0
 17 18  1  6  0  0  0
 17 22  1  0  0  0  0
 19  2  1  1  0  0  0
 19 24  1  0  0  0  0
 20 21  1  6  0  0  0
 20 26  1  0  0  0  0
 20 33  1  0  0  0  0
 22 23  1  1  0  0  0
 22 28  1  0  0  0  0
 24 25  1  6  0  0  0
 24 30  1  0  0  0  0
 26 27  1  0  0  0  0
 28 29  1  6  0  0  0
 28 32  1  0  0  0  0
 30 31  1  1  0  0  0
M  END
>  <CHROM.1>
-173.90735462,-166.10135636,-96.47434194,-59.22806679,142.76508920,-158.05839659
10.03801806,4.51297562,4.07562830,-1.10556354,-0.32867322,2.28632846

>  <Name>
ligand

>  <RI>
0

>  <Rbt.Current_Directory>
/home/itssahil/PROJECTS/Mol_Feturizer/New_Systems/rnas/3TD1

>  <Rbt.Executable>
rbdock ($Id: //depot/dev/client3/rdock/2013.1/src/exe/rbdock.cxx#4 $)

>  <Rbt.Library>
libRbt.so (2013.1, Build901 2013/11/27)

>  <Rbt.Parameter_File>
/export/apps/rDock/src/rDock_2013.1_src/data/scripts/dock_solv.prm

>  <Rbt.Receptor>
prm/pocket_docking_7.prm

>  <SCORE>
-14.0028

>  <SCORE.INTER>
-8.119

>  <SCORE.INTER.CONST>
1

>  <SCORE.INTER.POLAR>
0

>  <SCORE.INTER.ROT>
6

>  <SCORE.INTER.SOLV>
15.3866

>  <SCORE.INTER.VDW>
-18.1415

>  <SCORE.INTER.norm>
-0.238794

>  <SCORE.INTRA>
-5.88382

>  <SCORE.INTRA.DIHEDRAL>
-10.6418

>  <SCORE.INTRA.DIHEDRAL.0>
19.5869

>  <SCORE.INTRA.POLAR>
0

>  <SCORE.INTRA.POLAR.0>
0

>  <SCORE.INTRA.REPUL>
0

>  <SCORE.INTRA.REPUL.0>
0

>  <SCORE.INTRA.SOLV>
-2.30573

>  <SCORE.INTRA.SOLV.lig_0>
-70.101

>  <SCORE.INTRA.VDW>
0.589961

>  <SCORE.INTRA.VDW.0>
-3.39718

>  <SCORE.INTRA.norm>
-0.173054

>  <SCORE.RESTR>
0

>  <SCORE.RESTR.CAVITY>
0

>  <SCORE.RESTR.norm>
0

>  <SCORE.SYSTEM>
0

>  <SCORE.SYSTEM.CONST>
0

>  <SCORE.SYSTEM.DIHEDRAL>
0

>  <SCORE.SYSTEM.SOLV>
0

>  <SCORE.SYSTEM.norm>
0

>  <SCORE.heavy>
34

>  <SCORE.norm>
-0.411848

>  <RMSD>
8.947

$$$$
ligand
 OpenBabel11021811483D
libRbt.so/2013.1/901 2013/11/27
 34 36  0  0  0  0  0  0  0  0999 V2000
    9.6453    6.1570    4.1028 C   0  0  2  0  0  0  0  0  0  0  0  0
    9.2926    4.7661    4.0425 O   0  0  0  0  0  0  0  0  0  0  0  0
    8.1693    1.8674    6.9745 C   0  0  2  0  0  0  0  0  0  0  0  0
    8.1669    1.0394    8.1756 N   0  0  0  0  0  0  0  0  0  0  0  0
    6.6459    4.2782    9.2605 C   0  0  2  0  0  0  0  0  0  0  0  0
    9.1869    6.8320    2.7608 C   0  0  2  0  0  0  0  0  0  0  0  0
    7.7314    6.7182    2.5793 N   0  0  0  0  0  0  0  0  0  0  0  0
    9.5596    1.6805    6.2803 C   0  0  0  0  0  0  0  0  0  0  0  0
    5.2681    3.9240    9.9263 C   0  0  2  0  0  0  0  0  0  0  0  0
    5.1845    2.5255   10.1457 O   0  0  0  0  0  0  0  0  0  0  0  0
    9.9181    6.1631    1.5766 C   0  0  1  0  0  0  0  0  0  0  0  0
    9.5092    6.7815    0.3457 O   0  0  0  0  0  0  0  0  0  0  0  0
    9.5546    2.5510    4.9784 C   0  0  2  0  0  0  0  0  0  0  0  0
   10.8488    2.4208    4.2786 N   0  0  0  0  0  0  0  0  0  0  0  0
    4.1073    4.4193    8.9793 C   0  0  1  0  0  0  0  0  0  0  0  0
    2.7717    4.0909    9.5620 N   0  0  0  0  0  0  0  0  0  0  0  0
   11.4442    6.2893    1.7972 C   0  0  2  0  0  0  0  0  0  0  0  0
   12.1394    5.6607    0.7063 O   0  0  0  0  0  0  0  0  0  0  0  0
    9.3118    4.0454    5.3111 C   0  0  2  0  0  0  0  0  0  0  0  0
    4.2456    5.9663    8.7707 C   0  0  1  0  0  0  0  0  0  0  0  0
    4.1174    6.6311   10.0247 O   0  0  0  0  0  0  0  0  0  0  0  0
   11.8382    5.6126    3.1653 C   0  0  2  0  0  0  0  0  0  0  0  0
   11.1031    6.2537    4.2729 O   0  0  0  0  0  0  0  0  0  0  0  0
    7.9604    4.1933    6.0539 C   0  0  2  0  0  0  0  0  0  0  0  0
    7.7679    5.5693    6.3649 O   0  0  0  0  0  0  0  0  0  0  0  0
    5.6543    6.2645    8.1672 C   0  0  0  0  0  0  0  0  0  0  0  0
    6.7256    5.7290    9.0413 O   0  0  0  0  0  0  0  0  0  0  0  0
   13.3577    5.7307    3.4536 C   0  0  2  0  0  0  0  0  0  0  0  0
   13.7817    7.0714    3.2216 O   0  0  0  0  0  0  0  0  0  0  0  0
    7.9541    3.3853    7.3725 C   0  0  1  0  0  0  0  0  0  0  0  0
    6.6568    3.5822    7.9828 O   0  0  0  0  0  0  0  0  0  0  0  0
   14.1708    4.8176    2.5509 C   0  0  0  0  0  0  0  0  0  0  0  0
    3.1690    6.5172    7.8438 C   0  0  0  0  0  0  0  0  0  0  0  0
    2.2498    2.8932    8.8764 C   0  0  0  0  0  0  0  0  0  0  0  0
  1  2  1  6  0  0  0
  1  6  1  0  0  0  0
  1 23  1  0  0  0  0
  3  4  1  1  0  0  0
  3  8  1  0  0  0  0
  3 30  1  0  0  0  0
  5  9  1  0  0  0  0
  5 27  1  0  0  0  0
  5 31  1  6  0  0  0
  6  7  1  6  0  0  0
  6 11  1  0  0  0  0
  8 13  1  0  0  0  0
  9 10  1  6  0  0  0
  9 15  1  0  0  0  0
 11 12  1  6  0  0  0
 11 17  1  0  0  0  0
 13 14  1  1  0  0  0
 13 19  1  0  0  0  0
 15 16  1  1  0  0  0
 15 20  1  0  0  0  0
 16 34  1  0  0  0  0
 17 18  1  6  0  0  0
 17 22  1  0  0  0  0
 19  2  1  6  0  0  0
 19 24  1  0  0  0  0
 20 21  1  1  0  0  0
 20 26  1  0  0  0  0
 20 33  1  0  0  0  0
 22 23  1  1  0  0  0
 22 28  1  0  0  0  0
 24 25  1  1  0  0  0
 24 30  1  0  0  0  0
 26 27  1  0  0  0  0
 28 29  1  6  0  0  0
 28 32  1  0  0  0  0
 30 31  1  6  0  0  0
M  END
>  <CHROM.1>
-164.47602669,-154.56813961,-101.24328978,47.13389559,128.53248493,-160.65206018
8.21553891,4.80304195,5.84599871,0.56943211,0.54530255,-0.67994320

>  <Name>
ligand

>  <RI>
0

>  <Rbt.Current_Directory>
/home/itssahil/PROJECTS/Mol_Feturizer/New_Systems/rnas/3TD1

>  <Rbt.Executable>
rbdock ($Id: //depot/dev/client3/rdock/2013.1/src/exe/rbdock.cxx#4 $)

>  <Rbt.Library>
libRbt.so (2013.1, Build901 2013/11/27)

>  <Rbt.Parameter_File>
/export/apps/rDock/src/rDock_2013.1_src/data/scripts/dock_solv.prm

>  <Rbt.Receptor>
prm/pocket_docking_7.prm

>  <SCORE>
-15.1496

>  <SCORE.INTER>
-11.9952

>  <SCORE.INTER.CONST>
1

>  <SCORE.INTER.POLAR>
0

>  <SCORE.INTER.ROT>
6

>  <SCORE.INTER.SOLV>
17.4403

>  <SCORE.INTER.VDW>
-21.4102

>  <SCORE.INTER.norm>
-0.352801

>  <SCORE.INTRA>
-3.15438

>  <SCORE.INTRA.DIHEDRAL>
-5.69962

>  <SCORE.INTRA.DIHEDRAL.0>
19.5869

>  <SCORE.INTRA.POLAR>
0

>  <SCORE.INTRA.POLAR.0>
0

>  <SCORE.INTRA.REPUL>
0

>  <SCORE.INTRA.REPUL.0>
0

>  <SCORE.INTRA.SOLV>
-1.02714

>  <SCORE.INTRA.SOLV.lig_0>
-70.101

>  <SCORE.INTRA.VDW>
0.209002

>  <SCORE.INTRA.VDW.0>
-3.39718

>  <SCORE.INTRA.norm>
-0.0927758

>  <SCORE.RESTR>
0

>  <SCORE.RESTR.CAVITY>
0

>  <SCORE.RESTR.norm>
0

>  <SCORE.SYSTEM>
0

>  <SCORE.SYSTEM.CONST>
0

>  <SCORE.SYSTEM.DIHEDRAL>
0

>  <SCORE.SYSTEM.SOLV>
0

>  <SCORE.SYSTEM.norm>
0

>  <SCORE.heavy>
34

>  <SCORE.norm>
-0.445576

>  <RMSD>
8.949

$$$$
ligand
 OpenBabel11021811483D
libRbt.so/2013.1/901 2013/11/27
 34 36  0  0  0  0  0  0  0  0999 V2000
    9.6474    6.1400    4.1582 C   0  0  2  0  0  0  0  0  0  0  0  0
    9.3193    4.7439    4.0826 O   0  0  0  0  0  0  0  0  0  0  0  0
    8.1835    1.8244    6.9893 C   0  0  2  0  0  0  0  0  0  0  0  0
    8.1763    0.9876    8.1842 N   0  0  0  0  0  0  0  0  0  0  0  0
    6.6523    4.2344    9.2796 C   0  0  2  0  0  0  0  0  0  0  0  0
    9.1779    6.8213    2.8233 C   0  0  2  0  0  0  0  0  0  0  0  0
    7.7248    6.6838    2.6395 N   0  0  0  0  0  0  0  0  0  0  0  0
    9.5761    1.6416    6.2986 C   0  0  0  0  0  0  0  0  0  0  0  0
    5.2867    3.8550    9.9564 C   0  0  2  0  0  0  0  0  0  0  0  0
    5.2333    2.4562   10.1826 O   0  0  0  0  0  0  0  0  0  0  0  0
    9.9215    6.1782    1.6325 C   0  0  1  0  0  0  0  0  0  0  0  0
    9.5024    6.8025    0.4080 O   0  0  0  0  0  0  0  0  0  0  0  0
    9.5763    2.5217    5.0031 C   0  0  2  0  0  0  0  0  0  0  0  0
   10.8728    2.3956    4.3069 N   0  0  0  0  0  0  0  0  0  0  0  0
    4.1096    4.3223    9.0154 C   0  0  1  0  0  0  0  0  0  0  0  0
    2.7850    3.9692    9.6088 N   0  0  0  0  0  0  0  0  0  0  0  0
   11.4450    6.3288    1.8556 C   0  0  2  0  0  0  0  0  0  0  0  0
   12.1517    5.7243    0.7585 O   0  0  0  0  0  0  0  0  0  0  0  0
    9.3335    4.0137    5.3460 C   0  0  2  0  0  0  0  0  0  0  0  0
    4.2148    5.8707    8.7990 C   0  0  1  0  0  0  0  0  0  0  0  0
    4.0815    6.5385   10.0510 O   0  0  0  0  0  0  0  0  0  0  0  0
   11.8501    5.6444    3.2165 C   0  0  2  0  0  0  0  0  0  0  0  0
   11.1032    6.2604    4.3305 O   0  0  0  0  0  0  0  0  0  0  0  0
    7.9796    4.1572    6.0851 C   0  0  2  0  0  0  0  0  0  0  0  0
    7.7871    5.5311    6.4056 O   0  0  0  0  0  0  0  0  0  0  0  0
    5.6128    6.1950    8.1845 C   0  0  0  0  0  0  0  0  0  0  0  0
    6.7008    5.6855    9.0535 O   0  0  0  0  0  0  0  0  0  0  0  0
   13.3671    5.7860    3.5072 C   0  0  2  0  0  0  0  0  0  0  0  0
   13.7665    7.1377    3.2954 O   0  0  0  0  0  0  0  0  0  0  0  0
    7.9681    3.3395    7.3977 C   0  0  1  0  0  0  0  0  0  0  0  0
    6.6688    3.5330    8.0049 O   0  0  0  0  0  0  0  0  0  0  0  0
   14.1970    4.9017    2.5913 C   0  0  0  0  0  0  0  0  0  0  0  0
    3.1208    6.3954    7.8772 C   0  0  0  0  0  0  0  0  0  0  0  0
    2.2424    2.8112    8.8729 C   0  0  0  0  0  0  0  0  0  0  0  0
  1  2  1  6  0  0  0
  1  6  1  0  0  0  0
  1 23  1  0  0  0  0
  3  4  1  1  0  0  0
  3  8  1  0  0  0  0
  3 30  1  0  0  0  0
  5  9  1  0  0  0  0
  5 27  1  0  0  0  0
  5 31  1  6  0  0  0
  6  7  1  6  0  0  0
  6 11  1  0  0  0  0
  8 13  1  0  0  0  0
  9 10  1  6  0  0  0
  9 15  1  0  0  0  0
 11 12  1  6  0  0  0
 11 17  1  0  0  0  0
 13 14  1  1  0  0  0
 13 19  1  0  0  0  0
 15 16  1  1  0  0  0
 15 20  1  0  0  0  0
 16 34  1  0  0  0  0
 17 18  1  6  0  0  0
 17 22  1  0  0  0  0
 19  2  1  6  0  0  0
 19 24  1  0  0  0  0
 20 21  1  1  0  0  0
 20 26  1  0  0  0  0
 20 33  1  0  0  0  0
 22 23  1  1  0  0  0
 22 28  1  0  0  0  0
 24 25  1  1  0  0  0
 24 30  1  0  0  0  0
 26 27  1  0  0  0  0
 28 29  1  6  0  0  0
 28 32  1  0  0  0  0
 30 31  1  6  0  0  0
M  END
>  <CHROM.1>
-163.70715353,-155.73945779,-104.89397681,47.37756616,129.27836781,-159.62169937
8.21918018,4.77423641,5.88302376,0.57440935,0.53766008,-0.67365838

>  <Name>
ligand

>  <RI>
0

>  <Rbt.Current_Directory>
/home/itssahil/PROJECTS/Mol_Feturizer/New_Systems/rnas/3TD1

>  <Rbt.Executable>
rbdock ($Id: //depot/dev/client3/rdock/2013.1/src/exe/rbdock.cxx#4 $)

>  <Rbt.Library>
libRbt.so (2013.1, Build901 2013/11/27)

>  <Rbt.Parameter_File>
/export/apps/rDock/src/rDock_2013.1_src/data/scripts/dock_solv.prm

>  <Rbt.Receptor>
prm/pocket_docking_6.prm

>  <SCORE>
-15.0803

>  <SCORE.INTER>
-11.8836

>  <SCORE.INTER.CONST>
1

>  <SCORE.INTER.POLAR>
0

>  <SCORE.INTER.ROT>
6

>  <SCORE.INTER.SOLV>
17.3419

>  <SCORE.INTER.VDW>
-21.303

>  <SCORE.INTER.norm>
-0.349517

>  <SCORE.INTRA>
-3.19667

>  <SCORE.INTRA.DIHEDRAL>
-5.63279

>  <SCORE.INTRA.DIHEDRAL.0>
19.5869

>  <SCORE.INTRA.POLAR>
0

>  <SCORE.INTRA.POLAR.0>
0

>  <SCORE.INTRA.REPUL>
0

>  <SCORE.INTRA.REPUL.0>
0

>  <SCORE.INTRA.SOLV>
-1.1087

>  <SCORE.INTRA.SOLV.lig_0>
-70.101

>  <SCORE.INTRA.VDW>
0.174081

>  <SCORE.INTRA.VDW.0>
-3.39718

>  <SCORE.INTRA.norm>
-0.0940196

>  <SCORE.RESTR>
0

>  <SCORE.RESTR.CAVITY>
0

>  <SCORE.RESTR.norm>
0

>  <SCORE.SYSTEM>
0

>  <SCORE.SYSTEM.CONST>
0

>  <SCORE.SYSTEM.DIHEDRAL>
0

>  <SCORE.SYSTEM.SOLV>
0

>  <SCORE.SYSTEM.norm>
0

>  <SCORE.heavy>
34

>  <SCORE.norm>
-0.443537

>  <RMSD>
8.956

$$$$
ligand
 OpenBabel11021811483D
libRbt.so/2013.1/901 2013/11/27
 34 36  0  0  0  0  0  0  0  0999 V2000
   10.6778    6.9547    7.1446 C   0  0  2  0  0  0  0  0  0  0  0  0
   10.9719    5.5547    7.0179 O   0  0  0  0  0  0  0  0  0  0  0  0
    8.9028    2.2599    8.7855 C   0  0  2  0  0  0  0  0  0  0  0  0
    8.4067    1.2981    9.7638 N   0  0  0  0  0  0  0  0  0  0  0  0
    6.1833    4.4043   10.0855 C   0  0  2  0  0  0  0  0  0  0  0  0
   11.4163    7.7122    5.9839 C   0  0  2  0  0  0  0  0  0  0  0  0
   10.9537    7.2467    4.6673 N   0  0  0  0  0  0  0  0  0  0  0  0
   10.4654    2.2531    8.8736 C   0  0  0  0  0  0  0  0  0  0  0  0
    4.7451    3.7731   10.0985 C   0  0  2  0  0  0  0  0  0  0  0  0
    4.8306    2.3851   10.3757 O   0  0  0  0  0  0  0  0  0  0  0  0
   12.9386    7.4888    6.1153 C   0  0  1  0  0  0  0  0  0  0  0  0
   13.6214    8.1860    5.0605 O   0  0  0  0  0  0  0  0  0  0  0  0
   10.9997    3.2684    7.8075 C   0  0  2  0  0  0  0  0  0  0  0  0
   12.4756    3.3118    7.8463 N   0  0  0  0  0  0  0  0  0  0  0  0
    4.0679    4.0304    8.6969 C   0  0  1  0  0  0  0  0  0  0  0  0
    2.6992    3.4337    8.6523 N   0  0  0  0  0  0  0  0  0  0  0  0
   13.3961    7.9779    7.5099 C   0  0  2  0  0  0  0  0  0  0  0  0
   14.8116    7.7661    7.6512 O   0  0  0  0  0  0  0  0  0  0  0  0
   10.4485    4.6927    8.0725 C   0  0  2  0  0  0  0  0  0  0  0  0
    3.9979    5.5748    8.4410 C   0  0  1  0  0  0  0  0  0  0  0  0
    3.1974    6.1902    9.4468 O   0  0  0  0  0  0  0  0  0  0  0  0
   12.6072    7.1968    8.6290 C   0  0  2  0  0  0  0  0  0  0  0  0
   11.1561    7.4067    8.4602 O   0  0  0  0  0  0  0  0  0  0  0  0
    8.9000    4.6578    8.0432 C   0  0  2  0  0  0  0  0  0  0  0  0
    8.4167    5.9709    8.3068 O   0  0  0  0  0  0  0  0  0  0  0  0
    5.4453    6.1568    8.5020 C   0  0  0  0  0  0  0  0  0  0  0  0
    6.0847    5.8427    9.8024 O   0  0  0  0  0  0  0  0  0  0  0  0
   13.0067    7.6643   10.0529 C   0  0  2  0  0  0  0  0  0  0  0  0
   13.0171    9.0887   10.0990 O   0  0  0  0  0  0  0  0  0  0  0  0
    8.3402    3.7017    9.1222 C   0  0  1  0  0  0  0  0  0  0  0  0
    6.8979    3.7348    9.0091 O   0  0  0  0  0  0  0  0  0  0  0  0
   14.3926    7.1714   10.4351 C   0  0  0  0  0  0  0  0  0  0  0  0
    3.3749    5.9035    7.0899 C   0  0  0  0  0  0  0  0  0  0  0  0
    2.8194    2.0336    8.2025 C   0  0  0  0  0  0  0  0  0  0  0  0
  1  2  1  6  0  0  0
  1  6  1  0  0  0  0
  1 23  1  0  0  0  0
  3  4  1  1  0  0  0
  3  8  1  0  0  0  0
  3 30  1  0  0  0  0
  5  9  1  0  0  0  0
  5 27  1  0  0  0  0
  5 31  1  6  0  0  0
  6  7  1  6  0  0  0
  6 11  1  0  0  0  0
  8 13  1  0  0  0  0
  9 10  1  6  0  0  0
  9 15  1  0  0  0  0
 11 12  1  6  0  0  0
 11 17  1  0  0  0  0
 13 14  1  1  0  0  0
 13 19  1  0  0  0  0
 15 16  1  1  0  0  0
 15 20  1  0  0  0  0
 16 34  1  0  0  0  0
 17 18  1  1  0  0  0
 17 22  1  0  0  0  0
 19  2  1  6  0  0  0
 19 24  1  0  0  0  0
 20 21  1  1  0  0  0
 20 26  1  0  0  0  0
 20 33  1  0  0  0  0
 22 23  1  6  0  0  0
 22 28  1  0  0  0  0
 24 25  1  1  0  0  0
 24 30  1  0  0  0  0
 26 27  1  0  0  0  0
 28 29  1  6  0  0  0
 28 32  1  0  0  0  0
 30 31  1  6  0  0  0
M  END
>  <CHROM.1>
175.70221378,-174.54551801,-88.05836819,46.66773618,134.99512749,-155.08262121
8.95895580,5.39209277,8.35834064,0.39405913,0.00425308,-0.35870044

>  <Name>
ligand

>  <RI>
0

>  <Rbt.Current_Directory>
/home/itssahil/PROJECTS/Mol_Feturizer/New_Systems/rnas/3TD1

>  <Rbt.Executable>
rbdock ($Id: //depot/dev/client3/rdock/2013.1/src/exe/rbdock.cxx#4 $)

>  <Rbt.Library>
libRbt.so (2013.1, Build901 2013/11/27)

>  <Rbt.Parameter_File>
/export/apps/rDock/src/rDock_2013.1_src/data/scripts/dock_solv.prm

>  <Rbt.Receptor>
prm/pocket_docking_6.prm

>  <SCORE>
-13.3413

>  <SCORE.INTER>
-8.85542

>  <SCORE.INTER.CONST>
1

>  <SCORE.INTER.POLAR>
0

>  <SCORE.INTER.ROT>
6

>  <SCORE.INTER.SOLV>
11.7067

>  <SCORE.INTER.VDW>
-17.4058

>  <SCORE.INTER.norm>
-0.260454

>  <SCORE.INTRA>
-4.48583

>  <SCORE.INTRA.DIHEDRAL>
-9.42094

>  <SCORE.INTRA.DIHEDRAL.0>
19.5869

>  <SCORE.INTRA.POLAR>
0

>  <SCORE.INTRA.POLAR.0>
0

>  <SCORE.INTRA.REPUL>
0

>  <SCORE.INTRA.REPUL.0>
0

>  <SCORE.INTRA.SOLV>
-2.3669

>  <SCORE.INTRA.SOLV.lig_0>
-70.101

>  <SCORE.INTRA.VDW>
1.40809

>  <SCORE.INTRA.VDW.0>
-3.39718

>  <SCORE.INTRA.norm>
-0.131936

>  <SCORE.RESTR>
0

>  <SCORE.RESTR.CAVITY>
0

>  <SCORE.RESTR.norm>
0

>  <SCORE.SYSTEM>
0

>  <SCORE.SYSTEM.CONST>
0

>  <SCORE.SYSTEM.DIHEDRAL>
0

>  <SCORE.SYSTEM.SOLV>
0

>  <SCORE.SYSTEM.norm>
0

>  <SCORE.heavy>
34

>  <SCORE.norm>
-0.39239

>  <RMSD>
8.964

$$$$
ligand
 OpenBabel11021811483D
libRbt.so/2013.1/901 2013/11/27
 34 36  0  0  0  0  0  0  0  0999 V2000
    8.0094    8.4291    1.8866 C   0  0  2  0  0  0  0  0  0  0  0  0
    9.3139    8.2614    2.4637 O   0  0  0  0  0  0  0  0  0  0  0  0
   13.2290    9.2926    1.0963 C   0  0  2  0  0  0  0  0  0  0  0  0
   14.4322    9.3825    0.2762 N   0  0  0  0  0  0  0  0  0  0  0  0
   13.6442   11.7858   -0.1108 C   0  0  2  0  0  0  0  0  0  0  0  0
    6.9464    8.2309    3.0256 C   0  0  2  0  0  0  0  0  0  0  0  0
    7.1238    9.2242    4.0961 N   0  0  0  0  0  0  0  0  0  0  0  0
   12.9261    7.7731    1.3175 C   0  0  0  0  0  0  0  0  0  0  0  0
   13.7505   13.3055    0.2718 C   0  0  2  0  0  0  0  0  0  0  0  0
   13.4809   13.4743    1.6537 O   0  0  0  0  0  0  0  0  0  0  0  0
    7.0774    6.8053    3.6043 C   0  0  1  0  0  0  0  0  0  0  0  0
    6.1019    6.6143    4.6420 O   0  0  0  0  0  0  0  0  0  0  0  0
   11.6479    7.6757    2.2172 C   0  0  2  0  0  0  0  0  0  0  0  0
   11.3060    6.2591    2.4577 N   0  0  0  0  0  0  0  0  0  0  0  0
   12.7266   14.1210   -0.6091 C   0  0  1  0  0  0  0  0  0  0  0  0
   12.7776   15.5751   -0.2712 N   0  0  0  0  0  0  0  0  0  0  0  0
    6.8959    5.7828    2.4576 C   0  0  2  0  0  0  0  0  0  0  0  0
    7.0261    4.4491    2.9800 O   0  0  0  0  0  0  0  0  0  0  0  0
   10.4404    8.3762    1.5433 C   0  0  2  0  0  0  0  0  0  0  0  0
   13.0685   13.9006   -2.1224 C   0  0  1  0  0  0  0  0  0  0  0  0
   14.3806   14.3873   -2.3918 O   0  0  0  0  0  0  0  0  0  0  0  0
    7.9758    6.0450    1.3397 C   0  0  2  0  0  0  0  0  0  0  0  0
    7.8438    7.4226    0.8269 O   0  0  0  0  0  0  0  0  0  0  0  0
   10.7910    9.8616    1.2778 C   0  0  2  0  0  0  0  0  0  0  0  0
    9.6760   10.4790    0.6429 O   0  0  0  0  0  0  0  0  0  0  0  0
   13.0094   12.3711   -2.4299 C   0  0  0  0  0  0  0  0  0  0  0  0
   13.9296   11.6199   -1.5426 O   0  0  0  0  0  0  0  0  0  0  0  0
    7.8266    5.0631    0.1483 C   0  0  2  0  0  0  0  0  0  0  0  0
    8.9400    5.2095   -0.7293 O   0  0  0  0  0  0  0  0  0  0  0  0
   12.0199    9.9901    0.3479 C   0  0  1  0  0  0  0  0  0  0  0  0
   12.2680   11.4044    0.1681 O   0  0  0  0  0  0  0  0  0  0  0  0
    6.5614    5.3378   -0.6476 C   0  0  0  0  0  0  0  0  0  0  0  0
   12.1039   14.6408   -3.0408 C   0  0  0  0  0  0  0  0  0  0  0  0
   11.4604   16.1669   -0.5743 C   0  0  0  0  0  0  0  0  0  0  0  0
  1  2  1  1  0  0  0
  1  6  1  0  0  0  0
  1 23  1  0  0  0  0
  3  4  1  6  0  0  0
  3  8  1  0  0  0  0
  3 30  1  0  0  0  0
  5  9  1  0  0  0  0
  5 27  1  0  0  0  0
  5 31  1  6  0  0  0
  6  7  1  1  0  0  0
  6 11  1  0  0  0  0
  8 13  1  0  0  0  0
  9 10  1  1  0  0  0
  9 15  1  0  0  0  0
 11 12  1  1  0  0  0
 11 17  1  0  0  0  0
 13 14  1  6  0  0  0
 13 19  1  0  0  0  0
 15 16  1  1  0  0  0
 15 20  1  0  0  0  0
 16 34  1  0  0  0  0
 17 18  1  1  0  0  0
 17 22  1  0  0  0  0
 19  2  1  1  0  0  0
 19 24  1  0  0  0  0
 20 21  1  6  0  0  0
 20 26  1  0  0  0  0
 20 33  1  0  0  0  0
 22 23  1  6  0  0  0
 22 28  1  0  0  0  0
 24 25  1  6  0  0  0
 24 30  1  0  0  0  0
 26 27  1  0  0  0  0
 28 29  1  6  0  0  0
 28 32  1  0  0  0  0
 30 31  1  1  0  0  0
M  END
>  <CHROM.1>
178.47762878,-159.85686730,-152.86892733,-171.30512318,36.35422482,-159.20001632
10.59400183,9.67370168,0.75891736,2.29165797,-0.52564764,-3.13144516

>  <Name>
ligand

>  <RI>
0

>  <Rbt.Current_Directory>
/home/itssahil/PROJECTS/Mol_Feturizer/New_Systems/rnas/3TD1

>  <Rbt.Executable>
rbdock ($Id: //depot/dev/client3/rdock/2013.1/src/exe/rbdock.cxx#4 $)

>  <Rbt.Library>
libRbt.so (2013.1, Build901 2013/11/27)

>  <Rbt.Parameter_File>
/export/apps/rDock/src/rDock_2013.1_src/data/scripts/dock_solv.prm

>  <Rbt.Receptor>
prm/blind_docking_40.prm

>  <SCORE>
8.63384

>  <SCORE.INTER>
2.8152

>  <SCORE.INTER.CONST>
1

>  <SCORE.INTER.POLAR>
0

>  <SCORE.INTER.ROT>
6

>  <SCORE.INTER.SOLV>
29.1779

>  <SCORE.INTER.VDW>
-15.4492

>  <SCORE.INTER.norm>
0.0827999

>  <SCORE.INTRA>
-0.935447

>  <SCORE.INTRA.DIHEDRAL>
-12.5729

>  <SCORE.INTRA.DIHEDRAL.0>
19.5869

>  <SCORE.INTRA.POLAR>
0

>  <SCORE.INTRA.POLAR.0>
0

>  <SCORE.INTRA.REPUL>
0

>  <SCORE.INTRA.REPUL.0>
0

>  <SCORE.INTRA.SOLV>
-0.605917

>  <SCORE.INTRA.SOLV.lig_0>
-70.101

>  <SCORE.INTRA.VDW>
5.65394

>  <SCORE.INTRA.VDW.0>
-3.39718

>  <SCORE.INTRA.norm>
-0.0275131

>  <SCORE.RESTR>
6.75409

>  <SCORE.RESTR.CAVITY>
6.75409

>  <SCORE.RESTR.norm>
0.19865

>  <SCORE.SYSTEM>
0

>  <SCORE.SYSTEM.CONST>
0

>  <SCORE.SYSTEM.DIHEDRAL>
0

>  <SCORE.SYSTEM.SOLV>
0

>  <SCORE.SYSTEM.norm>
0

>  <SCORE.heavy>
34

>  <SCORE.norm>
0.253936

>  <RMSD>
8.978

$$$$
ligand
 OpenBabel11021811483D
libRbt.so/2013.1/901 2013/11/27
 34 36  0  0  0  0  0  0  0  0999 V2000
   10.2374    6.0544    4.1298 C   0  0  2  0  0  0  0  0  0  0  0  0
    9.4014    4.8868    4.1077 O   0  0  0  0  0  0  0  0  0  0  0  0
    8.1649    1.8464    6.8442 C   0  0  2  0  0  0  0  0  0  0  0  0
    8.1307    0.9402    7.9869 N   0  0  0  0  0  0  0  0  0  0  0  0
    6.7323    4.3287    9.2033 C   0  0  2  0  0  0  0  0  0  0  0  0
    9.7631    7.0121    2.9790 C   0  0  2  0  0  0  0  0  0  0  0  0
    8.3647    7.4251    3.1744 N   0  0  0  0  0  0  0  0  0  0  0  0
    9.5443    1.6489    6.1316 C   0  0  0  0  0  0  0  0  0  0  0  0
    5.4056    3.9470    9.9525 C   0  0  2  0  0  0  0  0  0  0  0  0
    5.4094    2.5637   10.2645 O   0  0  0  0  0  0  0  0  0  0  0  0
    9.9139    6.2928    1.6210 C   0  0  1  0  0  0  0  0  0  0  0  0
    9.4890    7.1666    0.5623 O   0  0  0  0  0  0  0  0  0  0  0  0
    9.5726    2.6047    4.8912 C   0  0  2  0  0  0  0  0  0  0  0  0
   10.8584    2.4681    4.1773 N   0  0  0  0  0  0  0  0  0  0  0  0
    4.1802    4.3165    9.0298 C   0  0  1  0  0  0  0  0  0  0  0  0
    2.8907    3.9573    9.6926 N   0  0  0  0  0  0  0  0  0  0  0  0
   11.3895    5.8622    1.4457 C   0  0  2  0  0  0  0  0  0  0  0  0
   11.5435    5.1807    0.1886 O   0  0  0  0  0  0  0  0  0  0  0  0
    9.3936    4.0821    5.3249 C   0  0  2  0  0  0  0  0  0  0  0  0
    4.2233    5.8513    8.7166 C   0  0  1  0  0  0  0  0  0  0  0  0
    4.1111    6.5902    9.9301 O   0  0  0  0  0  0  0  0  0  0  0  0
   11.8109    4.9215    2.6382 C   0  0  2  0  0  0  0  0  0  0  0  0
   11.6292    5.6261    3.9223 O   0  0  0  0  0  0  0  0  0  0  0  0
    8.0514    4.2357    6.0831 C   0  0  2  0  0  0  0  0  0  0  0  0
    7.9176    5.5946    6.4870 O   0  0  0  0  0  0  0  0  0  0  0  0
    5.5865    6.1828    8.0316 C   0  0  0  0  0  0  0  0  0  0  0  0
    6.7218    5.7638    8.8884 O   0  0  0  0  0  0  0  0  0  0  0  0
   13.2929    4.4770    2.5297 C   0  0  2  0  0  0  0  0  0  0  0  0
   13.6002    3.5855    3.5984 O   0  0  0  0  0  0  0  0  0  0  0  0
    8.0145    3.3417    7.3444 C   0  0  1  0  0  0  0  0  0  0  0  0
    6.7282    3.5510    7.9735 O   0  0  0  0  0  0  0  0  0  0  0  0
   14.2402    5.6620    2.6190 C   0  0  0  0  0  0  0  0  0  0  0  0
    3.0796    6.2820    7.8064 C   0  0  0  0  0  0  0  0  0  0  0  0
    2.2883    2.8317    8.9531 C   0  0  0  0  0  0  0  0  0  0  0  0
  1  2  1  6  0  0  0
  1  6  1  0  0  0  0
  1 23  1  0  0  0  0
  3  4  1  1  0  0  0
  3  8  1  0  0  0  0
  3 30  1  0  0  0  0
  5  9  1  0  0  0  0
  5 27  1  0  0  0  0
  5 31  1  6  0  0  0
  6  7  1  1  0  0  0
  6 11  1  0  0  0  0
  8 13  1  0  0  0  0
  9 10  1  6  0  0  0
  9 15  1  0  0  0  0
 11 12  1  6  0  0  0
 11 17  1  0  0  0  0
 13 14  1  1  0  0  0
 13 19  1  0  0  0  0
 15 16  1  1  0  0  0
 15 20  1  0  0  0  0
 16 34  1  0  0  0  0
 17 18  1  6  0  0  0
 17 22  1  0  0  0  0
 19  2  1  6  0  0  0
 19 24  1  0  0  0  0
 20 21  1  1  0  0  0
 20 26  1  0  0  0  0
 20 33  1  0  0  0  0
 22 23  1  1  0  0  0
 22 28  1  0  0  0  0
 24 25  1  1  0  0  0
 24 30  1  0  0  0  0
 26 27  1  0  0  0  0
 28 29  1  1  0  0  0
 28 32  1  0  0  0  0
 30 31  1  6  0  0  0
M  END
>  <CHROM.1>
-161.48405696,-132.79864556,-111.15042264,-177.51238356,137.03840227,-158.48475985
8.28524604,4.63738070,5.79922623,0.53914340,0.57921389,-0.69208146

>  <Name>
ligand

>  <RI>
0

>  <Rbt.Current_Directory>
/home/itssahil/PROJECTS/Mol_Feturizer/New_Systems/rnas/3TD1

>  <Rbt.Executable>
rbdock ($Id: //depot/dev/client3/rdock/2013.1/src/exe/rbdock.cxx#4 $)

>  <Rbt.Library>
libRbt.so (2013.1, Build901 2013/11/27)

>  <Rbt.Parameter_File>
/export/apps/rDock/src/rDock_2013.1_src/data/scripts/dock_solv.prm

>  <Rbt.Receptor>
prm/pocket_docking_7.prm

>  <SCORE>
-14.6122

>  <SCORE.INTER>
-13.3774

>  <SCORE.INTER.CONST>
1

>  <SCORE.INTER.POLAR>
0

>  <SCORE.INTER.ROT>
6

>  <SCORE.INTER.SOLV>
17.6225

>  <SCORE.INTER.VDW>
-22.3924

>  <SCORE.INTER.norm>
-0.393453

>  <SCORE.INTRA>
-1.23478

>  <SCORE.INTRA.DIHEDRAL>
-2.55245

>  <SCORE.INTRA.DIHEDRAL.0>
19.5869

>  <SCORE.INTRA.POLAR>
0

>  <SCORE.INTRA.POLAR.0>
0

>  <SCORE.INTRA.REPUL>
0

>  <SCORE.INTRA.REPUL.0>
0

>  <SCORE.INTRA.SOLV>
0.402913

>  <SCORE.INTRA.SOLV.lig_0>
-70.101

>  <SCORE.INTRA.VDW>
-0.160015

>  <SCORE.INTRA.VDW.0>
-3.39718

>  <SCORE.INTRA.norm>
-0.0363171

>  <SCORE.RESTR>
0

>  <SCORE.RESTR.CAVITY>
0

>  <SCORE.RESTR.norm>
0

>  <SCORE.SYSTEM>
0

>  <SCORE.SYSTEM.CONST>
0

>  <SCORE.SYSTEM.DIHEDRAL>
0

>  <SCORE.SYSTEM.SOLV>
0

>  <SCORE.SYSTEM.norm>
0

>  <SCORE.heavy>
34

>  <SCORE.norm>
-0.42977

>  <RMSD>
8.978

$$$$
ligand
 OpenBabel11021811483D
libRbt.so/2013.1/901 2013/11/27
 34 36  0  0  0  0  0  0  0  0999 V2000
   12.6021    5.0094    5.9782 C   0  0  2  0  0  0  0  0  0  0  0  0
   11.1685    5.0940    5.9650 O   0  0  0  0  0  0  0  0  0  0  0  0
    8.1325    2.1265    6.4532 C   0  0  2  0  0  0  0  0  0  0  0  0
    7.3948    0.9643    6.9358 N   0  0  0  0  0  0  0  0  0  0  0  0
    6.8829    4.3890    9.2773 C   0  0  2  0  0  0  0  0  0  0  0  0
   13.1626    6.3642    6.5409 C   0  0  2  0  0  0  0  0  0  0  0  0
   12.6882    6.6063    7.9123 N   0  0  0  0  0  0  0  0  0  0  0  0
    9.5525    1.6319    6.0186 C   0  0  0  0  0  0  0  0  0  0  0  0
    5.5221    3.9493    9.9270 C   0  0  2  0  0  0  0  0  0  0  0  0
    5.5238    2.5484   10.1471 O   0  0  0  0  0  0  0  0  0  0  0  0
   12.7206    7.5220    5.6198 C   0  0  1  0  0  0  0  0  0  0  0  0
   13.2368    8.7643    6.1246 O   0  0  0  0  0  0  0  0  0  0  0  0
   10.3372    2.8751    5.4786 C   0  0  2  0  0  0  0  0  0  0  0  0
   11.6939    2.4718    5.0564 N   0  0  0  0  0  0  0  0  0  0  0  0
    4.3440    4.3705    8.9657 C   0  0  1  0  0  0  0  0  0  0  0  0
    3.0247    3.9592    9.5329 N   0  0  0  0  0  0  0  0  0  0  0  0
   13.2241    7.2378    4.1847 C   0  0  2  0  0  0  0  0  0  0  0  0
   12.8103    8.3036    3.3121 O   0  0  0  0  0  0  0  0  0  0  0  0
   10.4555    3.9723    6.5671 C   0  0  2  0  0  0  0  0  0  0  0  0
    4.3876    5.9230    8.7571 C   0  0  1  0  0  0  0  0  0  0  0  0
    4.2029    6.5790   10.0087 O   0  0  0  0  0  0  0  0  0  0  0  0
   12.6452    5.8595    3.6848 C   0  0  2  0  0  0  0  0  0  0  0  0
   13.0607    4.7786    4.5997 O   0  0  0  0  0  0  0  0  0  0  0  0
    9.0377    4.3971    7.0245 C   0  0  2  0  0  0  0  0  0  0  0  0
    9.1715    5.3905    8.0357 O   0  0  0  0  0  0  0  0  0  0  0  0
    5.7819    6.3087    8.1701 C   0  0  0  0  0  0  0  0  0  0  0  0
    6.8741    5.8418    9.0575 O   0  0  0  0  0  0  0  0  0  0  0  0
   13.1381    5.5080    2.2567 C   0  0  2  0  0  0  0  0  0  0  0  0
   12.5915    4.2524    1.8619 O   0  0  0  0  0  0  0  0  0  0  0  0
    8.2558    3.1992    7.6120 C   0  0  1  0  0  0  0  0  0  0  0  0
    6.9527    3.6945    8.0006 O   0  0  0  0  0  0  0  0  0  0  0  0
   14.6529    5.4003    2.1986 C   0  0  0  0  0  0  0  0  0  0  0  0
    3.2898    6.4051    7.8168 C   0  0  0  0  0  0  0  0  0  0  0  0
    2.5717    2.7496    8.8198 C   0  0  0  0  0  0  0  0  0  0  0  0
  1  2  1  6  0  0  0
  1  6  1  0  0  0  0
  1 23  1  0  0  0  0
  3  4  1  1  0  0  0
  3  8  1  0  0  0  0
  3 30  1  0  0  0  0
  5  9  1  0  0  0  0
  5 27  1  0  0  0  0
  5 31  1  6  0  0  0
  6  7  1  1  0  0  0
  6 11  1  0  0  0  0
  8 13  1  0  0  0  0
  9 10  1  6  0  0  0
  9 15  1  0  0  0  0
 11 12  1  1  0  0  0
 11 17  1  0  0  0  0
 13 14  1  1  0  0  0
 13 19  1  0  0  0  0
 15 16  1  1  0  0  0
 15 20  1  0  0  0  0
 16 34  1  0  0  0  0
 17 18  1  6  0  0  0
 17 22  1  0  0  0  0
 19  2  1  6  0  0  0
 19 24  1  0  0  0  0
 20 21  1  1  0  0  0
 20 26  1  0  0  0  0
 20 33  1  0  0  0  0
 22 23  1  1  0  0  0
 22 28  1  0  0  0  0
 24 25  1  1  0  0  0
 24 30  1  0  0  0  0
 26 27  1  0  0  0  0
 28 29  1  1  0  0  0
 28 32  1  0  0  0  0
 30 31  1  6  0  0  0
M  END
>  <CHROM.1>
-130.42541519,-84.19199026,-102.59691136,179.64333812,163.53520432,-141.47980368
9.14615034,4.86249594,6.70090843,-0.02814411,-0.54878338,-2.87637597

>  <Name>
ligand

>  <RI>
0

>  <Rbt.Current_Directory>
/home/itssahil/PROJECTS/Mol_Feturizer/New_Systems/rnas/3TD1

>  <Rbt.Executable>
rbdock ($Id: //depot/dev/client3/rdock/2013.1/src/exe/rbdock.cxx#4 $)

>  <Rbt.Library>
libRbt.so (2013.1, Build901 2013/11/27)

>  <Rbt.Parameter_File>
/export/apps/rDock/src/rDock_2013.1_src/data/scripts/dock_solv.prm

>  <Rbt.Receptor>
prm/pocket_docking_6.prm

>  <SCORE>
-12.8969

>  <SCORE.INTER>
-12.3983

>  <SCORE.INTER.CONST>
1

>  <SCORE.INTER.POLAR>
0

>  <SCORE.INTER.ROT>
6

>  <SCORE.INTER.SOLV>
15.3173

>  <SCORE.INTER.VDW>
-20.9713

>  <SCORE.INTER.norm>
-0.364656

>  <SCORE.INTRA>
-0.49859

>  <SCORE.INTRA.DIHEDRAL>
-2.97477

>  <SCORE.INTRA.DIHEDRAL.0>
19.5869

>  <SCORE.INTRA.POLAR>
0

>  <SCORE.INTRA.POLAR.0>
0

>  <SCORE.INTRA.REPUL>
0

>  <SCORE.INTRA.REPUL.0>
0

>  <SCORE.INTRA.SOLV>
-0.322666

>  <SCORE.INTRA.SOLV.lig_0>
-70.101

>  <SCORE.INTRA.VDW>
1.15013

>  <SCORE.INTRA.VDW.0>
-3.39718

>  <SCORE.INTRA.norm>
-0.0146644

>  <SCORE.RESTR>
0

>  <SCORE.RESTR.CAVITY>
0

>  <SCORE.RESTR.norm>
0

>  <SCORE.SYSTEM>
0

>  <SCORE.SYSTEM.CONST>
0

>  <SCORE.SYSTEM.DIHEDRAL>
0

>  <SCORE.SYSTEM.SOLV>
0

>  <SCORE.SYSTEM.norm>
0

>  <SCORE.heavy>
34

>  <SCORE.norm>
-0.379321

>  <RMSD>
8.980

$$$$
ligand
 OpenBabel11021811483D
libRbt.so/2013.1/901 2013/11/27
 34 36  0  0  0  0  0  0  0  0999 V2000
   11.3635    6.2287    7.0850 C   0  0  2  0  0  0  0  0  0  0  0  0
   10.9667    5.2553    6.1064 O   0  0  0  0  0  0  0  0  0  0  0  0
    7.9095    2.2782    6.3340 C   0  0  2  0  0  0  0  0  0  0  0  0
    7.1595    1.0879    6.7196 N   0  0  0  0  0  0  0  0  0  0  0  0
    6.6475    4.3975    9.2712 C   0  0  2  0  0  0  0  0  0  0  0  0
   12.0295    7.4331    6.3285 C   0  0  2  0  0  0  0  0  0  0  0  0
   11.0842    8.0595    5.3913 N   0  0  0  0  0  0  0  0  0  0  0  0
    9.3326    1.8086    5.8825 C   0  0  0  0  0  0  0  0  0  0  0  0
    5.2868    3.9422    9.9102 C   0  0  2  0  0  0  0  0  0  0  0  0
    5.2882    2.5364   10.0959 O   0  0  0  0  0  0  0  0  0  0  0  0
   13.2733    6.9310    5.5634 C   0  0  1  0  0  0  0  0  0  0  0  0
   13.8924    8.0298    4.8749 O   0  0  0  0  0  0  0  0  0  0  0  0
   10.1308    3.0835    5.4462 C   0  0  2  0  0  0  0  0  0  0  0  0
   11.4909    2.7043    5.0130 N   0  0  0  0  0  0  0  0  0  0  0  0
    4.1086    4.3871    8.9597 C   0  0  1  0  0  0  0  0  0  0  0  0
    2.7893    3.9622    9.5169 N   0  0  0  0  0  0  0  0  0  0  0  0
   14.2448    6.2700    6.5697 C   0  0  2  0  0  0  0  0  0  0  0  0
   15.4046    5.7873    5.8694 O   0  0  0  0  0  0  0  0  0  0  0  0
   10.2400    4.0964    6.6145 C   0  0  2  0  0  0  0  0  0  0  0  0
    4.1524    5.9442    8.7891 C   0  0  1  0  0  0  0  0  0  0  0  0
    3.9680    6.5693   10.0565 O   0  0  0  0  0  0  0  0  0  0  0  0
   13.5143    5.0850    7.3092 C   0  0  2  0  0  0  0  0  0  0  0  0
   12.3159    5.5906    8.0067 O   0  0  0  0  0  0  0  0  0  0  0  0
    8.8183    4.4947    7.0836 C   0  0  2  0  0  0  0  0  0  0  0  0
    8.9436    5.4098    8.1673 O   0  0  0  0  0  0  0  0  0  0  0  0
    5.5466    6.3439    8.2115 C   0  0  0  0  0  0  0  0  0  0  0  0
    6.6389    5.8552    9.0870 O   0  0  0  0  0  0  0  0  0  0  0  0
   14.4341    4.3983    8.3524 C   0  0  2  0  0  0  0  0  0  0  0  0
   15.5403    3.7957    7.6857 O   0  0  0  0  0  0  0  0  0  0  0  0
    8.0226    3.2614    7.5706 C   0  0  1  0  0  0  0  0  0  0  0  0
    6.7170    3.7345    7.9778 O   0  0  0  0  0  0  0  0  0  0  0  0
   13.6976    3.3112    9.1177 C   0  0  0  0  0  0  0  0  0  0  0  0
    3.0544    6.4493    7.8611 C   0  0  0  0  0  0  0  0  0  0  0  0
    2.3160    2.7960    8.7469 C   0  0  0  0  0  0  0  0  0  0  0  0
  1  2  1  6  0  0  0
  1  6  1  0  0  0  0
  1 23  1  0  0  0  0
  3  4  1  1  0  0  0
  3  8  1  0  0  0  0
  3 30  1  0  0  0  0
  5  9  1  0  0  0  0
  5 27  1  0  0  0  0
  5 31  1  6  0  0  0
  6  7  1  6  0  0  0
  6 11  1  0  0  0  0
  8 13  1  0  0  0  0
  9 10  1  6  0  0  0
  9 15  1  0  0  0  0
 11 12  1  1  0  0  0
 11 17  1  0  0  0  0
 13 14  1  1  0  0  0
 13 19  1  0  0  0  0
 15 16  1  1  0  0  0
 15 20  1  0  0  0  0
 16 34  1  0  0  0  0
 17 18  1  6  0  0  0
 17 22  1  0  0  0  0
 19  2  1  6  0  0  0
 19 24  1  0  0  0  0
 20 21  1  1  0  0  0
 20 26  1  0  0  0  0
 20 33  1  0  0  0  0
 22 23  1  1  0  0  0
 22 28  1  0  0  0  0
 24 25  1  1  0  0  0
 24 30  1  0  0  0  0
 26 27  1  0  0  0  0
 28 29  1  6  0  0  0
 28 32  1  0  0  0  0
 30 31  1  6  0  0  0
M  END
>  <CHROM.1>
-175.88860389,-170.57136852,-104.33817527,-63.83973683,166.72463279,-142.12354402
9.13948882,4.75745494,7.53555033,0.12337535,0.24589576,-0.03056390

>  <Name>
ligand

>  <RI>
0

>  <Rbt.Current_Directory>
/home/itssahil/PROJECTS/Mol_Feturizer/New_Systems/rnas/3TD1

>  <Rbt.Executable>
rbdock ($Id: //depot/dev/client3/rdock/2013.1/src/exe/rbdock.cxx#4 $)

>  <Rbt.Library>
libRbt.so (2013.1, Build901 2013/11/27)

>  <Rbt.Parameter_File>
/export/apps/rDock/src/rDock_2013.1_src/data/scripts/dock_solv.prm

>  <Rbt.Receptor>
prm/pocket_docking_6.prm

>  <SCORE>
-17.199

>  <SCORE.INTER>
-10.868

>  <SCORE.INTER.CONST>
1

>  <SCORE.INTER.POLAR>
0

>  <SCORE.INTER.ROT>
6

>  <SCORE.INTER.SOLV>
17.1887

>  <SCORE.INTER.VDW>
-20.5749

>  <SCORE.INTER.norm>
-0.319646

>  <SCORE.INTRA>
-6.331

>  <SCORE.INTRA.DIHEDRAL>
-12.0922

>  <SCORE.INTRA.DIHEDRAL.0>
19.5869

>  <SCORE.INTRA.POLAR>
0

>  <SCORE.INTRA.POLAR.0>
0

>  <SCORE.INTRA.REPUL>
0

>  <SCORE.INTRA.REPUL.0>
0

>  <SCORE.INTRA.SOLV>
-2.98673

>  <SCORE.INTRA.SOLV.lig_0>
-70.101

>  <SCORE.INTRA.VDW>
1.20846

>  <SCORE.INTRA.VDW.0>
-3.39718

>  <SCORE.INTRA.norm>
-0.186206

>  <SCORE.RESTR>
0

>  <SCORE.RESTR.CAVITY>
0

>  <SCORE.RESTR.norm>
0

>  <SCORE.SYSTEM>
0

>  <SCORE.SYSTEM.CONST>
0

>  <SCORE.SYSTEM.DIHEDRAL>
0

>  <SCORE.SYSTEM.SOLV>
0

>  <SCORE.SYSTEM.norm>
0

>  <SCORE.heavy>
34

>  <SCORE.norm>
-0.505852

>  <RMSD>
8.986

$$$$
ligand
 OpenBabel11021811483D
libRbt.so/2013.1/901 2013/11/27
 34 36  0  0  0  0  0  0  0  0999 V2000
   12.8239    4.4834    5.9287 C   0  0  2  0  0  0  0  0  0  0  0  0
   11.5057    4.9644    5.6227 O   0  0  0  0  0  0  0  0  0  0  0  0
    7.6827    3.0785    5.9224 C   0  0  2  0  0  0  0  0  0  0  0  0
    6.5614    2.2893    6.4201 N   0  0  0  0  0  0  0  0  0  0  0  0
    6.6849    6.1241    8.0014 C   0  0  2  0  0  0  0  0  0  0  0  0
   13.4571    5.4485    6.9937 C   0  0  2  0  0  0  0  0  0  0  0  0
   12.6603    5.4707    8.2302 N   0  0  0  0  0  0  0  0  0  0  0  0
    8.9403    2.1469    5.9071 C   0  0  0  0  0  0  0  0  0  0  0  0
    6.0579    5.2869    9.1731 C   0  0  2  0  0  0  0  0  0  0  0  0
    6.9186    4.2120    9.5115 O   0  0  0  0  0  0  0  0  0  0  0  0
   13.5494    6.8720    6.4024 C   0  0  1  0  0  0  0  0  0  0  0  0
   14.1354    7.7590    7.3691 O   0  0  0  0  0  0  0  0  0  0  0  0
   10.1395    2.9868    5.3509 C   0  0  2  0  0  0  0  0  0  0  0  0
   11.3630    2.1600    5.3179 N   0  0  0  0  0  0  0  0  0  0  0  0
    4.6436    4.7580    8.7154 C   0  0  1  0  0  0  0  0  0  0  0  0
    4.0100    3.9397    9.7926 N   0  0  0  0  0  0  0  0  0  0  0  0
   14.3834    6.8182    5.1004 C   0  0  2  0  0  0  0  0  0  0  0  0
   14.4692    8.1365    4.5317 O   0  0  0  0  0  0  0  0  0  0  0  0
   10.4001    4.2340    6.2337 C   0  0  2  0  0  0  0  0  0  0  0  0
    3.7344    5.9823    8.3547 C   0  0  1  0  0  0  0  0  0  0  0  0
    3.5566    6.8016    9.5071 O   0  0  0  0  0  0  0  0  0  0  0  0
   13.7099    5.8211    4.0821 C   0  0  2  0  0  0  0  0  0  0  0  0
   13.6102    4.4779    4.6855 O   0  0  0  0  0  0  0  0  0  0  0  0
    9.1198    5.1048    6.2832 C   0  0  2  0  0  0  0  0  0  0  0  0
    9.3766    6.2330    7.1130 O   0  0  0  0  0  0  0  0  0  0  0  0
    4.4354    6.8109    7.2324 C   0  0  0  0  0  0  0  0  0  0  0  0
    5.7891    7.2379    7.6608 O   0  0  0  0  0  0  0  0  0  0  0  0
   14.5183    5.7060    2.7633 C   0  0  2  0  0  0  0  0  0  0  0  0
   14.5501    6.9745    2.1143 O   0  0  0  0  0  0  0  0  0  0  0  0
    7.9290    4.3175    6.8779 C   0  0  1  0  0  0  0  0  0  0  0  0
    6.7890    5.2090    6.8749 O   0  0  0  0  0  0  0  0  0  0  0  0
   13.8903    4.7048    1.8080 C   0  0  0  0  0  0  0  0  0  0  0  0
    2.3534    5.5489    7.8786 C   0  0  0  0  0  0  0  0  0  0  0  0
    3.5803    2.6559    9.2059 C   0  0  0  0  0  0  0  0  0  0  0  0
  1  2  1  6  0  0  0
  1  6  1  0  0  0  0
  1 23  1  0  0  0  0
  3  4  1  1  0  0  0
  3  8  1  0  0  0  0
  3 30  1  0  0  0  0
  5  9  1  0  0  0  0
  5 27  1  0  0  0  0
  5 31  1  6  0  0  0
  6  7  1  1  0  0  0
  6 11  1  0  0  0  0
  8 13  1  0  0  0  0
  9 10  1  6  0  0  0
  9 15  1  0  0  0  0
 11 12  1  1  0  0  0
 11 17  1  0  0  0  0
 13 14  1  1  0  0  0
 13 19  1  0  0  0  0
 15 16  1  1  0  0  0
 15 20  1  0  0  0  0
 16 34  1  0  0  0  0
 17 18  1  6  0  0  0
 17 22  1  0  0  0  0
 19  2  1  6  0  0  0
 19 24  1  0  0  0  0
 20 21  1  1  0  0  0
 20 26  1  0  0  0  0
 20 33  1  0  0  0  0
 22 23  1  1  0  0  0
 22 28  1  0  0  0  0
 24 25  1  1  0  0  0
 24 30  1  0  0  0  0
 26 27  1  0  0  0  0
 28 29  1  6  0  0  0
 28 32  1  0  0  0  0
 30 31  1  6  0  0  0
M  END
>  <CHROM.1>
-103.09725697,-81.85657965,-128.84858887,-62.59584406,160.52228707,-80.99046621
9.33959035,5.17658361,6.55447858,0.06846436,-0.40588759,-2.74741123

>  <Name>
ligand

>  <RI>
0

>  <Rbt.Current_Directory>
/home/itssahil/PROJECTS/Mol_Feturizer/New_Systems/rnas/3TD1

>  <Rbt.Executable>
rbdock ($Id: //depot/dev/client3/rdock/2013.1/src/exe/rbdock.cxx#4 $)

>  <Rbt.Library>
libRbt.so (2013.1, Build901 2013/11/27)

>  <Rbt.Parameter_File>
/export/apps/rDock/src/rDock_2013.1_src/data/scripts/dock_solv.prm

>  <Rbt.Receptor>
prm/pocket_docking_7.prm

>  <SCORE>
-14.8213

>  <SCORE.INTER>
-12.5953

>  <SCORE.INTER.CONST>
1

>  <SCORE.INTER.POLAR>
0

>  <SCORE.INTER.ROT>
6

>  <SCORE.INTER.SOLV>
17.5507

>  <SCORE.INTER.VDW>
-21.8471

>  <SCORE.INTER.norm>
-0.37045

>  <SCORE.INTRA>
-2.22601

>  <SCORE.INTRA.DIHEDRAL>
-6.71809

>  <SCORE.INTRA.DIHEDRAL.0>
19.5869

>  <SCORE.INTRA.POLAR>
0

>  <SCORE.INTRA.POLAR.0>
0

>  <SCORE.INTRA.REPUL>
0

>  <SCORE.INTRA.REPUL.0>
0

>  <SCORE.INTRA.SOLV>
0.807592

>  <SCORE.INTRA.SOLV.lig_0>
-70.101

>  <SCORE.INTRA.VDW>
0.729234

>  <SCORE.INTRA.VDW.0>
-3.39718

>  <SCORE.INTRA.norm>
-0.065471

>  <SCORE.RESTR>
0

>  <SCORE.RESTR.CAVITY>
0

>  <SCORE.RESTR.norm>
0

>  <SCORE.SYSTEM>
0

>  <SCORE.SYSTEM.CONST>
0

>  <SCORE.SYSTEM.DIHEDRAL>
0

>  <SCORE.SYSTEM.SOLV>
0

>  <SCORE.SYSTEM.norm>
0

>  <SCORE.heavy>
34

>  <SCORE.norm>
-0.435921

>  <RMSD>
8.995

$$$$
ligand
 OpenBabel11021811483D
libRbt.so/2013.1/901 2013/11/27
 34 36  0  0  0  0  0  0  0  0999 V2000
   10.0469    6.7281    5.8059 C   0  0  2  0  0  0  0  0  0  0  0  0
   10.3339    5.4307    6.3507 O   0  0  0  0  0  0  0  0  0  0  0  0
    8.5365    3.2731    9.5719 C   0  0  2  0  0  0  0  0  0  0  0  0
    8.0800    2.8994   10.9061 N   0  0  0  0  0  0  0  0  0  0  0  0
    5.5369    4.7191   10.1103 C   0  0  2  0  0  0  0  0  0  0  0  0
   10.6783    6.8014    4.3698 C   0  0  2  0  0  0  0  0  0  0  0  0
   10.1041    5.7764    3.4844 N   0  0  0  0  0  0  0  0  0  0  0  0
   10.0757    3.5420    9.6623 C   0  0  0  0  0  0  0  0  0  0  0  0
    4.2667    3.7971   10.0486 C   0  0  2  0  0  0  0  0  0  0  0  0
    4.6515    2.4380   10.1734 O   0  0  0  0  0  0  0  0  0  0  0  0
   12.2070    6.6097    4.4734 C   0  0  1  0  0  0  0  0  0  0  0  0
   12.7925    6.6835    3.1633 O   0  0  0  0  0  0  0  0  0  0  0  0
   10.5709    3.9207    8.2256 C   0  0  2  0  0  0  0  0  0  0  0  0
   12.0224    4.1934    8.2470 N   0  0  0  0  0  0  0  0  0  0  0  0
    3.5234    4.0523    8.6805 C   0  0  1  0  0  0  0  0  0  0  0  0
    2.3127    3.1849    8.5656 N   0  0  0  0  0  0  0  0  0  0  0  0
   12.7829    7.6932    5.4158 C   0  0  2  0  0  0  0  0  0  0  0  0
   14.2061    7.5206    5.5308 O   0  0  0  0  0  0  0  0  0  0  0  0
    9.8319    5.1766    7.6971 C   0  0  2  0  0  0  0  0  0  0  0  0
    3.1210    5.5643    8.5941 C   0  0  1  0  0  0  0  0  0  0  0  0
    2.2272    5.8827    9.6576 O   0  0  0  0  0  0  0  0  0  0  0  0
   12.0976    7.5812    6.8310 C   0  0  2  0  0  0  0  0  0  0  0  0
   10.6366    7.7401    6.6957 O   0  0  0  0  0  0  0  0  0  0  0  0
    8.3067    4.9053    7.6787 C   0  0  2  0  0  0  0  0  0  0  0  0
    7.6485    6.0769    7.2081 O   0  0  0  0  0  0  0  0  0  0  0  0
    4.4119    6.4326    8.7241 C   0  0  0  0  0  0  0  0  0  0  0  0
    5.1285    6.1249    9.9851 O   0  0  0  0  0  0  0  0  0  0  0  0
   12.6183    8.6622    7.8140 C   0  0  2  0  0  0  0  0  0  0  0  0
   12.8039    9.8898    7.1141 O   0  0  0  0  0  0  0  0  0  0  0  0
    7.7782    4.5794    9.0950 C   0  0  1  0  0  0  0  0  0  0  0  0
    6.3568    4.3373    8.9705 O   0  0  0  0  0  0  0  0  0  0  0  0
   13.9507    8.2648    8.4275 C   0  0  0  0  0  0  0  0  0  0  0  0
    2.4163    5.8950    7.2842 C   0  0  0  0  0  0  0  0  0  0  0  0
    2.7326    1.8722    8.0388 C   0  0  0  0  0  0  0  0  0  0  0  0
  1  2  1  1  0  0  0
  1  6  1  0  0  0  0
  1 23  1  0  0  0  0
  3  4  1  1  0  0  0
  3  8  1  0  0  0  0
  3 30  1  0  0  0  0
  5  9  1  0  0  0  0
  5 27  1  0  0  0  0
  5 31  1  6  0  0  0
  6  7  1  6  0  0  0
  6 11  1  0  0  0  0
  8 13  1  0  0  0  0
  9 10  1  6  0  0  0
  9 15  1  0  0  0  0
 11 12  1  6  0  0  0
 11 17  1  0  0  0  0
 13 14  1  1  0  0  0
 13 19  1  0  0  0  0
 15 16  1  1  0  0  0
 15 20  1  0  0  0  0
 16 34  1  0  0  0  0
 17 18  1  1  0  0  0
 17 22  1  0  0  0  0
 19  2  1  6  0  0  0
 19 24  1  0  0  0  0
 20 21  1  1  0  0  0
 20 26  1  0  0  0  0
 20 33  1  0  0  0  0
 22 23  1  6  0  0  0
 22 28  1  0  0  0  0
 24 25  1  1  0  0  0
 24 30  1  0  0  0  0
 26 27  1  0  0  0  0
 28 29  1  6  0  0  0
 28 32  1  0  0  0  0
 30 31  1  6  0  0  0
M  END
>  <CHROM.1>
179.51315712,-164.57794718,-84.85434198,38.67307553,96.29889580,-153.99616468
8.37403386,5.56118861,7.71620909,0.46923629,-0.06392797,-0.91838951

>  <Name>
ligand

>  <RI>
0

>  <Rbt.Current_Directory>
/home/itssahil/PROJECTS/Mol_Feturizer/New_Systems/rnas/3TD1

>  <Rbt.Executable>
rbdock ($Id: //depot/dev/client3/rdock/2013.1/src/exe/rbdock.cxx#4 $)

>  <Rbt.Library>
libRbt.so (2013.1, Build901 2013/11/27)

>  <Rbt.Parameter_File>
/export/apps/rDock/src/rDock_2013.1_src/data/scripts/dock_solv.prm

>  <Rbt.Receptor>
prm/pocket_docking_4.prm

>  <SCORE>
-13.3148

>  <SCORE.INTER>
-8.83746

>  <SCORE.INTER.CONST>
1

>  <SCORE.INTER.POLAR>
0

>  <SCORE.INTER.ROT>
6

>  <SCORE.INTER.SOLV>
12.8601

>  <SCORE.INTER.VDW>
-17.7784

>  <SCORE.INTER.norm>
-0.259925

>  <SCORE.INTRA>
-4.47733

>  <SCORE.INTRA.DIHEDRAL>
-8.92813

>  <SCORE.INTRA.DIHEDRAL.0>
19.5869

>  <SCORE.INTRA.POLAR>
0

>  <SCORE.INTRA.POLAR.0>
0

>  <SCORE.INTRA.REPUL>
0

>  <SCORE.INTRA.REPUL.0>
0

>  <SCORE.INTRA.SOLV>
-1.2347

>  <SCORE.INTRA.SOLV.lig_0>
-70.101

>  <SCORE.INTRA.VDW>
0.604083

>  <SCORE.INTRA.VDW.0>
-3.39718

>  <SCORE.INTRA.norm>
-0.131686

>  <SCORE.RESTR>
0

>  <SCORE.RESTR.CAVITY>
0

>  <SCORE.RESTR.norm>
0

>  <SCORE.SYSTEM>
0

>  <SCORE.SYSTEM.CONST>
0

>  <SCORE.SYSTEM.DIHEDRAL>
0

>  <SCORE.SYSTEM.SOLV>
0

>  <SCORE.SYSTEM.norm>
0

>  <SCORE.heavy>
34

>  <SCORE.norm>
-0.391611

>  <RMSD>
8.998

$$$$
ligand
 OpenBabel11021811483D
libRbt.so/2013.1/901 2013/11/27
 34 36  0  0  0  0  0  0  0  0999 V2000
    8.2927    8.6713    2.0267 C   0  0  2  0  0  0  0  0  0  0  0  0
    9.5980    8.3408    2.5263 O   0  0  0  0  0  0  0  0  0  0  0  0
   13.2959    9.5361    0.7490 C   0  0  2  0  0  0  0  0  0  0  0  0
   14.4622    9.5835   -0.1259 N   0  0  0  0  0  0  0  0  0  0  0  0
   11.8322   12.2612    0.3171 C   0  0  2  0  0  0  0  0  0  0  0  0
    7.2422    8.3041    3.1349 C   0  0  2  0  0  0  0  0  0  0  0  0
    7.4852    9.0656    4.3700 N   0  0  0  0  0  0  0  0  0  0  0  0
   13.2295    8.0979    1.3628 C   0  0  0  0  0  0  0  0  0  0  0  0
   11.1776   13.4349   -0.4960 C   0  0  2  0  0  0  0  0  0  0  0  0
    9.9166   13.0269   -1.0003 O   0  0  0  0  0  0  0  0  0  0  0  0
    7.3166    6.7898    3.4278 C   0  0  1  0  0  0  0  0  0  0  0  0
    6.3521    6.4454    4.4357 O   0  0  0  0  0  0  0  0  0  0  0  0
   11.9910    8.0532    2.3204 C   0  0  2  0  0  0  0  0  0  0  0  0
   11.8707    6.7127    2.9286 N   0  0  0  0  0  0  0  0  0  0  0  0
   12.1520   13.8421   -1.6683 C   0  0  1  0  0  0  0  0  0  0  0  0
   11.5663   14.9480   -2.4839 N   0  0  0  0  0  0  0  0  0  0  0  0
    7.0667    6.0145    2.1125 C   0  0  2  0  0  0  0  0  0  0  0  0
    7.1436    4.6012    2.3677 O   0  0  0  0  0  0  0  0  0  0  0  0
   10.6837    8.3750    1.5520 C   0  0  2  0  0  0  0  0  0  0  0  0
   13.5261   14.2836   -1.0580 C   0  0  1  0  0  0  0  0  0  0  0  0
   13.3336   15.4190   -0.2185 O   0  0  0  0  0  0  0  0  0  0  0  0
    8.1374    6.4397    1.0367 C   0  0  2  0  0  0  0  0  0  0  0  0
    8.0610    7.8944    0.7994 O   0  0  0  0  0  0  0  0  0  0  0  0
   10.8018    9.7761    0.9017 C   0  0  2  0  0  0  0  0  0  0  0  0
    9.5991   10.0418    0.1874 O   0  0  0  0  0  0  0  0  0  0  0  0
   14.0983   13.1035   -0.2110 C   0  0  0  0  0  0  0  0  0  0  0  0
   13.1355   12.6942    0.8396 O   0  0  0  0  0  0  0  0  0  0  0  0
    7.9209    5.7115   -0.3156 C   0  0  2  0  0  0  0  0  0  0  0  0
    7.2072    4.4982   -0.0920 O   0  0  0  0  0  0  0  0  0  0  0  0
   11.9866    9.8356   -0.0905 C   0  0  1  0  0  0  0  0  0  0  0  0
   12.0152   11.1761   -0.6349 O   0  0  0  0  0  0  0  0  0  0  0  0
    9.2421    5.3638   -0.9813 C   0  0  0  0  0  0  0  0  0  0  0  0
   14.5325   14.6707   -2.1346 C   0  0  0  0  0  0  0  0  0  0  0  0
   11.1118   16.0095   -1.5655 C   0  0  0  0  0  0  0  0  0  0  0  0
  1  2  1  1  0  0  0
  1  6  1  0  0  0  0
  1 23  1  0  0  0  0
  3  4  1  6  0  0  0
  3  8  1  0  0  0  0
  3 30  1  0  0  0  0
  5  9  1  0  0  0  0
  5 27  1  0  0  0  0
  5 31  1  6  0  0  0
  6  7  1  1  0  0  0
  6 11  1  0  0  0  0
  8 13  1  0  0  0  0
  9 10  1  6  0  0  0
  9 15  1  0  0  0  0
 11 12  1  1  0  0  0
 11 17  1  0  0  0  0
 13 14  1  6  0  0  0
 13 19  1  0  0  0  0
 15 16  1  1  0  0  0
 15 20  1  0  0  0  0
 16 34  1  0  0  0  0
 17 18  1  1  0  0  0
 17 22  1  0  0  0  0
 19  2  1  1  0  0  0
 19 24  1  0  0  0  0
 20 21  1  1  0  0  0
 20 26  1  0  0  0  0
 20 33  1  0  0  0  0
 22 23  1  6  0  0  0
 22 28  1  0  0  0  0
 24 25  1  6  0  0  0
 24 30  1  0  0  0  0
 26 27  1  0  0  0  0
 28 29  1  1  0  0  0
 28 32  1  0  0  0  0
 30 31  1  1  0  0  0
M  END
>  <CHROM.1>
168.94960089,177.43471002,49.36581438,-23.66800487,-71.89534310,-151.51664379
10.48500203,9.79535342,0.70636686,2.12335889,-0.18566707,2.87665122

>  <Name>
ligand

>  <RI>
0

>  <Rbt.Current_Directory>
/home/itssahil/PROJECTS/Mol_Feturizer/New_Systems/rnas/3TD1

>  <Rbt.Executable>
rbdock ($Id: //depot/dev/client3/rdock/2013.1/src/exe/rbdock.cxx#4 $)

>  <Rbt.Library>
libRbt.so (2013.1, Build901 2013/11/27)

>  <Rbt.Parameter_File>
/export/apps/rDock/src/rDock_2013.1_src/data/scripts/dock_solv.prm

>  <Rbt.Receptor>
prm/blind_docking_40.prm

>  <SCORE>
16.2846

>  <SCORE.INTER>
5.90681

>  <SCORE.INTER.CONST>
1

>  <SCORE.INTER.POLAR>
0

>  <SCORE.INTER.ROT>
6

>  <SCORE.INTER.SOLV>
23.3459

>  <SCORE.INTER.VDW>
-11.4441

>  <SCORE.INTER.norm>
0.17373

>  <SCORE.INTRA>
2.65003

>  <SCORE.INTRA.DIHEDRAL>
-11.2452

>  <SCORE.INTRA.DIHEDRAL.0>
19.5869

>  <SCORE.INTRA.POLAR>
0

>  <SCORE.INTRA.POLAR.0>
0

>  <SCORE.INTRA.REPUL>
0

>  <SCORE.INTRA.REPUL.0>
0

>  <SCORE.INTRA.SOLV>
-1.32322

>  <SCORE.INTRA.SOLV.lig_0>
-70.101

>  <SCORE.INTRA.VDW>
8.93422

>  <SCORE.INTRA.VDW.0>
-3.39718

>  <SCORE.INTRA.norm>
0.0779421

>  <SCORE.RESTR>
7.72774

>  <SCORE.RESTR.CAVITY>
7.72774

>  <SCORE.RESTR.norm>
0.227286

>  <SCORE.SYSTEM>
0

>  <SCORE.SYSTEM.CONST>
0

>  <SCORE.SYSTEM.DIHEDRAL>
0

>  <SCORE.SYSTEM.SOLV>
0

>  <SCORE.SYSTEM.norm>
0

>  <SCORE.heavy>
34

>  <SCORE.norm>
0.478958

>  <RMSD>
9.029

$$$$
ligand
 OpenBabel11021811483D
libRbt.so/2013.1/901 2013/11/27
 34 36  0  0  0  0  0  0  0  0999 V2000
   13.0459    7.8251    4.7811 C   0  0  2  0  0  0  0  0  0  0  0  0
   11.7954    7.1236    4.8628 O   0  0  0  0  0  0  0  0  0  0  0  0
    7.9548    7.9686    3.1902 C   0  0  2  0  0  0  0  0  0  0  0  0
    6.6959    8.6351    2.8754 N   0  0  0  0  0  0  0  0  0  0  0  0
    7.8960    9.4584    0.6161 C   0  0  2  0  0  0  0  0  0  0  0  0
   14.2026    6.7712    4.9151 C   0  0  2  0  0  0  0  0  0  0  0  0
   14.1435    5.7774    3.8320 N   0  0  0  0  0  0  0  0  0  0  0  0
    8.0464    7.8535    4.7484 C   0  0  0  0  0  0  0  0  0  0  0  0
    8.0909    9.3998   -0.9414 C   0  0  2  0  0  0  0  0  0  0  0  0
    8.2454    8.0530   -1.3572 O   0  0  0  0  0  0  0  0  0  0  0  0
   14.0937    6.0643    6.2836 C   0  0  1  0  0  0  0  0  0  0  0  0
   15.1542    5.1038    6.4163 O   0  0  0  0  0  0  0  0  0  0  0  0
    9.3868    7.1172    5.0863 C   0  0  2  0  0  0  0  0  0  0  0  0
    9.5344    6.9831    6.5498 N   0  0  0  0  0  0  0  0  0  0  0  0
    9.3567   10.2602   -1.3248 C   0  0  1  0  0  0  0  0  0  0  0  0
    9.5951   10.2239   -2.7989 N   0  0  0  0  0  0  0  0  0  0  0  0
   14.1494    7.1316    7.4023 C   0  0  2  0  0  0  0  0  0  0  0  0
   14.0381    6.4884    8.6839 O   0  0  0  0  0  0  0  0  0  0  0  0
   10.6044    7.8976    4.5284 C   0  0  2  0  0  0  0  0  0  0  0  0
    9.1342   11.7351   -0.8446 C   0  0  1  0  0  0  0  0  0  0  0  0
    7.9986   12.2869   -1.5057 O   0  0  0  0  0  0  0  0  0  0  0  0
   12.9792    8.1685    7.2022 C   0  0  2  0  0  0  0  0  0  0  0  0
   13.0940    8.8060    5.8762 O   0  0  0  0  0  0  0  0  0  0  0  0
   10.4559    8.0524    2.9941 C   0  0  2  0  0  0  0  0  0  0  0  0
   11.5744    8.7868    2.5072 O   0  0  0  0  0  0  0  0  0  0  0  0
    8.8836   11.7260    0.6963 C   0  0  0  0  0  0  0  0  0  0  0  0
    7.7319   10.8565    1.0372 O   0  0  0  0  0  0  0  0  0  0  0  0
   12.9996    9.2807    8.2831 C   0  0  2  0  0  0  0  0  0  0  0  0
   14.3496    9.5995    8.6103 O   0  0  0  0  0  0  0  0  0  0  0  0
    9.1654    8.8231    2.6308 C   0  0  1  0  0  0  0  0  0  0  0  0
    9.1162    8.9084    1.1869 O   0  0  0  0  0  0  0  0  0  0  0  0
   12.2998    8.8358    9.5567 C   0  0  0  0  0  0  0  0  0  0  0  0
   10.3297   12.6259   -1.1594 C   0  0  0  0  0  0  0  0  0  0  0  0
   10.6332    9.2122   -3.0748 C   0  0  0  0  0  0  0  0  0  0  0  0
  1  2  1  1  0  0  0
  1  6  1  0  0  0  0
  1 23  1  0  0  0  0
  3  4  1  1  0  0  0
  3  8  1  0  0  0  0
  3 30  1  0  0  0  0
  5  9  1  0  0  0  0
  5 27  1  0  0  0  0
  5 31  1  1  0  0  0
  6  7  1  6  0  0  0
  6 11  1  0  0  0  0
  8 13  1  0  0  0  0
  9 10  1  1  0  0  0
  9 15  1  0  0  0  0
 11 12  1  1  0  0  0
 11 17  1  0  0  0  0
 13 14  1  1  0  0  0
 13 19  1  0  0  0  0
 15 16  1  6  0  0  0
 15 20  1  0  0  0  0
 16 34  1  0  0  0  0
 17 18  1  1  0  0  0
 17 22  1  0  0  0  0
 19  2  1  6  0  0  0
 19 24  1  0  0  0  0
 20 21  1  6  0  0  0
 20 26  1  0  0  0  0
 20 33  1  0  0  0  0
 22 23  1  6  0  0  0
 22 28  1  0  0  0  0
 24 25  1  1  0  0  0
 24 30  1  0  0  0  0
 26 27  1  0  0  0  0
 28 29  1  1  0  0  0
 28 32  1  0  0  0  0
 30 31  1  6  0  0  0
M  END
>  <CHROM.1>
-169.76686973,-163.08227351,-98.08062512,35.79156683,56.94265650,-178.47108737
10.81071783,8.65191142,3.30592817,-1.04910208,0.28024816,-1.37565481

>  <Name>
ligand

>  <RI>
0

>  <Rbt.Current_Directory>
/home/itssahil/PROJECTS/Mol_Feturizer/New_Systems/rnas/3TD1

>  <Rbt.Executable>
rbdock ($Id: //depot/dev/client3/rdock/2013.1/src/exe/rbdock.cxx#4 $)

>  <Rbt.Library>
libRbt.so (2013.1, Build901 2013/11/27)

>  <Rbt.Parameter_File>
/export/apps/rDock/src/rDock_2013.1_src/data/scripts/dock_solv.prm

>  <Rbt.Receptor>
prm/pocket_docking_8.prm

>  <SCORE>
-17.4603

>  <SCORE.INTER>
-10.8851

>  <SCORE.INTER.CONST>
1

>  <SCORE.INTER.POLAR>
0

>  <SCORE.INTER.ROT>
6

>  <SCORE.INTER.SOLV>
13.2121

>  <SCORE.INTER.VDW>
-19.2608

>  <SCORE.INTER.norm>
-0.320151

>  <SCORE.INTRA>
-6.57518

>  <SCORE.INTRA.DIHEDRAL>
-14.9117

>  <SCORE.INTRA.DIHEDRAL.0>
19.5869

>  <SCORE.INTRA.POLAR>
0

>  <SCORE.INTRA.POLAR.0>
0

>  <SCORE.INTRA.REPUL>
0

>  <SCORE.INTRA.REPUL.0>
0

>  <SCORE.INTRA.SOLV>
-0.612165

>  <SCORE.INTRA.SOLV.lig_0>
-70.101

>  <SCORE.INTRA.VDW>
1.18674

>  <SCORE.INTRA.VDW.0>
-3.39718

>  <SCORE.INTRA.norm>
-0.193388

>  <SCORE.RESTR>
0

>  <SCORE.RESTR.CAVITY>
0

>  <SCORE.RESTR.norm>
0

>  <SCORE.SYSTEM>
0

>  <SCORE.SYSTEM.CONST>
0

>  <SCORE.SYSTEM.DIHEDRAL>
0

>  <SCORE.SYSTEM.SOLV>
0

>  <SCORE.SYSTEM.norm>
0

>  <SCORE.heavy>
34

>  <SCORE.norm>
-0.513539

>  <RMSD>
9.033

$$$$
ligand
 OpenBabel11021811483D
libRbt.so/2013.1/901 2013/11/27
 34 36  0  0  0  0  0  0  0  0999 V2000
    7.5308    8.6019    3.5855 C   0  0  2  0  0  0  0  0  0  0  0  0
    7.0306    7.2600    3.4786 O   0  0  0  0  0  0  0  0  0  0  0  0
    7.0505    3.6845    5.8189 C   0  0  2  0  0  0  0  0  0  0  0  0
    7.4067    2.6843    6.8193 N   0  0  0  0  0  0  0  0  0  0  0  0
    5.1418    5.3791    8.5499 C   0  0  2  0  0  0  0  0  0  0  0  0
    6.9833    9.4222    2.3633 C   0  0  2  0  0  0  0  0  0  0  0  0
    5.5126    9.4615    2.3662 N   0  0  0  0  0  0  0  0  0  0  0  0
    8.3455    4.0124    5.0034 C   0  0  0  0  0  0  0  0  0  0  0  0
    4.0966    4.5268    9.3552 C   0  0  2  0  0  0  0  0  0  0  0  0
    4.5974    3.2156    9.5571 O   0  0  0  0  0  0  0  0  0  0  0  0
    7.4893    8.7838    1.0515 C   0  0  1  0  0  0  0  0  0  0  0  0
    6.9984    9.5344   -0.0712 O   0  0  0  0  0  0  0  0  0  0  0  0
    7.9588    5.0690    3.9139 C   0  0  2  0  0  0  0  0  0  0  0  0
    9.1466    5.4253    3.1116 N   0  0  0  0  0  0  0  0  0  0  0  0
    2.7404    4.4977    8.5494 C   0  0  1  0  0  0  0  0  0  0  0  0
    1.7146    3.6837    9.2680 N   0  0  0  0  0  0  0  0  0  0  0  0
    9.0358    8.7469    1.0789 C   0  0  2  0  0  0  0  0  0  0  0  0
    9.5220    8.1444   -0.1332 O   0  0  0  0  0  0  0  0  0  0  0  0
    7.3889    6.3548    4.5656 C   0  0  2  0  0  0  0  0  0  0  0  0
    2.2320    5.9671    8.3549 C   0  0  1  0  0  0  0  0  0  0  0  0
    1.9863    6.5603    9.6273 O   0  0  0  0  0  0  0  0  0  0  0  0
    9.5228    7.9290    2.3352 C   0  0  2  0  0  0  0  0  0  0  0  0
    9.0006    8.5463    3.5699 O   0  0  0  0  0  0  0  0  0  0  0  0
    6.1470    5.9918    5.4176 C   0  0  2  0  0  0  0  0  0  0  0  0
    5.6526    7.1835    6.0200 O   0  0  0  0  0  0  0  0  0  0  0  0
    3.3342    6.7817    7.6072 C   0  0  0  0  0  0  0  0  0  0  0  0
    4.6168    6.7368    8.3496 O   0  0  0  0  0  0  0  0  0  0  0  0
   11.0702    7.8793    2.4299 C   0  0  2  0  0  0  0  0  0  0  0  0
   11.4529    7.0054    3.4887 O   0  0  0  0  0  0  0  0  0  0  0  0
    6.5091    4.9883    6.5371 C   0  0  1  0  0  0  0  0  0  0  0  0
    5.2903    4.7103    7.2662 O   0  0  0  0  0  0  0  0  0  0  0  0
   11.6572    9.2513    2.7175 C   0  0  0  0  0  0  0  0  0  0  0  0
    0.9327    6.0228    7.5609 C   0  0  0  0  0  0  0  0  0  0  0  0
    1.5636    2.3988    8.5585 C   0  0  0  0  0  0  0  0  0  0  0  0
  1  2  1  6  0  0  0
  1  6  1  0  0  0  0
  1 23  1  0  0  0  0
  3  4  1  1  0  0  0
  3  8  1  0  0  0  0
  3 30  1  0  0  0  0
  5  9  1  0  0  0  0
  5 27  1  0  0  0  0
  5 31  1  6  0  0  0
  6  7  1  6  0  0  0
  6 11  1  0  0  0  0
  8 13  1  0  0  0  0
  9 10  1  6  0  0  0
  9 15  1  0  0  0  0
 11 12  1  6  0  0  0
 11 17  1  0  0  0  0
 13 14  1  1  0  0  0
 13 19  1  0  0  0  0
 15 16  1  1  0  0  0
 15 20  1  0  0  0  0
 16 34  1  0  0  0  0
 17 18  1  6  0  0  0
 17 22  1  0  0  0  0
 19  2  1  6  0  0  0
 19 24  1  0  0  0  0
 20 21  1  1  0  0  0
 20 26  1  0  0  0  0
 20 33  1  0  0  0  0
 22 23  1  1  0  0  0
 22 28  1  0  0  0  0
 24 25  1  1  0  0  0
 24 30  1  0  0  0  0
 26 27  1  0  0  0  0
 28 29  1  1  0  0  0
 28 32  1  0  0  0  0
 30 31  1  6  0  0  0
M  END
>  <CHROM.1>
-177.44742856,-129.81982179,-105.58094645,-173.40690300,141.44574884,-158.46385845
6.36950292,6.38045544,5.24213707,0.82650424,0.39430586,-0.73666973

>  <Name>
ligand

>  <RI>
0

>  <Rbt.Current_Directory>
/home/itssahil/PROJECTS/Mol_Feturizer/New_Systems/rnas/3TD1

>  <Rbt.Executable>
rbdock ($Id: //depot/dev/client3/rdock/2013.1/src/exe/rbdock.cxx#4 $)

>  <Rbt.Library>
libRbt.so (2013.1, Build901 2013/11/27)

>  <Rbt.Parameter_File>
/export/apps/rDock/src/rDock_2013.1_src/data/scripts/dock_solv.prm

>  <Rbt.Receptor>
prm/blind_docking_100.prm

>  <SCORE>
19.9496

>  <SCORE.INTER>
2.28277

>  <SCORE.INTER.CONST>
1

>  <SCORE.INTER.POLAR>
0

>  <SCORE.INTER.ROT>
6

>  <SCORE.INTER.SOLV>
25.4099

>  <SCORE.INTER.VDW>
-14.5481

>  <SCORE.INTER.norm>
0.0671403

>  <SCORE.INTRA>
-0.779086

>  <SCORE.INTRA.DIHEDRAL>
-4.41715

>  <SCORE.INTRA.DIHEDRAL.0>
19.5869

>  <SCORE.INTRA.POLAR>
0

>  <SCORE.INTRA.POLAR.0>
0

>  <SCORE.INTRA.REPUL>
0

>  <SCORE.INTRA.REPUL.0>
0

>  <SCORE.INTRA.SOLV>
1.01232

>  <SCORE.INTRA.SOLV.lig_0>
-70.101

>  <SCORE.INTRA.VDW>
0.923326

>  <SCORE.INTRA.VDW.0>
-3.39718

>  <SCORE.INTRA.norm>
-0.0229143

>  <SCORE.RESTR>
18.4459

>  <SCORE.RESTR.CAVITY>
18.4459

>  <SCORE.RESTR.norm>
0.542528

>  <SCORE.SYSTEM>
0

>  <SCORE.SYSTEM.CONST>
0

>  <SCORE.SYSTEM.DIHEDRAL>
0

>  <SCORE.SYSTEM.SOLV>
0

>  <SCORE.SYSTEM.norm>
0

>  <SCORE.heavy>
34

>  <SCORE.norm>
0.586754

>  <RMSD>
9.055

$$$$
ligand
 OpenBabel11021811483D
libRbt.so/2013.1/901 2013/11/27
 34 36  0  0  0  0  0  0  0  0999 V2000
    8.3434    7.4656    5.3530 C   0  0  2  0  0  0  0  0  0  0  0  0
    8.6793    6.0966    5.6279 O   0  0  0  0  0  0  0  0  0  0  0  0
    7.3058    3.3935    8.6392 C   0  0  2  0  0  0  0  0  0  0  0  0
    7.0192    2.7944    9.9381 N   0  0  0  0  0  0  0  0  0  0  0  0
    4.3115    5.0559    9.5959 C   0  0  2  0  0  0  0  0  0  0  0  0
    8.5286    7.7104    3.8128 C   0  0  2  0  0  0  0  0  0  0  0  0
    7.6440    6.8369    3.0262 N   0  0  0  0  0  0  0  0  0  0  0  0
    8.8426    3.6852    8.5874 C   0  0  0  0  0  0  0  0  0  0  0  0
    3.0067    4.1902    9.7191 C   0  0  2  0  0  0  0  0  0  0  0  0
    3.3466    2.8467   10.0197 O   0  0  0  0  0  0  0  0  0  0  0  0
   10.0013    7.4510    3.4276 C   0  0  1  0  0  0  0  0  0  0  0  0
   10.1797    7.6809    2.0205 O   0  0  0  0  0  0  0  0  0  0  0  0
    9.1550    4.3071    7.1843 C   0  0  2  0  0  0  0  0  0  0  0  0
   10.5962    4.6115    7.0762 N   0  0  0  0  0  0  0  0  0  0  0  0
    2.2091    4.2827    8.3609 C   0  0  1  0  0  0  0  0  0  0  0  0
    0.9632    3.4609    8.4213 N   0  0  0  0  0  0  0  0  0  0  0  0
   10.9086    8.3746    4.2746 C   0  0  2  0  0  0  0  0  0  0  0  0
   12.2855    8.1364    3.9342 O   0  0  0  0  0  0  0  0  0  0  0  0
    8.3482    5.6122    6.9639 C   0  0  2  0  0  0  0  0  0  0  0  0
    1.8591    5.7836    8.0773 C   0  0  1  0  0  0  0  0  0  0  0  0
    1.0293    6.2864    9.1211 O   0  0  0  0  0  0  0  0  0  0  0  0
   10.6631    8.0962    5.8066 C   0  0  2  0  0  0  0  0  0  0  0  0
    9.2431    8.3251    6.1376 O   0  0  0  0  0  0  0  0  0  0  0  0
    6.8343    5.3067    7.0841 C   0  0  2  0  0  0  0  0  0  0  0  0
    6.1154    6.5214    6.8966 O   0  0  0  0  0  0  0  0  0  0  0  0
    3.1859    6.6048    8.0284 C   0  0  0  0  0  0  0  0  0  0  0  0
    3.9498    6.4466    9.2893 O   0  0  0  0  0  0  0  0  0  0  0  0
   11.5296    9.0139    6.7082 C   0  0  2  0  0  0  0  0  0  0  0  0
   12.9078    8.8086    6.4087 O   0  0  0  0  0  0  0  0  0  0  0  0
    6.4859    4.7393    8.4799 C   0  0  1  0  0  0  0  0  0  0  0  0
    5.0617    4.4828    8.4887 O   0  0  0  0  0  0  0  0  0  0  0  0
   11.3186    8.7099    8.1823 C   0  0  0  0  0  0  0  0  0  0  0  0
    1.1056    5.9572    6.7643 C   0  0  0  0  0  0  0  0  0  0  0  0
    1.2864    2.0964    7.9622 C   0  0  0  0  0  0  0  0  0  0  0  0
  1  2  1  6  0  0  0
  1  6  1  0  0  0  0
  1 23  1  0  0  0  0
  3  4  1  1  0  0  0
  3  8  1  0  0  0  0
  3 30  1  0  0  0  0
  5  9  1  0  0  0  0
  5 27  1  0  0  0  0
  5 31  1  6  0  0  0
  6  7  1  6  0  0  0
  6 11  1  0  0  0  0
  8 13  1  0  0  0  0
  9 10  1  6  0  0  0
  9 15  1  0  0  0  0
 11 12  1  6  0  0  0
 11 17  1  0  0  0  0
 13 14  1  1  0  0  0
 13 19  1  0  0  0  0
 15 16  1  1  0  0  0
 15 20  1  0  0  0  0
 16 34  1  0  0  0  0
 17 18  1  6  0  0  0
 17 22  1  0  0  0  0
 19  2  1  6  0  0  0
 19 24  1  0  0  0  0
 20 21  1  1  0  0  0
 20 26  1  0  0  0  0
 20 33  1  0  0  0  0
 22 23  1  1  0  0  0
 22 28  1  0  0  0  0
 24 25  1  1  0  0  0
 24 30  1  0  0  0  0
 26 27  1  0  0  0  0
 28 29  1  6  0  0  0
 28 32  1  0  0  0  0
 30 31  1  6  0  0  0
M  END
>  <CHROM.1>
-169.71399403,-163.36053835,-89.46363302,-58.75515141,115.96121570,-157.19837017
6.88885702,5.93741938,7.03762737,0.54142676,-0.05955280,-0.91674884

>  <Name>
ligand

>  <RI>
0

>  <Rbt.Current_Directory>
/home/itssahil/PROJECTS/Mol_Feturizer/New_Systems/rnas/3TD1

>  <Rbt.Executable>
rbdock ($Id: //depot/dev/client3/rdock/2013.1/src/exe/rbdock.cxx#4 $)

>  <Rbt.Library>
libRbt.so (2013.1, Build901 2013/11/27)

>  <Rbt.Parameter_File>
/export/apps/rDock/src/rDock_2013.1_src/data/scripts/dock_solv.prm

>  <Rbt.Receptor>
prm/pocket_docking_3.prm

>  <SCORE>
-13.7823

>  <SCORE.INTER>
-9.12915

>  <SCORE.INTER.CONST>
1

>  <SCORE.INTER.POLAR>
0

>  <SCORE.INTER.ROT>
6

>  <SCORE.INTER.SOLV>
12.0798

>  <SCORE.INTER.VDW>
-17.7127

>  <SCORE.INTER.norm>
-0.268505

>  <SCORE.INTRA>
-4.65318

>  <SCORE.INTRA.DIHEDRAL>
-7.85185

>  <SCORE.INTRA.DIHEDRAL.0>
19.5869

>  <SCORE.INTRA.POLAR>
0

>  <SCORE.INTRA.POLAR.0>
0

>  <SCORE.INTRA.REPUL>
0

>  <SCORE.INTRA.REPUL.0>
0

>  <SCORE.INTRA.SOLV>
-1.44956

>  <SCORE.INTRA.SOLV.lig_0>
-70.101

>  <SCORE.INTRA.VDW>
-0.00247421

>  <SCORE.INTRA.VDW.0>
-3.39718

>  <SCORE.INTRA.norm>
-0.136858

>  <SCORE.RESTR>
0

>  <SCORE.RESTR.CAVITY>
0

>  <SCORE.RESTR.norm>
0

>  <SCORE.SYSTEM>
0

>  <SCORE.SYSTEM.CONST>
0

>  <SCORE.SYSTEM.DIHEDRAL>
0

>  <SCORE.SYSTEM.SOLV>
0

>  <SCORE.SYSTEM.norm>
0

>  <SCORE.heavy>
34

>  <SCORE.norm>
-0.405363

>  <RMSD>
9.057

$$$$
ligand
 OpenBabel11021811483D
libRbt.so/2013.1/901 2013/11/27
 34 36  0  0  0  0  0  0  0  0999 V2000
    8.3210    4.7686    8.2728 C   0  0  2  0  0  0  0  0  0  0  0  0
    7.5996    5.3996    9.3424 O   0  0  0  0  0  0  0  0  0  0  0  0
    3.9666    3.2912    8.5565 C   0  0  2  0  0  0  0  0  0  0  0  0
    2.6239    2.7402    8.7033 N   0  0  0  0  0  0  0  0  0  0  0  0
    2.7917    6.7056    7.2537 C   0  0  2  0  0  0  0  0  0  0  0  0
    9.8210    5.2250    8.3642 C   0  0  2  0  0  0  0  0  0  0  0  0
   10.4215    4.8218    9.6453 N   0  0  0  0  0  0  0  0  0  0  0  0
    4.7936    2.8484    9.8093 C   0  0  0  0  0  0  0  0  0  0  0  0
    1.5481    6.8563    8.2013 C   0  0  2  0  0  0  0  0  0  0  0  0
    1.9083    6.5080    9.5279 O   0  0  0  0  0  0  0  0  0  0  0  0
    9.8987    6.7591    8.2070 C   0  0  1  0  0  0  0  0  0  0  0  0
   11.2697    7.1829    8.2817 O   0  0  0  0  0  0  0  0  0  0  0  0
    6.2420    3.4200    9.6413 C   0  0  2  0  0  0  0  0  0  0  0  0
    7.0732    3.0390   10.8012 N   0  0  0  0  0  0  0  0  0  0  0  0
    0.3899    5.9281    7.6663 C   0  0  1  0  0  0  0  0  0  0  0  0
   -0.8142    6.0236    8.5451 N   0  0  0  0  0  0  0  0  0  0  0  0
    9.2533    7.1556    6.8580 C   0  0  2  0  0  0  0  0  0  0  0  0
    9.3087    8.5843    6.7021 O   0  0  0  0  0  0  0  0  0  0  0  0
    6.2187    4.9656    9.5264 C   0  0  2  0  0  0  0  0  0  0  0  0
    0.0312    6.3545    6.2017 C   0  0  1  0  0  0  0  0  0  0  0  0
   -0.4336    7.7017    6.1963 O   0  0  0  0  0  0  0  0  0  0  0  0
    7.7594    6.6542    6.8192 C   0  0  2  0  0  0  0  0  0  0  0  0
    7.7160    5.1901    7.0001 O   0  0  0  0  0  0  0  0  0  0  0  0
    5.3417    5.3776    8.3176 C   0  0  2  0  0  0  0  0  0  0  0  0
    5.3202    6.7994    8.2431 O   0  0  0  0  0  0  0  0  0  0  0  0
    1.3159    6.2456    5.3213 C   0  0  0  0  0  0  0  0  0  0  0  0
    2.4107    7.0729    5.8830 O   0  0  0  0  0  0  0  0  0  0  0  0
    7.0663    7.0018    5.4758 C   0  0  2  0  0  0  0  0  0  0  0  0
    5.7101    6.5656    5.5150 O   0  0  0  0  0  0  0  0  0  0  0  0
    3.8895    4.8714    8.4801 C   0  0  1  0  0  0  0  0  0  0  0  0
    3.1590    5.2986    7.3062 O   0  0  0  0  0  0  0  0  0  0  0  0
    7.7466    6.3170    4.3019 C   0  0  0  0  0  0  0  0  0  0  0  0
   -1.0683    5.4843    5.6053 C   0  0  0  0  0  0  0  0  0  0  0  0
   -0.7804    4.8991    9.4998 C   0  0  0  0  0  0  0  0  0  0  0  0
  1  2  1  1  0  0  0
  1  6  1  0  0  0  0
  1 23  1  0  0  0  0
  3  4  1  1  0  0  0
  3  8  1  0  0  0  0
  3 30  1  0  0  0  0
  5  9  1  0  0  0  0
  5 27  1  0  0  0  0
  5 31  1  6  0  0  0
  6  7  1  1  0  0  0
  6 11  1  0  0  0  0
  8 13  1  0  0  0  0
  9 10  1  1  0  0  0
  9 15  1  0  0  0  0
 11 12  1  6  0  0  0
 11 17  1  0  0  0  0
 13 14  1  1  0  0  0
 13 19  1  0  0  0  0
 15 16  1  1  0  0  0
 15 20  1  0  0  0  0
 16 34  1  0  0  0  0
 17 18  1  1  0  0  0
 17 22  1  0  0  0  0
 19  2  1  6  0  0  0
 19 24  1  0  0  0  0
 20 21  1  1  0  0  0
 20 26  1  0  0  0  0
 20 33  1  0  0  0  0
 22 23  1  6  0  0  0
 22 28  1  0  0  0  0
 24 25  1  1  0  0  0
 24 30  1  0  0  0  0
 26 27  1  0  0  0  0
 28 29  1  1  0  0  0
 28 32  1  0  0  0  0
 30 31  1  6  0  0  0
M  END
>  <CHROM.1>
-172.54132514,52.90491661,-96.52985673,-178.07662552,168.39854120,-77.88444170
4.92863196,5.74381896,7.74392498,0.04507844,0.05297008,2.28035210

>  <Name>
ligand

>  <RI>
0

>  <Rbt.Current_Directory>
/home/itssahil/PROJECTS/Mol_Feturizer/New_Systems/rnas/3TD1

>  <Rbt.Executable>
rbdock ($Id: //depot/dev/client3/rdock/2013.1/src/exe/rbdock.cxx#4 $)

>  <Rbt.Library>
libRbt.so (2013.1, Build901 2013/11/27)

>  <Rbt.Parameter_File>
/export/apps/rDock/src/rDock_2013.1_src/data/scripts/dock_solv.prm

>  <Rbt.Receptor>
prm/pocket_docking_4.prm

>  <SCORE>
-15.2055

>  <SCORE.INTER>
-9.45434

>  <SCORE.INTER.CONST>
1

>  <SCORE.INTER.POLAR>
0

>  <SCORE.INTER.ROT>
6

>  <SCORE.INTER.SOLV>
15.0014

>  <SCORE.INTER.VDW>
-18.9034

>  <SCORE.INTER.norm>
-0.278069

>  <SCORE.INTRA>
-5.75113

>  <SCORE.INTRA.DIHEDRAL>
-16.0842

>  <SCORE.INTRA.DIHEDRAL.0>
19.5869

>  <SCORE.INTRA.POLAR>
0

>  <SCORE.INTRA.POLAR.0>
0

>  <SCORE.INTRA.REPUL>
0

>  <SCORE.INTRA.REPUL.0>
0

>  <SCORE.INTRA.SOLV>
0.454449

>  <SCORE.INTRA.SOLV.lig_0>
-70.101

>  <SCORE.INTRA.VDW>
2.06376

>  <SCORE.INTRA.VDW.0>
-3.39718

>  <SCORE.INTRA.norm>
-0.169151

>  <SCORE.RESTR>
0

>  <SCORE.RESTR.CAVITY>
0

>  <SCORE.RESTR.norm>
0

>  <SCORE.SYSTEM>
0

>  <SCORE.SYSTEM.CONST>
0

>  <SCORE.SYSTEM.DIHEDRAL>
0

>  <SCORE.SYSTEM.SOLV>
0

>  <SCORE.SYSTEM.norm>
0

>  <SCORE.heavy>
34

>  <SCORE.norm>
-0.44722

>  <RMSD>
9.068

$$$$
ligand
 OpenBabel11021811483D
libRbt.so/2013.1/901 2013/11/27
 34 36  0  0  0  0  0  0  0  0999 V2000
   11.8301    7.7939   13.2226 C   0  0  2  0  0  0  0  0  0  0  0  0
   11.9280    8.5947   12.0345 O   0  0  0  0  0  0  0  0  0  0  0  0
    9.8852    7.9745    8.3326 C   0  0  2  0  0  0  0  0  0  0  0  0
    9.5061    7.4331    7.0321 N   0  0  0  0  0  0  0  0  0  0  0  0
    7.9121    5.4400   10.4461 C   0  0  2  0  0  0  0  0  0  0  0  0
   12.1937    8.7026   14.4509 C   0  0  2  0  0  0  0  0  0  0  0  0
   11.2649    9.8377   14.5650 N   0  0  0  0  0  0  0  0  0  0  0  0
   11.4020    8.3533    8.2575 C   0  0  0  0  0  0  0  0  0  0  0  0
    8.0295    4.1444    9.5659 C   0  0  2  0  0  0  0  0  0  0  0  0
    9.3603    3.9986    9.0985 O   0  0  0  0  0  0  0  0  0  0  0  0
   13.6398    9.2205   14.2931 C   0  0  1  0  0  0  0  0  0  0  0  0
   13.9819   10.0466   15.4179 O   0  0  0  0  0  0  0  0  0  0  0  0
   11.8042    8.9562    9.6459 C   0  0  2  0  0  0  0  0  0  0  0  0
   13.2333    9.3293    9.6398 N   0  0  0  0  0  0  0  0  0  0  0  0
    7.0154    4.2577    8.3626 C   0  0  1  0  0  0  0  0  0  0  0  0
    7.0996    3.0529    7.4836 N   0  0  0  0  0  0  0  0  0  0  0  0
   14.5928    8.0083   14.1665 C   0  0  2  0  0  0  0  0  0  0  0  0
   15.9437    8.4757   14.0078 O   0  0  0  0  0  0  0  0  0  0  0  0
   11.5565    7.9361   10.7864 C   0  0  2  0  0  0  0  0  0  0  0  0
    5.5644    4.4161    8.9328 C   0  0  1  0  0  0  0  0  0  0  0  0
    5.2241    3.2647    9.7006 O   0  0  0  0  0  0  0  0  0  0  0  0
   14.1656    7.1268   12.9315 C   0  0  2  0  0  0  0  0  0  0  0  0
   12.7718    6.6709   13.0978 O   0  0  0  0  0  0  0  0  0  0  0  0
   10.0615    7.5303   10.7968 C   0  0  2  0  0  0  0  0  0  0  0  0
    9.8618    6.5807   11.8388 O   0  0  0  0  0  0  0  0  0  0  0  0
    5.5230    5.6804    9.8478 C   0  0  0  0  0  0  0  0  0  0  0  0
    6.5318    5.5804   10.9298 O   0  0  0  0  0  0  0  0  0  0  0  0
   15.0724    5.8790   12.7691 C   0  0  2  0  0  0  0  0  0  0  0  0
   16.4358    6.2889   12.7018 O   0  0  0  0  0  0  0  0  0  0  0  0
    9.6470    6.8827    9.4550 C   0  0  1  0  0  0  0  0  0  0  0  0
    8.2433    6.5479    9.5629 O   0  0  0  0  0  0  0  0  0  0  0  0
   14.7482    5.1139   11.4966 C   0  0  0  0  0  0  0  0  0  0  0  0
    4.5266    4.5561    7.8259 C   0  0  0  0  0  0  0  0  0  0  0  0
    7.8144    3.4300    6.2491 C   0  0  0  0  0  0  0  0  0  0  0  0
  1  2  1  6  0  0  0
  1  6  1  0  0  0  0
  1 23  1  0  0  0  0
  3  4  1  6  0  0  0
  3  8  1  0  0  0  0
  3 30  1  0  0  0  0
  5  9  1  0  0  0  0
  5 27  1  0  0  0  0
  5 31  1  6  0  0  0
  6  7  1  6  0  0  0
  6 11  1  0  0  0  0
  8 13  1  0  0  0  0
  9 10  1  6  0  0  0
  9 15  1  0  0  0  0
 11 12  1  1  0  0  0
 11 17  1  0  0  0  0
 13 14  1  6  0  0  0
 13 19  1  0  0  0  0
 15 16  1  6  0  0  0
 15 20  1  0  0  0  0
 16 34  1  0  0  0  0
 17 18  1  6  0  0  0
 17 22  1  0  0  0  0
 19  2  1  1  0  0  0
 19 24  1  0  0  0  0
 20 21  1  1  0  0  0
 20 26  1  0  0  0  0
 20 33  1  0  0  0  0
 22 23  1  1  0  0  0
 22 28  1  0  0  0  0
 24 25  1  1  0  0  0
 24 30  1  0  0  0  0
 26 27  1  0  0  0  0
 28 29  1  6  0  0  0
 28 32  1  0  0  0  0
 30 31  1  1  0  0  0
M  END
>  <CHROM.1>
-176.93201972,-177.28724312,-105.27547261,-54.54803433,172.83029168,-87.12757839
10.55105889,6.65813543,10.87005217,0.67708516,0.08671741,1.04258030

>  <Name>
ligand

>  <RI>
0

>  <Rbt.Current_Directory>
/home/itssahil/PROJECTS/Mol_Feturizer/New_Systems/rnas/3TD1

>  <Rbt.Executable>
rbdock ($Id: //depot/dev/client3/rdock/2013.1/src/exe/rbdock.cxx#4 $)

>  <Rbt.Library>
libRbt.so (2013.1, Build901 2013/11/27)

>  <Rbt.Parameter_File>
/export/apps/rDock/src/rDock_2013.1_src/data/scripts/dock_solv.prm

>  <Rbt.Receptor>
prm/pocket_docking_8.prm

>  <SCORE>
-9.23022

>  <SCORE.INTER>
-2.20696

>  <SCORE.INTER.CONST>
1

>  <SCORE.INTER.POLAR>
0

>  <SCORE.INTER.ROT>
6

>  <SCORE.INTER.SOLV>
12.7887

>  <SCORE.INTER.VDW>
-13.3342

>  <SCORE.INTER.norm>
-0.0649107

>  <SCORE.INTRA>
-7.02326

>  <SCORE.INTRA.DIHEDRAL>
-14.9889

>  <SCORE.INTRA.DIHEDRAL.0>
19.5869

>  <SCORE.INTRA.POLAR>
0

>  <SCORE.INTRA.POLAR.0>
0

>  <SCORE.INTRA.REPUL>
0

>  <SCORE.INTRA.REPUL.0>
0

>  <SCORE.INTRA.SOLV>
-2.47714

>  <SCORE.INTRA.SOLV.lig_0>
-70.101

>  <SCORE.INTRA.VDW>
1.70975

>  <SCORE.INTRA.VDW.0>
-3.39718

>  <SCORE.INTRA.norm>
-0.206566

>  <SCORE.RESTR>
0

>  <SCORE.RESTR.CAVITY>
0

>  <SCORE.RESTR.norm>
0

>  <SCORE.SYSTEM>
0

>  <SCORE.SYSTEM.CONST>
0

>  <SCORE.SYSTEM.DIHEDRAL>
0

>  <SCORE.SYSTEM.SOLV>
0

>  <SCORE.SYSTEM.norm>
0

>  <SCORE.heavy>
34

>  <SCORE.norm>
-0.271477

>  <RMSD>
9.070

$$$$
ligand
 OpenBabel11021811483D
libRbt.so/2013.1/901 2013/11/27
 34 36  0  0  0  0  0  0  0  0999 V2000
   12.8954    4.4636    6.0321 C   0  0  2  0  0  0  0  0  0  0  0  0
   11.5736    4.9718    5.7925 O   0  0  0  0  0  0  0  0  0  0  0  0
    7.7993    2.9677    5.7975 C   0  0  2  0  0  0  0  0  0  0  0  0
    6.6881    2.1052    6.1840 N   0  0  0  0  0  0  0  0  0  0  0  0
    6.6486    5.7539    8.1393 C   0  0  2  0  0  0  0  0  0  0  0  0
   13.5892    5.3961    7.0883 C   0  0  2  0  0  0  0  0  0  0  0  0
   12.8461    5.4052    8.3580 N   0  0  0  0  0  0  0  0  0  0  0  0
    9.0829    2.0747    5.7294 C   0  0  0  0  0  0  0  0  0  0  0  0
    5.7748    4.8666    9.0965 C   0  0  2  0  0  0  0  0  0  0  0  0
    6.4615    3.6633    9.3985 O   0  0  0  0  0  0  0  0  0  0  0  0
   13.6802    6.8300    6.5224 C   0  0  1  0  0  0  0  0  0  0  0  0
   14.3214    7.6872    7.4809 O   0  0  0  0  0  0  0  0  0  0  0  0
   10.2720    2.9953    5.2918 C   0  0  2  0  0  0  0  0  0  0  0  0
   11.5190    2.2075    5.2150 N   0  0  0  0  0  0  0  0  0  0  0  0
    4.3951    4.5699    8.3908 C   0  0  1  0  0  0  0  0  0  0  0  0
    3.5306    3.7131    9.2568 N   0  0  0  0  0  0  0  0  0  0  0  0
   14.4573    6.7901    5.1852 C   0  0  2  0  0  0  0  0  0  0  0  0
   14.5409    8.1184    4.6400 O   0  0  0  0  0  0  0  0  0  0  0  0
   10.4734    4.1572    6.2979 C   0  0  2  0  0  0  0  0  0  0  0  0
    3.6794    5.9290    8.0805 C   0  0  1  0  0  0  0  0  0  0  0  0
    3.4214    6.6224    9.2986 O   0  0  0  0  0  0  0  0  0  0  0  0
   13.7246    5.8252    4.1767 C   0  0  2  0  0  0  0  0  0  0  0  0
   13.6280    4.4716    4.7567 O   0  0  0  0  0  0  0  0  0  0  0  0
    9.1680    4.9858    6.3936 C   0  0  2  0  0  0  0  0  0  0  0  0
    9.3704    6.0344    7.3353 O   0  0  0  0  0  0  0  0  0  0  0  0
    4.6178    6.7931    7.1805 C   0  0  0  0  0  0  0  0  0  0  0  0
    5.9316    7.0001    7.8358 O   0  0  0  0  0  0  0  0  0  0  0  0
   14.4743    5.7249    2.8225 C   0  0  2  0  0  0  0  0  0  0  0  0
   14.5222    7.0110    2.2104 O   0  0  0  0  0  0  0  0  0  0  0  0
    7.9847    4.1141    6.8747 C   0  0  1  0  0  0  0  0  0  0  0  0
    6.8203    4.9720    6.9243 O   0  0  0  0  0  0  0  0  0  0  0  0
   13.7746    4.7744    1.8651 C   0  0  0  0  0  0  0  0  0  0  0  0
    2.3449    5.7247    7.3739 C   0  0  0  0  0  0  0  0  0  0  0  0
    3.3942    2.3929    8.6122 C   0  0  0  0  0  0  0  0  0  0  0  0
  1  2  1  6  0  0  0
  1  6  1  0  0  0  0
  1 23  1  0  0  0  0
  3  4  1  1  0  0  0
  3  8  1  0  0  0  0
  3 30  1  0  0  0  0
  5  9  1  0  0  0  0
  5 27  1  0  0  0  0
  5 31  1  6  0  0  0
  6  7  1  1  0  0  0
  6 11  1  0  0  0  0
  8 13  1  0  0  0  0
  9 10  1  6  0  0  0
  9 15  1  0  0  0  0
 11 12  1  1  0  0  0
 11 17  1  0  0  0  0
 13 14  1  1  0  0  0
 13 19  1  0  0  0  0
 15 16  1  1  0  0  0
 15 20  1  0  0  0  0
 16 34  1  0  0  0  0
 17 18  1  6  0  0  0
 17 22  1  0  0  0  0
 19  2  1  6  0  0  0
 19 24  1  0  0  0  0
 20 21  1  1  0  0  0
 20 26  1  0  0  0  0
 20 33  1  0  0  0  0
 22 23  1  1  0  0  0
 22 28  1  0  0  0  0
 24 25  1  1  0  0  0
 24 30  1  0  0  0  0
 26 27  1  0  0  0  0
 28 29  1  6  0  0  0
 28 32  1  0  0  0  0
 30 31  1  6  0  0  0
M  END
>  <CHROM.1>
-110.27716145,-78.91344758,-112.04785373,-61.49220871,159.54798812,-90.91691265
9.34046124,5.06850432,6.51712636,0.04854297,-0.37424812,-2.71199916

>  <Name>
ligand

>  <RI>
0

>  <Rbt.Current_Directory>
/home/itssahil/PROJECTS/Mol_Feturizer/New_Systems/rnas/3TD1

>  <Rbt.Executable>
rbdock ($Id: //depot/dev/client3/rdock/2013.1/src/exe/rbdock.cxx#4 $)

>  <Rbt.Library>
libRbt.so (2013.1, Build901 2013/11/27)

>  <Rbt.Parameter_File>
/export/apps/rDock/src/rDock_2013.1_src/data/scripts/dock_solv.prm

>  <Rbt.Receptor>
prm/pocket_docking_7.prm

>  <SCORE>
-14.6241

>  <SCORE.INTER>
-13.21

>  <SCORE.INTER.CONST>
1

>  <SCORE.INTER.POLAR>
0

>  <SCORE.INTER.ROT>
6

>  <SCORE.INTER.SOLV>
16.9703

>  <SCORE.INTER.VDW>
-22.0634

>  <SCORE.INTER.norm>
-0.388529

>  <SCORE.INTRA>
-1.4141

>  <SCORE.INTRA.DIHEDRAL>
-4.38414

>  <SCORE.INTRA.DIHEDRAL.0>
19.5869

>  <SCORE.INTRA.POLAR>
0

>  <SCORE.INTRA.POLAR.0>
0

>  <SCORE.INTRA.REPUL>
0

>  <SCORE.INTRA.REPUL.0>
0

>  <SCORE.INTRA.SOLV>
0.631

>  <SCORE.INTRA.SOLV.lig_0>
-70.101

>  <SCORE.INTRA.VDW>
0.462465

>  <SCORE.INTRA.VDW.0>
-3.39718

>  <SCORE.INTRA.norm>
-0.0415913

>  <SCORE.RESTR>
0

>  <SCORE.RESTR.CAVITY>
0

>  <SCORE.RESTR.norm>
0

>  <SCORE.SYSTEM>
0

>  <SCORE.SYSTEM.CONST>
0

>  <SCORE.SYSTEM.DIHEDRAL>
0

>  <SCORE.SYSTEM.SOLV>
0

>  <SCORE.SYSTEM.norm>
0

>  <SCORE.heavy>
34

>  <SCORE.norm>
-0.43012

>  <RMSD>
9.073

$$$$
ligand
 OpenBabel11021811483D
libRbt.so/2013.1/901 2013/11/27
 34 36  0  0  0  0  0  0  0  0999 V2000
    8.2716    4.8525    8.3488 C   0  0  2  0  0  0  0  0  0  0  0  0
    7.5190    5.4848    9.3958 O   0  0  0  0  0  0  0  0  0  0  0  0
    3.9356    3.3094    8.5661 C   0  0  2  0  0  0  0  0  0  0  0  0
    2.6019    2.7330    8.6969 N   0  0  0  0  0  0  0  0  0  0  0  0
    2.7648    6.7153    7.2255 C   0  0  2  0  0  0  0  0  0  0  0  0
    9.7594    5.3438    8.4565 C   0  0  2  0  0  0  0  0  0  0  0  0
   10.3476    4.9754    9.7537 N   0  0  0  0  0  0  0  0  0  0  0  0
    4.7565    2.8805    9.8278 C   0  0  0  0  0  0  0  0  0  0  0  0
    1.5149    6.9080    8.1569 C   0  0  2  0  0  0  0  0  0  0  0  0
    1.8549    6.5789    9.4937 O   0  0  0  0  0  0  0  0  0  0  0  0
    9.8058    6.8765    8.2747 C   0  0  1  0  0  0  0  0  0  0  0  0
   11.1657    7.3321    8.3643 O   0  0  0  0  0  0  0  0  0  0  0  0
    6.1957    3.4796    9.6769 C   0  0  2  0  0  0  0  0  0  0  0  0
    7.0207    3.1127   10.8459 N   0  0  0  0  0  0  0  0  0  0  0  0
    0.3445    5.9917    7.6278 C   0  0  1  0  0  0  0  0  0  0  0  0
   -0.8664    6.1271    8.4919 N   0  0  0  0  0  0  0  0  0  0  0  0
    9.1741    7.2362    6.9090 C   0  0  2  0  0  0  0  0  0  0  0  0
    9.2004    8.6630    6.7300 O   0  0  0  0  0  0  0  0  0  0  0  0
    6.1445    5.0247    9.5636 C   0  0  2  0  0  0  0  0  0  0  0  0
    0.0089    6.3962    6.1516 C   0  0  1  0  0  0  0  0  0  0  0  0
   -0.4300    7.7516    6.1153 O   0  0  0  0  0  0  0  0  0  0  0  0
    7.6924    6.7009    6.8547 C   0  0  2  0  0  0  0  0  0  0  0  0
    7.6785    5.2393    7.0595 O   0  0  0  0  0  0  0  0  0  0  0  0
    5.2737    5.4217    8.3453 C   0  0  2  0  0  0  0  0  0  0  0  0
    5.2262    6.8429    8.2722 O   0  0  0  0  0  0  0  0  0  0  0  0
    1.3001    6.2458    5.2870 C   0  0  0  0  0  0  0  0  0  0  0  0
    2.4048    7.0630    5.8440 O   0  0  0  0  0  0  0  0  0  0  0  0
    7.0140    7.0107    5.4947 C   0  0  2  0  0  0  0  0  0  0  0  0
    5.6755    6.5214    5.5099 O   0  0  0  0  0  0  0  0  0  0  0  0
    3.8296    4.8879    8.4907 C   0  0  1  0  0  0  0  0  0  0  0  0
    3.1046    5.3029    7.3090 O   0  0  0  0  0  0  0  0  0  0  0  0
    7.7448    6.3445    4.3406 C   0  0  0  0  0  0  0  0  0  0  0  0
   -1.1011    5.5355    5.5607 C   0  0  0  0  0  0  0  0  0  0  0  0
   -0.9297    4.9554    9.3864 C   0  0  0  0  0  0  0  0  0  0  0  0
  1  2  1  1  0  0  0
  1  6  1  0  0  0  0
  1 23  1  0  0  0  0
  3  4  1  1  0  0  0
  3  8  1  0  0  0  0
  3 30  1  0  0  0  0
  5  9  1  0  0  0  0
  5 27  1  0  0  0  0
  5 31  1  6  0  0  0
  6  7  1  1  0  0  0
  6 11  1  0  0  0  0
  8 13  1  0  0  0  0
  9 10  1  1  0  0  0
  9 15  1  0  0  0  0
 11 12  1  6  0  0  0
 11 17  1  0  0  0  0
 13 14  1  1  0  0  0
 13 19  1  0  0  0  0
 15 16  1  1  0  0  0
 15 20  1  0  0  0  0
 16 34  1  0  0  0  0
 17 18  1  1  0  0  0
 17 22  1  0  0  0  0
 19  2  1  6  0  0  0
 19 24  1  0  0  0  0
 20 21  1  6  0  0  0
 20 26  1  0  0  0  0
 20 33  1  0  0  0  0
 22 23  1  6  0  0  0
 22 28  1  0  0  0  0
 24 25  1  1  0  0  0
 24 30  1  0  0  0  0
 26 27  1  0  0  0  0
 28 29  1  1  0  0  0
 28 32  1  0  0  0  0
 30 31  1  6  0  0  0
M  END
>  <CHROM.1>
-172.63384037,51.86664789,-101.60607879,-179.21352426,171.11179735,-78.63312721
4.87497834,5.79610949,7.75384350,0.05296799,0.06550849,2.27765165

>  <Name>
ligand

>  <RI>
0

>  <Rbt.Current_Directory>
/home/itssahil/PROJECTS/Mol_Feturizer/New_Systems/rnas/3TD1

>  <Rbt.Executable>
rbdock ($Id: //depot/dev/client3/rdock/2013.1/src/exe/rbdock.cxx#4 $)

>  <Rbt.Library>
libRbt.so (2013.1, Build901 2013/11/27)

>  <Rbt.Parameter_File>
/export/apps/rDock/src/rDock_2013.1_src/data/scripts/dock_solv.prm

>  <Rbt.Receptor>
prm/pocket_docking_4.prm

>  <SCORE>
-15.2859

>  <SCORE.INTER>
-9.48994

>  <SCORE.INTER.CONST>
1

>  <SCORE.INTER.POLAR>
0

>  <SCORE.INTER.ROT>
6

>  <SCORE.INTER.SOLV>
15.4412

>  <SCORE.INTER.VDW>
-19.0737

>  <SCORE.INTER.norm>
-0.279116

>  <SCORE.INTRA>
-5.79698

>  <SCORE.INTRA.DIHEDRAL>
-16.0284

>  <SCORE.INTRA.DIHEDRAL.0>
19.5869

>  <SCORE.INTRA.POLAR>
0

>  <SCORE.INTRA.POLAR.0>
0

>  <SCORE.INTRA.REPUL>
0

>  <SCORE.INTRA.REPUL.0>
0

>  <SCORE.INTRA.SOLV>
0.238326

>  <SCORE.INTRA.SOLV.lig_0>
-70.101

>  <SCORE.INTRA.VDW>
2.09805

>  <SCORE.INTRA.VDW.0>
-3.39718

>  <SCORE.INTRA.norm>
-0.1705

>  <SCORE.RESTR>
0.00106213

>  <SCORE.RESTR.CAVITY>
0.00106213

>  <SCORE.RESTR.norm>
3.12391e-05

>  <SCORE.SYSTEM>
0

>  <SCORE.SYSTEM.CONST>
0

>  <SCORE.SYSTEM.DIHEDRAL>
0

>  <SCORE.SYSTEM.SOLV>
0

>  <SCORE.SYSTEM.norm>
0

>  <SCORE.heavy>
34

>  <SCORE.norm>
-0.449584

>  <RMSD>
9.083

$$$$
ligand
 OpenBabel11021811483D
libRbt.so/2013.1/901 2013/11/27
 34 36  0  0  0  0  0  0  0  0999 V2000
    8.7329    7.4960    5.5687 C   0  0  2  0  0  0  0  0  0  0  0  0
    8.6393    6.0649    5.6434 O   0  0  0  0  0  0  0  0  0  0  0  0
    7.1756    3.2380    8.4943 C   0  0  2  0  0  0  0  0  0  0  0  0
    6.8714    2.5724    9.7563 N   0  0  0  0  0  0  0  0  0  0  0  0
    4.2255    5.1252    9.4517 C   0  0  2  0  0  0  0  0  0  0  0  0
    9.0201    7.8858    4.0747 C   0  0  2  0  0  0  0  0  0  0  0  0
    7.9352    7.4337    3.1900 N   0  0  0  0  0  0  0  0  0  0  0  0
    8.7222    3.4741    8.4508 C   0  0  0  0  0  0  0  0  0  0  0  0
    2.8526    4.3718    9.5725 C   0  0  2  0  0  0  0  0  0  0  0  0
    3.0728    3.0319    9.9811 O   0  0  0  0  0  0  0  0  0  0  0  0
   10.3579    7.2554    3.6304 C   0  0  1  0  0  0  0  0  0  0  0  0
   10.6310    7.6147    2.2662 O   0  0  0  0  0  0  0  0  0  0  0  0
    9.0526    4.1677    7.0860 C   0  0  2  0  0  0  0  0  0  0  0  0
   10.5040    4.4235    6.9877 N   0  0  0  0  0  0  0  0  0  0  0  0
    2.1223    4.4254    8.1749 C   0  0  1  0  0  0  0  0  0  0  0  0
    0.8141    3.7066    8.2329 N   0  0  0  0  0  0  0  0  0  0  0  0
   11.4779    7.7398    4.5815 C   0  0  2  0  0  0  0  0  0  0  0  0
   12.7295    7.1517    4.1862 O   0  0  0  0  0  0  0  0  0  0  0  0
    8.2952    5.5132    6.9497 C   0  0  2  0  0  0  0  0  0  0  0  0
    1.9037    5.9238    7.7719 C   0  0  1  0  0  0  0  0  0  0  0  0
    1.0731    6.5624    8.7379 O   0  0  0  0  0  0  0  0  0  0  0  0
   11.1233    7.3374    6.0637 C   0  0  2  0  0  0  0  0  0  0  0  0
    9.8281    7.9307    6.4492 O   0  0  0  0  0  0  0  0  0  0  0  0
    6.7712    5.2583    7.0605 C   0  0  2  0  0  0  0  0  0  0  0  0
    6.0983    6.5083    6.9511 O   0  0  0  0  0  0  0  0  0  0  0  0
    3.2920    6.6368    7.7291 C   0  0  0  0  0  0  0  0  0  0  0  0
    3.9875    6.5133    9.0327 O   0  0  0  0  0  0  0  0  0  0  0  0
   12.2012    7.8207    7.0689 C   0  0  2  0  0  0  0  0  0  0  0  0
   11.8473    7.3985    8.3833 O   0  0  0  0  0  0  0  0  0  0  0  0
    6.4069    4.6209    8.4216 C   0  0  1  0  0  0  0  0  0  0  0  0
    4.9740    4.4182    8.4235 O   0  0  0  0  0  0  0  0  0  0  0  0
   12.3185    9.3359    7.0775 C   0  0  0  0  0  0  0  0  0  0  0  0
    1.2219    6.0581    6.4158 C   0  0  0  0  0  0  0  0  0  0  0  0
    1.0564    2.2808    7.9411 C   0  0  0  0  0  0  0  0  0  0  0  0
  1  2  1  6  0  0  0
  1  6  1  0  0  0  0
  1 23  1  0  0  0  0
  3  4  1  1  0  0  0
  3  8  1  0  0  0  0
  3 30  1  0  0  0  0
  5  9  1  0  0  0  0
  5 27  1  0  0  0  0
  5 31  1  6  0  0  0
  6  7  1  6  0  0  0
  6 11  1  0  0  0  0
  8 13  1  0  0  0  0
  9 10  1  6  0  0  0
  9 15  1  0  0  0  0
 11 12  1  6  0  0  0
 11 17  1  0  0  0  0
 13 14  1  1  0  0  0
 13 19  1  0  0  0  0
 15 16  1  1  0  0  0
 15 20  1  0  0  0  0
 16 34  1  0  0  0  0
 17 18  1  6  0  0  0
 17 22  1  0  0  0  0
 19  2  1  6  0  0  0
 19 24  1  0  0  0  0
 20 21  1  1  0  0  0
 20 26  1  0  0  0  0
 20 33  1  0  0  0  0
 22 23  1  1  0  0  0
 22 28  1  0  0  0  0
 24 25  1  1  0  0  0
 24 30  1  0  0  0  0
 26 27  1  0  0  0  0
 28 29  1  1  0  0  0
 28 32  1  0  0  0  0
 30 31  1  6  0  0  0
M  END
>  <CHROM.1>
-176.51533708,-145.66968872,-87.10628050,-178.43171989,125.23059468,-160.31942699
6.97581845,5.82204773,7.05407808,0.46001555,-0.01949846,-0.87578901

>  <Name>
ligand

>  <RI>
0

>  <Rbt.Current_Directory>
/home/itssahil/PROJECTS/Mol_Feturizer/New_Systems/rnas/3TD1

>  <Rbt.Executable>
rbdock ($Id: //depot/dev/client3/rdock/2013.1/src/exe/rbdock.cxx#4 $)

>  <Rbt.Library>
libRbt.so (2013.1, Build901 2013/11/27)

>  <Rbt.Parameter_File>
/export/apps/rDock/src/rDock_2013.1_src/data/scripts/dock_solv.prm

>  <Rbt.Receptor>
prm/pocket_docking_3.prm

>  <SCORE>
-9.8435

>  <SCORE.INTER>
-6.97958

>  <SCORE.INTER.CONST>
1

>  <SCORE.INTER.POLAR>
0

>  <SCORE.INTER.ROT>
6

>  <SCORE.INTER.SOLV>
10.3061

>  <SCORE.INTER.VDW>
-15.6884

>  <SCORE.INTER.norm>
-0.205282

>  <SCORE.INTRA>
-2.86392

>  <SCORE.INTRA.DIHEDRAL>
-5.82446

>  <SCORE.INTRA.DIHEDRAL.0>
19.5869

>  <SCORE.INTRA.POLAR>
0

>  <SCORE.INTRA.POLAR.0>
0

>  <SCORE.INTRA.REPUL>
0

>  <SCORE.INTRA.REPUL.0>
0

>  <SCORE.INTRA.SOLV>
-0.432309

>  <SCORE.INTRA.SOLV.lig_0>
-70.101

>  <SCORE.INTRA.VDW>
0.264468

>  <SCORE.INTRA.VDW.0>
-3.39718

>  <SCORE.INTRA.norm>
-0.0842329

>  <SCORE.RESTR>
0

>  <SCORE.RESTR.CAVITY>
0

>  <SCORE.RESTR.norm>
0

>  <SCORE.SYSTEM>
0

>  <SCORE.SYSTEM.CONST>
0

>  <SCORE.SYSTEM.DIHEDRAL>
0

>  <SCORE.SYSTEM.SOLV>
0

>  <SCORE.SYSTEM.norm>
0

>  <SCORE.heavy>
34

>  <SCORE.norm>
-0.289515

>  <RMSD>
9.088

$$$$
ligand
 OpenBabel11021811483D
libRbt.so/2013.1/901 2013/11/27
 34 36  0  0  0  0  0  0  0  0999 V2000
   11.0148    5.7422    8.2861 C   0  0  2  0  0  0  0  0  0  0  0  0
    9.7956    5.9370    7.5524 O   0  0  0  0  0  0  0  0  0  0  0  0
    6.2769    3.5128    7.4992 C   0  0  2  0  0  0  0  0  0  0  0  0
    5.1292    2.7252    7.9358 N   0  0  0  0  0  0  0  0  0  0  0  0
    4.3199    6.7525    7.9125 C   0  0  2  0  0  0  0  0  0  0  0  0
   11.1038    6.8614    9.3844 C   0  0  2  0  0  0  0  0  0  0  0  0
    9.9694    6.7809   10.3176 N   0  0  0  0  0  0  0  0  0  0  0  0
    7.5456    2.9163    8.1950 C   0  0  0  0  0  0  0  0  0  0  0  0
    3.4194    6.1635    9.0567 C   0  0  2  0  0  0  0  0  0  0  0  0
    4.2235    5.4587    9.9880 O   0  0  0  0  0  0  0  0  0  0  0  0
   11.1256    8.2464    8.7019 C   0  0  1  0  0  0  0  0  0  0  0  0
   11.2150    9.2752    9.7010 O   0  0  0  0  0  0  0  0  0  0  0  0
    8.7813    3.7466    7.7087 C   0  0  2  0  0  0  0  0  0  0  0  0
   10.0146    3.2330    8.3386 N   0  0  0  0  0  0  0  0  0  0  0  0
    2.3374    5.2145    8.4099 C   0  0  1  0  0  0  0  0  0  0  0  0
    1.4625    4.6146    9.4615 N   0  0  0  0  0  0  0  0  0  0  0  0
   12.3208    8.3003    7.7210 C   0  0  2  0  0  0  0  0  0  0  0  0
   12.3479    9.5821    7.0691 O   0  0  0  0  0  0  0  0  0  0  0  0
    8.6197    5.2453    8.0700 C   0  0  2  0  0  0  0  0  0  0  0  0
    1.4785    6.0408    7.3924 C   0  0  1  0  0  0  0  0  0  0  0  0
    0.8027    7.0908    8.0792 O   0  0  0  0  0  0  0  0  0  0  0  0
   12.1852    7.1440    6.6584 C   0  0  2  0  0  0  0  0  0  0  0  0
   12.1386    5.8367    7.3418 O   0  0  0  0  0  0  0  0  0  0  0  0
    7.3236    5.7930    7.4217 C   0  0  2  0  0  0  0  0  0  0  0  0
    7.1867    7.1637    7.7818 O   0  0  0  0  0  0  0  0  0  0  0  0
    2.4307    6.6530    6.3173 C   0  0  0  0  0  0  0  0  0  0  0  0
    3.4794    7.4848    6.9552 O   0  0  0  0  0  0  0  0  0  0  0  0
   13.3725    7.1321    5.6604 C   0  0  2  0  0  0  0  0  0  0  0  0
   13.1506    6.1303    4.6712 O   0  0  0  0  0  0  0  0  0  0  0  0
    6.0782    5.0257    7.9236 C   0  0  1  0  0  0  0  0  0  0  0  0
    4.9296    5.6038    7.2598 O   0  0  0  0  0  0  0  0  0  0  0  0
   14.6864    6.8211    6.3579 C   0  0  0  0  0  0  0  0  0  0  0  0
    0.4224    5.1832    6.7061 C   0  0  0  0  0  0  0  0  0  0  0  0
    1.6921    3.1572    9.4781 C   0  0  0  0  0  0  0  0  0  0  0  0
  1  2  1  6  0  0  0
  1  6  1  0  0  0  0
  1 23  1  0  0  0  0
  3  4  1  1  0  0  0
  3  8  1  0  0  0  0
  3 30  1  0  0  0  0
  5  9  1  0  0  0  0
  5 27  1  0  0  0  0
  5 31  1  6  0  0  0
  6  7  1  1  0  0  0
  6 11  1  0  0  0  0
  8 13  1  0  0  0  0
  9 10  1  1  0  0  0
  9 15  1  0  0  0  0
 11 12  1  1  0  0  0
 11 17  1  0  0  0  0
 13 14  1  1  0  0  0
 13 19  1  0  0  0  0
 15 16  1  1  0  0  0
 15 20  1  0  0  0  0
 16 34  1  0  0  0  0
 17 18  1  6  0  0  0
 17 22  1  0  0  0  0
 19  2  1  6  0  0  0
 19 24  1  0  0  0  0
 20 21  1  1  0  0  0
 20 26  1  0  0  0  0
 20 33  1  0  0  0  0
 22 23  1  1  0  0  0
 22 28  1  0  0  0  0
 24 25  1  1  0  0  0
 24 30  1  0  0  0  0
 26 27  1  0  0  0  0
 28 29  1  6  0  0  0
 28 32  1  0  0  0  0
 30 31  1  6  0  0  0
M  END
>  <CHROM.1>
-90.00432416,-74.58182332,-114.73900385,-175.98512898,156.58772476,-80.08349428
7.42709464,5.98983933,7.85199468,-0.17094400,-0.07296942,3.10692719

>  <Name>
ligand

>  <RI>
0

>  <Rbt.Current_Directory>
/home/itssahil/PROJECTS/Mol_Feturizer/New_Systems/rnas/3TD1

>  <Rbt.Executable>
rbdock ($Id: //depot/dev/client3/rdock/2013.1/src/exe/rbdock.cxx#4 $)

>  <Rbt.Library>
libRbt.so (2013.1, Build901 2013/11/27)

>  <Rbt.Parameter_File>
/export/apps/rDock/src/rDock_2013.1_src/data/scripts/dock_solv.prm

>  <Rbt.Receptor>
prm/pocket_docking_4.prm

>  <SCORE>
-10.3168

>  <SCORE.INTER>
-7.66023

>  <SCORE.INTER.CONST>
1

>  <SCORE.INTER.POLAR>
0

>  <SCORE.INTER.ROT>
6

>  <SCORE.INTER.SOLV>
14.8074

>  <SCORE.INTER.VDW>
-17.6426

>  <SCORE.INTER.norm>
-0.225301

>  <SCORE.INTRA>
-2.65657

>  <SCORE.INTRA.DIHEDRAL>
-9.51909

>  <SCORE.INTRA.DIHEDRAL.0>
19.5869

>  <SCORE.INTRA.POLAR>
0

>  <SCORE.INTRA.POLAR.0>
0

>  <SCORE.INTRA.REPUL>
0

>  <SCORE.INTRA.REPUL.0>
0

>  <SCORE.INTRA.SOLV>
1.64806

>  <SCORE.INTRA.SOLV.lig_0>
-70.101

>  <SCORE.INTRA.VDW>
1.27895

>  <SCORE.INTRA.VDW.0>
-3.39718

>  <SCORE.INTRA.norm>
-0.0781343

>  <SCORE.RESTR>
0

>  <SCORE.RESTR.CAVITY>
0

>  <SCORE.RESTR.norm>
0

>  <SCORE.SYSTEM>
0

>  <SCORE.SYSTEM.CONST>
0

>  <SCORE.SYSTEM.DIHEDRAL>
0

>  <SCORE.SYSTEM.SOLV>
0

>  <SCORE.SYSTEM.norm>
0

>  <SCORE.heavy>
34

>  <SCORE.norm>
-0.303435

>  <RMSD>
9.093

$$$$
ligand
 OpenBabel11021811483D
libRbt.so/2013.1/901 2013/11/27
 34 36  0  0  0  0  0  0  0  0999 V2000
   11.0950    6.3898    4.6255 C   0  0  2  0  0  0  0  0  0  0  0  0
   10.7139    5.0733    4.1964 O   0  0  0  0  0  0  0  0  0  0  0  0
    8.3827    2.0602    6.1325 C   0  0  2  0  0  0  0  0  0  0  0  0
    7.9359    1.0561    7.0918 N   0  0  0  0  0  0  0  0  0  0  0  0
    6.9595    4.8139    8.3237 C   0  0  2  0  0  0  0  0  0  0  0  0
   11.4387    7.2357    3.3476 C   0  0  2  0  0  0  0  0  0  0  0  0
   10.2748    7.3451    2.4545 N   0  0  0  0  0  0  0  0  0  0  0  0
    9.8288    1.6659    5.6820 C   0  0  0  0  0  0  0  0  0  0  0  0
    5.6817    4.3829    9.1289 C   0  0  2  0  0  0  0  0  0  0  0  0
    5.8458    3.0639    9.6231 O   0  0  0  0  0  0  0  0  0  0  0  0
   12.6157    6.5741    2.5983 C   0  0  1  0  0  0  0  0  0  0  0  0
   12.9408    7.3475    1.4317 O   0  0  0  0  0  0  0  0  0  0  0  0
   10.3005    2.7306    4.6347 C   0  0  2  0  0  0  0  0  0  0  0  0
   11.6679    2.4149    4.1741 N   0  0  0  0  0  0  0  0  0  0  0  0
    4.4279    4.4791    8.1759 C   0  0  1  0  0  0  0  0  0  0  0  0
    3.1849    4.0630    8.8922 N   0  0  0  0  0  0  0  0  0  0  0  0
   13.8212    6.4634    3.5617 C   0  0  2  0  0  0  0  0  0  0  0  0
   14.9230    5.8386    2.8804 O   0  0  0  0  0  0  0  0  0  0  0  0
   10.2936    4.1538    5.2487 C   0  0  2  0  0  0  0  0  0  0  0  0
    4.2925    5.9525    7.6599 C   0  0  1  0  0  0  0  0  0  0  0  0
    4.0857    6.8288    8.7647 O   0  0  0  0  0  0  0  0  0  0  0  0
   13.4088    5.6228    4.8298 C   0  0  2  0  0  0  0  0  0  0  0  0
   12.2653    6.2640    5.5076 O   0  0  0  0  0  0  0  0  0  0  0  0
    8.8654    4.4927    5.7439 C   0  0  2  0  0  0  0  0  0  0  0  0
    8.8875    5.7949    6.3195 O   0  0  0  0  0  0  0  0  0  0  0  0
    5.6120    6.3471    6.9248 C   0  0  0  0  0  0  0  0  0  0  0  0
    6.7826    6.1828    7.8198 O   0  0  0  0  0  0  0  0  0  0  0  0
   14.5735    5.4993    5.8468 C   0  0  2  0  0  0  0  0  0  0  0  0
   14.1625    4.6852    6.9421 O   0  0  0  0  0  0  0  0  0  0  0  0
    8.3917    3.4874    6.8193 C   0  0  1  0  0  0  0  0  0  0  0  0
    7.0555    3.8835    7.2090 O   0  0  0  0  0  0  0  0  0  0  0  0
   14.9821    6.8559    6.3966 C   0  0  0  0  0  0  0  0  0  0  0  0
    3.1125    6.1202    6.7105 C   0  0  0  0  0  0  0  0  0  0  0  0
    2.9434    2.6353    8.6085 C   0  0  0  0  0  0  0  0  0  0  0  0
  1  2  1  6  0  0  0
  1  6  1  0  0  0  0
  1 23  1  0  0  0  0
  3  4  1  1  0  0  0
  3  8  1  0  0  0  0
  3 30  1  0  0  0  0
  5  9  1  0  0  0  0
  5 27  1  0  0  0  0
  5 31  1  6  0  0  0
  6  7  1  6  0  0  0
  6 11  1  0  0  0  0
  8 13  1  0  0  0  0
  9 10  1  6  0  0  0
  9 15  1  0  0  0  0
 11 12  1  6  0  0  0
 11 17  1  0  0  0  0
 13 14  1  1  0  0  0
 13 19  1  0  0  0  0
 15 16  1  1  0  0  0
 15 20  1  0  0  0  0
 16 34  1  0  0  0  0
 17 18  1  6  0  0  0
 17 22  1  0  0  0  0
 19  2  1  6  0  0  0
 19 24  1  0  0  0  0
 20 21  1  1  0  0  0
 20 26  1  0  0  0  0
 20 33  1  0  0  0  0
 22 23  1  1  0  0  0
 22 28  1  0  0  0  0
 24 25  1  1  0  0  0
 24 30  1  0  0  0  0
 26 27  1  0  0  0  0
 28 29  1  1  0  0  0
 28 32  1  0  0  0  0
 30 31  1  6  0  0  0
M  END
>  <CHROM.1>
-177.16379289,-165.16436910,-94.91141728,-177.58359880,153.51775357,-143.53200358
9.17578774,4.95742176,6.02299206,0.32427187,0.35492416,-0.42919494

>  <Name>
ligand

>  <RI>
0

>  <Rbt.Current_Directory>
/home/itssahil/PROJECTS/Mol_Feturizer/New_Systems/rnas/3TD1

>  <Rbt.Executable>
rbdock ($Id: //depot/dev/client3/rdock/2013.1/src/exe/rbdock.cxx#4 $)

>  <Rbt.Library>
libRbt.so (2013.1, Build901 2013/11/27)

>  <Rbt.Parameter_File>
/export/apps/rDock/src/rDock_2013.1_src/data/scripts/dock_solv.prm

>  <Rbt.Receptor>
prm/pocket_docking_6.prm

>  <SCORE>
-16.1122

>  <SCORE.INTER>
-10.5201

>  <SCORE.INTER.CONST>
1

>  <SCORE.INTER.POLAR>
0

>  <SCORE.INTER.ROT>
6

>  <SCORE.INTER.SOLV>
13.8653

>  <SCORE.INTER.VDW>
-19.2352

>  <SCORE.INTER.norm>
-0.309415

>  <SCORE.INTRA>
-5.5921

>  <SCORE.INTRA.DIHEDRAL>
-9.98873

>  <SCORE.INTRA.DIHEDRAL.0>
19.5869

>  <SCORE.INTRA.POLAR>
0

>  <SCORE.INTRA.POLAR.0>
0

>  <SCORE.INTRA.REPUL>
0

>  <SCORE.INTRA.REPUL.0>
0

>  <SCORE.INTRA.SOLV>
-2.68564

>  <SCORE.INTRA.SOLV.lig_0>
-70.101

>  <SCORE.INTRA.VDW>
0.745086

>  <SCORE.INTRA.VDW.0>
-3.39718

>  <SCORE.INTRA.norm>
-0.164474

>  <SCORE.RESTR>
0

>  <SCORE.RESTR.CAVITY>
0

>  <SCORE.RESTR.norm>
0

>  <SCORE.SYSTEM>
0

>  <SCORE.SYSTEM.CONST>
0

>  <SCORE.SYSTEM.DIHEDRAL>
0

>  <SCORE.SYSTEM.SOLV>
0

>  <SCORE.SYSTEM.norm>
0

>  <SCORE.heavy>
34

>  <SCORE.norm>
-0.473888

>  <RMSD>
9.099

$$$$
ligand
 OpenBabel11021811483D
libRbt.so/2013.1/901 2013/11/27
 34 36  0  0  0  0  0  0  0  0999 V2000
   13.4809    4.9117    6.8141 C   0  0  2  0  0  0  0  0  0  0  0  0
   12.0879    4.5623    6.8304 O   0  0  0  0  0  0  0  0  0  0  0  0
    9.8852    2.4493    9.8212 C   0  0  2  0  0  0  0  0  0  0  0  0
    9.3388    2.0397   11.1103 N   0  0  0  0  0  0  0  0  0  0  0  0
    7.1417    4.4320   10.3939 C   0  0  2  0  0  0  0  0  0  0  0  0
   13.5988    6.4483    7.1168 C   0  0  2  0  0  0  0  0  0  0  0  0
   13.0428    6.7730    8.4396 N   0  0  0  0  0  0  0  0  0  0  0  0
   11.4445    2.4615    9.9566 C   0  0  0  0  0  0  0  0  0  0  0  0
    5.7159    3.7850   10.2689 C   0  0  2  0  0  0  0  0  0  0  0  0
    5.8133    2.3762   10.3971 O   0  0  0  0  0  0  0  0  0  0  0  0
   12.8526    7.2432    6.0234 C   0  0  1  0  0  0  0  0  0  0  0  0
   12.9632    8.6509    6.2900 O   0  0  0  0  0  0  0  0  0  0  0  0
   12.0328    2.8786    8.5663 C   0  0  2  0  0  0  0  0  0  0  0  0
   13.5079    2.9145    8.6322 N   0  0  0  0  0  0  0  0  0  0  0  0
    5.1000    4.1859    8.8727 C   0  0  1  0  0  0  0  0  0  0  0  0
    3.7457    3.5804    8.6976 N   0  0  0  0  0  0  0  0  0  0  0  0
   13.4503    6.8766    4.6444 C   0  0  2  0  0  0  0  0  0  0  0  0
   12.7574    7.6020    3.6138 O   0  0  0  0  0  0  0  0  0  0  0  0
   11.5150    4.2766    8.1416 C   0  0  2  0  0  0  0  0  0  0  0  0
    5.0144    5.7481    8.7836 C   0  0  1  0  0  0  0  0  0  0  0  0
    4.1572    6.2392    9.8108 O   0  0  0  0  0  0  0  0  0  0  0  0
   13.3205    5.3235    4.4081 C   0  0  2  0  0  0  0  0  0  0  0  0
   14.0186    4.5917    5.4829 O   0  0  0  0  0  0  0  0  0  0  0  0
    9.9673    4.2535    8.0779 C   0  0  2  0  0  0  0  0  0  0  0  0
    9.5145    5.5508    7.7044 O   0  0  0  0  0  0  0  0  0  0  0  0
    6.4468    6.3382    8.9772 C   0  0  0  0  0  0  0  0  0  0  0  0
    7.0306    5.8915   10.2648 O   0  0  0  0  0  0  0  0  0  0  0  0
   13.9280    4.8917    3.0478 C   0  0  2  0  0  0  0  0  0  0  0  0
   15.1698    5.5621    2.8487 O   0  0  0  0  0  0  0  0  0  0  0  0
    9.3550    3.8954    9.4521 C   0  0  1  0  0  0  0  0  0  0  0  0
    7.9173    3.8938    9.2867 O   0  0  0  0  0  0  0  0  0  0  0  0
   13.0115    5.2458    1.8884 C   0  0  0  0  0  0  0  0  0  0  0  0
    4.4490    6.2150    7.4479 C   0  0  0  0  0  0  0  0  0  0  0  0
    3.9057    2.2746    8.0295 C   0  0  0  0  0  0  0  0  0  0  0  0
  1  2  1  6  0  0  0
  1  6  1  0  0  0  0
  1 23  1  0  0  0  0
  3  4  1  1  0  0  0
  3  8  1  0  0  0  0
  3 30  1  0  0  0  0
  5  9  1  0  0  0  0
  5 27  1  0  0  0  0
  5 31  1  6  0  0  0
  6  7  1  1  0  0  0
  6 11  1  0  0  0  0
  8 13  1  0  0  0  0
  9 10  1  6  0  0  0
  9 15  1  0  0  0  0
 11 12  1  1  0  0  0
 11 17  1  0  0  0  0
 13 14  1  1  0  0  0
 13 19  1  0  0  0  0
 15 16  1  1  0  0  0
 15 20  1  0  0  0  0
 16 34  1  0  0  0  0
 17 18  1  6  0  0  0
 17 22  1  0  0  0  0
 19  2  1  6  0  0  0
 19 24  1  0  0  0  0
 20 21  1  1  0  0  0
 20 26  1  0  0  0  0
 20 33  1  0  0  0  0
 22 23  1  1  0  0  0
 22 28  1  0  0  0  0
 24 25  1  1  0  0  0
 24 30  1  0  0  0  0
 26 27  1  0  0  0  0
 28 29  1  6  0  0  0
 28 32  1  0  0  0  0
 30 31  1  6  0  0  0
M  END
>  <CHROM.1>
-84.11811302,-74.52686499,-91.44378265,43.10960044,102.44736029,-156.46598772
9.88868133,4.85960914,7.62140620,-0.50527945,-0.20361141,2.25902642

>  <Name>
ligand

>  <RI>
0

>  <Rbt.Current_Directory>
/home/itssahil/PROJECTS/Mol_Feturizer/New_Systems/rnas/3TD1

>  <Rbt.Executable>
rbdock ($Id: //depot/dev/client3/rdock/2013.1/src/exe/rbdock.cxx#4 $)

>  <Rbt.Library>
libRbt.so (2013.1, Build901 2013/11/27)

>  <Rbt.Parameter_File>
/export/apps/rDock/src/rDock_2013.1_src/data/scripts/dock_solv.prm

>  <Rbt.Receptor>
prm/pocket_docking_5.prm

>  <SCORE>
-9.43431

>  <SCORE.INTER>
-8.09619

>  <SCORE.INTER.CONST>
1

>  <SCORE.INTER.POLAR>
0

>  <SCORE.INTER.ROT>
6

>  <SCORE.INTER.SOLV>
9.80901

>  <SCORE.INTER.VDW>
-16.2671

>  <SCORE.INTER.norm>
-0.238123

>  <SCORE.INTRA>
-1.33812

>  <SCORE.INTRA.DIHEDRAL>
-6.30225

>  <SCORE.INTRA.DIHEDRAL.0>
19.5869

>  <SCORE.INTRA.POLAR>
0

>  <SCORE.INTRA.POLAR.0>
0

>  <SCORE.INTRA.REPUL>
0

>  <SCORE.INTRA.REPUL.0>
0

>  <SCORE.INTRA.SOLV>
1.47348

>  <SCORE.INTRA.SOLV.lig_0>
-70.101

>  <SCORE.INTRA.VDW>
1.07627

>  <SCORE.INTRA.VDW.0>
-3.39718

>  <SCORE.INTRA.norm>
-0.0393564

>  <SCORE.RESTR>
0

>  <SCORE.RESTR.CAVITY>
0

>  <SCORE.RESTR.norm>
0

>  <SCORE.SYSTEM>
0

>  <SCORE.SYSTEM.CONST>
0

>  <SCORE.SYSTEM.DIHEDRAL>
0

>  <SCORE.SYSTEM.SOLV>
0

>  <SCORE.SYSTEM.norm>
0

>  <SCORE.heavy>
34

>  <SCORE.norm>
-0.27748

>  <RMSD>
9.106

$$$$
ligand
 OpenBabel11021811483D
libRbt.so/2013.1/901 2013/11/27
 34 36  0  0  0  0  0  0  0  0999 V2000
   12.8176    4.7210    5.4050 C   0  0  2  0  0  0  0  0  0  0  0  0
   11.4954    5.2544    5.5779 O   0  0  0  0  0  0  0  0  0  0  0  0
    7.8768    3.3659    6.8431 C   0  0  2  0  0  0  0  0  0  0  0  0
    6.7114    2.4894    6.8842 N   0  0  0  0  0  0  0  0  0  0  0  0
    8.2531    0.8038    8.4849 C   0  0  2  0  0  0  0  0  0  0  0  0
   13.8404    5.9039    5.5499 C   0  0  2  0  0  0  0  0  0  0  0  0
   13.7487    6.5251    6.8803 N   0  0  0  0  0  0  0  0  0  0  0  0
    7.8492    4.1167    5.4701 C   0  0  0  0  0  0  0  0  0  0  0  0
    8.5058    0.2875    9.9466 C   0  0  2  0  0  0  0  0  0  0  0  0
    8.3263    1.3485   10.8701 O   0  0  0  0  0  0  0  0  0  0  0  0
   13.5603    6.9583    4.4571 C   0  0  1  0  0  0  0  0  0  0  0  0
   14.4979    8.0403    4.5789 O   0  0  0  0  0  0  0  0  0  0  0  0
    9.0873    5.0752    5.4347 C   0  0  2  0  0  0  0  0  0  0  0  0
    9.1201    5.8111    4.1544 N   0  0  0  0  0  0  0  0  0  0  0  0
    9.9696   -0.2953   10.0305 C   0  0  1  0  0  0  0  0  0  0  0  0
   10.2659   -0.7869   11.4096 N   0  0  0  0  0  0  0  0  0  0  0  0
   13.6541    6.2773    3.0711 C   0  0  2  0  0  0  0  0  0  0  0  0
   13.3847    7.2457    2.0424 O   0  0  0  0  0  0  0  0  0  0  0  0
   10.4089    4.2804    5.5909 C   0  0  2  0  0  0  0  0  0  0  0  0
   10.1137   -1.4611    8.9934 C   0  0  1  0  0  0  0  0  0  0  0  0
    9.1959   -2.5030    9.3149 O   0  0  0  0  0  0  0  0  0  0  0  0
   12.6206    5.0896    2.9947 C   0  0  2  0  0  0  0  0  0  0  0  0
   12.8961    4.1141    4.0674 O   0  0  0  0  0  0  0  0  0  0  0  0
   10.3821    3.4968    6.9270 C   0  0  2  0  0  0  0  0  0  0  0  0
   11.5960    2.7612    7.0399 O   0  0  0  0  0  0  0  0  0  0  0  0
    9.7904   -0.9061    7.5704 C   0  0  0  0  0  0  0  0  0  0  0  0
    8.4365   -0.3027    7.5357 O   0  0  0  0  0  0  0  0  0  0  0  0
   12.6870    4.3506    1.6326 C   0  0  2  0  0  0  0  0  0  0  0  0
   14.0313    3.9545    1.3729 O   0  0  0  0  0  0  0  0  0  0  0  0
    9.1985    2.5024    6.9701 C   0  0  1  0  0  0  0  0  0  0  0  0
    9.2575    1.8302    8.2503 O   0  0  0  0  0  0  0  0  0  0  0  0
   12.2306    5.2423    0.4897 C   0  0  0  0  0  0  0  0  0  0  0  0
   11.5141   -2.0616    8.9983 C   0  0  0  0  0  0  0  0  0  0  0  0
   11.1260    0.2069   12.0801 C   0  0  0  0  0  0  0  0  0  0  0  0
  1  2  1  6  0  0  0
  1  6  1  0  0  0  0
  1 23  1  0  0  0  0
  3  4  1  6  0  0  0
  3  8  1  0  0  0  0
  3 30  1  0  0  0  0
  5  9  1  0  0  0  0
  5 27  1  0  0  0  0
  5 31  1  6  0  0  0
  6  7  1  1  0  0  0
  6 11  1  0  0  0  0
  8 13  1  0  0  0  0
  9 10  1  1  0  0  0
  9 15  1  0  0  0  0
 11 12  1  6  0  0  0
 11 17  1  0  0  0  0
 13 14  1  6  0  0  0
 13 19  1  0  0  0  0
 15 16  1  1  0  0  0
 15 20  1  0  0  0  0
 16 34  1  0  0  0  0
 17 18  1  6  0  0  0
 17 22  1  0  0  0  0
 19  2  1  1  0  0  0
 19 24  1  0  0  0  0
 20 21  1  1  0  0  0
 20 26  1  0  0  0  0
 20 33  1  0  0  0  0
 22 23  1  1  0  0  0
 22 28  1  0  0  0  0
 24 25  1  6  0  0  0
 24 30  1  0  0  0  0
 26 27  1  0  0  0  0
 28 29  1  6  0  0  0
 28 32  1  0  0  0  0
 30 31  1  1  0  0  0
M  END
>  <CHROM.1>
-174.94076969,-166.34882847,-103.35060405,53.16148708,66.27563845,-177.74922117
10.86183907,3.04175175,6.37361113,-1.17678512,0.15363751,2.28713791

>  <Name>
ligand

>  <RI>
0

>  <Rbt.Current_Directory>
/home/itssahil/PROJECTS/Mol_Feturizer/New_Systems/rnas/3TD1

>  <Rbt.Executable>
rbdock ($Id: //depot/dev/client3/rdock/2013.1/src/exe/rbdock.cxx#4 $)

>  <Rbt.Library>
libRbt.so (2013.1, Build901 2013/11/27)

>  <Rbt.Parameter_File>
/export/apps/rDock/src/rDock_2013.1_src/data/scripts/dock_solv.prm

>  <Rbt.Receptor>
prm/pocket_docking_8.prm

>  <SCORE>
-9.95362

>  <SCORE.INTER>
-2.27312

>  <SCORE.INTER.CONST>
1

>  <SCORE.INTER.POLAR>
0

>  <SCORE.INTER.ROT>
6

>  <SCORE.INTER.SOLV>
12.6242

>  <SCORE.INTER.VDW>
-13.3235

>  <SCORE.INTER.norm>
-0.0668566

>  <SCORE.INTRA>
-7.72521

>  <SCORE.INTRA.DIHEDRAL>
-17.142

>  <SCORE.INTRA.DIHEDRAL.0>
19.5869

>  <SCORE.INTRA.POLAR>
0

>  <SCORE.INTRA.POLAR.0>
0

>  <SCORE.INTRA.REPUL>
0

>  <SCORE.INTRA.REPUL.0>
0

>  <SCORE.INTRA.SOLV>
-1.5495

>  <SCORE.INTRA.SOLV.lig_0>
-70.101

>  <SCORE.INTRA.VDW>
1.62056

>  <SCORE.INTRA.VDW.0>
-3.39718

>  <SCORE.INTRA.norm>
-0.227212

>  <SCORE.RESTR>
0.0447211

>  <SCORE.RESTR.CAVITY>
0.0447211

>  <SCORE.RESTR.norm>
0.00131533

>  <SCORE.SYSTEM>
0

>  <SCORE.SYSTEM.CONST>
0

>  <SCORE.SYSTEM.DIHEDRAL>
0

>  <SCORE.SYSTEM.SOLV>
0

>  <SCORE.SYSTEM.norm>
0

>  <SCORE.heavy>
34

>  <SCORE.norm>
-0.292753

>  <RMSD>
9.122

$$$$
ligand
 OpenBabel11021811483D
libRbt.so/2013.1/901 2013/11/27
 34 36  0  0  0  0  0  0  0  0999 V2000
    8.0906    3.5565    6.9909 C   0  0  2  0  0  0  0  0  0  0  0  0
    7.8196    4.4543    8.0786 O   0  0  0  0  0  0  0  0  0  0  0  0
    3.7488    3.2214    8.4916 C   0  0  2  0  0  0  0  0  0  0  0  0
    2.3932    3.0648    9.0073 N   0  0  0  0  0  0  0  0  0  0  0  0
    2.9481    6.5207    6.7228 C   0  0  2  0  0  0  0  0  0  0  0  0
    9.6430    3.5364    6.7542 C   0  0  2  0  0  0  0  0  0  0  0  0
   10.3564    3.0627    7.9504 N   0  0  0  0  0  0  0  0  0  0  0  0
    4.7351    2.8283    9.6416 C   0  0  0  0  0  0  0  0  0  0  0  0
    1.8233    7.0018    7.7080 C   0  0  2  0  0  0  0  0  0  0  0  0
    2.2356    6.7930    9.0486 O   0  0  0  0  0  0  0  0  0  0  0  0
   10.1220    4.9571    6.3848 C   0  0  1  0  0  0  0  0  0  0  0  0
   11.5411    4.9444    6.1590 O   0  0  0  0  0  0  0  0  0  0  0  0
    6.1904    2.9739    9.0815 C   0  0  2  0  0  0  0  0  0  0  0  0
    7.1719    2.6210   10.1274 N   0  0  0  0  0  0  0  0  0  0  0  0
    0.4994    6.2040    7.3914 C   0  0  1  0  0  0  0  0  0  0  0  0
   -0.6004    6.6151    8.3149 N   0  0  0  0  0  0  0  0  0  0  0  0
    9.3507    5.4334    5.1311 C   0  0  2  0  0  0  0  0  0  0  0  0
    9.7789    6.7611    4.7810 O   0  0  0  0  0  0  0  0  0  0  0  0
    6.4604    4.4253    8.6089 C   0  0  2  0  0  0  0  0  0  0  0  0
    0.0889    6.4692    5.9026 C   0  0  1  0  0  0  0  0  0  0  0  0
   -0.1685    7.8587    5.7179 O   0  0  0  0  0  0  0  0  0  0  0  0
    7.8019    5.4128    5.4240 C   0  0  2  0  0  0  0  0  0  0  0  0
    7.3801    4.0497    5.8011 O   0  0  0  0  0  0  0  0  0  0  0  0
    5.4305    4.8100    7.5174 C   0  0  2  0  0  0  0  0  0  0  0  0
    5.6861    6.1510    7.1125 O   0  0  0  0  0  0  0  0  0  0  0  0
    1.2660    6.0320    4.9748 C   0  0  0  0  0  0  0  0  0  0  0  0
    2.5145    6.7452    5.3369 O   0  0  0  0  0  0  0  0  0  0  0  0
    6.9732    5.8577    4.1906 C   0  0  2  0  0  0  0  0  0  0  0  0
    7.4426    5.1736    3.0318 O   0  0  0  0  0  0  0  0  0  0  0  0
    3.9838    4.7264    8.0574 C   0  0  1  0  0  0  0  0  0  0  0  0
    3.1044    5.0952    6.9689 O   0  0  0  0  0  0  0  0  0  0  0  0
    7.1021    7.3510    3.9394 C   0  0  0  0  0  0  0  0  0  0  0  0
   -1.1736    5.7100    5.5132 C   0  0  0  0  0  0  0  0  0  0  0  0
   -0.7958    5.5416    9.3082 C   0  0  0  0  0  0  0  0  0  0  0  0
  1  2  1  1  0  0  0
  1  6  1  0  0  0  0
  1 23  1  0  0  0  0
  3  4  1  1  0  0  0
  3  8  1  0  0  0  0
  3 30  1  0  0  0  0
  5  9  1  0  0  0  0
  5 27  1  0  0  0  0
  5 31  1  6  0  0  0
  6  7  1  1  0  0  0
  6 11  1  0  0  0  0
  8 13  1  0  0  0  0
  9 10  1  1  0  0  0
  9 15  1  0  0  0  0
 11 12  1  6  0  0  0
 11 17  1  0  0  0  0
 13 14  1  1  0  0  0
 13 19  1  0  0  0  0
 15 16  1  1  0  0  0
 15 20  1  0  0  0  0
 16 34  1  0  0  0  0
 17 18  1  1  0  0  0
 17 22  1  0  0  0  0
 19  2  1  6  0  0  0
 19 24  1  0  0  0  0
 20 21  1  6  0  0  0
 20 26  1  0  0  0  0
 20 33  1  0  0  0  0
 22 23  1  6  0  0  0
 22 28  1  0  0  0  0
 24 25  1  1  0  0  0
 24 30  1  0  0  0  0
 26 27  1  0  0  0  0
 28 29  1  6  0  0  0
 28 32  1  0  0  0  0
 30 31  1  6  0  0  0
M  END
>  <CHROM.1>
-169.25871256,58.47765554,-105.19724961,47.34670445,163.50294126,-84.79257452
5.03001896,5.21007310,6.88406933,0.00841077,-0.19928289,2.15529346

>  <Name>
ligand

>  <RI>
0

>  <Rbt.Current_Directory>
/home/itssahil/PROJECTS/Mol_Feturizer/New_Systems/rnas/3TD1

>  <Rbt.Executable>
rbdock ($Id: //depot/dev/client3/rdock/2013.1/src/exe/rbdock.cxx#4 $)

>  <Rbt.Library>
libRbt.so (2013.1, Build901 2013/11/27)

>  <Rbt.Parameter_File>
/export/apps/rDock/src/rDock_2013.1_src/data/scripts/dock_solv.prm

>  <Rbt.Receptor>
prm/pocket_docking_5.prm

>  <SCORE>
-14.2344

>  <SCORE.INTER>
-9.26667

>  <SCORE.INTER.CONST>
1

>  <SCORE.INTER.POLAR>
0

>  <SCORE.INTER.ROT>
6

>  <SCORE.INTER.SOLV>
13.488

>  <SCORE.INTER.VDW>
-18.2738

>  <SCORE.INTER.norm>
-0.272549

>  <SCORE.INTRA>
-4.96772

>  <SCORE.INTRA.DIHEDRAL>
-13.496

>  <SCORE.INTRA.DIHEDRAL.0>
19.5869

>  <SCORE.INTRA.POLAR>
0

>  <SCORE.INTRA.POLAR.0>
0

>  <SCORE.INTRA.REPUL>
0

>  <SCORE.INTRA.REPUL.0>
0

>  <SCORE.INTRA.SOLV>
0.100684

>  <SCORE.INTRA.SOLV.lig_0>
-70.101

>  <SCORE.INTRA.VDW>
1.72992

>  <SCORE.INTRA.VDW.0>
-3.39718

>  <SCORE.INTRA.norm>
-0.146109

>  <SCORE.RESTR>
0

>  <SCORE.RESTR.CAVITY>
0

>  <SCORE.RESTR.norm>
0

>  <SCORE.SYSTEM>
0

>  <SCORE.SYSTEM.CONST>
0

>  <SCORE.SYSTEM.DIHEDRAL>
0

>  <SCORE.SYSTEM.SOLV>
0

>  <SCORE.SYSTEM.norm>
0

>  <SCORE.heavy>
34

>  <SCORE.norm>
-0.418659

>  <RMSD>
9.127

$$$$
ligand
 OpenBabel11021811483D
libRbt.so/2013.1/901 2013/11/27
 34 36  0  0  0  0  0  0  0  0999 V2000
    8.5017    7.6413    5.3231 C   0  0  2  0  0  0  0  0  0  0  0  0
    8.7898    6.2710    5.6422 O   0  0  0  0  0  0  0  0  0  0  0  0
    7.1324    3.6901    8.6177 C   0  0  2  0  0  0  0  0  0  0  0  0
    6.7580    3.1235    9.9088 N   0  0  0  0  0  0  0  0  0  0  0  0
    4.2512    5.1682    9.6093 C   0  0  2  0  0  0  0  0  0  0  0  0
    8.7533    7.8444    3.7862 C   0  0  2  0  0  0  0  0  0  0  0  0
    7.8769    6.9756    2.9854 N   0  0  0  0  0  0  0  0  0  0  0  0
    8.6853    3.8851    8.6250 C   0  0  0  0  0  0  0  0  0  0  0  0
    3.2414    3.9756    9.7678 C   0  0  2  0  0  0  0  0  0  0  0  0
    3.9522    2.7529    9.8704 O   0  0  0  0  0  0  0  0  0  0  0  0
   10.2324    7.5378    3.4657 C   0  0  1  0  0  0  0  0  0  0  0  0
   10.4716    7.7294    2.0618 O   0  0  0  0  0  0  0  0  0  0  0  0
    9.0910    4.4717    7.2306 C   0  0  2  0  0  0  0  0  0  0  0  0
   10.5516    4.6848    7.1778 N   0  0  0  0  0  0  0  0  0  0  0  0
    2.2727    3.9651    8.5224 C   0  0  1  0  0  0  0  0  0  0  0  0
    1.2995    2.8358    8.6177 N   0  0  0  0  0  0  0  0  0  0  0  0
   11.1304    8.4576    4.3266 C   0  0  2  0  0  0  0  0  0  0  0  0
   12.5127    8.1757    4.0466 O   0  0  0  0  0  0  0  0  0  0  0  0
    8.3767    5.8221    6.9678 C   0  0  2  0  0  0  0  0  0  0  0  0
    1.5139    5.3346    8.4561 C   0  0  1  0  0  0  0  0  0  0  0  0
    0.7299    5.5042    9.6340 O   0  0  0  0  0  0  0  0  0  0  0  0
   10.8180    8.2223    5.8536 C   0  0  2  0  0  0  0  0  0  0  0  0
    9.3929    8.4957    6.1229 O   0  0  0  0  0  0  0  0  0  0  0  0
    6.8431    5.6126    7.0298 C   0  0  2  0  0  0  0  0  0  0  0  0
    6.2095    6.8676    6.8041 O   0  0  0  0  0  0  0  0  0  0  0  0
    2.5661    6.4842    8.3634 C   0  0  0  0  0  0  0  0  0  0  0  0
    3.5064    6.4308    9.5086 O   0  0  0  0  0  0  0  0  0  0  0  0
   11.6730    9.1384    6.7677 C   0  0  2  0  0  0  0  0  0  0  0  0
   13.0553    8.9230    6.4956 O   0  0  0  0  0  0  0  0  0  0  0  0
    6.4053    5.0825    8.4151 C   0  0  1  0  0  0  0  0  0  0  0  0
    4.9686    4.9151    8.3689 O   0  0  0  0  0  0  0  0  0  0  0  0
   11.4319    8.8425    8.2388 C   0  0  0  0  0  0  0  0  0  0  0  0
    0.5727    5.4099    7.2602 C   0  0  0  0  0  0  0  0  0  0  0  0
    1.9005    1.6518    7.9742 C   0  0  0  0  0  0  0  0  0  0  0  0
  1  2  1  1  0  0  0
  1  6  1  0  0  0  0
  1 23  1  0  0  0  0
  3  4  1  1  0  0  0
  3  8  1  0  0  0  0
  3 30  1  0  0  0  0
  5  9  1  0  0  0  0
  5 27  1  0  0  0  0
  5 31  1  6  0  0  0
  6  7  1  6  0  0  0
  6 11  1  0  0  0  0
  8 13  1  0  0  0  0
  9 10  1  6  0  0  0
  9 15  1  0  0  0  0
 11 12  1  6  0  0  0
 11 17  1  0  0  0  0
 13 14  1  1  0  0  0
 13 19  1  0  0  0  0
 15 16  1  1  0  0  0
 15 20  1  0  0  0  0
 16 34  1  0  0  0  0
 17 18  1  1  0  0  0
 17 22  1  0  0  0  0
 19  2  1  6  0  0  0
 19 24  1  0  0  0  0
 20 21  1  1  0  0  0
 20 26  1  0  0  0  0
 20 33  1  0  0  0  0
 22 23  1  6  0  0  0
 22 28  1  0  0  0  0
 24 25  1  1  0  0  0
 24 30  1  0  0  0  0
 26 27  1  0  0  0  0
 28 29  1  6  0  0  0
 28 32  1  0  0  0  0
 30 31  1  6  0  0  0
M  END
>  <CHROM.1>
-168.86547141,-165.81533002,-89.24766954,-56.80273576,97.67256316,-134.30498310
6.92697140,5.95767395,7.10958031,0.55167449,-0.10773953,-0.96569165

>  <Name>
ligand

>  <RI>
0

>  <Rbt.Current_Directory>
/home/itssahil/PROJECTS/Mol_Feturizer/New_Systems/rnas/3TD1

>  <Rbt.Executable>
rbdock ($Id: //depot/dev/client3/rdock/2013.1/src/exe/rbdock.cxx#4 $)

>  <Rbt.Library>
libRbt.so (2013.1, Build901 2013/11/27)

>  <Rbt.Parameter_File>
/export/apps/rDock/src/rDock_2013.1_src/data/scripts/dock_solv.prm

>  <Rbt.Receptor>
prm/pocket_docking_3.prm

>  <SCORE>
-13.5177

>  <SCORE.INTER>
-10.2943

>  <SCORE.INTER.CONST>
1

>  <SCORE.INTER.POLAR>
0

>  <SCORE.INTER.ROT>
6

>  <SCORE.INTER.SOLV>
13.391

>  <SCORE.INTER.VDW>
-18.9265

>  <SCORE.INTER.norm>
-0.302772

>  <SCORE.INTRA>
-3.22342

>  <SCORE.INTRA.DIHEDRAL>
-6.20587

>  <SCORE.INTRA.DIHEDRAL.0>
19.5869

>  <SCORE.INTRA.POLAR>
0

>  <SCORE.INTRA.POLAR.0>
0

>  <SCORE.INTRA.REPUL>
0

>  <SCORE.INTRA.REPUL.0>
0

>  <SCORE.INTRA.SOLV>
-0.616416

>  <SCORE.INTRA.SOLV.lig_0>
-70.101

>  <SCORE.INTRA.VDW>
0.187726

>  <SCORE.INTRA.VDW.0>
-3.39718

>  <SCORE.INTRA.norm>
-0.0948064

>  <SCORE.RESTR>
0

>  <SCORE.RESTR.CAVITY>
0

>  <SCORE.RESTR.norm>
0

>  <SCORE.SYSTEM>
0

>  <SCORE.SYSTEM.CONST>
0

>  <SCORE.SYSTEM.DIHEDRAL>
0

>  <SCORE.SYSTEM.SOLV>
0

>  <SCORE.SYSTEM.norm>
0

>  <SCORE.heavy>
34

>  <SCORE.norm>
-0.397579

>  <RMSD>
9.132

$$$$
ligand
 OpenBabel11021811483D
libRbt.so/2013.1/901 2013/11/27
 34 36  0  0  0  0  0  0  0  0999 V2000
    8.5711    7.6644    5.4411 C   0  0  2  0  0  0  0  0  0  0  0  0
    8.8409    6.3075    5.8266 O   0  0  0  0  0  0  0  0  0  0  0  0
    7.1281    3.8459    8.8710 C   0  0  2  0  0  0  0  0  0  0  0  0
    6.7175    3.3382   10.1756 N   0  0  0  0  0  0  0  0  0  0  0  0
    4.1918    5.2138    9.7039 C   0  0  2  0  0  0  0  0  0  0  0  0
    8.8598    7.7980    3.9031 C   0  0  2  0  0  0  0  0  0  0  0  0
    7.9955    6.9007    3.1207 N   0  0  0  0  0  0  0  0  0  0  0  0
    8.6752    4.0773    8.9249 C   0  0  0  0  0  0  0  0  0  0  0  0
    3.1743    4.0199    9.7831 C   0  0  2  0  0  0  0  0  0  0  0  0
    3.8782    2.7914    9.8624 O   0  0  0  0  0  0  0  0  0  0  0  0
   10.3435    7.4676    3.6312 C   0  0  1  0  0  0  0  0  0  0  0  0
   10.6168    7.5956    2.2264 O   0  0  0  0  0  0  0  0  0  0  0  0
    9.1205    4.6003    7.5174 C   0  0  2  0  0  0  0  0  0  0  0  0
   10.5771    4.8445    7.5068 N   0  0  0  0  0  0  0  0  0  0  0  0
    2.2475    4.0606    8.5068 C   0  0  1  0  0  0  0  0  0  0  0  0
    1.2689    2.9323    8.5266 N   0  0  0  0  0  0  0  0  0  0  0  0
   11.2284    8.4182    4.4720 C   0  0  2  0  0  0  0  0  0  0  0  0
   12.6146    8.1150    4.2372 O   0  0  0  0  0  0  0  0  0  0  0  0
    8.3879    5.9182    7.1579 C   0  0  2  0  0  0  0  0  0  0  0  0
    1.4949    5.4345    8.4678 C   0  0  1  0  0  0  0  0  0  0  0  0
    0.6726    5.5621    9.6248 O   0  0  0  0  0  0  0  0  0  0  0  0
   10.8788    8.2524    6.0000 C   0  0  2  0  0  0  0  0  0  0  0  0
    9.4500    8.5470    6.2234 O   0  0  0  0  0  0  0  0  0  0  0  0
    6.8578    5.6763    7.1748 C   0  0  2  0  0  0  0  0  0  0  0  0
    6.2064    6.9028    6.8604 O   0  0  0  0  0  0  0  0  0  0  0  0
    2.5526    6.5828    8.4540 C   0  0  0  0  0  0  0  0  0  0  0  0
    3.4541    6.4822    9.6269 O   0  0  0  0  0  0  0  0  0  0  0  0
   11.7195    9.2020    6.8930 C   0  0  2  0  0  0  0  0  0  0  0  0
   13.1059    8.9769    6.6513 O   0  0  0  0  0  0  0  0  0  0  0  0
    6.3795    5.2086    8.5690 C   0  0  1  0  0  0  0  0  0  0  0  0
    4.9494    5.0055    8.4792 O   0  0  0  0  0  0  0  0  0  0  0  0
   11.4546    8.9610    8.3700 C   0  0  0  0  0  0  0  0  0  0  0  0
    0.5941    5.5591    7.2451 C   0  0  0  0  0  0  0  0  0  0  0  0
    1.9357    1.7322    7.9861 C   0  0  0  0  0  0  0  0  0  0  0  0
  1  2  1  1  0  0  0
  1  6  1  0  0  0  0
  1 23  1  0  0  0  0
  3  4  1  1  0  0  0
  3  8  1  0  0  0  0
  3 30  1  0  0  0  0
  5  9  1  0  0  0  0
  5 27  1  0  0  0  0
  5 31  1  6  0  0  0
  6  7  1  6  0  0  0
  6 11  1  0  0  0  0
  8 13  1  0  0  0  0
  9 10  1  6  0  0  0
  9 15  1  0  0  0  0
 11 12  1  6  0  0  0
 11 17  1  0  0  0  0
 13 14  1  1  0  0  0
 13 19  1  0  0  0  0
 15 16  1  1  0  0  0
 15 20  1  0  0  0  0
 16 34  1  0  0  0  0
 17 18  1  1  0  0  0
 17 22  1  0  0  0  0
 19  2  1  6  0  0  0
 19 24  1  0  0  0  0
 20 21  1  1  0  0  0
 20 26  1  0  0  0  0
 20 33  1  0  0  0  0
 22 23  1  6  0  0  0
 22 28  1  0  0  0  0
 24 25  1  1  0  0  0
 24 30  1  0  0  0  0
 26 27  1  0  0  0  0
 28 29  1  1  0  0  0
 28 32  1  0  0  0  0
 30 31  1  6  0  0  0
M  END
>  <CHROM.1>
-168.57506045,-164.02473235,-83.44752354,-56.10194935,93.45145233,-136.27269833
6.94686664,6.01747744,7.23116790,0.52411593,-0.14101342,-1.02490049

>  <Name>
ligand

>  <RI>
0

>  <Rbt.Current_Directory>
/home/itssahil/PROJECTS/Mol_Feturizer/New_Systems/rnas/3TD1

>  <Rbt.Executable>
rbdock ($Id: //depot/dev/client3/rdock/2013.1/src/exe/rbdock.cxx#4 $)

>  <Rbt.Library>
libRbt.so (2013.1, Build901 2013/11/27)

>  <Rbt.Parameter_File>
/export/apps/rDock/src/rDock_2013.1_src/data/scripts/dock_solv.prm

>  <Rbt.Receptor>
prm/pocket_docking_3.prm

>  <SCORE>
-13.4785

>  <SCORE.INTER>
-10.1812

>  <SCORE.INTER.CONST>
1

>  <SCORE.INTER.POLAR>
0

>  <SCORE.INTER.ROT>
6

>  <SCORE.INTER.SOLV>
14.0524

>  <SCORE.INTER.VDW>
-19.0716

>  <SCORE.INTER.norm>
-0.299447

>  <SCORE.INTRA>
-3.29729

>  <SCORE.INTRA.DIHEDRAL>
-7.1095

>  <SCORE.INTRA.DIHEDRAL.0>
19.5869

>  <SCORE.INTRA.POLAR>
0

>  <SCORE.INTRA.POLAR.0>
0

>  <SCORE.INTRA.REPUL>
0

>  <SCORE.INTRA.REPUL.0>
0

>  <SCORE.INTRA.SOLV>
-0.473151

>  <SCORE.INTRA.SOLV.lig_0>
-70.101

>  <SCORE.INTRA.VDW>
0.49404

>  <SCORE.INTRA.VDW.0>
-3.39718

>  <SCORE.INTRA.norm>
-0.096979

>  <SCORE.RESTR>
0

>  <SCORE.RESTR.CAVITY>
0

>  <SCORE.RESTR.norm>
0

>  <SCORE.SYSTEM>
0

>  <SCORE.SYSTEM.CONST>
0

>  <SCORE.SYSTEM.DIHEDRAL>
0

>  <SCORE.SYSTEM.SOLV>
0

>  <SCORE.SYSTEM.norm>
0

>  <SCORE.heavy>
34

>  <SCORE.norm>
-0.396426

>  <RMSD>
9.135

$$$$
ligand
 OpenBabel11021811483D
libRbt.so/2013.1/901 2013/11/27
 34 36  0  0  0  0  0  0  0  0999 V2000
    7.7953    3.2730    6.3984 C   0  0  2  0  0  0  0  0  0  0  0  0
    7.8318    4.1629    7.5251 O   0  0  0  0  0  0  0  0  0  0  0  0
    3.8664    3.2110    8.8025 C   0  0  2  0  0  0  0  0  0  0  0  0
    2.6429    3.1467    9.5943 N   0  0  0  0  0  0  0  0  0  0  0  0
    2.9195    6.5619    7.2183 C   0  0  2  0  0  0  0  0  0  0  0  0
    9.2519    2.7380    6.1558 C   0  0  2  0  0  0  0  0  0  0  0  0
    9.7488    2.0008    7.3279 N   0  0  0  0  0  0  0  0  0  0  0  0
    5.0446    2.7494    9.7238 C   0  0  0  0  0  0  0  0  0  0  0  0
    1.4308    6.9168    7.5717 C   0  0  2  0  0  0  0  0  0  0  0  0
    1.1720    6.6090    8.9315 O   0  0  0  0  0  0  0  0  0  0  0  0
   10.1879    3.9267    5.8469 C   0  0  1  0  0  0  0  0  0  0  0  0
   11.5213    3.4435    5.6160 O   0  0  0  0  0  0  0  0  0  0  0  0
    6.3553    2.7959    8.8678 C   0  0  2  0  0  0  0  0  0  0  0  0
    7.5094    2.3749    9.6877 N   0  0  0  0  0  0  0  0  0  0  0  0
    0.4766    6.1024    6.6148 C   0  0  1  0  0  0  0  0  0  0  0  0
   -0.9560    6.3937    6.9219 N   0  0  0  0  0  0  0  0  0  0  0  0
    9.6379    4.6885    4.6178 C   0  0  2  0  0  0  0  0  0  0  0  0
   10.4944    5.8060    4.3243 O   0  0  0  0  0  0  0  0  0  0  0  0
    6.6164    4.2262    8.3302 C   0  0  2  0  0  0  0  0  0  0  0  0
    0.8032    6.4791    5.1291 C   0  0  1  0  0  0  0  0  0  0  0  0
    0.5648    7.8692    4.9250 O   0  0  0  0  0  0  0  0  0  0  0  0
    8.1704    5.1815    4.9147 C   0  0  2  0  0  0  0  0  0  0  0  0
    7.3075    4.0273    5.2336 O   0  0  0  0  0  0  0  0  0  0  0  0
    5.4076    4.6823    7.4755 C   0  0  2  0  0  0  0  0  0  0  0  0
    5.6615    6.0032    7.0085 O   0  0  0  0  0  0  0  0  0  0  0  0
    2.3074    6.1649    4.8537 C   0  0  0  0  0  0  0  0  0  0  0  0
    3.1799    6.8884    5.8095 O   0  0  0  0  0  0  0  0  0  0  0  0
    7.5555    5.9323    3.7048 C   0  0  2  0  0  0  0  0  0  0  0  0
    8.3745    7.0510    3.3747 O   0  0  0  0  0  0  0  0  0  0  0  0
    4.1052    4.6970    8.3092 C   0  0  1  0  0  0  0  0  0  0  0  0
    3.0426    5.1270    7.4258 O   0  0  0  0  0  0  0  0  0  0  0  0
    6.1600    6.4471    4.0165 C   0  0  0  0  0  0  0  0  0  0  0  0
   -0.0654    5.7116    4.1400 C   0  0  0  0  0  0  0  0  0  0  0  0
   -1.5049    5.2582    7.6876 C   0  0  0  0  0  0  0  0  0  0  0  0
  1  2  1  1  0  0  0
  1  6  1  0  0  0  0
  1 23  1  0  0  0  0
  3  4  1  1  0  0  0
  3  8  1  0  0  0  0
  3 30  1  0  0  0  0
  5  9  1  0  0  0  0
  5 27  1  0  0  0  0
  5 31  1  6  0  0  0
  6  7  1  1  0  0  0
  6 11  1  0  0  0  0
  8 13  1  0  0  0  0
  9 10  1  1  0  0  0
  9 15  1  0  0  0  0
 11 12  1  6  0  0  0
 11 17  1  0  0  0  0
 13 14  1  1  0  0  0
 13 19  1  0  0  0  0
 15 16  1  1  0  0  0
 15 20  1  0  0  0  0
 16 34  1  0  0  0  0
 17 18  1  1  0  0  0
 17 22  1  0  0  0  0
 19  2  1  6  0  0  0
 19 24  1  0  0  0  0
 20 21  1  6  0  0  0
 20 26  1  0  0  0  0
 20 33  1  0  0  0  0
 22 23  1  6  0  0  0
 22 28  1  0  0  0  0
 24 25  1  1  0  0  0
 24 30  1  0  0  0  0
 26 27  1  0  0  0  0
 28 29  1  1  0  0  0
 28 32  1  0  0  0  0
 30 31  1  6  0  0  0
M  END
>  <CHROM.1>
-149.56869490,59.84082637,-102.77308715,-58.47002170,162.46678076,-125.87136862
5.13840923,4.99895033,6.55961626,0.04868067,-0.24983979,2.17677478

>  <Name>
ligand

>  <RI>
0

>  <Rbt.Current_Directory>
/home/itssahil/PROJECTS/Mol_Feturizer/New_Systems/rnas/3TD1

>  <Rbt.Executable>
rbdock ($Id: //depot/dev/client3/rdock/2013.1/src/exe/rbdock.cxx#4 $)

>  <Rbt.Library>
libRbt.so (2013.1, Build901 2013/11/27)

>  <Rbt.Parameter_File>
/export/apps/rDock/src/rDock_2013.1_src/data/scripts/dock_solv.prm

>  <Rbt.Receptor>
prm/pocket_docking_6.prm

>  <SCORE>
-13.5647

>  <SCORE.INTER>
-10.5789

>  <SCORE.INTER.CONST>
1

>  <SCORE.INTER.POLAR>
0

>  <SCORE.INTER.ROT>
6

>  <SCORE.INTER.SOLV>
14.8747

>  <SCORE.INTER.VDW>
-19.6108

>  <SCORE.INTER.norm>
-0.311144

>  <SCORE.INTRA>
-2.98582

>  <SCORE.INTRA.DIHEDRAL>
-6.45043

>  <SCORE.INTRA.DIHEDRAL.0>
19.5869

>  <SCORE.INTRA.POLAR>
0

>  <SCORE.INTRA.POLAR.0>
0

>  <SCORE.INTRA.REPUL>
0

>  <SCORE.INTRA.REPUL.0>
0

>  <SCORE.INTRA.SOLV>
-0.0465852

>  <SCORE.INTRA.SOLV.lig_0>
-70.101

>  <SCORE.INTRA.VDW>
0.262686

>  <SCORE.INTRA.VDW.0>
-3.39718

>  <SCORE.INTRA.norm>
-0.0878183

>  <SCORE.RESTR>
0

>  <SCORE.RESTR.CAVITY>
0

>  <SCORE.RESTR.norm>
0

>  <SCORE.SYSTEM>
0

>  <SCORE.SYSTEM.CONST>
0

>  <SCORE.SYSTEM.DIHEDRAL>
0

>  <SCORE.SYSTEM.SOLV>
0

>  <SCORE.SYSTEM.norm>
0

>  <SCORE.heavy>
34

>  <SCORE.norm>
-0.398963

>  <RMSD>
9.150

$$$$
ligand
 OpenBabel11021811483D
libRbt.so/2013.1/901 2013/11/27
 34 36  0  0  0  0  0  0  0  0999 V2000
   12.7232    4.4275    6.1523 C   0  0  2  0  0  0  0  0  0  0  0  0
   11.4090    4.8537    5.7601 O   0  0  0  0  0  0  0  0  0  0  0  0
    7.5916    2.9363    5.8735 C   0  0  2  0  0  0  0  0  0  0  0  0
    6.4660    2.1127    6.3011 N   0  0  0  0  0  0  0  0  0  0  0  0
    6.4664    5.7438    8.1742 C   0  0  2  0  0  0  0  0  0  0  0  0
   13.6081    5.7090    6.3551 C   0  0  2  0  0  0  0  0  0  0  0  0
   13.0552    6.5747    7.4082 N   0  0  0  0  0  0  0  0  0  0  0  0
    8.8543    2.0129    5.8229 C   0  0  0  0  0  0  0  0  0  0  0  0
    5.6581    4.7859    9.1208 C   0  0  2  0  0  0  0  0  0  0  0  0
    6.4185    3.6194    9.3890 O   0  0  0  0  0  0  0  0  0  0  0  0
   13.6917    6.4879    5.0244 C   0  0  1  0  0  0  0  0  0  0  0  0
   14.5068    7.6581    5.2008 O   0  0  0  0  0  0  0  0  0  0  0  0
   10.0585    2.8909    5.3415 C   0  0  2  0  0  0  0  0  0  0  0  0
   11.2869    2.0731    5.2790 N   0  0  0  0  0  0  0  0  0  0  0  0
    4.2901    4.4228    8.4234 C   0  0  1  0  0  0  0  0  0  0  0  0
    3.4882    3.4978    9.2794 N   0  0  0  0  0  0  0  0  0  0  0  0
   14.2669    5.5529    3.9343 C   0  0  2  0  0  0  0  0  0  0  0  0
   14.3408    6.2621    2.6852 O   0  0  0  0  0  0  0  0  0  0  0  0
   10.2967    4.0819    6.3047 C   0  0  2  0  0  0  0  0  0  0  0  0
    3.4915    5.7431    8.1506 C   0  0  1  0  0  0  0  0  0  0  0  0
    3.2073    6.3939    9.3862 O   0  0  0  0  0  0  0  0  0  0  0  0
   13.3487    4.2795    3.7920 C   0  0  2  0  0  0  0  0  0  0  0  0
   13.2658    3.5729    5.0850 O   0  0  0  0  0  0  0  0  0  0  0  0
    9.0110    4.9423    6.3853 C   0  0  2  0  0  0  0  0  0  0  0  0
    9.2471    6.0178    7.2881 O   0  0  0  0  0  0  0  0  0  0  0  0
    4.3663    6.6805    7.2599 C   0  0  0  0  0  0  0  0  0  0  0  0
    5.6733    6.9512    7.9057 O   0  0  0  0  0  0  0  0  0  0  0  0
   13.8913    3.2901    2.7278 C   0  0  2  0  0  0  0  0  0  0  0  0
   13.7977    3.8846    1.4359 O   0  0  0  0  0  0  0  0  0  0  0  0
    7.8142    4.1144    6.9085 C   0  0  1  0  0  0  0  0  0  0  0  0
    6.6697    4.9995    6.9405 O   0  0  0  0  0  0  0  0  0  0  0  0
   13.0938    1.9965    2.7088 C   0  0  0  0  0  0  0  0  0  0  0  0
    2.1632    5.4749    7.4538 C   0  0  0  0  0  0  0  0  0  0  0  0
    3.2353    2.2619    8.5142 C   0  0  0  0  0  0  0  0  0  0  0  0
  1  2  1  6  0  0  0
  1  6  1  0  0  0  0
  1 23  1  0  0  0  0
  3  4  1  1  0  0  0
  3  8  1  0  0  0  0
  3 30  1  0  0  0  0
  5  9  1  0  0  0  0
  5 27  1  0  0  0  0
  5 31  1  6  0  0  0
  6  7  1  1  0  0  0
  6 11  1  0  0  0  0
  8 13  1  0  0  0  0
  9 10  1  6  0  0  0
  9 15  1  0  0  0  0
 11 12  1  1  0  0  0
 11 17  1  0  0  0  0
 13 14  1  1  0  0  0
 13 19  1  0  0  0  0
 15 16  1  1  0  0  0
 15 20  1  0  0  0  0
 16 34  1  0  0  0  0
 17 18  1  6  0  0  0
 17 22  1  0  0  0  0
 19  2  1  6  0  0  0
 19 24  1  0  0  0  0
 20 21  1  1  0  0  0
 20 26  1  0  0  0  0
 20 33  1  0  0  0  0
 22 23  1  1  0  0  0
 22 28  1  0  0  0  0
 24 25  1  1  0  0  0
 24 30  1  0  0  0  0
 26 27  1  0  0  0  0
 28 29  1  6  0  0  0
 28 32  1  0  0  0  0
 30 31  1  6  0  0  0
M  END
>  <CHROM.1>
-142.42792275,-86.95682899,-121.16391917,-67.04213990,154.59957430,-85.18876443
9.14318346,4.61926362,6.27909678,-0.17222321,0.39101206,0.41812425

>  <Name>
ligand

>  <RI>
0

>  <Rbt.Current_Directory>
/home/itssahil/PROJECTS/Mol_Feturizer/New_Systems/rnas/3TD1

>  <Rbt.Executable>
rbdock ($Id: //depot/dev/client3/rdock/2013.1/src/exe/rbdock.cxx#4 $)

>  <Rbt.Library>
libRbt.so (2013.1, Build901 2013/11/27)

>  <Rbt.Parameter_File>
/export/apps/rDock/src/rDock_2013.1_src/data/scripts/dock_solv.prm

>  <Rbt.Receptor>
prm/pocket_docking_8.prm

>  <SCORE>
-14.2633

>  <SCORE.INTER>
-13.5823

>  <SCORE.INTER.CONST>
1

>  <SCORE.INTER.POLAR>
0

>  <SCORE.INTER.ROT>
6

>  <SCORE.INTER.SOLV>
17.4687

>  <SCORE.INTER.VDW>
-22.4778

>  <SCORE.INTER.norm>
-0.39948

>  <SCORE.INTRA>
-0.681657

>  <SCORE.INTRA.DIHEDRAL>
-4.72956

>  <SCORE.INTRA.DIHEDRAL.0>
19.5869

>  <SCORE.INTRA.POLAR>
0

>  <SCORE.INTRA.POLAR.0>
0

>  <SCORE.INTRA.REPUL>
0

>  <SCORE.INTRA.REPUL.0>
0

>  <SCORE.INTRA.SOLV>
2.5158

>  <SCORE.INTRA.SOLV.lig_0>
-70.101

>  <SCORE.INTRA.VDW>
0.425222

>  <SCORE.INTRA.VDW.0>
-3.39718

>  <SCORE.INTRA.norm>
-0.0200487

>  <SCORE.RESTR>
0.000688271

>  <SCORE.RESTR.CAVITY>
0.000688271

>  <SCORE.RESTR.norm>
2.02433e-05

>  <SCORE.SYSTEM>
0

>  <SCORE.SYSTEM.CONST>
0

>  <SCORE.SYSTEM.DIHEDRAL>
0

>  <SCORE.SYSTEM.SOLV>
0

>  <SCORE.SYSTEM.norm>
0

>  <SCORE.heavy>
34

>  <SCORE.norm>
-0.419508

>  <RMSD>
9.157

$$$$
ligand
 OpenBabel11021811483D
libRbt.so/2013.1/901 2013/11/27
 34 36  0  0  0  0  0  0  0  0999 V2000
    9.0929    7.7289    7.1727 C   0  0  2  0  0  0  0  0  0  0  0  0
    9.1054    6.2929    7.1538 O   0  0  0  0  0  0  0  0  0  0  0  0
    5.8155    3.6308    7.7472 C   0  0  2  0  0  0  0  0  0  0  0  0
    4.7502    2.8636    8.3833 N   0  0  0  0  0  0  0  0  0  0  0  0
    3.5902    6.7136    7.5245 C   0  0  2  0  0  0  0  0  0  0  0  0
   10.2137    8.2363    6.1967 C   0  0  2  0  0  0  0  0  0  0  0  0
    9.9676    7.7770    4.8209 N   0  0  0  0  0  0  0  0  0  0  0  0
    7.1443    3.3060    8.5079 C   0  0  0  0  0  0  0  0  0  0  0  0
    2.6767    6.2946    8.7316 C   0  0  2  0  0  0  0  0  0  0  0  0
    3.4787    5.8218    9.8012 O   0  0  0  0  0  0  0  0  0  0  0  0
   11.5863    7.7238    6.6843 C   0  0  1  0  0  0  0  0  0  0  0  0
   12.6178    8.1912    5.7999 O   0  0  0  0  0  0  0  0  0  0  0  0
    8.2926    4.1114    7.8110 C   0  0  2  0  0  0  0  0  0  0  0  0
    9.5775    3.8501    8.4909 N   0  0  0  0  0  0  0  0  0  0  0  0
    1.6716    5.1813    8.2418 C   0  0  1  0  0  0  0  0  0  0  0  0
    0.7880    4.7360    9.3607 N   0  0  0  0  0  0  0  0  0  0  0  0
   11.8151    8.2130    8.1341 C   0  0  2  0  0  0  0  0  0  0  0  0
   13.0863    7.7339    8.6063 O   0  0  0  0  0  0  0  0  0  0  0  0
    8.0048    5.6340    7.8495 C   0  0  2  0  0  0  0  0  0  0  0  0
    0.8122    5.7542    7.0633 C   0  0  1  0  0  0  0  0  0  0  0  0
    0.0564    6.8719    7.5221 O   0  0  0  0  0  0  0  0  0  0  0  0
   10.6506    7.6895    9.0585 C   0  0  2  0  0  0  0  0  0  0  0  0
    9.3512    8.1718    8.5514 O   0  0  0  0  0  0  0  0  0  0  0  0
    6.6540    5.9193    7.1466 C   0  0  2  0  0  0  0  0  0  0  0  0
    6.4022    7.3193    7.2103 O   0  0  0  0  0  0  0  0  0  0  0  0
    1.7733    6.2118    5.9212 C   0  0  0  0  0  0  0  0  0  0  0  0
    2.7515    7.2065    6.4233 O   0  0  0  0  0  0  0  0  0  0  0  0
   10.8130    8.1713   10.5239 C   0  0  2  0  0  0  0  0  0  0  0  0
   11.1118    9.5648   10.5347 O   0  0  0  0  0  0  0  0  0  0  0  0
    5.4907    5.1779    7.8456 C   0  0  1  0  0  0  0  0  0  0  0  0
    4.2838    5.5016    7.1157 O   0  0  0  0  0  0  0  0  0  0  0  0
   11.9444    7.4425   11.2300 C   0  0  0  0  0  0  0  0  0  0  0  0
   -0.1702    4.7248    6.5184 C   0  0  0  0  0  0  0  0  0  0  0  0
    0.9362    3.2760    9.5142 C   0  0  0  0  0  0  0  0  0  0  0  0
  1  2  1  1  0  0  0
  1  6  1  0  0  0  0
  1 23  1  0  0  0  0
  3  4  1  1  0  0  0
  3  8  1  0  0  0  0
  3 30  1  0  0  0  0
  5  9  1  0  0  0  0
  5 27  1  0  0  0  0
  5 31  1  6  0  0  0
  6  7  1  6  0  0  0
  6 11  1  0  0  0  0
  8 13  1  0  0  0  0
  9 10  1  1  0  0  0
  9 15  1  0  0  0  0
 11 12  1  6  0  0  0
 11 17  1  0  0  0  0
 13 14  1  1  0  0  0
 13 19  1  0  0  0  0
 15 16  1  1  0  0  0
 15 20  1  0  0  0  0
 16 34  1  0  0  0  0
 17 18  1  1  0  0  0
 17 22  1  0  0  0  0
 19  2  1  6  0  0  0
 19 24  1  0  0  0  0
 20 21  1  1  0  0  0
 20 26  1  0  0  0  0
 20 33  1  0  0  0  0
 22 23  1  6  0  0  0
 22 28  1  0  0  0  0
 24 25  1  1  0  0  0
 24 30  1  0  0  0  0
 26 27  1  0  0  0  0
 28 29  1  6  0  0  0
 28 32  1  0  0  0  0
 30 31  1  6  0  0  0
M  END
>  <CHROM.1>
-171.34900624,-174.89513742,-123.54993397,46.74308534,156.93146513,-84.54798966
6.65614901,6.29659580,7.92698486,0.14008250,-0.21355860,-0.82602374

>  <Name>
ligand

>  <RI>
0

>  <Rbt.Current_Directory>
/home/itssahil/PROJECTS/Mol_Feturizer/New_Systems/rnas/3TD1

>  <Rbt.Executable>
rbdock ($Id: //depot/dev/client3/rdock/2013.1/src/exe/rbdock.cxx#4 $)

>  <Rbt.Library>
libRbt.so (2013.1, Build901 2013/11/27)

>  <Rbt.Parameter_File>
/export/apps/rDock/src/rDock_2013.1_src/data/scripts/dock_solv.prm

>  <Rbt.Receptor>
prm/pocket_docking_5.prm

>  <SCORE>
-11.4749

>  <SCORE.INTER>
-5.81547

>  <SCORE.INTER.CONST>
1

>  <SCORE.INTER.POLAR>
0

>  <SCORE.INTER.ROT>
6

>  <SCORE.INTER.SOLV>
14.8395

>  <SCORE.INTER.VDW>
-16.4235

>  <SCORE.INTER.norm>
-0.171043

>  <SCORE.INTRA>
-5.65948

>  <SCORE.INTRA.DIHEDRAL>
-12.3568

>  <SCORE.INTRA.DIHEDRAL.0>
19.5869

>  <SCORE.INTRA.POLAR>
0

>  <SCORE.INTRA.POLAR.0>
0

>  <SCORE.INTRA.REPUL>
0

>  <SCORE.INTRA.REPUL.0>
0

>  <SCORE.INTRA.SOLV>
-1.27677

>  <SCORE.INTRA.SOLV.lig_0>
-70.101

>  <SCORE.INTRA.VDW>
1.15732

>  <SCORE.INTRA.VDW.0>
-3.39718

>  <SCORE.INTRA.norm>
-0.166455

>  <SCORE.RESTR>
0

>  <SCORE.RESTR.CAVITY>
0

>  <SCORE.RESTR.norm>
0

>  <SCORE.SYSTEM>
0

>  <SCORE.SYSTEM.CONST>
0

>  <SCORE.SYSTEM.DIHEDRAL>
0

>  <SCORE.SYSTEM.SOLV>
0

>  <SCORE.SYSTEM.norm>
0

>  <SCORE.heavy>
34

>  <SCORE.norm>
-0.337499

>  <RMSD>
9.162

$$$$
ligand
 OpenBabel11021811483D
libRbt.so/2013.1/901 2013/11/27
 34 36  0  0  0  0  0  0  0  0999 V2000
    8.1052    7.3182    7.4321 C   0  0  2  0  0  0  0  0  0  0  0  0
    8.2392    5.9032    7.6377 O   0  0  0  0  0  0  0  0  0  0  0  0
    5.3374    3.1740    9.1845 C   0  0  2  0  0  0  0  0  0  0  0  0
    4.4537    2.4626   10.1016 N   0  0  0  0  0  0  0  0  0  0  0  0
    2.7594    5.9269    8.9451 C   0  0  2  0  0  0  0  0  0  0  0  0
    9.1308    7.7461    6.3223 C   0  0  2  0  0  0  0  0  0  0  0  0
    8.8592    7.0536    5.0530 N   0  0  0  0  0  0  0  0  0  0  0  0
    6.7877    3.0806    9.7654 C   0  0  0  0  0  0  0  0  0  0  0  0
    1.2639    5.5058    8.7143 C   0  0  2  0  0  0  0  0  0  0  0  0
    0.9558    4.3699    9.5052 O   0  0  0  0  0  0  0  0  0  0  0  0
   10.5638    7.4255    6.7998 C   0  0  1  0  0  0  0  0  0  0  0  0
   11.5082    7.8219    5.7920 O   0  0  0  0  0  0  0  0  0  0  0  0
    7.7407    3.8243    8.7695 C   0  0  2  0  0  0  0  0  0  0  0  0
    9.1300    3.7758    9.2683 N   0  0  0  0  0  0  0  0  0  0  0  0
    1.0559    5.2015    7.1801 C   0  0  1  0  0  0  0  0  0  0  0  0
   -0.3514    4.7799    6.9098 N   0  0  0  0  0  0  0  0  0  0  0  0
   10.8191    8.1579    8.1385 C   0  0  2  0  0  0  0  0  0  0  0  0
   12.1477    7.8599    8.6017 O   0  0  0  0  0  0  0  0  0  0  0  0
    7.3193    5.3064    8.6004 C   0  0  2  0  0  0  0  0  0  0  0  0
    1.4086    6.4856    6.3540 C   0  0  1  0  0  0  0  0  0  0  0  0
    0.5334    7.5477    6.7245 O   0  0  0  0  0  0  0  0  0  0  0  0
    9.7490    7.7026    9.2025 C   0  0  2  0  0  0  0  0  0  0  0  0
    8.3904    7.9959    8.7061 O   0  0  0  0  0  0  0  0  0  0  0  0
    5.8594    5.3698    8.0859 C   0  0  2  0  0  0  0  0  0  0  0  0
    5.4888    6.7385    7.9560 O   0  0  0  0  0  0  0  0  0  0  0  0
    2.8820    6.8935    6.6704 C   0  0  0  0  0  0  0  0  0  0  0  0
    3.0683    7.1069    8.1257 O   0  0  0  0  0  0  0  0  0  0  0  0
    9.9397    8.4252   10.5617 C   0  0  2  0  0  0  0  0  0  0  0  0
   11.2211    8.1016   11.0952 O   0  0  0  0  0  0  0  0  0  0  0  0
    4.8861    4.6883    9.0757 C   0  0  1  0  0  0  0  0  0  0  0  0
    3.5602    4.7944    8.5054 O   0  0  0  0  0  0  0  0  0  0  0  0
    8.8883    8.0000   11.5734 C   0  0  0  0  0  0  0  0  0  0  0  0
    1.2543    6.2618    4.8547 C   0  0  0  0  0  0  0  0  0  0  0  0
   -0.3839    3.3076    6.8197 C   0  0  0  0  0  0  0  0  0  0  0  0
  1  2  1  1  0  0  0
  1  6  1  0  0  0  0
  1 23  1  0  0  0  0
  3  4  1  1  0  0  0
  3  8  1  0  0  0  0
  3 30  1  0  0  0  0
  5  9  1  0  0  0  0
  5 27  1  0  0  0  0
  5 31  1  6  0  0  0
  6  7  1  6  0  0  0
  6 11  1  0  0  0  0
  8 13  1  0  0  0  0
  9 10  1  1  0  0  0
  9 15  1  0  0  0  0
 11 12  1  6  0  0  0
 11 17  1  0  0  0  0
 13 14  1  1  0  0  0
 13 19  1  0  0  0  0
 15 16  1  1  0  0  0
 15 20  1  0  0  0  0
 16 34  1  0  0  0  0
 17 18  1  1  0  0  0
 17 22  1  0  0  0  0
 19  2  1  6  0  0  0
 19 24  1  0  0  0  0
 20 21  1  1  0  0  0
 20 26  1  0  0  0  0
 20 33  1  0  0  0  0
 22 23  1  6  0  0  0
 22 28  1  0  0  0  0
 24 25  1  1  0  0  0
 24 30  1  0  0  0  0
 26 27  1  0  0  0  0
 28 29  1  1  0  0  0
 28 32  1  0  0  0  0
 30 31  1  6  0  0  0
M  END
>  <CHROM.1>
-177.43137183,-174.15474698,-99.30285088,-61.57443377,149.53914934,-156.32880759
5.95949970,6.08857221,8.15168275,0.07815104,-0.25414748,-0.83584396

>  <Name>
ligand

>  <RI>
0

>  <Rbt.Current_Directory>
/home/itssahil/PROJECTS/Mol_Feturizer/New_Systems/rnas/3TD1

>  <Rbt.Executable>
rbdock ($Id: //depot/dev/client3/rdock/2013.1/src/exe/rbdock.cxx#4 $)

>  <Rbt.Library>
libRbt.so (2013.1, Build901 2013/11/27)

>  <Rbt.Parameter_File>
/export/apps/rDock/src/rDock_2013.1_src/data/scripts/dock_solv.prm

>  <Rbt.Receptor>
prm/pocket_docking_4.prm

>  <SCORE>
-13.2213

>  <SCORE.INTER>
-6.88682

>  <SCORE.INTER.CONST>
1

>  <SCORE.INTER.POLAR>
0

>  <SCORE.INTER.ROT>
6

>  <SCORE.INTER.SOLV>
16.5448

>  <SCORE.INTER.VDW>
-17.7061

>  <SCORE.INTER.norm>
-0.202554

>  <SCORE.INTRA>
-6.33443

>  <SCORE.INTRA.DIHEDRAL>
-12.373

>  <SCORE.INTRA.DIHEDRAL.0>
19.5869

>  <SCORE.INTRA.POLAR>
0

>  <SCORE.INTRA.POLAR.0>
0

>  <SCORE.INTRA.REPUL>
0

>  <SCORE.INTRA.REPUL.0>
0

>  <SCORE.INTRA.SOLV>
-2.95119

>  <SCORE.INTRA.SOLV.lig_0>
-70.101

>  <SCORE.INTRA.VDW>
1.32768

>  <SCORE.INTRA.VDW.0>
-3.39718

>  <SCORE.INTRA.norm>
-0.186307

>  <SCORE.RESTR>
0

>  <SCORE.RESTR.CAVITY>
0

>  <SCORE.RESTR.norm>
0

>  <SCORE.SYSTEM>
0

>  <SCORE.SYSTEM.CONST>
0

>  <SCORE.SYSTEM.DIHEDRAL>
0

>  <SCORE.SYSTEM.SOLV>
0

>  <SCORE.SYSTEM.norm>
0

>  <SCORE.heavy>
34

>  <SCORE.norm>
-0.38886

>  <RMSD>
9.177

$$$$
ligand
 OpenBabel11021811483D
libRbt.so/2013.1/901 2013/11/27
 34 36  0  0  0  0  0  0  0  0999 V2000
   11.6503    2.6119    9.9136 C   0  0  2  0  0  0  0  0  0  0  0  0
   11.2502    2.1239    8.6235 O   0  0  0  0  0  0  0  0  0  0  0  0
    7.3836    2.0358    6.8058 C   0  0  2  0  0  0  0  0  0  0  0  0
    5.9905    1.7057    6.5259 N   0  0  0  0  0  0  0  0  0  0  0  0
    6.4123    4.6152    9.4494 C   0  0  2  0  0  0  0  0  0  0  0  0
   13.1754    2.9797    9.8412 C   0  0  2  0  0  0  0  0  0  0  0  0
   13.4217    4.0282    8.8391 N   0  0  0  0  0  0  0  0  0  0  0  0
    8.1830    0.6909    6.8517 C   0  0  0  0  0  0  0  0  0  0  0  0
    5.1517    3.8079    9.9249 C   0  0  2  0  0  0  0  0  0  0  0  0
    5.4888    2.4402   10.0880 O   0  0  0  0  0  0  0  0  0  0  0  0
   13.9897    1.7155    9.4902 C   0  0  1  0  0  0  0  0  0  0  0  0
   15.3875    2.0432    9.4300 O   0  0  0  0  0  0  0  0  0  0  0  0
    9.6829    1.0460    7.1291 C   0  0  2  0  0  0  0  0  0  0  0  0
   10.4914   -0.1886    7.1902 N   0  0  0  0  0  0  0  0  0  0  0  0
    4.0054    3.9853    8.8553 C   0  0  1  0  0  0  0  0  0  0  0  0
    2.7854    3.2213    9.2546 N   0  0  0  0  0  0  0  0  0  0  0  0
   13.7055    0.6280   10.5532 C   0  0  2  0  0  0  0  0  0  0  0  0
   14.4496   -0.5606   10.2333 O   0  0  0  0  0  0  0  0  0  0  0  0
    9.8333    1.8113    8.4687 C   0  0  2  0  0  0  0  0  0  0  0  0
    3.6720    5.5100    8.7145 C   0  0  1  0  0  0  0  0  0  0  0  0
    3.2042    6.0143    9.9627 O   0  0  0  0  0  0  0  0  0  0  0  0
   12.1605    0.3176   10.5919 C   0  0  2  0  0  0  0  0  0  0  0  0
   11.4083    1.5491   10.9013 O   0  0  0  0  0  0  0  0  0  0  0  0
    8.9818    3.1046    8.4197 C   0  0  2  0  0  0  0  0  0  0  0  0
    9.1207    3.7804    9.6653 O   0  0  0  0  0  0  0  0  0  0  0  0
    4.9725    6.2693    8.3029 C   0  0  0  0  0  0  0  0  0  0  0  0
    6.0551    6.0312    9.2877 O   0  0  0  0  0  0  0  0  0  0  0  0
   11.8108   -0.7507   11.6606 C   0  0  2  0  0  0  0  0  0  0  0  0
   10.4376   -1.1121   11.5384 O   0  0  0  0  0  0  0  0  0  0  0  0
    7.4854    2.7826    8.1989 C   0  0  1  0  0  0  0  0  0  0  0  0
    6.7819    4.0467    8.1620 O   0  0  0  0  0  0  0  0  0  0  0  0
   12.0354   -0.2268   13.0694 C   0  0  0  0  0  0  0  0  0  0  0  0
    2.5853    5.7647    7.6771 C   0  0  0  0  0  0  0  0  0  0  0  0
    2.6669    2.0450    8.3718 C   0  0  0  0  0  0  0  0  0  0  0  0
  1  2  1  6  0  0  0
  1  6  1  0  0  0  0
  1 23  1  0  0  0  0
  3  4  1  1  0  0  0
  3  8  1  0  0  0  0
  3 30  1  0  0  0  0
  5  9  1  0  0  0  0
  5 27  1  0  0  0  0
  5 31  1  6  0  0  0
  6  7  1  6  0  0  0
  6 11  1  0  0  0  0
  8 13  1  0  0  0  0
  9 10  1  6  0  0  0
  9 15  1  0  0  0  0
 11 12  1  1  0  0  0
 11 17  1  0  0  0  0
 13 14  1  1  0  0  0
 13 19  1  0  0  0  0
 15 16  1  1  0  0  0
 15 20  1  0  0  0  0
 16 34  1  0  0  0  0
 17 18  1  6  0  0  0
 17 22  1  0  0  0  0
 19  2  1  6  0  0  0
 19 24  1  0  0  0  0
 20 21  1  1  0  0  0
 20 26  1  0  0  0  0
 20 33  1  0  0  0  0
 22 23  1  1  0  0  0
 22 28  1  0  0  0  0
 24 25  1  1  0  0  0
 24 30  1  0  0  0  0
 26 27  1  0  0  0  0
 28 29  1  1  0  0  0
 28 32  1  0  0  0  0
 30 31  1  6  0  0  0
M  END
>  <CHROM.1>
-176.11432301,-168.77446317,-107.24000703,-172.81122202,160.15434820,-77.53811981
8.70161754,2.52734266,9.20495398,-0.39375566,-0.10791964,-0.14286535

>  <Name>
ligand

>  <RI>
0

>  <Rbt.Current_Directory>
/home/itssahil/PROJECTS/Mol_Feturizer/New_Systems/rnas/3TD1

>  <Rbt.Executable>
rbdock ($Id: //depot/dev/client3/rdock/2013.1/src/exe/rbdock.cxx#4 $)

>  <Rbt.Library>
libRbt.so (2013.1, Build901 2013/11/27)

>  <Rbt.Parameter_File>
/export/apps/rDock/src/rDock_2013.1_src/data/scripts/dock_solv.prm

>  <Rbt.Receptor>
prm/pocket_docking_8.prm

>  <SCORE>
-15.0219

>  <SCORE.INTER>
-8.08561

>  <SCORE.INTER.CONST>
1

>  <SCORE.INTER.POLAR>
0

>  <SCORE.INTER.ROT>
6

>  <SCORE.INTER.SOLV>
15.4496

>  <SCORE.INTER.VDW>
-18.1403

>  <SCORE.INTER.norm>
-0.237812

>  <SCORE.INTRA>
-6.93625

>  <SCORE.INTRA.DIHEDRAL>
-14.4111

>  <SCORE.INTRA.DIHEDRAL.0>
19.5869

>  <SCORE.INTRA.POLAR>
0

>  <SCORE.INTRA.POLAR.0>
0

>  <SCORE.INTRA.REPUL>
0

>  <SCORE.INTRA.REPUL.0>
0

>  <SCORE.INTRA.SOLV>
-1.40363

>  <SCORE.INTRA.SOLV.lig_0>
-70.101

>  <SCORE.INTRA.VDW>
0.971135

>  <SCORE.INTRA.VDW.0>
-3.39718

>  <SCORE.INTRA.norm>
-0.204007

>  <SCORE.RESTR>
0

>  <SCORE.RESTR.CAVITY>
0

>  <SCORE.RESTR.norm>
0

>  <SCORE.SYSTEM>
0

>  <SCORE.SYSTEM.CONST>
0

>  <SCORE.SYSTEM.DIHEDRAL>
0

>  <SCORE.SYSTEM.SOLV>
0

>  <SCORE.SYSTEM.norm>
0

>  <SCORE.heavy>
34

>  <SCORE.norm>
-0.441819

>  <RMSD>
9.180

$$$$
ligand
 OpenBabel11021811483D
libRbt.so/2013.1/901 2013/11/27
 34 36  0  0  0  0  0  0  0  0999 V2000
    8.0005    4.6873    8.1857 C   0  0  2  0  0  0  0  0  0  0  0  0
    7.2454    5.3357    9.2210 O   0  0  0  0  0  0  0  0  0  0  0  0
    3.6543    3.1732    8.3909 C   0  0  2  0  0  0  0  0  0  0  0  0
    2.3136    2.6119    8.5160 N   0  0  0  0  0  0  0  0  0  0  0  0
    2.5369    6.5576    6.9531 C   0  0  2  0  0  0  0  0  0  0  0  0
    9.4998    5.1329    8.3275 C   0  0  2  0  0  0  0  0  0  0  0  0
   10.0493    4.7392    9.6341 N   0  0  0  0  0  0  0  0  0  0  0  0
    4.4533    2.7668    9.6739 C   0  0  0  0  0  0  0  0  0  0  0  0
    1.0635    6.7050    7.4771 C   0  0  2  0  0  0  0  0  0  0  0  0
    0.9959    6.3184    8.8398 O   0  0  0  0  0  0  0  0  0  0  0  0
    9.5959    6.6646    8.1568 C   0  0  1  0  0  0  0  0  0  0  0  0
   10.9666    7.0785    8.2776 O   0  0  0  0  0  0  0  0  0  0  0  0
    5.8999    3.3493    9.5298 C   0  0  2  0  0  0  0  0  0  0  0  0
    6.7049    3.0027   10.7186 N   0  0  0  0  0  0  0  0  0  0  0  0
    0.1186    5.8090    6.5863 C   0  0  1  0  0  0  0  0  0  0  0  0
   -1.2965    5.9022    7.0553 N   0  0  0  0  0  0  0  0  0  0  0  0
    9.0038    7.0513    6.7807 C   0  0  2  0  0  0  0  0  0  0  0  0
    9.0767    8.4777    6.6118 O   0  0  0  0  0  0  0  0  0  0  0  0
    5.8645    4.8918    9.3798 C   0  0  2  0  0  0  0  0  0  0  0  0
    0.2307    6.2770    5.0949 C   0  0  1  0  0  0  0  0  0  0  0  0
   -0.1995    7.6312    4.9853 O   0  0  0  0  0  0  0  0  0  0  0  0
    7.5083    6.5612    6.6922 C   0  0  2  0  0  0  0  0  0  0  0  0
    7.4463    5.0995    6.8870 O   0  0  0  0  0  0  0  0  0  0  0  0
    5.0147    5.2678    8.1402 C   0  0  2  0  0  0  0  0  0  0  0  0
    4.9813    6.6873    8.0334 O   0  0  0  0  0  0  0  0  0  0  0  0
    1.7229    6.1691    4.6488 C   0  0  0  0  0  0  0  0  0  0  0  0
    2.5984    6.9647    5.5426 O   0  0  0  0  0  0  0  0  0  0  0  0
    6.8681    6.8994    5.3205 C   0  0  2  0  0  0  0  0  0  0  0  0
    5.5098    6.4679    5.3117 O   0  0  0  0  0  0  0  0  0  0  0  0
    3.5638    4.7505    8.2773 C   0  0  1  0  0  0  0  0  0  0  0  0
    2.8594    5.1441    7.0759 O   0  0  0  0  0  0  0  0  0  0  0  0
    7.5901    6.2023    4.1792 C   0  0  0  0  0  0  0  0  0  0  0  0
   -0.6391    5.4396    4.1654 C   0  0  0  0  0  0  0  0  0  0  0  0
   -1.6208    4.6676    7.7953 C   0  0  0  0  0  0  0  0  0  0  0  0
  1  2  1  1  0  0  0
  1  6  1  0  0  0  0
  1 23  1  0  0  0  0
  3  4  1  1  0  0  0
  3  8  1  0  0  0  0
  3 30  1  0  0  0  0
  5  9  1  0  0  0  0
  5 27  1  0  0  0  0
  5 31  1  6  0  0  0
  6  7  1  1  0  0  0
  6 11  1  0  0  0  0
  8 13  1  0  0  0  0
  9 10  1  1  0  0  0
  9 15  1  0  0  0  0
 11 12  1  6  0  0  0
 11 17  1  0  0  0  0
 13 14  1  1  0  0  0
 13 19  1  0  0  0  0
 15 16  1  1  0  0  0
 15 20  1  0  0  0  0
 16 34  1  0  0  0  0
 17 18  1  1  0  0  0
 17 22  1  0  0  0  0
 19  2  1  6  0  0  0
 19 24  1  0  0  0  0
 20 21  1  6  0  0  0
 20 26  1  0  0  0  0
 20 33  1  0  0  0  0
 22 23  1  6  0  0  0
 22 28  1  0  0  0  0
 24 25  1  1  0  0  0
 24 30  1  0  0  0  0
 26 27  1  0  0  0  0
 28 29  1  1  0  0  0
 28 32  1  0  0  0  0
 30 31  1  6  0  0  0
M  END
>  <CHROM.1>
-171.12059866,52.82488993,-103.84548569,-178.38322530,171.26608573,-95.67665334
4.67488779,5.63829925,7.34109415,0.13427018,0.12246212,2.25754714

>  <Name>
ligand

>  <RI>
0

>  <Rbt.Current_Directory>
/home/itssahil/PROJECTS/Mol_Feturizer/New_Systems/rnas/3TD1

>  <Rbt.Executable>
rbdock ($Id: //depot/dev/client3/rdock/2013.1/src/exe/rbdock.cxx#4 $)

>  <Rbt.Library>
libRbt.so (2013.1, Build901 2013/11/27)

>  <Rbt.Parameter_File>
/export/apps/rDock/src/rDock_2013.1_src/data/scripts/dock_solv.prm

>  <Rbt.Receptor>
prm/pocket_docking_5.prm

>  <SCORE>
-15.5498

>  <SCORE.INTER>
-10.674

>  <SCORE.INTER.CONST>
1

>  <SCORE.INTER.POLAR>
0

>  <SCORE.INTER.ROT>
6

>  <SCORE.INTER.SOLV>
15.033

>  <SCORE.INTER.VDW>
-19.727

>  <SCORE.INTER.norm>
-0.313943

>  <SCORE.INTRA>
-4.87578

>  <SCORE.INTRA.DIHEDRAL>
-12.8682

>  <SCORE.INTRA.DIHEDRAL.0>
19.5869

>  <SCORE.INTRA.POLAR>
0

>  <SCORE.INTRA.POLAR.0>
0

>  <SCORE.INTRA.REPUL>
0

>  <SCORE.INTRA.REPUL.0>
0

>  <SCORE.INTRA.SOLV>
-0.101061

>  <SCORE.INTRA.SOLV.lig_0>
-70.101

>  <SCORE.INTRA.VDW>
1.60888

>  <SCORE.INTRA.VDW.0>
-3.39718

>  <SCORE.INTRA.norm>
-0.143405

>  <SCORE.RESTR>
0

>  <SCORE.RESTR.CAVITY>
0

>  <SCORE.RESTR.norm>
0

>  <SCORE.SYSTEM>
0

>  <SCORE.SYSTEM.CONST>
0

>  <SCORE.SYSTEM.DIHEDRAL>
0

>  <SCORE.SYSTEM.SOLV>
0

>  <SCORE.SYSTEM.norm>
0

>  <SCORE.heavy>
34

>  <SCORE.norm>
-0.457348

>  <RMSD>
9.183

$$$$
ligand
 OpenBabel11021811483D
libRbt.so/2013.1/901 2013/11/27
 34 36  0  0  0  0  0  0  0  0999 V2000
    9.1136    7.5518    6.8761 C   0  0  2  0  0  0  0  0  0  0  0  0
    9.1169    6.1478    7.1781 O   0  0  0  0  0  0  0  0  0  0  0  0
    5.7665    3.7521    8.3173 C   0  0  2  0  0  0  0  0  0  0  0  0
    4.6937    3.1536    9.1040 N   0  0  0  0  0  0  0  0  0  0  0  0
    3.6290    6.8088    7.5410 C   0  0  2  0  0  0  0  0  0  0  0  0
   10.1862    7.8098    5.7583 C   0  0  2  0  0  0  0  0  0  0  0  0
    9.8677    7.0595    4.5336 N   0  0  0  0  0  0  0  0  0  0  0  0
    7.1013    3.5355    9.1054 C   0  0  0  0  0  0  0  0  0  0  0  0
    2.5269    6.5876    8.6380 C   0  0  2  0  0  0  0  0  0  0  0  0
    3.1331    6.1895    9.8565 O   0  0  0  0  0  0  0  0  0  0  0  0
   11.5789    7.3957    6.2812 C   0  0  1  0  0  0  0  0  0  0  0  0
   12.5667    7.6366    5.2659 O   0  0  0  0  0  0  0  0  0  0  0  0
    8.2570    4.1573    8.2505 C   0  0  2  0  0  0  0  0  0  0  0  0
    9.5481    3.9891    8.9479 N   0  0  0  0  0  0  0  0  0  0  0  0
    1.5151    5.4916    8.1237 C   0  0  1  0  0  0  0  0  0  0  0  0
    0.4525    5.2325    9.1411 N   0  0  0  0  0  0  0  0  0  0  0  0
   11.8840    8.1919    7.5722 C   0  0  2  0  0  0  0  0  0  0  0  0
   13.1749    7.8086    8.0775 O   0  0  0  0  0  0  0  0  0  0  0  0
    8.0131    5.6680    8.0032 C   0  0  2  0  0  0  0  0  0  0  0  0
    0.8752    5.9803    6.7793 C   0  0  1  0  0  0  0  0  0  0  0  0
    0.1532    7.1882    7.0048 O   0  0  0  0  0  0  0  0  0  0  0  0
   10.7651    7.9075    8.6454 C   0  0  2  0  0  0  0  0  0  0  0  0
    9.4443    8.2865    8.1068 O   0  0  0  0  0  0  0  0  0  0  0  0
    6.6563    5.8575    7.2797 C   0  0  2  0  0  0  0  0  0  0  0  0
    6.4456    7.2515    7.0800 O   0  0  0  0  0  0  0  0  0  0  0  0
    2.0183    6.2440    5.7493 C   0  0  0  0  0  0  0  0  0  0  0  0
    2.9926    7.2256    6.2839 O   0  0  0  0  0  0  0  0  0  0  0  0
   11.0047    8.7010    9.9564 C   0  0  2  0  0  0  0  0  0  0  0  0
   12.2505    8.3092   10.5271 O   0  0  0  0  0  0  0  0  0  0  0  0
    5.4877    5.2994    8.1248 C   0  0  1  0  0  0  0  0  0  0  0  0
    4.2752    5.5169    7.3653 O   0  0  0  0  0  0  0  0  0  0  0  0
    9.9138    8.4327   10.9799 C   0  0  0  0  0  0  0  0  0  0  0  0
   -0.1000    4.9598    6.2055 C   0  0  0  0  0  0  0  0  0  0  0  0
    0.4928    3.8014    9.4978 C   0  0  0  0  0  0  0  0  0  0  0  0
  1  2  1  1  0  0  0
  1  6  1  0  0  0  0
  1 23  1  0  0  0  0
  3  4  1  1  0  0  0
  3  8  1  0  0  0  0
  3 30  1  0  0  0  0
  5  9  1  0  0  0  0
  5 27  1  0  0  0  0
  5 31  1  6  0  0  0
  6  7  1  6  0  0  0
  6 11  1  0  0  0  0
  8 13  1  0  0  0  0
  9 10  1  1  0  0  0
  9 15  1  0  0  0  0
 11 12  1  6  0  0  0
 11 17  1  0  0  0  0
 13 14  1  1  0  0  0
 13 19  1  0  0  0  0
 15 16  1  1  0  0  0
 15 20  1  0  0  0  0
 16 34  1  0  0  0  0
 17 18  1  1  0  0  0
 17 22  1  0  0  0  0
 19  2  1  6  0  0  0
 19 24  1  0  0  0  0
 20 21  1  1  0  0  0
 20 26  1  0  0  0  0
 20 33  1  0  0  0  0
 22 23  1  6  0  0  0
 22 28  1  0  0  0  0
 24 25  1  1  0  0  0
 24 30  1  0  0  0  0
 26 27  1  0  0  0  0
 28 29  1  1  0  0  0
 28 32  1  0  0  0  0
 30 31  1  6  0  0  0
M  END
>  <CHROM.1>
-168.51104741,-177.47025093,-121.67713947,-61.11150951,157.27373340,-95.34474606
6.61743127,6.35368546,7.83339586,0.08722170,-0.18975145,-1.09699019

>  <Name>
ligand

>  <RI>
0

>  <Rbt.Current_Directory>
/home/itssahil/PROJECTS/Mol_Feturizer/New_Systems/rnas/3TD1

>  <Rbt.Executable>
rbdock ($Id: //depot/dev/client3/rdock/2013.1/src/exe/rbdock.cxx#4 $)

>  <Rbt.Library>
libRbt.so (2013.1, Build901 2013/11/27)

>  <Rbt.Parameter_File>
/export/apps/rDock/src/rDock_2013.1_src/data/scripts/dock_solv.prm

>  <Rbt.Receptor>
prm/pocket_docking_3.prm

>  <SCORE>
-11.2929

>  <SCORE.INTER>
-5.73517

>  <SCORE.INTER.CONST>
1

>  <SCORE.INTER.POLAR>
0

>  <SCORE.INTER.ROT>
6

>  <SCORE.INTER.SOLV>
12.6416

>  <SCORE.INTER.VDW>
-15.6373

>  <SCORE.INTER.norm>
-0.168681

>  <SCORE.INTRA>
-5.5832

>  <SCORE.INTRA.DIHEDRAL>
-10.8421

>  <SCORE.INTRA.DIHEDRAL.0>
19.5869

>  <SCORE.INTRA.POLAR>
0

>  <SCORE.INTRA.POLAR.0>
0

>  <SCORE.INTRA.REPUL>
0

>  <SCORE.INTRA.REPUL.0>
0

>  <SCORE.INTRA.SOLV>
-1.81244

>  <SCORE.INTRA.SOLV.lig_0>
-70.101

>  <SCORE.INTRA.VDW>
0.744093

>  <SCORE.INTRA.VDW.0>
-3.39718

>  <SCORE.INTRA.norm>
-0.164212

>  <SCORE.RESTR>
0.0254388

>  <SCORE.RESTR.CAVITY>
0.0254388

>  <SCORE.RESTR.norm>
0.000748199

>  <SCORE.SYSTEM>
0

>  <SCORE.SYSTEM.CONST>
0

>  <SCORE.SYSTEM.DIHEDRAL>
0

>  <SCORE.SYSTEM.SOLV>
0

>  <SCORE.SYSTEM.norm>
0

>  <SCORE.heavy>
34

>  <SCORE.norm>
-0.332145

>  <RMSD>
9.188

$$$$
ligand
 OpenBabel11021811483D
libRbt.so/2013.1/901 2013/11/27
 34 36  0  0  0  0  0  0  0  0999 V2000
    9.1717    7.7970    7.6710 C   0  0  2  0  0  0  0  0  0  0  0  0
    9.1715    6.3611    7.6473 O   0  0  0  0  0  0  0  0  0  0  0  0
    5.8560    3.6971    8.0626 C   0  0  2  0  0  0  0  0  0  0  0  0
    4.7517    2.9374    8.6381 N   0  0  0  0  0  0  0  0  0  0  0  0
    3.6577    6.7794    7.6141 C   0  0  2  0  0  0  0  0  0  0  0  0
   10.2839    8.2981    6.6818 C   0  0  2  0  0  0  0  0  0  0  0  0
   10.0157    7.8455    5.3080 N   0  0  0  0  0  0  0  0  0  0  0  0
    7.1302    3.3917    8.9187 C   0  0  0  0  0  0  0  0  0  0  0  0
    2.6343    6.3982    8.7430 C   0  0  2  0  0  0  0  0  0  0  0  0
    3.3308    5.9372    9.8889 O   0  0  0  0  0  0  0  0  0  0  0  0
   11.6583    7.7722    7.1496 C   0  0  1  0  0  0  0  0  0  0  0  0
   12.6821    8.2337    6.2531 O   0  0  0  0  0  0  0  0  0  0  0  0
    8.3215    4.1888    8.2875 C   0  0  2  0  0  0  0  0  0  0  0  0
    9.5573    3.9452    9.0589 N   0  0  0  0  0  0  0  0  0  0  0  0
    1.6598    5.2886    8.1876 C   0  0  1  0  0  0  0  0  0  0  0  0
    0.6735    4.8788    9.2320 N   0  0  0  0  0  0  0  0  0  0  0  0
   11.9104    8.2545    8.5978 C   0  0  2  0  0  0  0  0  0  0  0  0
   13.1836    7.7629    9.0515 O   0  0  0  0  0  0  0  0  0  0  0  0
    8.0275    5.7107    8.2778 C   0  0  2  0  0  0  0  0  0  0  0  0
    0.9173    5.8481    6.9262 C   0  0  1  0  0  0  0  0  0  0  0  0
    0.1409    6.9853    7.2937 O   0  0  0  0  0  0  0  0  0  0  0  0
   10.7537    7.7380    9.5358 C   0  0  2  0  0  0  0  0  0  0  0  0
    9.4520    8.2331    9.0476 O   0  0  0  0  0  0  0  0  0  0  0  0
    6.7275    5.9775    7.4786 C   0  0  2  0  0  0  0  0  0  0  0  0
    6.4681    7.3774    7.4988 O   0  0  0  0  0  0  0  0  0  0  0  0
    1.9829    6.2685    5.8655 C   0  0  0  0  0  0  0  0  0  0  0  0
    2.9278    7.2603    6.4330 O   0  0  0  0  0  0  0  0  0  0  0  0
   10.9397    8.2134   11.0005 C   0  0  2  0  0  0  0  0  0  0  0  0
   11.3142    9.5885   11.0089 O   0  0  0  0  0  0  0  0  0  0  0  0
    5.5210    5.2444    8.1097 C   0  0  1  0  0  0  0  0  0  0  0  0
    4.3662    5.5498    7.2927 O   0  0  0  0  0  0  0  0  0  0  0  0
   12.0283    7.4254   11.7103 C   0  0  0  0  0  0  0  0  0  0  0  0
   -0.0285    4.8208    6.3163 C   0  0  0  0  0  0  0  0  0  0  0  0
    0.8441    3.4359    9.4886 C   0  0  0  0  0  0  0  0  0  0  0  0
  1  2  1  1  0  0  0
  1  6  1  0  0  0  0
  1 23  1  0  0  0  0
  3  4  1  1  0  0  0
  3  8  1  0  0  0  0
  3 30  1  0  0  0  0
  5  9  1  0  0  0  0
  5 27  1  0  0  0  0
  5 31  1  6  0  0  0
  6  7  1  6  0  0  0
  6 11  1  0  0  0  0
  8 13  1  0  0  0  0
  9 10  1  1  0  0  0
  9 15  1  0  0  0  0
 11 12  1  6  0  0  0
 11 17  1  0  0  0  0
 13 14  1  1  0  0  0
 13 19  1  0  0  0  0
 15 16  1  1  0  0  0
 15 20  1  0  0  0  0
 16 34  1  0  0  0  0
 17 18  1  1  0  0  0
 17 22  1  0  0  0  0
 19  2  1  6  0  0  0
 19 24  1  0  0  0  0
 20 21  1  1  0  0  0
 20 26  1  0  0  0  0
 20 33  1  0  0  0  0
 22 23  1  6  0  0  0
 22 28  1  0  0  0  0
 24 25  1  1  0  0  0
 24 30  1  0  0  0  0
 26 27  1  0  0  0  0
 28 29  1  6  0  0  0
 28 32  1  0  0  0  0
 30 31  1  6  0  0  0
M  END
>  <CHROM.1>
-167.38609551,-173.25159915,-120.00184567,43.94775581,158.05627873,-86.22358705
6.71267001,6.36692452,8.19255436,0.08876880,-0.24840720,-0.84237634

>  <Name>
ligand

>  <RI>
0

>  <Rbt.Current_Directory>
/home/itssahil/PROJECTS/Mol_Feturizer/New_Systems/rnas/3TD1

>  <Rbt.Executable>
rbdock ($Id: //depot/dev/client3/rdock/2013.1/src/exe/rbdock.cxx#4 $)

>  <Rbt.Library>
libRbt.so (2013.1, Build901 2013/11/27)

>  <Rbt.Parameter_File>
/export/apps/rDock/src/rDock_2013.1_src/data/scripts/dock_solv.prm

>  <Rbt.Receptor>
prm/pocket_docking_3.prm

>  <SCORE>
-11.0328

>  <SCORE.INTER>
-5.55695

>  <SCORE.INTER.CONST>
1

>  <SCORE.INTER.POLAR>
0

>  <SCORE.INTER.ROT>
6

>  <SCORE.INTER.SOLV>
14.0715

>  <SCORE.INTER.VDW>
-15.9951

>  <SCORE.INTER.norm>
-0.16344

>  <SCORE.INTRA>
-5.47833

>  <SCORE.INTRA.DIHEDRAL>
-11.4738

>  <SCORE.INTRA.DIHEDRAL.0>
19.5869

>  <SCORE.INTRA.POLAR>
0

>  <SCORE.INTRA.POLAR.0>
0

>  <SCORE.INTRA.REPUL>
0

>  <SCORE.INTRA.REPUL.0>
0

>  <SCORE.INTRA.SOLV>
-1.19811

>  <SCORE.INTRA.SOLV.lig_0>
-70.101

>  <SCORE.INTRA.VDW>
0.857645

>  <SCORE.INTRA.VDW.0>
-3.39718

>  <SCORE.INTRA.norm>
-0.161127

>  <SCORE.RESTR>
0.00245085

>  <SCORE.RESTR.CAVITY>
0.00245085

>  <SCORE.RESTR.norm>
7.20837e-05

>  <SCORE.SYSTEM>
0

>  <SCORE.SYSTEM.CONST>
0

>  <SCORE.SYSTEM.DIHEDRAL>
0

>  <SCORE.SYSTEM.SOLV>
0

>  <SCORE.SYSTEM.norm>
0

>  <SCORE.heavy>
34

>  <SCORE.norm>
-0.324495

>  <RMSD>
9.189

$$$$
ligand
 OpenBabel11021811483D
libRbt.so/2013.1/901 2013/11/27
 34 36  0  0  0  0  0  0  0  0999 V2000
    8.4562    7.5703    8.0221 C   0  0  2  0  0  0  0  0  0  0  0  0
    8.4056    6.1388    7.9177 O   0  0  0  0  0  0  0  0  0  0  0  0
    5.0199    3.5336    8.0267 C   0  0  2  0  0  0  0  0  0  0  0  0
    3.8604    2.7863    8.5011 N   0  0  0  0  0  0  0  0  0  0  0  0
    3.0078    6.7274    7.3812 C   0  0  2  0  0  0  0  0  0  0  0  0
    9.7556    8.0640    7.2911 C   0  0  2  0  0  0  0  0  0  0  0  0
    9.7383    7.6915    5.8680 N   0  0  0  0  0  0  0  0  0  0  0  0
    6.2176    3.1895    8.9737 C   0  0  0  0  0  0  0  0  0  0  0  0
    1.9883    6.5312    8.5598 C   0  0  2  0  0  0  0  0  0  0  0  0
    2.6799    6.1440    9.7356 O   0  0  0  0  0  0  0  0  0  0  0  0
   10.9938    7.4504    7.9800 C   0  0  1  0  0  0  0  0  0  0  0  0
   12.1872    7.9045    7.3209 O   0  0  0  0  0  0  0  0  0  0  0  0
    7.4689    3.9733    8.4512 C   0  0  2  0  0  0  0  0  0  0  0  0
    8.6361    3.6931    9.3118 N   0  0  0  0  0  0  0  0  0  0  0  0
    0.9322    5.4377    8.1374 C   0  0  1  0  0  0  0  0  0  0  0  0
   -0.0541    5.2022    9.2342 N   0  0  0  0  0  0  0  0  0  0  0  0
   10.9822    7.8497    9.4746 C   0  0  2  0  0  0  0  0  0  0  0  0
   12.1252    7.2759   10.1326 O   0  0  0  0  0  0  0  0  0  0  0  0
    7.2042    5.5007    8.4458 C   0  0  2  0  0  0  0  0  0  0  0  0
    0.1984    5.9140    6.8373 C   0  0  1  0  0  0  0  0  0  0  0  0
   -0.4950    7.1314    7.0985 O   0  0  0  0  0  0  0  0  0  0  0  0
    9.6484    7.3451   10.1462 C   0  0  2  0  0  0  0  0  0  0  0  0
    8.4842    7.9255    9.4492 O   0  0  0  0  0  0  0  0  0  0  0  0
    5.9756    5.8058    7.5529 C   0  0  2  0  0  0  0  0  0  0  0  0
    5.7409    7.2100    7.5778 O   0  0  0  0  0  0  0  0  0  0  0  0
    1.2642    6.1532    5.7218 C   0  0  0  0  0  0  0  0  0  0  0  0
    2.2834    7.1329    6.1689 O   0  0  0  0  0  0  0  0  0  0  0  0
    9.5685    7.7400   11.6441 C   0  0  2  0  0  0  0  0  0  0  0  0
    8.3988    7.1681   12.2237 O   0  0  0  0  0  0  0  0  0  0  0  0
    4.7104    5.0862    8.0752 C   0  0  1  0  0  0  0  0  0  0  0  0
    3.6286    5.4274    7.1765 O   0  0  0  0  0  0  0  0  0  0  0  0
    9.4922    9.2475   11.8217 C   0  0  0  0  0  0  0  0  0  0  0  0
   -0.8250    4.8948    6.3517 C   0  0  0  0  0  0  0  0  0  0  0  0
    0.0644    3.7972    9.6689 C   0  0  0  0  0  0  0  0  0  0  0  0
  1  2  1  1  0  0  0
  1  6  1  0  0  0  0
  1 23  1  0  0  0  0
  3  4  1  1  0  0  0
  3  8  1  0  0  0  0
  3 30  1  0  0  0  0
  5  9  1  0  0  0  0
  5 27  1  0  0  0  0
  5 31  1  6  0  0  0
  6  7  1  6  0  0  0
  6 11  1  0  0  0  0
  8 13  1  0  0  0  0
  9 10  1  1  0  0  0
  9 15  1  0  0  0  0
 11 12  1  6  0  0  0
 11 17  1  0  0  0  0
 13 14  1  1  0  0  0
 13 19  1  0  0  0  0
 15 16  1  1  0  0  0
 15 20  1  0  0  0  0
 16 34  1  0  0  0  0
 17 18  1  1  0  0  0
 17 22  1  0  0  0  0
 19  2  1  6  0  0  0
 19 24  1  0  0  0  0
 20 21  1  1  0  0  0
 20 26  1  0  0  0  0
 20 33  1  0  0  0  0
 22 23  1  6  0  0  0
 22 28  1  0  0  0  0
 24 25  1  1  0  0  0
 24 30  1  0  0  0  0
 26 27  1  0  0  0  0
 28 29  1  6  0  0  0
 28 32  1  0  0  0  0
 30 31  1  6  0  0  0
M  END
>  <CHROM.1>
-175.10913938,-170.53794069,-117.95038327,-175.36543694,164.02208548,-81.34141442
5.81302714,6.22214360,8.43172959,-0.05517323,-0.25770587,-1.09658831

>  <Name>
ligand

>  <RI>
0

>  <Rbt.Current_Directory>
/home/itssahil/PROJECTS/Mol_Feturizer/New_Systems/rnas/3TD1

>  <Rbt.Executable>
rbdock ($Id: //depot/dev/client3/rdock/2013.1/src/exe/rbdock.cxx#4 $)

>  <Rbt.Library>
libRbt.so (2013.1, Build901 2013/11/27)

>  <Rbt.Parameter_File>
/export/apps/rDock/src/rDock_2013.1_src/data/scripts/dock_solv.prm

>  <Rbt.Receptor>
prm/pocket_docking_4.prm

>  <SCORE>
-13.467

>  <SCORE.INTER>
-6.44291

>  <SCORE.INTER.CONST>
1

>  <SCORE.INTER.POLAR>
0

>  <SCORE.INTER.ROT>
6

>  <SCORE.INTER.SOLV>
14.4151

>  <SCORE.INTER.VDW>
-16.7003

>  <SCORE.INTER.norm>
-0.189497

>  <SCORE.INTRA>
-7.02412

>  <SCORE.INTRA.DIHEDRAL>
-14.4968

>  <SCORE.INTRA.DIHEDRAL.0>
19.5869

>  <SCORE.INTRA.POLAR>
0

>  <SCORE.INTRA.POLAR.0>
0

>  <SCORE.INTRA.REPUL>
0

>  <SCORE.INTRA.REPUL.0>
0

>  <SCORE.INTRA.SOLV>
-1.88726

>  <SCORE.INTRA.SOLV.lig_0>
-70.101

>  <SCORE.INTRA.VDW>
1.16791

>  <SCORE.INTRA.VDW.0>
-3.39718

>  <SCORE.INTRA.norm>
-0.206592

>  <SCORE.RESTR>
0

>  <SCORE.RESTR.CAVITY>
0

>  <SCORE.RESTR.norm>
0

>  <SCORE.SYSTEM>
0

>  <SCORE.SYSTEM.CONST>
0

>  <SCORE.SYSTEM.DIHEDRAL>
0

>  <SCORE.SYSTEM.SOLV>
0

>  <SCORE.SYSTEM.norm>
0

>  <SCORE.heavy>
34

>  <SCORE.norm>
-0.396089

>  <RMSD>
9.196

$$$$
ligand
 OpenBabel11021811483D
libRbt.so/2013.1/901 2013/11/27
 34 36  0  0  0  0  0  0  0  0999 V2000
    8.4450    7.4815    8.3155 C   0  0  2  0  0  0  0  0  0  0  0  0
    8.3220    6.0556    8.4356 O   0  0  0  0  0  0  0  0  0  0  0  0
    4.7732    3.6750    8.4527 C   0  0  2  0  0  0  0  0  0  0  0  0
    3.5166    3.0626    8.8698 N   0  0  0  0  0  0  0  0  0  0  0  0
    2.9804    6.8100    7.2296 C   0  0  2  0  0  0  0  0  0  0  0  0
    9.8721    7.7983    7.7414 C   0  0  2  0  0  0  0  0  0  0  0  0
   10.0571    7.1918    6.4140 N   0  0  0  0  0  0  0  0  0  0  0  0
    5.8244    3.3994    9.5791 C   0  0  0  0  0  0  0  0  0  0  0  0
    1.7985    6.6734    8.2551 C   0  0  2  0  0  0  0  0  0  0  0  0
    2.3099    6.3646    9.5412 O   0  0  0  0  0  0  0  0  0  0  0  0
   10.9447    7.2662    8.7165 C   0  0  1  0  0  0  0  0  0  0  0  0
   12.2535    7.5598    8.2011 O   0  0  0  0  0  0  0  0  0  0  0  0
    7.1801    4.0365    9.1215 C   0  0  2  0  0  0  0  0  0  0  0  0
    8.2157    3.8141   10.1508 N   0  0  0  0  0  0  0  0  0  0  0  0
    0.8185    5.5451    7.7490 C   0  0  1  0  0  0  0  0  0  0  0  0
   -0.3183    5.3647    8.7011 N   0  0  0  0  0  0  0  0  0  0  0  0
   10.7216    7.9122   10.1045 C   0  0  2  0  0  0  0  0  0  0  0  0
   11.7078    7.4174   11.0271 O   0  0  0  0  0  0  0  0  0  0  0  0
    7.0253    5.5608    8.8862 C   0  0  2  0  0  0  0  0  0  0  0  0
    0.2835    5.9350    6.3286 C   0  0  1  0  0  0  0  0  0  0  0  0
   -0.4432    7.1582    6.4108 O   0  0  0  0  0  0  0  0  0  0  0  0
    9.2694    7.5759   10.6167 C   0  0  2  0  0  0  0  0  0  0  0  0
    8.2689    8.0713    9.6514 O   0  0  0  0  0  0  0  0  0  0  0  0
    5.9344    5.8068    7.8141 C   0  0  2  0  0  0  0  0  0  0  0  0
    5.7971    7.2118    7.6283 O   0  0  0  0  0  0  0  0  0  0  0  0
    1.5017    6.1189    5.3697 C   0  0  0  0  0  0  0  0  0  0  0  0
    2.4418    7.1346    5.9016 O   0  0  0  0  0  0  0  0  0  0  0  0
    8.9782    8.2205   11.9971 C   0  0  2  0  0  0  0  0  0  0  0  0
    7.6972    7.7978   12.4573 O   0  0  0  0  0  0  0  0  0  0  0  0
    4.5694    5.2340    8.2615 C   0  0  1  0  0  0  0  0  0  0  0  0
    3.6272    5.5070    7.1976 O   0  0  0  0  0  0  0  0  0  0  0  0
    8.9710    9.7380   11.9153 C   0  0  0  0  0  0  0  0  0  0  0  0
   -0.6550    4.8775    5.7605 C   0  0  0  0  0  0  0  0  0  0  0  0
   -0.1323    4.0817    9.4056 C   0  0  0  0  0  0  0  0  0  0  0  0
  1  2  1  1  0  0  0
  1  6  1  0  0  0  0
  1 23  1  0  0  0  0
  3  4  1  1  0  0  0
  3  8  1  0  0  0  0
  3 30  1  0  0  0  0
  5  9  1  0  0  0  0
  5 27  1  0  0  0  0
  5 31  1  6  0  0  0
  6  7  1  6  0  0  0
  6 11  1  0  0  0  0
  8 13  1  0  0  0  0
  9 10  1  1  0  0  0
  9 15  1  0  0  0  0
 11 12  1  6  0  0  0
 11 17  1  0  0  0  0
 13 14  1  1  0  0  0
 13 19  1  0  0  0  0
 15 16  1  1  0  0  0
 15 20  1  0  0  0  0
 16 34  1  0  0  0  0
 17 18  1  1  0  0  0
 17 22  1  0  0  0  0
 19  2  1  6  0  0  0
 19 24  1  0  0  0  0
 20 21  1  1  0  0  0
 20 26  1  0  0  0  0
 20 33  1  0  0  0  0
 22 23  1  6  0  0  0
 22 28  1  0  0  0  0
 24 25  1  1  0  0  0
 24 30  1  0  0  0  0
 26 27  1  0  0  0  0
 28 29  1  6  0  0  0
 28 32  1  0  0  0  0
 30 31  1  6  0  0  0
M  END
>  <CHROM.1>
-176.68806257,-172.63345227,-108.32254030,-175.43358196,158.21688401,-81.58989224
5.66017017,6.30659975,8.60246571,-0.18450176,-0.27508564,-1.25352753

>  <Name>
ligand

>  <RI>
0

>  <Rbt.Current_Directory>
/home/itssahil/PROJECTS/Mol_Feturizer/New_Systems/rnas/3TD1

>  <Rbt.Executable>
rbdock ($Id: //depot/dev/client3/rdock/2013.1/src/exe/rbdock.cxx#4 $)

>  <Rbt.Library>
libRbt.so (2013.1, Build901 2013/11/27)

>  <Rbt.Parameter_File>
/export/apps/rDock/src/rDock_2013.1_src/data/scripts/dock_solv.prm

>  <Rbt.Receptor>
prm/pocket_docking_5.prm

>  <SCORE>
-14.5916

>  <SCORE.INTER>
-7.84815

>  <SCORE.INTER.CONST>
1

>  <SCORE.INTER.POLAR>
0

>  <SCORE.INTER.ROT>
6

>  <SCORE.INTER.SOLV>
12.5439

>  <SCORE.INTER.VDW>
-17.0134

>  <SCORE.INTER.norm>
-0.230828

>  <SCORE.INTRA>
-6.74342

>  <SCORE.INTRA.DIHEDRAL>
-13.8971

>  <SCORE.INTRA.DIHEDRAL.0>
19.5869

>  <SCORE.INTRA.POLAR>
0

>  <SCORE.INTRA.POLAR.0>
0

>  <SCORE.INTRA.REPUL>
0

>  <SCORE.INTRA.REPUL.0>
0

>  <SCORE.INTRA.SOLV>
-1.51998

>  <SCORE.INTRA.SOLV.lig_0>
-70.101

>  <SCORE.INTRA.VDW>
0.96514

>  <SCORE.INTRA.VDW.0>
-3.39718

>  <SCORE.INTRA.norm>
-0.198336

>  <SCORE.RESTR>
0

>  <SCORE.RESTR.CAVITY>
0

>  <SCORE.RESTR.norm>
0

>  <SCORE.SYSTEM>
0

>  <SCORE.SYSTEM.CONST>
0

>  <SCORE.SYSTEM.DIHEDRAL>
0

>  <SCORE.SYSTEM.SOLV>
0

>  <SCORE.SYSTEM.norm>
0

>  <SCORE.heavy>
34

>  <SCORE.norm>
-0.429164

>  <RMSD>
9.201

$$$$
ligand
 OpenBabel11021811483D
libRbt.so/2013.1/901 2013/11/27
 34 36  0  0  0  0  0  0  0  0999 V2000
   10.7148    6.0672    0.4278 C   0  0  2  0  0  0  0  0  0  0  0  0
   10.7486    6.3324    1.8389 O   0  0  0  0  0  0  0  0  0  0  0  0
   14.9115    5.4592    2.2499 C   0  0  2  0  0  0  0  0  0  0  0  0
   16.2363    5.2623    2.8282 N   0  0  0  0  0  0  0  0  0  0  0  0
   13.4696    1.9578    2.9393 C   0  0  2  0  0  0  0  0  0  0  0  0
   10.8181    7.4410   -0.3263 C   0  0  2  0  0  0  0  0  0  0  0  0
   12.0762    8.1312   -0.0024 N   0  0  0  0  0  0  0  0  0  0  0  0
   14.4419    6.9013    2.6368 C   0  0  0  0  0  0  0  0  0  0  0  0
   14.2823    1.2783    4.0990 C   0  0  2  0  0  0  0  0  0  0  0  0
   14.5048    2.2122    5.1427 O   0  0  0  0  0  0  0  0  0  0  0  0
    9.6162    8.3290    0.0628 C   0  0  1  0  0  0  0  0  0  0  0  0
    9.7001    9.5851   -0.6300 O   0  0  0  0  0  0  0  0  0  0  0  0
   13.0295    7.1221    1.9968 C   0  0  2  0  0  0  0  0  0  0  0  0
   12.5276    8.4699    2.3332 N   0  0  0  0  0  0  0  0  0  0  0  0
   15.6477    0.7459    3.5143 C   0  0  1  0  0  0  0  0  0  0  0  0
   16.4674    0.1026    4.5847 N   0  0  0  0  0  0  0  0  0  0  0  0
    8.3085    7.5766   -0.2797 C   0  0  2  0  0  0  0  0  0  0  0  0
    7.1790    8.3877    0.0874 O   0  0  0  0  0  0  0  0  0  0  0  0
   12.0168    6.0667    2.5099 C   0  0  2  0  0  0  0  0  0  0  0  0
   15.3455   -0.2795    2.3686 C   0  0  1  0  0  0  0  0  0  0  0  0
   14.6205   -1.3868    2.8970 O   0  0  0  0  0  0  0  0  0  0  0  0
    8.2730    6.2013    0.4897 C   0  0  2  0  0  0  0  0  0  0  0  0
    9.4473    5.3878    0.1190 O   0  0  0  0  0  0  0  0  0  0  0  0
   12.5375    4.6477    2.1705 C   0  0  2  0  0  0  0  0  0  0  0  0
   11.6017    3.6961    2.6667 O   0  0  0  0  0  0  0  0  0  0  0  0
   14.4844    0.4310    1.2772 C   0  0  0  0  0  0  0  0  0  0  0  0
   13.2397    0.9821    1.8650 O   0  0  0  0  0  0  0  0  0  0  0  0
    6.9926    5.3884    0.1646 C   0  0  2  0  0  0  0  0  0  0  0  0
    6.8502    4.3300    1.1084 O   0  0  0  0  0  0  0  0  0  0  0  0
   13.9091    4.3805    2.8331 C   0  0  1  0  0  0  0  0  0  0  0  0
   14.3087    3.0426    2.4530 O   0  0  0  0  0  0  0  0  0  0  0  0
    7.0575    4.7743   -1.2240 C   0  0  0  0  0  0  0  0  0  0  0  0
   16.6208   -0.8224    1.7354 C   0  0  0  0  0  0  0  0  0  0  0  0
   17.8619    0.0166    4.1105 C   0  0  0  0  0  0  0  0  0  0  0  0
  1  2  1  1  0  0  0
  1  6  1  0  0  0  0
  1 23  1  0  0  0  0
  3  4  1  1  0  0  0
  3  8  1  0  0  0  0
  3 30  1  0  0  0  0
  5  9  1  0  0  0  0
  5 27  1  0  0  0  0
  5 31  1  6  0  0  0
  6  7  1  1  0  0  0
  6 11  1  0  0  0  0
  8 13  1  0  0  0  0
  9 10  1  1  0  0  0
  9 15  1  0  0  0  0
 11 12  1  6  0  0  0
 11 17  1  0  0  0  0
 13 14  1  1  0  0  0
 13 19  1  0  0  0  0
 15 16  1  1  0  0  0
 15 20  1  0  0  0  0
 16 34  1  0  0  0  0
 17 18  1  1  0  0  0
 17 22  1  0  0  0  0
 19  2  1  6  0  0  0
 19 24  1  0  0  0  0
 20 21  1  1  0  0  0
 20 26  1  0  0  0  0
 20 33  1  0  0  0  0
 22 23  1  6  0  0  0
 22 28  1  0  0  0  0
 24 25  1  1  0  0  0
 24 30  1  0  0  0  0
 26 27  1  0  0  0  0
 28 29  1  1  0  0  0
 28 32  1  0  0  0  0
 30 31  1  6  0  0  0
M  END
>  <CHROM.1>
-102.67568374,68.71466294,-162.22102871,-166.09262425,179.51184249,-105.38955105
12.31635466,4.33109567,1.79454207,-2.38305403,0.36699003,3.06493888

>  <Name>
ligand

>  <RI>
0

>  <Rbt.Current_Directory>
/home/itssahil/PROJECTS/Mol_Feturizer/New_Systems/rnas/3TD1

>  <Rbt.Executable>
rbdock ($Id: //depot/dev/client3/rdock/2013.1/src/exe/rbdock.cxx#4 $)

>  <Rbt.Library>
libRbt.so (2013.1, Build901 2013/11/27)

>  <Rbt.Parameter_File>
/export/apps/rDock/src/rDock_2013.1_src/data/scripts/dock_solv.prm

>  <Rbt.Receptor>
prm/blind_docking_20.prm

>  <SCORE>
30.8275

>  <SCORE.INTER>
12.2054

>  <SCORE.INTER.CONST>
1

>  <SCORE.INTER.POLAR>
0

>  <SCORE.INTER.ROT>
6

>  <SCORE.INTER.SOLV>
26.0215

>  <SCORE.INTER.VDW>
-8.1369

>  <SCORE.INTER.norm>
0.358982

>  <SCORE.INTRA>
11.5768

>  <SCORE.INTRA.DIHEDRAL>
-6.21281

>  <SCORE.INTRA.DIHEDRAL.0>
19.5869

>  <SCORE.INTRA.POLAR>
0

>  <SCORE.INTRA.POLAR.0>
0

>  <SCORE.INTRA.REPUL>
0

>  <SCORE.INTRA.REPUL.0>
0

>  <SCORE.INTRA.SOLV>
2.38456

>  <SCORE.INTRA.SOLV.lig_0>
-70.101

>  <SCORE.INTRA.VDW>
13.4909

>  <SCORE.INTRA.VDW.0>
-3.39718

>  <SCORE.INTRA.norm>
0.340493

>  <SCORE.RESTR>
7.04538

>  <SCORE.RESTR.CAVITY>
7.04538

>  <SCORE.RESTR.norm>
0.207217

>  <SCORE.SYSTEM>
0

>  <SCORE.SYSTEM.CONST>
0

>  <SCORE.SYSTEM.DIHEDRAL>
0

>  <SCORE.SYSTEM.SOLV>
0

>  <SCORE.SYSTEM.norm>
0

>  <SCORE.heavy>
34

>  <SCORE.norm>
0.906692

>  <RMSD>
9.212

$$$$
ligand
 OpenBabel11021811483D
libRbt.so/2013.1/901 2013/11/27
 34 36  0  0  0  0  0  0  0  0999 V2000
    9.0455    7.4116    5.7294 C   0  0  2  0  0  0  0  0  0  0  0  0
    9.0659    6.0850    6.2794 O   0  0  0  0  0  0  0  0  0  0  0  0
    6.9135    4.1732    9.4375 C   0  0  2  0  0  0  0  0  0  0  0  0
    6.3275    3.8911   10.7433 N   0  0  0  0  0  0  0  0  0  0  0  0
    3.9572    5.4452    9.7312 C   0  0  2  0  0  0  0  0  0  0  0  0
    9.5667    7.3312    4.2501 C   0  0  2  0  0  0  0  0  0  0  0  0
    8.7066    6.4637    3.4305 N   0  0  0  0  0  0  0  0  0  0  0  0
    8.4474    4.3983    9.6518 C   0  0  0  0  0  0  0  0  0  0  0  0
    3.0473    4.1655    9.7706 C   0  0  2  0  0  0  0  0  0  0  0  0
    3.8483    3.0105    9.9583 O   0  0  0  0  0  0  0  0  0  0  0  0
   11.0134    6.7913    4.2467 C   0  0  1  0  0  0  0  0  0  0  0  0
   11.4996    6.7226    2.8963 O   0  0  0  0  0  0  0  0  0  0  0  0
    9.0812    4.6783    8.2472 C   0  0  2  0  0  0  0  0  0  0  0  0
   10.5340    4.9061    8.3848 N   0  0  0  0  0  0  0  0  0  0  0  0
    2.2372    4.0799    8.4194 C   0  0  1  0  0  0  0  0  0  0  0  0
    1.3653    2.8672    8.4003 N   0  0  0  0  0  0  0  0  0  0  0  0
   11.8929    7.7156    5.1218 C   0  0  2  0  0  0  0  0  0  0  0  0
   13.2425    7.2187    5.1370 O   0  0  0  0  0  0  0  0  0  0  0  0
    8.4379    5.9244    7.5867 C   0  0  2  0  0  0  0  0  0  0  0  0
    1.3713    5.3764    8.2619 C   0  0  1  0  0  0  0  0  0  0  0  0
    0.4417    5.4641    9.3386 O   0  0  0  0  0  0  0  0  0  0  0  0
   11.3090    7.7706    6.5849 C   0  0  2  0  0  0  0  0  0  0  0  0
    9.9180    8.2629    6.5526 O   0  0  0  0  0  0  0  0  0  0  0  0
    6.9116    5.7005    7.4454 C   0  0  2  0  0  0  0  0  0  0  0  0
    6.3406    6.8633    6.8543 O   0  0  0  0  0  0  0  0  0  0  0  0
    2.3193    6.6165    8.2929 C   0  0  0  0  0  0  0  0  0  0  0  0
    3.1188    6.6369    9.5414 O   0  0  0  0  0  0  0  0  0  0  0  0
   12.1375    8.7054    7.5045 C   0  0  2  0  0  0  0  0  0  0  0  0
   12.5265    9.8659    6.7744 O   0  0  0  0  0  0  0  0  0  0  0  0
    6.2483    5.4731    8.8238 C   0  0  1  0  0  0  0  0  0  0  0  0
    4.8357    5.2690    8.5847 O   0  0  0  0  0  0  0  0  0  0  0  0
   13.3983    8.0216    8.0070 C   0  0  0  0  0  0  0  0  0  0  0  0
    0.5748    5.3784    6.9629 C   0  0  0  0  0  0  0  0  0  0  0  0
    2.1890    1.7116    7.9965 C   0  0  0  0  0  0  0  0  0  0  0  0
  1  2  1  1  0  0  0
  1  6  1  0  0  0  0
  1 23  1  0  0  0  0
  3  4  1  1  0  0  0
  3  8  1  0  0  0  0
  3 30  1  0  0  0  0
  5  9  1  0  0  0  0
  5 27  1  0  0  0  0
  5 31  1  6  0  0  0
  6  7  1  6  0  0  0
  6 11  1  0  0  0  0
  8 13  1  0  0  0  0
  9 10  1  6  0  0  0
  9 15  1  0  0  0  0
 11 12  1  6  0  0  0
 11 17  1  0  0  0  0
 13 14  1  1  0  0  0
 13 19  1  0  0  0  0
 15 16  1  1  0  0  0
 15 20  1  0  0  0  0
 16 34  1  0  0  0  0
 17 18  1  1  0  0  0
 17 22  1  0  0  0  0
 19  2  1  6  0  0  0
 19 24  1  0  0  0  0
 20 21  1  1  0  0  0
 20 26  1  0  0  0  0
 20 33  1  0  0  0  0
 22 23  1  6  0  0  0
 22 28  1  0  0  0  0
 24 25  1  1  0  0  0
 24 30  1  0  0  0  0
 26 27  1  0  0  0  0
 28 29  1  6  0  0  0
 28 32  1  0  0  0  0
 30 31  1  6  0  0  0
M  END
>  <CHROM.1>
-171.63694121,-155.73603638,-82.17095775,39.75154901,82.40129738,-130.12421215
7.11669012,5.91143237,7.48804699,0.40573537,-0.17745469,-1.16383854

>  <Name>
ligand

>  <RI>
0

>  <Rbt.Current_Directory>
/home/itssahil/PROJECTS/Mol_Feturizer/New_Systems/rnas/3TD1

>  <Rbt.Executable>
rbdock ($Id: //depot/dev/client3/rdock/2013.1/src/exe/rbdock.cxx#4 $)

>  <Rbt.Library>
libRbt.so (2013.1, Build901 2013/11/27)

>  <Rbt.Parameter_File>
/export/apps/rDock/src/rDock_2013.1_src/data/scripts/dock_solv.prm

>  <Rbt.Receptor>
prm/pocket_docking_3.prm

>  <SCORE>
-10.3998

>  <SCORE.INTER>
-8.25652

>  <SCORE.INTER.CONST>
1

>  <SCORE.INTER.POLAR>
0

>  <SCORE.INTER.ROT>
6

>  <SCORE.INTER.SOLV>
14.6197

>  <SCORE.INTER.VDW>
-17.9776

>  <SCORE.INTER.norm>
-0.242839

>  <SCORE.INTRA>
-2.15036

>  <SCORE.INTRA.DIHEDRAL>
-6.06211

>  <SCORE.INTRA.DIHEDRAL.0>
19.5869

>  <SCORE.INTRA.POLAR>
0

>  <SCORE.INTRA.POLAR.0>
0

>  <SCORE.INTRA.REPUL>
0

>  <SCORE.INTRA.REPUL.0>
0

>  <SCORE.INTRA.SOLV>
0.459465

>  <SCORE.INTRA.SOLV.lig_0>
-70.101

>  <SCORE.INTRA.VDW>
0.65096

>  <SCORE.INTRA.VDW.0>
-3.39718

>  <SCORE.INTRA.norm>
-0.063246

>  <SCORE.RESTR>
0.00708535

>  <SCORE.RESTR.CAVITY>
0.00708535

>  <SCORE.RESTR.norm>
0.000208393

>  <SCORE.SYSTEM>
0

>  <SCORE.SYSTEM.CONST>
0

>  <SCORE.SYSTEM.DIHEDRAL>
0

>  <SCORE.SYSTEM.SOLV>
0

>  <SCORE.SYSTEM.norm>
0

>  <SCORE.heavy>
34

>  <SCORE.norm>
-0.305876

>  <RMSD>
9.227

$$$$
ligand
 OpenBabel11021811483D
libRbt.so/2013.1/901 2013/11/27
 34 36  0  0  0  0  0  0  0  0999 V2000
    9.1318    7.8206    7.8498 C   0  0  2  0  0  0  0  0  0  0  0  0
    9.1580    6.3855    7.8029 O   0  0  0  0  0  0  0  0  0  0  0  0
    5.8552    3.6865    8.0648 C   0  0  2  0  0  0  0  0  0  0  0  0
    4.7470    2.8989    8.5936 N   0  0  0  0  0  0  0  0  0  0  0  0
    3.6928    6.8114    7.6415 C   0  0  2  0  0  0  0  0  0  0  0  0
   10.0648    8.3602    6.7074 C   0  0  2  0  0  0  0  0  0  0  0  0
    9.5945    7.9191    5.3851 N   0  0  0  0  0  0  0  0  0  0  0  0
    7.1174    3.3579    8.9300 C   0  0  0  0  0  0  0  0  0  0  0  0
    2.6876    6.4865    8.8039 C   0  0  2  0  0  0  0  0  0  0  0  0
    3.3999    6.0414    9.9464 O   0  0  0  0  0  0  0  0  0  0  0  0
   11.5062    7.8604    6.9462 C   0  0  1  0  0  0  0  0  0  0  0  0
   12.3672    8.3571    5.9085 O   0  0  0  0  0  0  0  0  0  0  0  0
    8.3132    4.1855    8.3483 C   0  0  2  0  0  0  0  0  0  0  0  0
    9.5380    3.9215    9.1305 N   0  0  0  0  0  0  0  0  0  0  0  0
    1.6749    5.3852    8.3028 C   0  0  1  0  0  0  0  0  0  0  0  0
    0.7042    5.0285    9.3806 N   0  0  0  0  0  0  0  0  0  0  0  0
   11.9716    8.3298    8.3450 C   0  0  2  0  0  0  0  0  0  0  0  0
   13.3101    7.8622    8.5863 O   0  0  0  0  0  0  0  0  0  0  0  0
    8.0086    5.7048    8.3900 C   0  0  2  0  0  0  0  0  0  0  0  0
    0.9163    5.9266    7.0430 C   0  0  1  0  0  0  0  0  0  0  0  0
    0.1752    7.0918    7.3955 O   0  0  0  0  0  0  0  0  0  0  0  0
   10.9870    7.7744    9.4435 C   0  0  2  0  0  0  0  0  0  0  0  0
    9.6148    8.2453    9.1726 O   0  0  0  0  0  0  0  0  0  0  0  0
    6.7199    5.9926    7.5798 C   0  0  2  0  0  0  0  0  0  0  0  0
    6.4502    7.3891    7.6475 O   0  0  0  0  0  0  0  0  0  0  0  0
    1.9662    6.2916    5.9468 C   0  0  0  0  0  0  0  0  0  0  0  0
    2.9468    7.2762    6.4640 O   0  0  0  0  0  0  0  0  0  0  0  0
   11.3898    8.2351   10.8688 C   0  0  2  0  0  0  0  0  0  0  0  0
   11.7126    9.6231   10.8451 O   0  0  0  0  0  0  0  0  0  0  0  0
    5.5085    5.2288    8.1635 C   0  0  1  0  0  0  0  0  0  0  0  0
    4.3650    5.5568    7.3394 O   0  0  0  0  0  0  0  0  0  0  0  0
   12.6053    7.4785   11.3785 C   0  0  0  0  0  0  0  0  0  0  0  0
   -0.0671    4.9054    6.4845 C   0  0  0  0  0  0  0  0  0  0  0  0
    0.7284    3.5640    9.5587 C   0  0  0  0  0  0  0  0  0  0  0  0
  1  2  1  1  0  0  0
  1  6  1  0  0  0  0
  1 23  1  0  0  0  0
  3  4  1  1  0  0  0
  3  8  1  0  0  0  0
  3 30  1  0  0  0  0
  5  9  1  0  0  0  0
  5 27  1  0  0  0  0
  5 31  1  6  0  0  0
  6  7  1  6  0  0  0
  6 11  1  0  0  0  0
  8 13  1  0  0  0  0
  9 10  1  1  0  0  0
  9 15  1  0  0  0  0
 11 12  1  6  0  0  0
 11 17  1  0  0  0  0
 13 14  1  1  0  0  0
 13 19  1  0  0  0  0
 15 16  1  1  0  0  0
 15 20  1  0  0  0  0
 16 34  1  0  0  0  0
 17 18  1  1  0  0  0
 17 22  1  0  0  0  0
 19  2  1  6  0  0  0
 19 24  1  0  0  0  0
 20 21  1  1  0  0  0
 20 26  1  0  0  0  0
 20 33  1  0  0  0  0
 22 23  1  6  0  0  0
 22 28  1  0  0  0  0
 24 25  1  1  0  0  0
 24 30  1  0  0  0  0
 26 27  1  0  0  0  0
 28 29  1  6  0  0  0
 28 32  1  0  0  0  0
 30 31  1  6  0  0  0
M  END
>  <CHROM.1>
-156.76776203,-174.75279303,-126.87261221,44.81921165,161.75394371,-84.52394435
6.73870417,6.41290076,8.19394888,0.12117432,-0.22604100,-0.75254667

>  <Name>
ligand

>  <RI>
0

>  <Rbt.Current_Directory>
/home/itssahil/PROJECTS/Mol_Feturizer/New_Systems/rnas/3TD1

>  <Rbt.Executable>
rbdock ($Id: //depot/dev/client3/rdock/2013.1/src/exe/rbdock.cxx#4 $)

>  <Rbt.Library>
libRbt.so (2013.1, Build901 2013/11/27)

>  <Rbt.Parameter_File>
/export/apps/rDock/src/rDock_2013.1_src/data/scripts/dock_solv.prm

>  <Rbt.Receptor>
prm/pocket_docking_3.prm

>  <SCORE>
-10.7415

>  <SCORE.INTER>
-6.00837

>  <SCORE.INTER.CONST>
1

>  <SCORE.INTER.POLAR>
0

>  <SCORE.INTER.ROT>
6

>  <SCORE.INTER.SOLV>
15.0692

>  <SCORE.INTER.VDW>
-16.6286

>  <SCORE.INTER.norm>
-0.176717

>  <SCORE.INTRA>
-4.73311

>  <SCORE.INTRA.DIHEDRAL>
-11.0003

>  <SCORE.INTRA.DIHEDRAL.0>
19.5869

>  <SCORE.INTRA.POLAR>
0

>  <SCORE.INTRA.POLAR.0>
0

>  <SCORE.INTRA.REPUL>
0

>  <SCORE.INTRA.REPUL.0>
0

>  <SCORE.INTRA.SOLV>
-1.15912

>  <SCORE.INTRA.SOLV.lig_0>
-70.101

>  <SCORE.INTRA.VDW>
1.34658

>  <SCORE.INTRA.VDW.0>
-3.39718

>  <SCORE.INTRA.norm>
-0.139209

>  <SCORE.RESTR>
0

>  <SCORE.RESTR.CAVITY>
0

>  <SCORE.RESTR.norm>
0

>  <SCORE.SYSTEM>
0

>  <SCORE.SYSTEM.CONST>
0

>  <SCORE.SYSTEM.DIHEDRAL>
0

>  <SCORE.SYSTEM.SOLV>
0

>  <SCORE.SYSTEM.norm>
0

>  <SCORE.heavy>
34

>  <SCORE.norm>
-0.315926

>  <RMSD>
9.230

$$$$
ligand
 OpenBabel11021811483D
libRbt.so/2013.1/901 2013/11/27
 34 36  0  0  0  0  0  0  0  0999 V2000
    8.5554    7.6284    8.4848 C   0  0  2  0  0  0  0  0  0  0  0  0
    8.4747    6.2109    8.7013 O   0  0  0  0  0  0  0  0  0  0  0  0
    4.9571    3.7855    8.7778 C   0  0  2  0  0  0  0  0  0  0  0  0
    3.7109    3.1640    9.2121 N   0  0  0  0  0  0  0  0  0  0  0  0
    3.1471    6.8917    7.4905 C   0  0  2  0  0  0  0  0  0  0  0  0
    9.9442    7.9391    7.8205 C   0  0  2  0  0  0  0  0  0  0  0  0
   10.0792    7.2523    6.5265 N   0  0  0  0  0  0  0  0  0  0  0  0
    6.0181    3.5420    9.9024 C   0  0  0  0  0  0  0  0  0  0  0  0
    1.9759    6.8052    8.5335 C   0  0  2  0  0  0  0  0  0  0  0  0
    2.4990    6.5387    9.8243 O   0  0  0  0  0  0  0  0  0  0  0  0
   11.0764    7.4951    8.7719 C   0  0  1  0  0  0  0  0  0  0  0  0
   12.3505    7.7837    8.1735 O   0  0  0  0  0  0  0  0  0  0  0  0
    7.3628    4.1888    9.4267 C   0  0  2  0  0  0  0  0  0  0  0  0
    8.4069    3.9966   10.4535 N   0  0  0  0  0  0  0  0  0  0  0  0
    0.9790    5.6692    8.0804 C   0  0  1  0  0  0  0  0  0  0  0  0
   -0.1485    5.5357    9.0511 N   0  0  0  0  0  0  0  0  0  0  0  0
   10.9053    8.2243   10.1256 C   0  0  2  0  0  0  0  0  0  0  0  0
   11.9477    7.8123   11.0268 O   0  0  0  0  0  0  0  0  0  0  0  0
    7.1870    5.7069    9.1673 C   0  0  2  0  0  0  0  0  0  0  0  0
    0.4315    6.0120    6.6527 C   0  0  1  0  0  0  0  0  0  0  0  0
   -0.2821    7.2448    6.6976 O   0  0  0  0  0  0  0  0  0  0  0  0
    9.4888    7.8897   10.7309 C   0  0  2  0  0  0  0  0  0  0  0  0
    8.4300    8.2993    9.7878 O   0  0  0  0  0  0  0  0  0  0  0  0
    6.0871    5.9213    8.0977 C   0  0  2  0  0  0  0  0  0  0  0  0
    5.9306    7.3212    7.8897 O   0  0  0  0  0  0  0  0  0  0  0  0
    1.6403    6.1478    5.6740 C   0  0  0  0  0  0  0  0  0  0  0  0
    2.5965    7.1727    6.1575 O   0  0  0  0  0  0  0  0  0  0  0  0
    9.2494    8.6156   12.0805 C   0  0  2  0  0  0  0  0  0  0  0  0
   10.2234    8.1873   13.0288 O   0  0  0  0  0  0  0  0  0  0  0  0
    4.7321    5.3384    8.5623 C   0  0  1  0  0  0  0  0  0  0  0  0
    3.7805    5.5818    7.4995 O   0  0  0  0  0  0  0  0  0  0  0  0
    7.8737    8.3043   12.6465 C   0  0  0  0  0  0  0  0  0  0  0  0
   -0.5239    4.9440    6.1345 C   0  0  0  0  0  0  0  0  0  0  0  0
   -0.1580    4.1514    9.5614 C   0  0  0  0  0  0  0  0  0  0  0  0
  1  2  1  1  0  0  0
  1  6  1  0  0  0  0
  1 23  1  0  0  0  0
  3  4  1  1  0  0  0
  3  8  1  0  0  0  0
  3 30  1  0  0  0  0
  5  9  1  0  0  0  0
  5 27  1  0  0  0  0
  5 31  1  6  0  0  0
  6  7  1  6  0  0  0
  6 11  1  0  0  0  0
  8 13  1  0  0  0  0
  9 10  1  1  0  0  0
  9 15  1  0  0  0  0
 11 12  1  6  0  0  0
 11 17  1  0  0  0  0
 13 14  1  1  0  0  0
 13 19  1  0  0  0  0
 15 16  1  1  0  0  0
 15 20  1  0  0  0  0
 16 34  1  0  0  0  0
 17 18  1  1  0  0  0
 17 22  1  0  0  0  0
 19  2  1  6  0  0  0
 19 24  1  0  0  0  0
 20 21  1  1  0  0  0
 20 26  1  0  0  0  0
 20 33  1  0  0  0  0
 22 23  1  6  0  0  0
 22 28  1  0  0  0  0
 24 25  1  1  0  0  0
 24 30  1  0  0  0  0
 26 27  1  0  0  0  0
 28 29  1  1  0  0  0
 28 32  1  0  0  0  0
 30 31  1  6  0  0  0
M  END
>  <CHROM.1>
-172.96378643,-176.02159098,-121.89049942,-61.37037649,160.01075136,-81.58360931
5.85362182,6.41751004,8.85509096,-0.18225177,-0.27038958,-1.27519559

>  <Name>
ligand

>  <RI>
0

>  <Rbt.Current_Directory>
/home/itssahil/PROJECTS/Mol_Feturizer/New_Systems/rnas/3TD1

>  <Rbt.Executable>
rbdock ($Id: //depot/dev/client3/rdock/2013.1/src/exe/rbdock.cxx#4 $)

>  <Rbt.Library>
libRbt.so (2013.1, Build901 2013/11/27)

>  <Rbt.Parameter_File>
/export/apps/rDock/src/rDock_2013.1_src/data/scripts/dock_solv.prm

>  <Rbt.Receptor>
prm/pocket_docking_5.prm

>  <SCORE>
-14.7172

>  <SCORE.INTER>
-7.71586

>  <SCORE.INTER.CONST>
1

>  <SCORE.INTER.POLAR>
0

>  <SCORE.INTER.ROT>
6

>  <SCORE.INTER.SOLV>
13.6485

>  <SCORE.INTER.VDW>
-17.2934

>  <SCORE.INTER.norm>
-0.226937

>  <SCORE.INTRA>
-7.00138

>  <SCORE.INTRA.DIHEDRAL>
-14.1628

>  <SCORE.INTRA.DIHEDRAL.0>
19.5869

>  <SCORE.INTRA.POLAR>
0

>  <SCORE.INTRA.POLAR.0>
0

>  <SCORE.INTRA.REPUL>
0

>  <SCORE.INTRA.REPUL.0>
0

>  <SCORE.INTRA.SOLV>
-1.57436

>  <SCORE.INTRA.SOLV.lig_0>
-70.101

>  <SCORE.INTRA.VDW>
0.867185

>  <SCORE.INTRA.VDW.0>
-3.39718

>  <SCORE.INTRA.norm>
-0.205923

>  <SCORE.RESTR>
0

>  <SCORE.RESTR.CAVITY>
0

>  <SCORE.RESTR.norm>
0

>  <SCORE.SYSTEM>
0

>  <SCORE.SYSTEM.CONST>
0

>  <SCORE.SYSTEM.DIHEDRAL>
0

>  <SCORE.SYSTEM.SOLV>
0

>  <SCORE.SYSTEM.norm>
0

>  <SCORE.heavy>
34

>  <SCORE.norm>
-0.43286

>  <RMSD>
9.240

$$$$
ligand
 OpenBabel11021811483D
libRbt.so/2013.1/901 2013/11/27
 34 36  0  0  0  0  0  0  0  0999 V2000
    8.4391    7.8034    5.0571 C   0  0  2  0  0  0  0  0  0  0  0  0
    8.6211    6.3926    5.2547 O   0  0  0  0  0  0  0  0  0  0  0  0
    6.3906    3.7339    7.7483 C   0  0  2  0  0  0  0  0  0  0  0  0
    5.8484    3.0648    8.9257 N   0  0  0  0  0  0  0  0  0  0  0  0
    3.8414    6.5538    8.0336 C   0  0  2  0  0  0  0  0  0  0  0  0
    8.8201    8.1379    3.5707 C   0  0  2  0  0  0  0  0  0  0  0  0
    7.9590    7.4106    2.6252 N   0  0  0  0  0  0  0  0  0  0  0  0
    7.9511    3.6708    7.8515 C   0  0  0  0  0  0  0  0  0  0  0  0
    2.6379    6.1192    8.9445 C   0  0  2  0  0  0  0  0  0  0  0  0
    3.1188    5.3962   10.0656 O   0  0  0  0  0  0  0  0  0  0  0  0
   10.2991    7.7673    3.3266 C   0  0  1  0  0  0  0  0  0  0  0  0
   10.6569    8.0782    1.9701 O   0  0  0  0  0  0  0  0  0  0  0  0
    8.5341    4.3684    6.5762 C   0  0  2  0  0  0  0  0  0  0  0  0
   10.0104    4.3462    6.6186 N   0  0  0  0  0  0  0  0  0  0  0  0
    1.6465    5.2413    8.0867 C   0  0  1  0  0  0  0  0  0  0  0  0
    0.4886    4.7881    8.9144 N   0  0  0  0  0  0  0  0  0  0  0  0
   11.1801    8.5379    4.3384 C   0  0  2  0  0  0  0  0  0  0  0  0
   12.5610    8.1943    4.1301 O   0  0  0  0  0  0  0  0  0  0  0  0
    8.0566    5.8401    6.4816 C   0  0  2  0  0  0  0  0  0  0  0  0
    1.1461    6.0852    6.8648 C   0  0  1  0  0  0  0  0  0  0  0  0
    0.4412    7.2321    7.3325 O   0  0  0  0  0  0  0  0  0  0  0  0
   10.7373    8.1764    5.8074 C   0  0  2  0  0  0  0  0  0  0  0  0
    9.3141    8.5155    6.0010 O   0  0  0  0  0  0  0  0  0  0  0  0
    6.5083    5.8764    6.4457 C   0  0  2  0  0  0  0  0  0  0  0  0
    6.0931    7.2367    6.3775 O   0  0  0  0  0  0  0  0  0  0  0  0
    2.3856    6.5419    6.0326 C   0  0  0  0  0  0  0  0  0  0  0  0
    3.3345    7.3060    6.8776 O   0  0  0  0  0  0  0  0  0  0  0  0
   11.5711    8.9411    6.8685 C   0  0  2  0  0  0  0  0  0  0  0  0
   12.9537    8.6456    6.6885 O   0  0  0  0  0  0  0  0  0  0  0  0
    5.9029    5.2405    7.7188 C   0  0  1  0  0  0  0  0  0  0  0  0
    4.4639    5.3170    7.5862 O   0  0  0  0  0  0  0  0  0  0  0  0
   11.1841    8.5368    8.2814 C   0  0  0  0  0  0  0  0  0  0  0  0
    0.1987    5.2933    5.9719 C   0  0  0  0  0  0  0  0  0  0  0  0
    0.7671    3.4192    9.3894 C   0  0  0  0  0  0  0  0  0  0  0  0
  1  2  1  6  0  0  0
  1  6  1  0  0  0  0
  1 23  1  0  0  0  0
  3  4  1  1  0  0  0
  3  8  1  0  0  0  0
  3 30  1  0  0  0  0
  5  9  1  0  0  0  0
  5 27  1  0  0  0  0
  5 31  1  6  0  0  0
  6  7  1  6  0  0  0
  6 11  1  0  0  0  0
  8 13  1  0  0  0  0
  9 10  1  1  0  0  0
  9 15  1  0  0  0  0
 11 12  1  6  0  0  0
 11 17  1  0  0  0  0
 13 14  1  1  0  0  0
 13 19  1  0  0  0  0
 15 16  1  1  0  0  0
 15 20  1  0  0  0  0
 16 34  1  0  0  0  0
 17 18  1  1  0  0  0
 17 22  1  0  0  0  0
 19  2  1  6  0  0  0
 19 24  1  0  0  0  0
 20 21  1  1  0  0  0
 20 26  1  0  0  0  0
 20 33  1  0  0  0  0
 22 23  1  6  0  0  0
 22 28  1  0  0  0  0
 24 25  1  1  0  0  0
 24 30  1  0  0  0  0
 26 27  1  0  0  0  0
 28 29  1  6  0  0  0
 28 32  1  0  0  0  0
 30 31  1  6  0  0  0
M  END
>  <CHROM.1>
-167.62254665,-172.45964533,-97.20890709,-57.73942289,157.94678141,-131.70570544
6.59440841,6.43178044,6.55129924,0.41096627,-0.03424436,-0.94331705

>  <Name>
ligand

>  <RI>
0

>  <Rbt.Current_Directory>
/home/itssahil/PROJECTS/Mol_Feturizer/New_Systems/rnas/3TD1

>  <Rbt.Executable>
rbdock ($Id: //depot/dev/client3/rdock/2013.1/src/exe/rbdock.cxx#4 $)

>  <Rbt.Library>
libRbt.so (2013.1, Build901 2013/11/27)

>  <Rbt.Parameter_File>
/export/apps/rDock/src/rDock_2013.1_src/data/scripts/dock_solv.prm

>  <Rbt.Receptor>
prm/pocket_docking_3.prm

>  <SCORE>
-12.3107

>  <SCORE.INTER>
-7.22449

>  <SCORE.INTER.CONST>
1

>  <SCORE.INTER.POLAR>
0

>  <SCORE.INTER.ROT>
6

>  <SCORE.INTER.SOLV>
13.6614

>  <SCORE.INTER.VDW>
-16.9701

>  <SCORE.INTER.norm>
-0.212485

>  <SCORE.INTRA>
-5.14647

>  <SCORE.INTRA.DIHEDRAL>
-9.02909

>  <SCORE.INTRA.DIHEDRAL.0>
19.5869

>  <SCORE.INTRA.POLAR>
0

>  <SCORE.INTRA.POLAR.0>
0

>  <SCORE.INTRA.REPUL>
0

>  <SCORE.INTRA.REPUL.0>
0

>  <SCORE.INTRA.SOLV>
-2.46514

>  <SCORE.INTRA.SOLV.lig_0>
-70.101

>  <SCORE.INTRA.VDW>
0.600648

>  <SCORE.INTRA.VDW.0>
-3.39718

>  <SCORE.INTRA.norm>
-0.151367

>  <SCORE.RESTR>
0.0602467

>  <SCORE.RESTR.CAVITY>
0.0602467

>  <SCORE.RESTR.norm>
0.00177196

>  <SCORE.SYSTEM>
0

>  <SCORE.SYSTEM.CONST>
0

>  <SCORE.SYSTEM.DIHEDRAL>
0

>  <SCORE.SYSTEM.SOLV>
0

>  <SCORE.SYSTEM.norm>
0

>  <SCORE.heavy>
34

>  <SCORE.norm>
-0.36208

>  <RMSD>
9.251

$$$$
ligand
 OpenBabel11021811483D
libRbt.so/2013.1/901 2013/11/27
 34 36  0  0  0  0  0  0  0  0999 V2000
    7.7500    4.0306    7.5028 C   0  0  2  0  0  0  0  0  0  0  0  0
    7.2748    4.9834    8.4666 O   0  0  0  0  0  0  0  0  0  0  0  0
    3.2809    3.4633    8.4627 C   0  0  2  0  0  0  0  0  0  0  0  0
    1.8895    3.2208    8.8276 N   0  0  0  0  0  0  0  0  0  0  0  0
    2.6252    6.6304    6.3844 C   0  0  2  0  0  0  0  0  0  0  0  0
    9.3186    4.1049    7.4803 C   0  0  2  0  0  0  0  0  0  0  0  0
    9.8848    3.7722    8.7968 N   0  0  0  0  0  0  0  0  0  0  0  0
    4.1536    3.1773    9.7302 C   0  0  0  0  0  0  0  0  0  0  0  0
    1.2577    7.1820    6.9255 C   0  0  2  0  0  0  0  0  0  0  0  0
    1.2383    7.1165    8.3418 O   0  0  0  0  0  0  0  0  0  0  0  0
    9.7568    5.5257    7.0636 C   0  0  1  0  0  0  0  0  0  0  0  0
   11.1916    5.5986    7.0332 O   0  0  0  0  0  0  0  0  0  0  0  0
    5.6498    3.4149    9.3329 C   0  0  2  0  0  0  0  0  0  0  0  0
    6.5267    3.1656   10.4949 N   0  0  0  0  0  0  0  0  0  0  0  0
    0.0865    6.3278    6.3025 C   0  0  1  0  0  0  0  0  0  0  0  0
   -1.2391    6.8041    6.7997 N   0  0  0  0  0  0  0  0  0  0  0  0
    9.1411    5.8527    5.6824 C   0  0  2  0  0  0  0  0  0  0  0  0
    9.5322    7.1786    5.2855 O   0  0  0  0  0  0  0  0  0  0  0  0
    5.8691    4.8684    8.8410 C   0  0  2  0  0  0  0  0  0  0  0  0
    0.1534    6.4347    4.7405 C   0  0  1  0  0  0  0  0  0  0  0  0
   -0.0220    7.7930    4.3465 O   0  0  0  0  0  0  0  0  0  0  0  0
    7.5708    5.7421    5.7643 C   0  0  2  0  0  0  0  0  0  0  0  0
    7.1844    4.3834    6.1916 O   0  0  0  0  0  0  0  0  0  0  0  0
    4.9472    5.1444    7.6270 C   0  0  2  0  0  0  0  0  0  0  0  0
    5.1522    6.4887    7.2046 O   0  0  0  0  0  0  0  0  0  0  0  0
    1.5537    5.9336    4.2655 C   0  0  0  0  0  0  0  0  0  0  0  0
    2.6383    6.7065    4.9171 O   0  0  0  0  0  0  0  0  0  0  0  0
    6.8975    6.0352    4.3980 C   0  0  2  0  0  0  0  0  0  0  0  0
    7.5197    5.2499    3.3844 O   0  0  0  0  0  0  0  0  0  0  0  0
    3.4574    4.9687    8.0030 C   0  0  1  0  0  0  0  0  0  0  0  0
    2.6853    5.2401    6.8095 O   0  0  0  0  0  0  0  0  0  0  0  0
    7.0343    7.4981    4.0095 C   0  0  0  0  0  0  0  0  0  0  0  0
   -0.9366    5.6130    4.0634 C   0  0  0  0  0  0  0  0  0  0  0  0
   -1.7085    5.8655    7.8368 C   0  0  0  0  0  0  0  0  0  0  0  0
  1  2  1  1  0  0  0
  1  6  1  0  0  0  0
  1 23  1  0  0  0  0
  3  4  1  1  0  0  0
  3  8  1  0  0  0  0
  3 30  1  0  0  0  0
  5  9  1  0  0  0  0
  5 27  1  0  0  0  0
  5 31  1  6  0  0  0
  6  7  1  1  0  0  0
  6 11  1  0  0  0  0
  8 13  1  0  0  0  0
  9 10  1  1  0  0  0
  9 15  1  0  0  0  0
 11 12  1  6  0  0  0
 11 17  1  0  0  0  0
 13 14  1  1  0  0  0
 13 19  1  0  0  0  0
 15 16  1  1  0  0  0
 15 20  1  0  0  0  0
 16 34  1  0  0  0  0
 17 18  1  1  0  0  0
 17 22  1  0  0  0  0
 19  2  1  6  0  0  0
 19 24  1  0  0  0  0
 20 21  1  6  0  0  0
 20 26  1  0  0  0  0
 20 33  1  0  0  0  0
 22 23  1  6  0  0  0
 22 28  1  0  0  0  0
 24 25  1  1  0  0  0
 24 30  1  0  0  0  0
 26 27  1  0  0  0  0
 28 29  1  6  0  0  0
 28 32  1  0  0  0  0
 30 31  1  6  0  0  0
M  END
>  <CHROM.1>
-167.38250047,55.22664159,-102.48380142,50.41054210,172.33653755,-98.42777895
4.69027604,5.48952572,6.76818884,0.14140924,-0.07273989,2.09781200

>  <Name>
ligand

>  <RI>
0

>  <Rbt.Current_Directory>
/home/itssahil/PROJECTS/Mol_Feturizer/New_Systems/rnas/3TD1

>  <Rbt.Executable>
rbdock ($Id: //depot/dev/client3/rdock/2013.1/src/exe/rbdock.cxx#4 $)

>  <Rbt.Library>
libRbt.so (2013.1, Build901 2013/11/27)

>  <Rbt.Parameter_File>
/export/apps/rDock/src/rDock_2013.1_src/data/scripts/dock_solv.prm

>  <Rbt.Receptor>
prm/pocket_docking_8.prm

>  <SCORE>
-14.095

>  <SCORE.INTER>
-9.9974

>  <SCORE.INTER.CONST>
1

>  <SCORE.INTER.POLAR>
0

>  <SCORE.INTER.ROT>
6

>  <SCORE.INTER.SOLV>
14.0319

>  <SCORE.INTER.VDW>
-18.9422

>  <SCORE.INTER.norm>
-0.294041

>  <SCORE.INTRA>
-4.09765

>  <SCORE.INTRA.DIHEDRAL>
-11.9539

>  <SCORE.INTRA.DIHEDRAL.0>
19.5869

>  <SCORE.INTRA.POLAR>
0

>  <SCORE.INTRA.POLAR.0>
0

>  <SCORE.INTRA.REPUL>
0

>  <SCORE.INTRA.REPUL.0>
0

>  <SCORE.INTRA.SOLV>
-0.762135

>  <SCORE.INTRA.SOLV.lig_0>
-70.101

>  <SCORE.INTRA.VDW>
2.26034

>  <SCORE.INTRA.VDW.0>
-3.39718

>  <SCORE.INTRA.norm>
-0.120519

>  <SCORE.RESTR>
0

>  <SCORE.RESTR.CAVITY>
0

>  <SCORE.RESTR.norm>
0

>  <SCORE.SYSTEM>
0

>  <SCORE.SYSTEM.CONST>
0

>  <SCORE.SYSTEM.DIHEDRAL>
0

>  <SCORE.SYSTEM.SOLV>
0

>  <SCORE.SYSTEM.norm>
0

>  <SCORE.heavy>
34

>  <SCORE.norm>
-0.41456

>  <RMSD>
9.261

$$$$
ligand
 OpenBabel11021811483D
libRbt.so/2013.1/901 2013/11/27
 34 36  0  0  0  0  0  0  0  0999 V2000
    8.4753    7.7996    5.1018 C   0  0  2  0  0  0  0  0  0  0  0  0
    8.6381    6.3891    5.3171 O   0  0  0  0  0  0  0  0  0  0  0  0
    6.3296    3.7696    7.7809 C   0  0  2  0  0  0  0  0  0  0  0  0
    5.7525    3.1172    8.9512 N   0  0  0  0  0  0  0  0  0  0  0  0
    3.7954    6.6308    7.8812 C   0  0  2  0  0  0  0  0  0  0  0  0
    8.8709    8.1119    3.6143 C   0  0  2  0  0  0  0  0  0  0  0  0
    8.0074    7.3844    2.6713 N   0  0  0  0  0  0  0  0  0  0  0  0
    7.8864    3.7024    7.9281 C   0  0  0  0  0  0  0  0  0  0  0  0
    2.5958    6.2834    8.8338 C   0  0  2  0  0  0  0  0  0  0  0  0
    3.0813    5.6652   10.0140 O   0  0  0  0  0  0  0  0  0  0  0  0
   10.3468    7.7199    3.3852 C   0  0  1  0  0  0  0  0  0  0  0  0
   10.7180    8.0104    2.0277 O   0  0  0  0  0  0  0  0  0  0  0  0
    8.5070    4.3819    6.6608 C   0  0  2  0  0  0  0  0  0  0  0  0
    9.9814    4.3552    6.7443 N   0  0  0  0  0  0  0  0  0  0  0  0
    1.5991    5.3324    8.0647 C   0  0  1  0  0  0  0  0  0  0  0  0
    0.4447    4.9588    8.9359 N   0  0  0  0  0  0  0  0  0  0  0  0
   11.2303    8.4913    4.3942 C   0  0  2  0  0  0  0  0  0  0  0  0
   12.6083    8.1280    4.1997 O   0  0  0  0  0  0  0  0  0  0  0  0
    8.0379    5.8540    6.5347 C   0  0  2  0  0  0  0  0  0  0  0  0
    1.0938    6.0618    6.7731 C   0  0  1  0  0  0  0  0  0  0  0  0
    0.3926    7.2479    7.1373 O   0  0  0  0  0  0  0  0  0  0  0  0
   10.7728    8.1526    5.8641 C   0  0  2  0  0  0  0  0  0  0  0  0
    9.3526    8.5117    6.0436 O   0  0  0  0  0  0  0  0  0  0  0  0
    6.4913    5.8952    6.4555 C   0  0  2  0  0  0  0  0  0  0  0  0
    6.0834    7.2559    6.3589 O   0  0  0  0  0  0  0  0  0  0  0  0
    2.3297    6.4383    5.8967 C   0  0  0  0  0  0  0  0  0  0  0  0
    3.2837    7.2750    6.6637 O   0  0  0  0  0  0  0  0  0  0  0  0
   11.6087    8.9192    6.9221 C   0  0  2  0  0  0  0  0  0  0  0  0
   12.9900    8.6148    6.7468 O   0  0  0  0  0  0  0  0  0  0  0  0
    5.8486    5.2774    7.7192 C   0  0  1  0  0  0  0  0  0  0  0  0
    4.4141    5.3572    7.5459 O   0  0  0  0  0  0  0  0  0  0  0  0
   11.2166    8.5258    8.3368 C   0  0  0  0  0  0  0  0  0  0  0  0
    0.1410    5.1932    5.9610 C   0  0  0  0  0  0  0  0  0  0  0  0
    0.6165    3.5544    9.3545 C   0  0  0  0  0  0  0  0  0  0  0  0
  1  2  1  1  0  0  0
  1  6  1  0  0  0  0
  1 23  1  0  0  0  0
  3  4  1  1  0  0  0
  3  8  1  0  0  0  0
  3 30  1  0  0  0  0
  5  9  1  0  0  0  0
  5 27  1  0  0  0  0
  5 31  1  6  0  0  0
  6  7  1  6  0  0  0
  6 11  1  0  0  0  0
  8 13  1  0  0  0  0
  9 10  1  1  0  0  0
  9 15  1  0  0  0  0
 11 12  1  6  0  0  0
 11 17  1  0  0  0  0
 13 14  1  1  0  0  0
 13 19  1  0  0  0  0
 15 16  1  1  0  0  0
 15 20  1  0  0  0  0
 16 34  1  0  0  0  0
 17 18  1  1  0  0  0
 17 22  1  0  0  0  0
 19  2  1  6  0  0  0
 19 24  1  0  0  0  0
 20 21  1  1  0  0  0
 20 26  1  0  0  0  0
 20 33  1  0  0  0  0
 22 23  1  6  0  0  0
 22 28  1  0  0  0  0
 24 25  1  1  0  0  0
 24 30  1  0  0  0  0
 26 27  1  0  0  0  0
 28 29  1  6  0  0  0
 28 32  1  0  0  0  0
 30 31  1  6  0  0  0
M  END
>  <CHROM.1>
-166.58556631,-172.02642193,-106.40248390,-57.15603247,161.68616109,-129.78316504
6.57927694,6.44805958,6.55198195,0.38841230,-0.04685133,-0.97167058

>  <Name>
ligand

>  <RI>
0

>  <Rbt.Current_Directory>
/home/itssahil/PROJECTS/Mol_Feturizer/New_Systems/rnas/3TD1

>  <Rbt.Executable>
rbdock ($Id: //depot/dev/client3/rdock/2013.1/src/exe/rbdock.cxx#4 $)

>  <Rbt.Library>
libRbt.so (2013.1, Build901 2013/11/27)

>  <Rbt.Parameter_File>
/export/apps/rDock/src/rDock_2013.1_src/data/scripts/dock_solv.prm

>  <Rbt.Receptor>
prm/pocket_docking_3.prm

>  <SCORE>
-12.1995

>  <SCORE.INTER>
-7.06311

>  <SCORE.INTER.CONST>
1

>  <SCORE.INTER.POLAR>
0

>  <SCORE.INTER.ROT>
6

>  <SCORE.INTER.SOLV>
13.6568

>  <SCORE.INTER.VDW>
-16.861

>  <SCORE.INTER.norm>
-0.207738

>  <SCORE.INTRA>
-5.18115

>  <SCORE.INTRA.DIHEDRAL>
-9.04121

>  <SCORE.INTRA.DIHEDRAL.0>
19.5869

>  <SCORE.INTRA.POLAR>
0

>  <SCORE.INTRA.POLAR.0>
0

>  <SCORE.INTRA.REPUL>
0

>  <SCORE.INTRA.REPUL.0>
0

>  <SCORE.INTRA.SOLV>
-2.52342

>  <SCORE.INTRA.SOLV.lig_0>
-70.101

>  <SCORE.INTRA.VDW>
0.601166

>  <SCORE.INTRA.VDW.0>
-3.39718

>  <SCORE.INTRA.norm>
-0.152387

>  <SCORE.RESTR>
0.0448017

>  <SCORE.RESTR.CAVITY>
0.0448017

>  <SCORE.RESTR.norm>
0.0013177

>  <SCORE.SYSTEM>
0

>  <SCORE.SYSTEM.CONST>
0

>  <SCORE.SYSTEM.DIHEDRAL>
0

>  <SCORE.SYSTEM.SOLV>
0

>  <SCORE.SYSTEM.norm>
0

>  <SCORE.heavy>
34

>  <SCORE.norm>
-0.358808

>  <RMSD>
9.273

$$$$
ligand
 OpenBabel11021811483D
libRbt.so/2013.1/901 2013/11/27
 34 36  0  0  0  0  0  0  0  0999 V2000
    5.9189    6.2215    3.5914 C   0  0  2  0  0  0  0  0  0  0  0  0
    6.7312    6.2255    4.7757 O   0  0  0  0  0  0  0  0  0  0  0  0
    5.0749    6.2854    8.7146 C   0  0  2  0  0  0  0  0  0  0  0  0
    4.5302    6.7585    9.9825 N   0  0  0  0  0  0  0  0  0  0  0  0
    2.2504    5.9902    9.0296 C   0  0  2  0  0  0  0  0  0  0  0  0
    6.6490    5.3526    2.5057 C   0  0  2  0  0  0  0  0  0  0  0  0
    6.8256    3.9665    2.9657 N   0  0  0  0  0  0  0  0  0  0  0  0
    6.4607    6.9837    8.5111 C   0  0  0  0  0  0  0  0  0  0  0  0
    2.3240    4.4971    9.5115 C   0  0  2  0  0  0  0  0  0  0  0  0
    3.6763    4.0730    9.5612 O   0  0  0  0  0  0  0  0  0  0  0  0
    8.0237    5.9804    2.1888 C   0  0  1  0  0  0  0  0  0  0  0  0
    8.6942    5.1946    1.1899 O   0  0  0  0  0  0  0  0  0  0  0  0
    7.0569    6.4586    7.1613 C   0  0  2  0  0  0  0  0  0  0  0  0
    8.3685    7.0891    6.9092 N   0  0  0  0  0  0  0  0  0  0  0  0
    1.4860    3.6035    8.5173 C   0  0  1  0  0  0  0  0  0  0  0  0
    1.5373    2.1672    8.9242 N   0  0  0  0  0  0  0  0  0  0  0  0
    7.8096    7.4381    1.7168 C   0  0  2  0  0  0  0  0  0  0  0  0
    9.0835    8.0400    1.4278 O   0  0  0  0  0  0  0  0  0  0  0  0
    6.1105    6.7771    5.9757 C   0  0  2  0  0  0  0  0  0  0  0  0
    0.0041    4.1128    8.5007 C   0  0  1  0  0  0  0  0  0  0  0  0
   -0.5596    3.9858    9.8034 O   0  0  0  0  0  0  0  0  0  0  0  0
    7.0571    8.2515    2.8379 C   0  0  2  0  0  0  0  0  0  0  0  0
    5.7613    7.6120    3.1384 O   0  0  0  0  0  0  0  0  0  0  0  0
    4.7277    6.1280    6.2336 C   0  0  2  0  0  0  0  0  0  0  0  0
    3.8712    6.4488    5.1423 O   0  0  0  0  0  0  0  0  0  0  0  0
   -0.0025    5.6154    8.0769 C   0  0  0  0  0  0  0  0  0  0  0  0
    0.8467    6.4224    8.9858 O   0  0  0  0  0  0  0  0  0  0  0  0
    6.7909    9.7183    2.4095 C   0  0  2  0  0  0  0  0  0  0  0  0
    5.3965    9.9957    2.5083 O   0  0  0  0  0  0  0  0  0  0  0  0
    4.0893    6.6670    7.5349 C   0  0  1  0  0  0  0  0  0  0  0  0
    2.8144    5.9997    7.6883 O   0  0  0  0  0  0  0  0  0  0  0  0
    7.2193    9.9679    0.9729 C   0  0  0  0  0  0  0  0  0  0  0  0
   -0.8660    3.3107    7.5408 C   0  0  0  0  0  0  0  0  0  0  0  0
    2.6655    1.5272    8.2208 C   0  0  0  0  0  0  0  0  0  0  0  0
  1  2  1  1  0  0  0
  1  6  1  0  0  0  0
  1 23  1  0  0  0  0
  3  4  1  1  0  0  0
  3  8  1  0  0  0  0
  3 30  1  0  0  0  0
  5  9  1  0  0  0  0
  5 27  1  0  0  0  0
  5 31  1  6  0  0  0
  6  7  1  1  0  0  0
  6 11  1  0  0  0  0
  8 13  1  0  0  0  0
  9 10  1  6  0  0  0
  9 15  1  0  0  0  0
 11 12  1  6  0  0  0
 11 17  1  0  0  0  0
 13 14  1  6  0  0  0
 13 19  1  0  0  0  0
 15 16  1  1  0  0  0
 15 20  1  0  0  0  0
 16 34  1  0  0  0  0
 17 18  1  1  0  0  0
 17 22  1  0  0  0  0
 19  2  1  6  0  0  0
 19 24  1  0  0  0  0
 20 21  1  1  0  0  0
 20 26  1  0  0  0  0
 20 33  1  0  0  0  0
 22 23  1  6  0  0  0
 22 28  1  0  0  0  0
 24 25  1  6  0  0  0
 24 30  1  0  0  0  0
 26 27  1  0  0  0  0
 28 29  1  6  0  0  0
 28 32  1  0  0  0  0
 30 31  1  1  0  0  0
M  END
>  <CHROM.1>
-169.28528771,170.41011097,-91.85662484,124.26728200,43.70693553,-111.02333024
4.64631264,6.03161082,5.93967527,0.30762274,-0.83191468,-2.27252073

>  <Name>
ligand

>  <RI>
0

>  <Rbt.Current_Directory>
/home/itssahil/PROJECTS/Mol_Feturizer/New_Systems/rnas/3TD1

>  <Rbt.Executable>
rbdock ($Id: //depot/dev/client3/rdock/2013.1/src/exe/rbdock.cxx#4 $)

>  <Rbt.Library>
libRbt.so (2013.1, Build901 2013/11/27)

>  <Rbt.Parameter_File>
/export/apps/rDock/src/rDock_2013.1_src/data/scripts/dock_solv.prm

>  <Rbt.Receptor>
prm/blind_docking_100.prm

>  <SCORE>
33.6728

>  <SCORE.INTER>
14.3245

>  <SCORE.INTER.CONST>
1

>  <SCORE.INTER.POLAR>
0

>  <SCORE.INTER.ROT>
6

>  <SCORE.INTER.SOLV>
31.9268

>  <SCORE.INTER.VDW>
-8.69259

>  <SCORE.INTER.norm>
0.42131

>  <SCORE.INTRA>
8.20954

>  <SCORE.INTRA.DIHEDRAL>
-4.54001

>  <SCORE.INTRA.DIHEDRAL.0>
19.5869

>  <SCORE.INTRA.POLAR>
0

>  <SCORE.INTRA.POLAR.0>
0

>  <SCORE.INTRA.REPUL>
0

>  <SCORE.INTRA.REPUL.0>
0

>  <SCORE.INTRA.SOLV>
-0.491766

>  <SCORE.INTRA.SOLV.lig_0>
-70.101

>  <SCORE.INTRA.VDW>
10.7254

>  <SCORE.INTRA.VDW.0>
-3.39718

>  <SCORE.INTRA.norm>
0.241457

>  <SCORE.RESTR>
11.1387

>  <SCORE.RESTR.CAVITY>
11.1387

>  <SCORE.RESTR.norm>
0.327608

>  <SCORE.SYSTEM>
0

>  <SCORE.SYSTEM.CONST>
0

>  <SCORE.SYSTEM.DIHEDRAL>
0

>  <SCORE.SYSTEM.SOLV>
0

>  <SCORE.SYSTEM.norm>
0

>  <SCORE.heavy>
34

>  <SCORE.norm>
0.990375

>  <RMSD>
9.276

$$$$
ligand
 OpenBabel11021811483D
libRbt.so/2013.1/901 2013/11/27
 34 36  0  0  0  0  0  0  0  0999 V2000
    8.9366   10.0673    2.1361 C   0  0  2  0  0  0  0  0  0  0  0  0
    7.8977    9.1434    1.7761 O   0  0  0  0  0  0  0  0  0  0  0  0
    6.6223    5.2339    2.9383 C   0  0  2  0  0  0  0  0  0  0  0  0
    6.6272    3.8735    3.4650 N   0  0  0  0  0  0  0  0  0  0  0  0
    6.1563    6.6857    6.4288 C   0  0  2  0  0  0  0  0  0  0  0  0
    9.0325   11.1534    1.0058 C   0  0  2  0  0  0  0  0  0  0  0  0
    7.7670   11.8910    0.8694 N   0  0  0  0  0  0  0  0  0  0  0  0
    7.7623    5.3259    1.8698 C   0  0  0  0  0  0  0  0  0  0  0  0
    6.1309    5.4114    7.3466 C   0  0  2  0  0  0  0  0  0  0  0  0
    7.1106    4.4837    6.9102 O   0  0  0  0  0  0  0  0  0  0  0  0
    9.3887   10.4689   -0.3317 C   0  0  1  0  0  0  0  0  0  0  0  0
    9.4859   11.4582   -1.3693 O   0  0  0  0  0  0  0  0  0  0  0  0
    7.7427    6.7795    1.2870 C   0  0  2  0  0  0  0  0  0  0  0  0
    8.8053    6.9314    0.2725 N   0  0  0  0  0  0  0  0  0  0  0  0
    4.6867    4.7782    7.2919 C   0  0  1  0  0  0  0  0  0  0  0  0
    4.6143    3.5500    8.1389 N   0  0  0  0  0  0  0  0  0  0  0  0
   10.7167    9.6945   -0.1577 C   0  0  2  0  0  0  0  0  0  0  0  0
   11.0562    9.0420   -1.3937 O   0  0  0  0  0  0  0  0  0  0  0  0
    7.9635    7.8289    2.4063 C   0  0  2  0  0  0  0  0  0  0  0  0
    3.6457    5.8415    7.7832 C   0  0  1  0  0  0  0  0  0  0  0  0
    3.9288    6.1994    9.1333 O   0  0  0  0  0  0  0  0  0  0  0  0
   10.5636    8.6363    1.0006 C   0  0  2  0  0  0  0  0  0  0  0  0
   10.1959    9.3169    2.2575 O   0  0  0  0  0  0  0  0  0  0  0  0
    6.8592    7.6731    3.4816 C   0  0  2  0  0  0  0  0  0  0  0  0
    7.0928    8.6333    4.5067 O   0  0  0  0  0  0  0  0  0  0  0  0
    3.7593    7.1073    6.8764 C   0  0  0  0  0  0  0  0  0  0  0  0
    5.1418    7.6429    6.8910 O   0  0  0  0  0  0  0  0  0  0  0  0
   11.8758    7.8444    1.2389 C   0  0  2  0  0  0  0  0  0  0  0  0
   11.6123    6.7369    2.0964 O   0  0  0  0  0  0  0  0  0  0  0  0
    6.8874    6.2620    4.1137 C   0  0  1  0  0  0  0  0  0  0  0  0
    5.8226    6.2159    5.0926 O   0  0  0  0  0  0  0  0  0  0  0  0
   12.9380    8.7078    1.8992 C   0  0  0  0  0  0  0  0  0  0  0  0
    2.2186    5.3095    7.7360 C   0  0  0  0  0  0  0  0  0  0  0  0
    5.1615    2.4204    7.3634 C   0  0  0  0  0  0  0  0  0  0  0  0
  1  2  1  6  0  0  0
  1  6  1  0  0  0  0
  1 23  1  0  0  0  0
  3  4  1  1  0  0  0
  3  8  1  0  0  0  0
  3 30  1  0  0  0  0
  5  9  1  0  0  0  0
  5 27  1  0  0  0  0
  5 31  1  6  0  0  0
  6  7  1  6  0  0  0
  6 11  1  0  0  0  0
  8 13  1  0  0  0  0
  9 10  1  6  0  0  0
  9 15  1  0  0  0  0
 11 12  1  6  0  0  0
 11 17  1  0  0  0  0
 13 14  1  6  0  0  0
 13 19  1  0  0  0  0
 15 16  1  1  0  0  0
 15 20  1  0  0  0  0
 16 34  1  0  0  0  0
 17 18  1  6  0  0  0
 17 22  1  0  0  0  0
 19  2  1  6  0  0  0
 19 24  1  0  0  0  0
 20 21  1  1  0  0  0
 20 26  1  0  0  0  0
 20 33  1  0  0  0  0
 22 23  1  1  0  0  0
 22 28  1  0  0  0  0
 24 25  1  1  0  0  0
 24 30  1  0  0  0  0
 26 27  1  0  0  0  0
 28 29  1  1  0  0  0
 28 32  1  0  0  0  0
 30 31  1  1  0  0  0
M  END
>  <CHROM.1>
158.56014864,-133.49160875,-81.89749373,-168.56396663,157.02118833,-111.27467576
7.54650085,7.30991634,3.61530119,0.75500636,0.69066709,-0.41730114

>  <Name>
ligand

>  <RI>
0

>  <Rbt.Current_Directory>
/home/itssahil/PROJECTS/Mol_Feturizer/New_Systems/rnas/3TD1

>  <Rbt.Executable>
rbdock ($Id: //depot/dev/client3/rdock/2013.1/src/exe/rbdock.cxx#4 $)

>  <Rbt.Library>
libRbt.so (2013.1, Build901 2013/11/27)

>  <Rbt.Parameter_File>
/export/apps/rDock/src/rDock_2013.1_src/data/scripts/dock_solv.prm

>  <Rbt.Receptor>
prm/blind_docking_40.prm

>  <SCORE>
29.6709

>  <SCORE.INTER>
15.6908

>  <SCORE.INTER.CONST>
1

>  <SCORE.INTER.POLAR>
0

>  <SCORE.INTER.ROT>
6

>  <SCORE.INTER.SOLV>
26.1057

>  <SCORE.INTER.VDW>
-5.84134

>  <SCORE.INTER.norm>
0.461495

>  <SCORE.INTRA>
3.16646

>  <SCORE.INTRA.DIHEDRAL>
-1.22663

>  <SCORE.INTRA.DIHEDRAL.0>
19.5869

>  <SCORE.INTRA.POLAR>
0

>  <SCORE.INTRA.POLAR.0>
0

>  <SCORE.INTRA.REPUL>
0

>  <SCORE.INTRA.REPUL.0>
0

>  <SCORE.INTRA.SOLV>
2.44315

>  <SCORE.INTRA.SOLV.lig_0>
-70.101

>  <SCORE.INTRA.VDW>
2.5582

>  <SCORE.INTRA.VDW.0>
-3.39718

>  <SCORE.INTRA.norm>
0.0931312

>  <SCORE.RESTR>
10.8136

>  <SCORE.RESTR.CAVITY>
10.8136

>  <SCORE.RESTR.norm>
0.318046

>  <SCORE.SYSTEM>
0

>  <SCORE.SYSTEM.CONST>
0

>  <SCORE.SYSTEM.DIHEDRAL>
0

>  <SCORE.SYSTEM.SOLV>
0

>  <SCORE.SYSTEM.norm>
0

>  <SCORE.heavy>
34

>  <SCORE.norm>
0.872672

>  <RMSD>
9.287

$$$$
ligand
 OpenBabel11021811483D
libRbt.so/2013.1/901 2013/11/27
 34 36  0  0  0  0  0  0  0  0999 V2000
    9.8297    5.5207    0.8810 C   0  0  2  0  0  0  0  0  0  0  0  0
   11.1331    5.7415    0.3198 O   0  0  0  0  0  0  0  0  0  0  0  0
   15.1341    5.4302    1.7885 C   0  0  2  0  0  0  0  0  0  0  0  0
   16.3099    5.5472    2.6439 N   0  0  0  0  0  0  0  0  0  0  0  0
   13.5779    2.1275    2.9518 C   0  0  2  0  0  0  0  0  0  0  0  0
    8.7836    5.5673   -0.2895 C   0  0  2  0  0  0  0  0  0  0  0  0
    9.0554    4.5202   -1.2864 N   0  0  0  0  0  0  0  0  0  0  0  0
   14.5561    6.8708    1.5879 C   0  0  0  0  0  0  0  0  0  0  0  0
   14.2022    1.2711    4.1111 C   0  0  2  0  0  0  0  0  0  0  0  0
   14.4130    2.0860    5.2523 O   0  0  0  0  0  0  0  0  0  0  0  0
    8.8298    6.9570   -0.9609 C   0  0  1  0  0  0  0  0  0  0  0  0
    7.8691    7.0093   -2.0282 O   0  0  0  0  0  0  0  0  0  0  0  0
   13.3073    6.7489    0.6507 C   0  0  2  0  0  0  0  0  0  0  0  0
   12.7110    8.0817    0.4277 N   0  0  0  0  0  0  0  0  0  0  0  0
   15.5586    0.6456    3.6030 C   0  0  1  0  0  0  0  0  0  0  0  0
   16.2021   -0.1683    4.6776 N   0  0  0  0  0  0  0  0  0  0  0  0
    8.5500    8.0380    0.1099 C   0  0  2  0  0  0  0  0  0  0  0  0
    8.6004    9.3399   -0.4992 O   0  0  0  0  0  0  0  0  0  0  0  0
   12.2358    5.8172    1.2725 C   0  0  2  0  0  0  0  0  0  0  0  0
   15.2698   -0.2431    2.3450 C   0  0  1  0  0  0  0  0  0  0  0  0
   14.3906   -1.3062    2.7024 O   0  0  0  0  0  0  0  0  0  0  0  0
    9.6179    7.9275    1.2641 C   0  0  2  0  0  0  0  0  0  0  0  0
    9.5690    6.5811    1.8666 O   0  0  0  0  0  0  0  0  0  0  0  0
   12.8529    4.4179    1.5194 C   0  0  2  0  0  0  0  0  0  0  0  0
   11.8575    3.5861    2.1068 O   0  0  0  0  0  0  0  0  0  0  0  0
   14.5940    0.6436    1.2521 C   0  0  0  0  0  0  0  0  0  0  0  0
   13.3586    1.2745    1.7758 O   0  0  0  0  0  0  0  0  0  0  0  0
    9.3721    8.9732    2.3830 C   0  0  2  0  0  0  0  0  0  0  0  0
    8.0276    8.8675    2.8440 O   0  0  0  0  0  0  0  0  0  0  0  0
   14.0583    4.4992    2.4847 C   0  0  1  0  0  0  0  0  0  0  0  0
   14.5638    3.1526    2.6442 O   0  0  0  0  0  0  0  0  0  0  0  0
    9.5863   10.3912    1.8799 C   0  0  0  0  0  0  0  0  0  0  0  0
   16.5408   -0.8652    1.7799 C   0  0  0  0  0  0  0  0  0  0  0  0
   17.6477   -0.2489    4.3939 C   0  0  0  0  0  0  0  0  0  0  0  0
  1  2  1  6  0  0  0
  1  6  1  0  0  0  0
  1 23  1  0  0  0  0
  3  4  1  1  0  0  0
  3  8  1  0  0  0  0
  3 30  1  0  0  0  0
  5  9  1  0  0  0  0
  5 27  1  0  0  0  0
  5 31  1  6  0  0  0
  6  7  1  6  0  0  0
  6 11  1  0  0  0  0
  8 13  1  0  0  0  0
  9 10  1  1  0  0  0
  9 15  1  0  0  0  0
 11 12  1  6  0  0  0
 11 17  1  0  0  0  0
 13 14  1  1  0  0  0
 13 19  1  0  0  0  0
 15 16  1  1  0  0  0
 15 20  1  0  0  0  0
 16 34  1  0  0  0  0
 17 18  1  6  0  0  0
 17 22  1  0  0  0  0
 19  2  1  6  0  0  0
 19 24  1  0  0  0  0
 20 21  1  1  0  0  0
 20 26  1  0  0  0  0
 20 33  1  0  0  0  0
 22 23  1  1  0  0  0
 22 28  1  0  0  0  0
 24 25  1  1  0  0  0
 24 30  1  0  0  0  0
 26 27  1  0  0  0  0
 28 29  1  6  0  0  0
 28 32  1  0  0  0  0
 30 31  1  6  0  0  0
M  END
>  <CHROM.1>
176.29692553,-150.55765270,-156.58942267,53.41635933,-164.97514778,-134.74052953
12.39231267,4.54590360,1.72666875,2.39827333,-0.55489379,0.16542324

>  <Name>
ligand

>  <RI>
0

>  <Rbt.Current_Directory>
/home/itssahil/PROJECTS/Mol_Feturizer/New_Systems/rnas/3TD1

>  <Rbt.Executable>
rbdock ($Id: //depot/dev/client3/rdock/2013.1/src/exe/rbdock.cxx#4 $)

>  <Rbt.Library>
libRbt.so (2013.1, Build901 2013/11/27)

>  <Rbt.Parameter_File>
/export/apps/rDock/src/rDock_2013.1_src/data/scripts/dock_solv.prm

>  <Rbt.Receptor>
prm/blind_docking_20.prm

>  <SCORE>
26.2031

>  <SCORE.INTER>
14.9553

>  <SCORE.INTER.CONST>
1

>  <SCORE.INTER.POLAR>
0

>  <SCORE.INTER.ROT>
6

>  <SCORE.INTER.SOLV>
28.1909

>  <SCORE.INTER.VDW>
-7.02681

>  <SCORE.INTER.norm>
0.439861

>  <SCORE.INTRA>
4.61133

>  <SCORE.INTRA.DIHEDRAL>
-8.20245

>  <SCORE.INTRA.DIHEDRAL.0>
19.5869

>  <SCORE.INTRA.POLAR>
0

>  <SCORE.INTRA.POLAR.0>
0

>  <SCORE.INTRA.REPUL>
0

>  <SCORE.INTRA.REPUL.0>
0

>  <SCORE.INTRA.SOLV>
-1.28581

>  <SCORE.INTRA.SOLV.lig_0>
-70.101

>  <SCORE.INTRA.VDW>
9.35546

>  <SCORE.INTRA.VDW.0>
-3.39718

>  <SCORE.INTRA.norm>
0.135627

>  <SCORE.RESTR>
6.63651

>  <SCORE.RESTR.CAVITY>
6.63651

>  <SCORE.RESTR.norm>
0.195192

>  <SCORE.SYSTEM>
0

>  <SCORE.SYSTEM.CONST>
0

>  <SCORE.SYSTEM.DIHEDRAL>
0

>  <SCORE.SYSTEM.SOLV>
0

>  <SCORE.SYSTEM.norm>
0

>  <SCORE.heavy>
34

>  <SCORE.norm>
0.77068

>  <RMSD>
9.292

$$$$
ligand
 OpenBabel11021811483D
libRbt.so/2013.1/901 2013/11/27
 34 36  0  0  0  0  0  0  0  0999 V2000
    8.1508    7.5583    5.1864 C   0  0  2  0  0  0  0  0  0  0  0  0
    8.2982    6.1373    5.3329 O   0  0  0  0  0  0  0  0  0  0  0  0
    5.9442    3.4637    7.6934 C   0  0  2  0  0  0  0  0  0  0  0  0
    5.3687    2.7639    8.8368 N   0  0  0  0  0  0  0  0  0  0  0  0
    3.5522    6.4649    7.8537 C   0  0  2  0  0  0  0  0  0  0  0  0
    8.6441    7.9512    3.7480 C   0  0  2  0  0  0  0  0  0  0  0  0
    7.8445    7.2809    2.7109 N   0  0  0  0  0  0  0  0  0  0  0  0
    7.5000    3.3273    7.7961 C   0  0  0  0  0  0  0  0  0  0  0  0
    2.1906    6.2395    8.6037 C   0  0  2  0  0  0  0  0  0  0  0  0
    2.4237    5.5809    9.8377 O   0  0  0  0  0  0  0  0  0  0  0  0
   10.1317    7.5663    3.5953 C   0  0  1  0  0  0  0  0  0  0  0  0
   10.5920    7.9303    2.2837 O   0  0  0  0  0  0  0  0  0  0  0  0
    8.1178    4.0584    6.5564 C   0  0  2  0  0  0  0  0  0  0  0  0
    9.5915    3.9694    6.6001 N   0  0  0  0  0  0  0  0  0  0  0  0
    1.2388    5.3877    7.6775 C   0  0  1  0  0  0  0  0  0  0  0  0
   -0.0682    5.1316    8.3539 N   0  0  0  0  0  0  0  0  0  0  0  0
   10.9469    8.2766    4.7019 C   0  0  2  0  0  0  0  0  0  0  0  0
   12.3345    7.9188    4.5789 O   0  0  0  0  0  0  0  0  0  0  0  0
    7.7056    5.5525    6.5312 C   0  0  2  0  0  0  0  0  0  0  0  0
    1.0144    6.1585    6.3318 C   0  0  1  0  0  0  0  0  0  0  0  0
    0.3834    7.4086    6.5964 O   0  0  0  0  0  0  0  0  0  0  0  0
   10.3930    7.8585    6.1172 C   0  0  2  0  0  0  0  0  0  0  0  0
    8.9642    8.2131    6.2223 O   0  0  0  0  0  0  0  0  0  0  0  0
    6.1604    5.6584    6.4945 C   0  0  2  0  0  0  0  0  0  0  0  0
    5.8055    7.0373    6.4904 O   0  0  0  0  0  0  0  0  0  0  0  0
    2.4027    6.4097    5.6630 C   0  0  0  0  0  0  0  0  0  0  0  0
    3.3018    7.1518    6.5791 O   0  0  0  0  0  0  0  0  0  0  0  0
   11.1575    8.5615    7.2693 C   0  0  2  0  0  0  0  0  0  0  0  0
   12.5445    8.2461    7.1800 O   0  0  0  0  0  0  0  0  0  0  0  0
    5.5231    4.9900    7.7348 C   0  0  1  0  0  0  0  0  0  0  0  0
    4.0892    5.1359    7.6037 O   0  0  0  0  0  0  0  0  0  0  0  0
   10.6587    8.1065    8.6308 C   0  0  0  0  0  0  0  0  0  0  0  0
    0.1205    5.3843    5.3709 C   0  0  0  0  0  0  0  0  0  0  0  0
   -0.5605    6.4076    8.9072 C   0  0  0  0  0  0  0  0  0  0  0  0
  1  2  1  1  0  0  0
  1  6  1  0  0  0  0
  1 23  1  0  0  0  0
  3  4  1  1  0  0  0
  3  8  1  0  0  0  0
  3 30  1  0  0  0  0
  5  9  1  0  0  0  0
  5 27  1  0  0  0  0
  5 31  1  6  0  0  0
  6  7  1  6  0  0  0
  6 11  1  0  0  0  0
  8 13  1  0  0  0  0
  9 10  1  1  0  0  0
  9 15  1  0  0  0  0
 11 12  1  6  0  0  0
 11 17  1  0  0  0  0
 13 14  1  1  0  0  0
 13 19  1  0  0  0  0
 15 16  1  1  0  0  0
 15 20  1  0  0  0  0
 16 34  1  0  0  0  0
 17 18  1  1  0  0  0
 17 22  1  0  0  0  0
 19  2  1  6  0  0  0
 19 24  1  0  0  0  0
 20 21  1  1  0  0  0
 20 26  1  0  0  0  0
 20 33  1  0  0  0  0
 22 23  1  6  0  0  0
 22 28  1  0  0  0  0
 24 25  1  1  0  0  0
 24 30  1  0  0  0  0
 26 27  1  0  0  0  0
 28 29  1  1  0  0  0
 28 32  1  0  0  0  0
 30 31  1  6  0  0  0
M  END
>  <CHROM.1>
-171.12603554,-173.90907763,47.74965670,-57.97573109,169.89491606,-142.10487085
6.25283681,6.36325324,6.52043689,0.30708606,-0.00878421,-0.93310512

>  <Name>
ligand

>  <RI>
0

>  <Rbt.Current_Directory>
/home/itssahil/PROJECTS/Mol_Feturizer/New_Systems/rnas/3TD1

>  <Rbt.Executable>
rbdock ($Id: //depot/dev/client3/rdock/2013.1/src/exe/rbdock.cxx#4 $)

>  <Rbt.Library>
libRbt.so (2013.1, Build901 2013/11/27)

>  <Rbt.Parameter_File>
/export/apps/rDock/src/rDock_2013.1_src/data/scripts/dock_solv.prm

>  <Rbt.Receptor>
prm/pocket_docking_4.prm

>  <SCORE>
-7.34398

>  <SCORE.INTER>
-6.52697

>  <SCORE.INTER.CONST>
1

>  <SCORE.INTER.POLAR>
0

>  <SCORE.INTER.ROT>
6

>  <SCORE.INTER.SOLV>
13.3874

>  <SCORE.INTER.VDW>
-16.4138

>  <SCORE.INTER.norm>
-0.19197

>  <SCORE.INTRA>
-0.817011

>  <SCORE.INTRA.DIHEDRAL>
-13.2995

>  <SCORE.INTRA.DIHEDRAL.0>
19.5869

>  <SCORE.INTRA.POLAR>
0

>  <SCORE.INTRA.POLAR.0>
0

>  <SCORE.INTRA.REPUL>
0

>  <SCORE.INTRA.REPUL.0>
0

>  <SCORE.INTRA.SOLV>
-2.85657

>  <SCORE.INTRA.SOLV.lig_0>
-70.101

>  <SCORE.INTRA.VDW>
7.26101

>  <SCORE.INTRA.VDW.0>
-3.39718

>  <SCORE.INTRA.norm>
-0.0240297

>  <SCORE.RESTR>
0

>  <SCORE.RESTR.CAVITY>
0

>  <SCORE.RESTR.norm>
0

>  <SCORE.SYSTEM>
0

>  <SCORE.SYSTEM.CONST>
0

>  <SCORE.SYSTEM.DIHEDRAL>
0

>  <SCORE.SYSTEM.SOLV>
0

>  <SCORE.SYSTEM.norm>
0

>  <SCORE.heavy>
34

>  <SCORE.norm>
-0.215999

>  <RMSD>
9.302

$$$$
ligand
 OpenBabel11021811483D
libRbt.so/2013.1/901 2013/11/27
 34 36  0  0  0  0  0  0  0  0999 V2000
    9.2254    5.0393   10.6590 C   0  0  2  0  0  0  0  0  0  0  0  0
    8.3738    5.0551    9.5027 O   0  0  0  0  0  0  0  0  0  0  0  0
    4.5785    3.1952    8.8719 C   0  0  2  0  0  0  0  0  0  0  0  0
    3.2049    2.7456    9.0699 N   0  0  0  0  0  0  0  0  0  0  0  0
    3.5308    6.6378    7.5600 C   0  0  2  0  0  0  0  0  0  0  0  0
    8.9540    6.3511   11.4790 C   0  0  2  0  0  0  0  0  0  0  0  0
    7.5527    6.4201   11.9216 N   0  0  0  0  0  0  0  0  0  0  0  0
    5.4084    2.7237   10.1123 C   0  0  0  0  0  0  0  0  0  0  0  0
    2.2199    6.7732    8.4145 C   0  0  2  0  0  0  0  0  0  0  0  0
    2.4739    6.3777    9.7524 O   0  0  0  0  0  0  0  0  0  0  0  0
    9.2902    7.5788   10.6049 C   0  0  1  0  0  0  0  0  0  0  0  0
    9.0516    8.7828   11.3519 O   0  0  0  0  0  0  0  0  0  0  0  0
    6.8883    3.1857    9.8896 C   0  0  2  0  0  0  0  0  0  0  0  0
    7.7241    2.7734   11.0355 N   0  0  0  0  0  0  0  0  0  0  0  0
    1.0970    5.8771    7.7621 C   0  0  1  0  0  0  0  0  0  0  0  0
   -0.1700    5.9590    8.5492 N   0  0  0  0  0  0  0  0  0  0  0  0
   10.7643    7.4762   10.1465 C   0  0  2  0  0  0  0  0  0  0  0  0
   11.0893    8.6086    9.3217 O   0  0  0  0  0  0  0  0  0  0  0  0
    6.9715    4.7259    9.7360 C   0  0  2  0  0  0  0  0  0  0  0  0
    0.8558    6.3551    6.2894 C   0  0  1  0  0  0  0  0  0  0  0  0
    0.4060    7.7074    6.2933 O   0  0  0  0  0  0  0  0  0  0  0  0
   10.9775    6.1335    9.3487 C   0  0  2  0  0  0  0  0  0  0  0  0
   10.6216    4.9815   10.1998 O   0  0  0  0  0  0  0  0  0  0  0  0
    6.0908    5.1713    8.5418 C   0  0  2  0  0  0  0  0  0  0  0  0
    6.1682    6.5887    8.4316 O   0  0  0  0  0  0  0  0  0  0  0  0
    2.2031    6.2588    5.5065 C   0  0  0  0  0  0  0  0  0  0  0  0
    3.2596    7.0540    6.1772 O   0  0  0  0  0  0  0  0  0  0  0  0
   12.4476    5.9628    8.8843 C   0  0  2  0  0  0  0  0  0  0  0  0
   12.8422    7.1053    8.1292 O   0  0  0  0  0  0  0  0  0  0  0  0
    4.6117    4.7746    8.7574 C   0  0  1  0  0  0  0  0  0  0  0  0
    3.8792    5.2254    7.5936 O   0  0  0  0  0  0  0  0  0  0  0  0
   12.6169    4.7359    8.0035 C   0  0  0  0  0  0  0  0  0  0  0  0
   -0.2034    5.5183    5.5824 C   0  0  0  0  0  0  0  0  0  0  0  0
   -0.2537    4.7681    9.4162 C   0  0  0  0  0  0  0  0  0  0  0  0
  1  2  1  6  0  0  0
  1  6  1  0  0  0  0
  1 23  1  0  0  0  0
  3  4  1  1  0  0  0
  3  8  1  0  0  0  0
  3 30  1  0  0  0  0
  5  9  1  0  0  0  0
  5 27  1  0  0  0  0
  5 31  1  6  0  0  0
  6  7  1  6  0  0  0
  6 11  1  0  0  0  0
  8 13  1  0  0  0  0
  9 10  1  1  0  0  0
  9 15  1  0  0  0  0
 11 12  1  1  0  0  0
 11 17  1  0  0  0  0
 13 14  1  1  0  0  0
 13 19  1  0  0  0  0
 15 16  1  1  0  0  0
 15 20  1  0  0  0  0
 16 34  1  0  0  0  0
 17 18  1  6  0  0  0
 17 22  1  0  0  0  0
 19  2  1  6  0  0  0
 19 24  1  0  0  0  0
 20 21  1  1  0  0  0
 20 26  1  0  0  0  0
 20 33  1  0  0  0  0
 22 23  1  1  0  0  0
 22 28  1  0  0  0  0
 24 25  1  1  0  0  0
 24 30  1  0  0  0  0
 26 27  1  0  0  0  0
 28 29  1  6  0  0  0
 28 32  1  0  0  0  0
 30 31  1  6  0  0  0
M  END
>  <CHROM.1>
-76.71051570,-77.44776005,-99.37851185,-55.01454891,164.29493399,-82.81869188
6.03618033,5.76184777,8.88975102,0.08260090,0.22574985,2.59683191

>  <Name>
ligand

>  <RI>
0

>  <Rbt.Current_Directory>
/home/itssahil/PROJECTS/Mol_Feturizer/New_Systems/rnas/3TD1

>  <Rbt.Executable>
rbdock ($Id: //depot/dev/client3/rdock/2013.1/src/exe/rbdock.cxx#4 $)

>  <Rbt.Library>
libRbt.so (2013.1, Build901 2013/11/27)

>  <Rbt.Parameter_File>
/export/apps/rDock/src/rDock_2013.1_src/data/scripts/dock_solv.prm

>  <Rbt.Receptor>
prm/pocket_docking_5.prm

>  <SCORE>
-9.78295

>  <SCORE.INTER>
-5.98774

>  <SCORE.INTER.CONST>
1

>  <SCORE.INTER.POLAR>
0

>  <SCORE.INTER.ROT>
6

>  <SCORE.INTER.SOLV>
16.4302

>  <SCORE.INTER.VDW>
-17.0686

>  <SCORE.INTER.norm>
-0.17611

>  <SCORE.INTRA>
-3.79521

>  <SCORE.INTRA.DIHEDRAL>
-12.439

>  <SCORE.INTRA.DIHEDRAL.0>
19.5869

>  <SCORE.INTRA.POLAR>
0

>  <SCORE.INTRA.POLAR.0>
0

>  <SCORE.INTRA.REPUL>
0

>  <SCORE.INTRA.REPUL.0>
0

>  <SCORE.INTRA.SOLV>
2.14588

>  <SCORE.INTRA.SOLV.lig_0>
-70.101

>  <SCORE.INTRA.VDW>
1.35133

>  <SCORE.INTRA.VDW.0>
-3.39718

>  <SCORE.INTRA.norm>
-0.111624

>  <SCORE.RESTR>
0

>  <SCORE.RESTR.CAVITY>
0

>  <SCORE.RESTR.norm>
0

>  <SCORE.SYSTEM>
0

>  <SCORE.SYSTEM.CONST>
0

>  <SCORE.SYSTEM.DIHEDRAL>
0

>  <SCORE.SYSTEM.SOLV>
0

>  <SCORE.SYSTEM.norm>
0

>  <SCORE.heavy>
34

>  <SCORE.norm>
-0.287734

>  <RMSD>
9.302

$$$$
ligand
 OpenBabel11021811483D
libRbt.so/2013.1/901 2013/11/27
 34 36  0  0  0  0  0  0  0  0999 V2000
    7.6487    6.8879    1.3407 C   0  0  2  0  0  0  0  0  0  0  0  0
    7.7924    6.0716    2.5135 O   0  0  0  0  0  0  0  0  0  0  0  0
    7.0523    6.4271    6.7073 C   0  0  2  0  0  0  0  0  0  0  0  0
    6.8363    6.9944    8.0338 N   0  0  0  0  0  0  0  0  0  0  0  0
    4.0052    6.9440    7.3658 C   0  0  2  0  0  0  0  0  0  0  0  0
    7.9998    6.0056    0.0899 C   0  0  2  0  0  0  0  0  0  0  0  0
    7.0916    4.8534   -0.0189 N   0  0  0  0  0  0  0  0  0  0  0  0
    8.4070    6.9973    6.1695 C   0  0  0  0  0  0  0  0  0  0  0  0
    3.7380    5.8001    8.4085 C   0  0  2  0  0  0  0  0  0  0  0  0
    4.9645    5.1978    8.7877 O   0  0  0  0  0  0  0  0  0  0  0  0
    9.4596    5.5152    0.2040 C   0  0  1  0  0  0  0  0  0  0  0  0
    9.7902    4.7134   -0.9417 O   0  0  0  0  0  0  0  0  0  0  0  0
    8.6512    6.3706    4.7550 C   0  0  2  0  0  0  0  0  0  0  0  0
    9.9181    6.8776    4.1898 N   0  0  0  0  0  0  0  0  0  0  0  0
    2.7641    4.7422    7.7591 C   0  0  1  0  0  0  0  0  0  0  0  0
    2.4901    3.6217    8.7082 N   0  0  0  0  0  0  0  0  0  0  0  0
   10.3908    6.7447    0.3260 C   0  0  2  0  0  0  0  0  0  0  0  0
   11.7544    6.3029    0.4440 O   0  0  0  0  0  0  0  0  0  0  0  0
    7.4933    6.7207    3.7857 C   0  0  2  0  0  0  0  0  0  0  0  0
    1.4282    5.4576    7.3600 C   0  0  1  0  0  0  0  0  0  0  0  0
    0.8032    5.9879    8.5259 O   0  0  0  0  0  0  0  0  0  0  0  0
    9.9768    7.5985    1.5846 C   0  0  2  0  0  0  0  0  0  0  0  0
    8.5704    8.0281    1.4598 O   0  0  0  0  0  0  0  0  0  0  0  0
    6.1571    6.2014    4.3730 C   0  0  2  0  0  0  0  0  0  0  0  0
    5.1075    6.5499    3.4762 O   0  0  0  0  0  0  0  0  0  0  0  0
    1.7608    6.6220    6.3747 C   0  0  0  0  0  0  0  0  0  0  0  0
    2.7301    7.5652    6.9823 O   0  0  0  0  0  0  0  0  0  0  0  0
   10.8620    8.8621    1.7441 C   0  0  2  0  0  0  0  0  0  0  0  0
   10.5470    9.5098    2.9740 O   0  0  0  0  0  0  0  0  0  0  0  0
    5.8622    6.8435    5.7486 C   0  0  1  0  0  0  0  0  0  0  0  0
    4.6066    6.2929    6.2118 O   0  0  0  0  0  0  0  0  0  0  0  0
   10.6284    9.8545    0.6170 C   0  0  0  0  0  0  0  0  0  0  0  0
    0.4415    4.5013    6.7015 C   0  0  0  0  0  0  0  0  0  0  0  0
    3.3858    2.4992    8.3696 C   0  0  0  0  0  0  0  0  0  0  0  0
  1  2  1  1  0  0  0
  1  6  1  0  0  0  0
  1 23  1  0  0  0  0
  3  4  1  1  0  0  0
  3  8  1  0  0  0  0
  3 30  1  0  0  0  0
  5  9  1  0  0  0  0
  5 27  1  0  0  0  0
  5 31  1  6  0  0  0
  6  7  1  1  0  0  0
  6 11  1  0  0  0  0
  8 13  1  0  0  0  0
  9 10  1  6  0  0  0
  9 15  1  0  0  0  0
 11 12  1  6  0  0  0
 11 17  1  0  0  0  0
 13 14  1  6  0  0  0
 13 19  1  0  0  0  0
 15 16  1  1  0  0  0
 15 20  1  0  0  0  0
 16 34  1  0  0  0  0
 17 18  1  1  0  0  0
 17 22  1  0  0  0  0
 19  2  1  6  0  0  0
 19 24  1  0  0  0  0
 20 21  1  1  0  0  0
 20 26  1  0  0  0  0
 20 33  1  0  0  0  0
 22 23  1  6  0  0  0
 22 28  1  0  0  0  0
 24 25  1  6  0  0  0
 24 30  1  0  0  0  0
 26 27  1  0  0  0  0
 28 29  1  1  0  0  0
 28 32  1  0  0  0  0
 30 31  1  1  0  0  0
M  END
>  <CHROM.1>
-179.43808741,-132.95892428,-97.67983375,-173.40006941,75.46192172,-126.81276981
6.49769401,6.36221183,4.43801597,0.60359895,-0.51540296,-1.93705812

>  <Name>
ligand

>  <RI>
0

>  <Rbt.Current_Directory>
/home/itssahil/PROJECTS/Mol_Feturizer/New_Systems/rnas/3TD1

>  <Rbt.Executable>
rbdock ($Id: //depot/dev/client3/rdock/2013.1/src/exe/rbdock.cxx#4 $)

>  <Rbt.Library>
libRbt.so (2013.1, Build901 2013/11/27)

>  <Rbt.Parameter_File>
/export/apps/rDock/src/rDock_2013.1_src/data/scripts/dock_solv.prm

>  <Rbt.Receptor>
prm/blind_docking_40.prm

>  <SCORE>
9.32801

>  <SCORE.INTER>
-0.00383268

>  <SCORE.INTER.CONST>
1

>  <SCORE.INTER.POLAR>
0

>  <SCORE.INTER.ROT>
6

>  <SCORE.INTER.SOLV>
22.184

>  <SCORE.INTER.VDW>
-14.9972

>  <SCORE.INTER.norm>
-0.000112726

>  <SCORE.INTRA>
-0.292142

>  <SCORE.INTRA.DIHEDRAL>
-4.06242

>  <SCORE.INTRA.DIHEDRAL.0>
19.5869

>  <SCORE.INTRA.POLAR>
0

>  <SCORE.INTRA.POLAR.0>
0

>  <SCORE.INTRA.REPUL>
0

>  <SCORE.INTRA.REPUL.0>
0

>  <SCORE.INTRA.SOLV>
2.56759

>  <SCORE.INTRA.SOLV.lig_0>
-70.101

>  <SCORE.INTRA.VDW>
0.455274

>  <SCORE.INTRA.VDW.0>
-3.39718

>  <SCORE.INTRA.norm>
-0.00859241

>  <SCORE.RESTR>
9.62399

>  <SCORE.RESTR.CAVITY>
9.62399

>  <SCORE.RESTR.norm>
0.283058

>  <SCORE.SYSTEM>
0

>  <SCORE.SYSTEM.CONST>
0

>  <SCORE.SYSTEM.DIHEDRAL>
0

>  <SCORE.SYSTEM.SOLV>
0

>  <SCORE.SYSTEM.norm>
0

>  <SCORE.heavy>
34

>  <SCORE.norm>
0.274353

>  <RMSD>
9.327

$$$$
ligand
 OpenBabel11021811483D
libRbt.so/2013.1/901 2013/11/27
 34 36  0  0  0  0  0  0  0  0999 V2000
    9.3986    4.9423    6.1732 C   0  0  2  0  0  0  0  0  0  0  0  0
    7.9759    4.7511    6.1291 O   0  0  0  0  0  0  0  0  0  0  0  0
    5.4216    2.9546    9.0462 C   0  0  2  0  0  0  0  0  0  0  0  0
    4.7754    2.6348   10.3144 N   0  0  0  0  0  0  0  0  0  0  0  0
    2.8056    4.6550    9.5779 C   0  0  2  0  0  0  0  0  0  0  0  0
    9.6787    6.3551    6.7994 C   0  0  2  0  0  0  0  0  0  0  0  0
    9.1445    6.4450    8.1671 N   0  0  0  0  0  0  0  0  0  0  0  0
    6.9650    2.8011    9.2558 C   0  0  0  0  0  0  0  0  0  0  0  0
    1.4074    4.0930    9.1346 C   0  0  2  0  0  0  0  0  0  0  0  0
    1.5405    2.7443    8.7175 O   0  0  0  0  0  0  0  0  0  0  0  0
    9.0371    7.4437    5.9119 C   0  0  1  0  0  0  0  0  0  0  0  0
    9.2964    8.7400    6.4749 O   0  0  0  0  0  0  0  0  0  0  0  0
    7.6582    3.1216    7.8884 C   0  0  2  0  0  0  0  0  0  0  0  0
    9.1239    2.9993    8.0241 N   0  0  0  0  0  0  0  0  0  0  0  0
    0.8477    4.9947    7.9671 C   0  0  1  0  0  0  0  0  0  0  0  0
   -0.4778    4.4910    7.4975 N   0  0  0  0  0  0  0  0  0  0  0  0
    9.6089    7.3207    4.4796 C   0  0  2  0  0  0  0  0  0  0  0  0
    9.0119    8.3225    3.6378 O   0  0  0  0  0  0  0  0  0  0  0  0
    7.3159    4.5578    7.4161 C   0  0  2  0  0  0  0  0  0  0  0  0
    0.7199    6.4700    8.4797 C   0  0  1  0  0  0  0  0  0  0  0  0
   -0.2000    6.5203    9.5670 O   0  0  0  0  0  0  0  0  0  0  0  0
    9.3143    5.8788    3.9148 C   0  0  2  0  0  0  0  0  0  0  0  0
    9.9152    4.8607    4.7983 O   0  0  0  0  0  0  0  0  0  0  0  0
    5.7794    4.7008    7.2789 C   0  0  2  0  0  0  0  0  0  0  0  0
    5.4883    6.0309    6.8624 O   0  0  0  0  0  0  0  0  0  0  0  0
    2.1230    6.9532    8.9647 C   0  0  0  0  0  0  0  0  0  0  0  0
    2.6573    6.0507   10.0128 O   0  0  0  0  0  0  0  0  0  0  0  0
    9.8885    5.6875    2.4867 C   0  0  2  0  0  0  0  0  0  0  0  0
   11.2106    6.2171    2.4322 O   0  0  0  0  0  0  0  0  0  0  0  0
    5.0695    4.4411    8.6280 C   0  0  1  0  0  0  0  0  0  0  0  0
    3.6493    4.5913    8.3941 O   0  0  0  0  0  0  0  0  0  0  0  0
    9.0496    6.4095    1.4453 C   0  0  0  0  0  0  0  0  0  0  0  0
    0.2058    7.4098    7.3960 C   0  0  0  0  0  0  0  0  0  0  0  0
   -0.4512    4.4230    6.0239 C   0  0  0  0  0  0  0  0  0  0  0  0
  1  2  1  6  0  0  0
  1  6  1  0  0  0  0
  1 23  1  0  0  0  0
  3  4  1  1  0  0  0
  3  8  1  0  0  0  0
  3 30  1  0  0  0  0
  5  9  1  0  0  0  0
  5 27  1  0  0  0  0
  5 31  1  6  0  0  0
  6  7  1  1  0  0  0
  6 11  1  0  0  0  0
  8 13  1  0  0  0  0
  9 10  1  6  0  0  0
  9 15  1  0  0  0  0
 11 12  1  1  0  0  0
 11 17  1  0  0  0  0
 13 14  1  1  0  0  0
 13 19  1  0  0  0  0
 15 16  1  1  0  0  0
 15 20  1  0  0  0  0
 16 34  1  0  0  0  0
 17 18  1  6  0  0  0
 17 22  1  0  0  0  0
 19  2  1  6  0  0  0
 19 24  1  0  0  0  0
 20 21  1  1  0  0  0
 20 26  1  0  0  0  0
 20 33  1  0  0  0  0
 22 23  1  1  0  0  0
 22 28  1  0  0  0  0
 24 25  1  1  0  0  0
 24 30  1  0  0  0  0
 26 27  1  0  0  0  0
 28 29  1  1  0  0  0
 28 32  1  0  0  0  0
 30 31  1  6  0  0  0
M  END
>  <CHROM.1>
-70.36725212,-74.29503410,-132.09604557,44.50209492,75.95426332,-151.99095427
5.72344687,5.35391377,7.00900315,-0.42580703,-0.19860184,2.26340038

>  <Name>
ligand

>  <RI>
0

>  <Rbt.Current_Directory>
/home/itssahil/PROJECTS/Mol_Feturizer/New_Systems/rnas/3TD1

>  <Rbt.Executable>
rbdock ($Id: //depot/dev/client3/rdock/2013.1/src/exe/rbdock.cxx#4 $)

>  <Rbt.Library>
libRbt.so (2013.1, Build901 2013/11/27)

>  <Rbt.Parameter_File>
/export/apps/rDock/src/rDock_2013.1_src/data/scripts/dock_solv.prm

>  <Rbt.Receptor>
prm/pocket_docking_5.prm

>  <SCORE>
-6.35518

>  <SCORE.INTER>
-3.9019

>  <SCORE.INTER.CONST>
1

>  <SCORE.INTER.POLAR>
0

>  <SCORE.INTER.ROT>
6

>  <SCORE.INTER.SOLV>
16.2915

>  <SCORE.INTER.VDW>
-15.6318

>  <SCORE.INTER.norm>
-0.114762

>  <SCORE.INTRA>
-2.45328

>  <SCORE.INTRA.DIHEDRAL>
-11.7432

>  <SCORE.INTRA.DIHEDRAL.0>
19.5869

>  <SCORE.INTRA.POLAR>
0

>  <SCORE.INTRA.POLAR.0>
0

>  <SCORE.INTRA.REPUL>
0

>  <SCORE.INTRA.REPUL.0>
0

>  <SCORE.INTRA.SOLV>
2.81458

>  <SCORE.INTRA.SOLV.lig_0>
-70.101

>  <SCORE.INTRA.VDW>
2.011

>  <SCORE.INTRA.VDW.0>
-3.39718

>  <SCORE.INTRA.norm>
-0.0721553

>  <SCORE.RESTR>
0

>  <SCORE.RESTR.CAVITY>
0

>  <SCORE.RESTR.norm>
0

>  <SCORE.SYSTEM>
0

>  <SCORE.SYSTEM.CONST>
0

>  <SCORE.SYSTEM.DIHEDRAL>
0

>  <SCORE.SYSTEM.SOLV>
0

>  <SCORE.SYSTEM.norm>
0

>  <SCORE.heavy>
34

>  <SCORE.norm>
-0.186917

>  <RMSD>
9.327

$$$$
ligand
 OpenBabel11021811483D
libRbt.so/2013.1/901 2013/11/27
 34 36  0  0  0  0  0  0  0  0999 V2000
    8.7125   11.1999    1.0402 C   0  0  2  0  0  0  0  0  0  0  0  0
    8.1042   10.1540    0.2666 O   0  0  0  0  0  0  0  0  0  0  0  0
    8.0596    7.3521    3.4929 C   0  0  2  0  0  0  0  0  0  0  0  0
    7.7429    6.1894    4.3151 N   0  0  0  0  0  0  0  0  0  0  0  0
   10.5828    5.3310    1.4875 C   0  0  2  0  0  0  0  0  0  0  0  0
    8.8899   12.4516    0.1084 C   0  0  2  0  0  0  0  0  0  0  0  0
    7.5920   12.9266   -0.3956 N   0  0  0  0  0  0  0  0  0  0  0  0
    6.7078    8.0576    3.1398 C   0  0  0  0  0  0  0  0  0  0  0  0
   11.5198    4.3478    2.2764 C   0  0  2  0  0  0  0  0  0  0  0  0
   10.7675    3.6414    3.2489 O   0  0  0  0  0  0  0  0  0  0  0  0
    9.8097   12.0811   -1.0753 C   0  0  1  0  0  0  0  0  0  0  0  0
    9.9828   13.2246   -1.9281 O   0  0  0  0  0  0  0  0  0  0  0  0
    7.0485    9.3191    2.2765 C   0  0  2  0  0  0  0  0  0  0  0  0
    5.8068   10.0273    1.9049 N   0  0  0  0  0  0  0  0  0  0  0  0
   12.6755    5.1836    2.9512 C   0  0  1  0  0  0  0  0  0  0  0  0
   13.5883    4.2934    3.7293 N   0  0  0  0  0  0  0  0  0  0  0  0
   11.1619   11.5772   -0.5176 C   0  0  2  0  0  0  0  0  0  0  0  0
   12.0263   11.2177   -1.6096 O   0  0  0  0  0  0  0  0  0  0  0  0
    7.8045    8.9190    0.9838 C   0  0  2  0  0  0  0  0  0  0  0  0
   13.4735    5.9418    1.8358 C   0  0  1  0  0  0  0  0  0  0  0  0
   14.0624    4.9986    0.9444 O   0  0  0  0  0  0  0  0  0  0  0  0
   10.9164   10.3363    0.4228 C   0  0  2  0  0  0  0  0  0  0  0  0
   10.0126   10.7137    1.5269 O   0  0  0  0  0  0  0  0  0  0  0  0
    9.1051    8.1669    1.3613 C   0  0  2  0  0  0  0  0  0  0  0  0
    9.7722    7.7939    0.1599 O   0  0  0  0  0  0  0  0  0  0  0  0
   12.4827    6.8537    1.0456 C   0  0  0  0  0  0  0  0  0  0  0  0
   11.3695    6.0547    0.4793 O   0  0  0  0  0  0  0  0  0  0  0  0
   12.2381    9.8018    1.0337 C   0  0  2  0  0  0  0  0  0  0  0  0
   12.0085    9.3968    2.3807 O   0  0  0  0  0  0  0  0  0  0  0  0
    8.7971    6.8859    2.1710 C   0  0  1  0  0  0  0  0  0  0  0  0
   10.0673    6.2640    2.4779 O   0  0  0  0  0  0  0  0  0  0  0  0
   13.3217   10.8674    1.0415 C   0  0  0  0  0  0  0  0  0  0  0  0
   14.5964    6.7938    2.4144 C   0  0  0  0  0  0  0  0  0  0  0  0
   12.9288    3.9566    5.0055 C   0  0  0  0  0  0  0  0  0  0  0  0
  1  2  1  6  0  0  0
  1  6  1  0  0  0  0
  1 23  1  0  0  0  0
  3  4  1  1  0  0  0
  3  8  1  0  0  0  0
  3 30  1  0  0  0  0
  5  9  1  0  0  0  0
  5 27  1  0  0  0  0
  5 31  1  1  0  0  0
  6  7  1  6  0  0  0
  6 11  1  0  0  0  0
  8 13  1  0  0  0  0
  9 10  1  1  0  0  0
  9 15  1  0  0  0  0
 11 12  1  6  0  0  0
 11 17  1  0  0  0  0
 13 14  1  6  0  0  0
 13 19  1  0  0  0  0
 15 16  1  6  0  0  0
 15 20  1  0  0  0  0
 16 34  1  0  0  0  0
 17 18  1  6  0  0  0
 17 22  1  0  0  0  0
 19  2  1  1  0  0  0
 19 24  1  0  0  0  0
 20 21  1  6  0  0  0
 20 26  1  0  0  0  0
 20 33  1  0  0  0  0
 22 23  1  1  0  0  0
 22 28  1  0  0  0  0
 24 25  1  6  0  0  0
 24 30  1  0  0  0  0
 26 27  1  0  0  0  0
 28 29  1  1  0  0  0
 28 32  1  0  0  0  0
 30 31  1  1  0  0  0
M  END
>  <CHROM.1>
-177.43740344,49.47105642,-77.67237146,141.90464699,155.73019916,-154.50720746
10.44580196,8.29426716,1.45502503,1.99607507,0.22964029,-0.51404832

>  <Name>
ligand

>  <RI>
0

>  <Rbt.Current_Directory>
/home/itssahil/PROJECTS/Mol_Feturizer/New_Systems/rnas/3TD1

>  <Rbt.Executable>
rbdock ($Id: //depot/dev/client3/rdock/2013.1/src/exe/rbdock.cxx#4 $)

>  <Rbt.Library>
libRbt.so (2013.1, Build901 2013/11/27)

>  <Rbt.Parameter_File>
/export/apps/rDock/src/rDock_2013.1_src/data/scripts/dock_solv.prm

>  <Rbt.Receptor>
prm/blind_docking_20.prm

>  <SCORE>
16.8519

>  <SCORE.INTER>
3.39419

>  <SCORE.INTER.CONST>
1

>  <SCORE.INTER.POLAR>
0

>  <SCORE.INTER.ROT>
6

>  <SCORE.INTER.SOLV>
25.1216

>  <SCORE.INTER.VDW>
-13.7111

>  <SCORE.INTER.norm>
0.0998292

>  <SCORE.INTRA>
2.51301

>  <SCORE.INTRA.DIHEDRAL>
-9.67549

>  <SCORE.INTRA.DIHEDRAL.0>
19.5869

>  <SCORE.INTRA.POLAR>
0

>  <SCORE.INTRA.POLAR.0>
0

>  <SCORE.INTRA.REPUL>
0

>  <SCORE.INTRA.REPUL.0>
0

>  <SCORE.INTRA.SOLV>
-0.595861

>  <SCORE.INTRA.SOLV.lig_0>
-70.101

>  <SCORE.INTRA.VDW>
7.64869

>  <SCORE.INTRA.VDW.0>
-3.39718

>  <SCORE.INTRA.norm>
0.0739122

>  <SCORE.RESTR>
10.9447

>  <SCORE.RESTR.CAVITY>
10.9447

>  <SCORE.RESTR.norm>
0.321902

>  <SCORE.SYSTEM>
0

>  <SCORE.SYSTEM.CONST>
0

>  <SCORE.SYSTEM.DIHEDRAL>
0

>  <SCORE.SYSTEM.SOLV>
0

>  <SCORE.SYSTEM.norm>
0

>  <SCORE.heavy>
34

>  <SCORE.norm>
0.495643

>  <RMSD>
9.328

$$$$
ligand
 OpenBabel11021811483D
libRbt.so/2013.1/901 2013/11/27
 34 36  0  0  0  0  0  0  0  0999 V2000
    8.3377    6.5227    9.8264 C   0  0  2  0  0  0  0  0  0  0  0  0
    8.0131    5.1496    9.5585 O   0  0  0  0  0  0  0  0  0  0  0  0
    4.2669    3.2249    8.8354 C   0  0  2  0  0  0  0  0  0  0  0  0
    2.9085    2.7239    9.0136 N   0  0  0  0  0  0  0  0  0  0  0  0
    3.1947    6.7348    7.7088 C   0  0  2  0  0  0  0  0  0  0  0  0
    9.7083    6.8419    9.1293 C   0  0  2  0  0  0  0  0  0  0  0  0
    9.6210    6.6495    7.6734 N   0  0  0  0  0  0  0  0  0  0  0  0
    5.1208    2.6988   10.0370 C   0  0  0  0  0  0  0  0  0  0  0  0
    1.9011    6.8853    8.5870 C   0  0  2  0  0  0  0  0  0  0  0  0
    2.1618    6.4425    9.9086 O   0  0  0  0  0  0  0  0  0  0  0  0
   10.8051    5.9266    9.7156 C   0  0  1  0  0  0  0  0  0  0  0  0
   12.0640    6.2188    9.0876 O   0  0  0  0  0  0  0  0  0  0  0  0
    6.5849    3.2169    9.8343 C   0  0  2  0  0  0  0  0  0  0  0  0
    7.4422    2.7561   10.9453 N   0  0  0  0  0  0  0  0  0  0  0  0
    0.7412    6.0444    7.9259 C   0  0  1  0  0  0  0  0  0  0  0  0
   -0.5110    6.1421    8.7344 N   0  0  0  0  0  0  0  0  0  0  0  0
   10.8691    6.1421   11.2463 C   0  0  2  0  0  0  0  0  0  0  0  0
   11.8800    5.2874   11.8084 O   0  0  0  0  0  0  0  0  0  0  0  0
    6.6229    4.7656    9.7798 C   0  0  2  0  0  0  0  0  0  0  0  0
    0.4940    6.5733    6.4717 C   0  0  1  0  0  0  0  0  0  0  0  0
    0.0871    7.9382    6.5222 O   0  0  0  0  0  0  0  0  0  0  0  0
    9.4626    5.8259   11.8839 C   0  0  2  0  0  0  0  0  0  0  0  0
    8.4321    6.6957   11.2841 O   0  0  0  0  0  0  0  0  0  0  0  0
    5.7194    5.2611    8.6230 C   0  0  2  0  0  0  0  0  0  0  0  0
    5.7555    6.6843    8.6040 O   0  0  0  0  0  0  0  0  0  0  0  0
    1.8261    6.4586    5.6657 C   0  0  0  0  0  0  0  0  0  0  0  0
    2.9168    7.2003    6.3431 O   0  0  0  0  0  0  0  0  0  0  0  0
    9.4588    6.0498   13.4187 C   0  0  2  0  0  0  0  0  0  0  0  0
   10.4421    5.2133   14.0225 O   0  0  0  0  0  0  0  0  0  0  0  0
    4.2542    4.8087    8.8228 C   0  0  1  0  0  0  0  0  0  0  0  0
    3.4989    5.3120    7.6957 O   0  0  0  0  0  0  0  0  0  0  0  0
    8.1104    5.7073   14.0305 C   0  0  0  0  0  0  0  0  0  0  0  0
   -0.6011    5.7912    5.7568 C   0  0  0  0  0  0  0  0  0  0  0  0
   -0.7248    4.8500    9.4140 C   0  0  0  0  0  0  0  0  0  0  0  0
  1  2  1  1  0  0  0
  1  6  1  0  0  0  0
  1 23  1  0  0  0  0
  3  4  1  1  0  0  0
  3  8  1  0  0  0  0
  3 30  1  0  0  0  0
  5  9  1  0  0  0  0
  5 27  1  0  0  0  0
  5 31  1  6  0  0  0
  6  7  1  6  0  0  0
  6 11  1  0  0  0  0
  8 13  1  0  0  0  0
  9 10  1  1  0  0  0
  9 15  1  0  0  0  0
 11 12  1  6  0  0  0
 11 17  1  0  0  0  0
 13 14  1  1  0  0  0
 13 19  1  0  0  0  0
 15 16  1  1  0  0  0
 15 20  1  0  0  0  0
 16 34  1  0  0  0  0
 17 18  1  1  0  0  0
 17 22  1  0  0  0  0
 19  2  1  6  0  0  0
 19 24  1  0  0  0  0
 20 21  1  1  0  0  0
 20 26  1  0  0  0  0
 20 33  1  0  0  0  0
 22 23  1  6  0  0  0
 22 28  1  0  0  0  0
 24 25  1  1  0  0  0
 24 30  1  0  0  0  0
 26 27  1  0  0  0  0
 28 29  1  1  0  0  0
 28 32  1  0  0  0  0
 30 31  1  6  0  0  0
M  END
>  <CHROM.1>
-162.88109714,-163.99346859,-107.64536411,-58.97772865,168.64537671,-83.87924875
5.62356110,5.63051188,9.36106108,-0.35551763,-0.17872657,-1.02267943

>  <Name>
ligand

>  <RI>
0

>  <Rbt.Current_Directory>
/home/itssahil/PROJECTS/Mol_Feturizer/New_Systems/rnas/3TD1

>  <Rbt.Executable>
rbdock ($Id: //depot/dev/client3/rdock/2013.1/src/exe/rbdock.cxx#4 $)

>  <Rbt.Library>
libRbt.so (2013.1, Build901 2013/11/27)

>  <Rbt.Parameter_File>
/export/apps/rDock/src/rDock_2013.1_src/data/scripts/dock_solv.prm

>  <Rbt.Receptor>
prm/pocket_docking_6.prm

>  <SCORE>
-14.2136

>  <SCORE.INTER>
-7.9293

>  <SCORE.INTER.CONST>
1

>  <SCORE.INTER.POLAR>
0

>  <SCORE.INTER.ROT>
6

>  <SCORE.INTER.SOLV>
14.2285

>  <SCORE.INTER.VDW>
-17.629

>  <SCORE.INTER.norm>
-0.233215

>  <SCORE.INTRA>
-6.28426

>  <SCORE.INTRA.DIHEDRAL>
-12.8205

>  <SCORE.INTRA.DIHEDRAL.0>
19.5869

>  <SCORE.INTRA.POLAR>
0

>  <SCORE.INTRA.POLAR.0>
0

>  <SCORE.INTRA.REPUL>
0

>  <SCORE.INTRA.REPUL.0>
0

>  <SCORE.INTRA.SOLV>
-1.07488

>  <SCORE.INTRA.SOLV.lig_0>
-70.101

>  <SCORE.INTRA.VDW>
0.66344

>  <SCORE.INTRA.VDW.0>
-3.39718

>  <SCORE.INTRA.norm>
-0.184831

>  <SCORE.RESTR>
0

>  <SCORE.RESTR.CAVITY>
0

>  <SCORE.RESTR.norm>
0

>  <SCORE.SYSTEM>
0

>  <SCORE.SYSTEM.CONST>
0

>  <SCORE.SYSTEM.DIHEDRAL>
0

>  <SCORE.SYSTEM.SOLV>
0

>  <SCORE.SYSTEM.norm>
0

>  <SCORE.heavy>
34

>  <SCORE.norm>
-0.418046

>  <RMSD>
9.328

$$$$
ligand
 OpenBabel11021811483D
libRbt.so/2013.1/901 2013/11/27
 34 36  0  0  0  0  0  0  0  0999 V2000
    8.6582    7.4937    7.2700 C   0  0  2  0  0  0  0  0  0  0  0  0
    8.7673    6.0692    7.4165 O   0  0  0  0  0  0  0  0  0  0  0  0
    6.0895    3.3814    9.3830 C   0  0  2  0  0  0  0  0  0  0  0  0
    5.3498    2.6753   10.4234 N   0  0  0  0  0  0  0  0  0  0  0  0
    3.8514    4.4660    7.7581 C   0  0  2  0  0  0  0  0  0  0  0  0
    9.3127    7.8915    5.8989 C   0  0  2  0  0  0  0  0  0  0  0  0
    8.6221    7.2436    4.7730 N   0  0  0  0  0  0  0  0  0  0  0  0
    7.6124    3.2459    9.7179 C   0  0  0  0  0  0  0  0  0  0  0  0
    2.4994    5.1730    7.3846 C   0  0  2  0  0  0  0  0  0  0  0  0
    2.7139    6.5646    7.2165 O   0  0  0  0  0  0  0  0  0  0  0  0
   10.8022    7.4841    5.9065 C   0  0  1  0  0  0  0  0  0  0  0  0
   11.4095    7.8525    4.6574 O   0  0  0  0  0  0  0  0  0  0  0  0
    8.4084    3.9839    8.5888 C   0  0  2  0  0  0  0  0  0  0  0  0
    9.8589    3.8961    8.8532 N   0  0  0  0  0  0  0  0  0  0  0  0
    1.4510    4.8956    8.5306 C   0  0  1  0  0  0  0  0  0  0  0  0
    0.1485    5.5621    8.2297 N   0  0  0  0  0  0  0  0  0  0  0  0
   11.5012    8.1711    7.1035 C   0  0  2  0  0  0  0  0  0  0  0  0
   12.8884    7.7922    7.1300 O   0  0  0  0  0  0  0  0  0  0  0  0
    8.0021    5.4777    8.5092 C   0  0  2  0  0  0  0  0  0  0  0  0
    1.2511    3.3480    8.6741 C   0  0  1  0  0  0  0  0  0  0  0  0
    0.7363    2.8175    7.4557 O   0  0  0  0  0  0  0  0  0  0  0  0
   10.7886    7.7493    8.4448 C   0  0  2  0  0  0  0  0  0  0  0  0
    9.3624    8.1259    8.3960 O   0  0  0  0  0  0  0  0  0  0  0  0
    6.4799    5.5824    8.2410 C   0  0  2  0  0  0  0  0  0  0  0  0
    6.1273    6.9610    8.1903 O   0  0  0  0  0  0  0  0  0  0  0  0
    2.6343    2.6925    8.9816 C   0  0  0  0  0  0  0  0  0  0  0  0
    3.6207    3.0246    7.9255 O   0  0  0  0  0  0  0  0  0  0  0  0
   11.4321    8.4295    9.6814 C   0  0  2  0  0  0  0  0  0  0  0  0
   11.6346    9.8138    9.4096 O   0  0  0  0  0  0  0  0  0  0  0  0
    5.6644    4.9071    9.3681 C   0  0  1  0  0  0  0  0  0  0  0  0
    4.2663    5.0523    9.0236 O   0  0  0  0  0  0  0  0  0  0  0  0
   12.7802    7.8147   10.0195 C   0  0  0  0  0  0  0  0  0  0  0  0
    0.2658    2.9985    9.7826 C   0  0  0  0  0  0  0  0  0  0  0  0
    0.1633    6.9043    8.8423 C   0  0  0  0  0  0  0  0  0  0  0  0
  1  2  1  1  0  0  0
  1  6  1  0  0  0  0
  1 23  1  0  0  0  0
  3  4  1  1  0  0  0
  3  8  1  0  0  0  0
  3 30  1  0  0  0  0
  5  9  1  0  0  0  0
  5 27  1  0  0  0  0
  5 31  1  1  0  0  0
  6  7  1  6  0  0  0
  6 11  1  0  0  0  0
  8 13  1  0  0  0  0
  9 10  1  1  0  0  0
  9 15  1  0  0  0  0
 11 12  1  6  0  0  0
 11 17  1  0  0  0  0
 13 14  1  1  0  0  0
 13 19  1  0  0  0  0
 15 16  1  6  0  0  0
 15 20  1  0  0  0  0
 16 34  1  0  0  0  0
 17 18  1  1  0  0  0
 17 22  1  0  0  0  0
 19  2  1  6  0  0  0
 19 24  1  0  0  0  0
 20 21  1  6  0  0  0
 20 26  1  0  0  0  0
 20 33  1  0  0  0  0
 22 23  1  6  0  0  0
 22 28  1  0  0  0  0
 24 25  1  1  0  0  0
 24 30  1  0  0  0  0
 26 27  1  0  0  0  0
 28 29  1  6  0  0  0
 28 32  1  0  0  0  0
 30 31  1  6  0  0  0
M  END
>  <CHROM.1>
-169.16684473,-172.93340932,-91.53279703,45.71789900,-56.54122856,-160.42433544
6.62694774,5.77960154,8.14424562,0.35016916,-0.14901161,-0.62470148

>  <Name>
ligand

>  <RI>
0

>  <Rbt.Current_Directory>
/home/itssahil/PROJECTS/Mol_Feturizer/New_Systems/rnas/3TD1

>  <Rbt.Executable>
rbdock ($Id: //depot/dev/client3/rdock/2013.1/src/exe/rbdock.cxx#4 $)

>  <Rbt.Library>
libRbt.so (2013.1, Build901 2013/11/27)

>  <Rbt.Parameter_File>
/export/apps/rDock/src/rDock_2013.1_src/data/scripts/dock_solv.prm

>  <Rbt.Receptor>
prm/pocket_docking_4.prm

>  <SCORE>
-12.731

>  <SCORE.INTER>
-6.63599

>  <SCORE.INTER.CONST>
1

>  <SCORE.INTER.POLAR>
0

>  <SCORE.INTER.ROT>
6

>  <SCORE.INTER.SOLV>
15.1111

>  <SCORE.INTER.VDW>
-17.061

>  <SCORE.INTER.norm>
-0.195176

>  <SCORE.INTRA>
-6.09503

>  <SCORE.INTRA.DIHEDRAL>
-15.5682

>  <SCORE.INTRA.DIHEDRAL.0>
19.5869

>  <SCORE.INTRA.POLAR>
0

>  <SCORE.INTRA.POLAR.0>
0

>  <SCORE.INTRA.REPUL>
0

>  <SCORE.INTRA.REPUL.0>
0

>  <SCORE.INTRA.SOLV>
-0.715976

>  <SCORE.INTRA.SOLV.lig_0>
-70.101

>  <SCORE.INTRA.VDW>
2.04706

>  <SCORE.INTRA.VDW.0>
-3.39718

>  <SCORE.INTRA.norm>
-0.179265

>  <SCORE.RESTR>
0

>  <SCORE.RESTR.CAVITY>
0

>  <SCORE.RESTR.norm>
0

>  <SCORE.SYSTEM>
0

>  <SCORE.SYSTEM.CONST>
0

>  <SCORE.SYSTEM.DIHEDRAL>
0

>  <SCORE.SYSTEM.SOLV>
0

>  <SCORE.SYSTEM.norm>
0

>  <SCORE.heavy>
34

>  <SCORE.norm>
-0.374442

>  <RMSD>
9.331

$$$$
ligand
 OpenBabel11021811483D
libRbt.so/2013.1/901 2013/11/27
 34 36  0  0  0  0  0  0  0  0999 V2000
    6.6746    7.6511    3.5880 C   0  0  2  0  0  0  0  0  0  0  0  0
    7.1957    6.8936    4.6913 O   0  0  0  0  0  0  0  0  0  0  0  0
    5.9408    6.1991    8.7168 C   0  0  2  0  0  0  0  0  0  0  0  0
    5.4539    6.4176   10.0744 N   0  0  0  0  0  0  0  0  0  0  0  0
    2.8947    5.8140    9.0610 C   0  0  2  0  0  0  0  0  0  0  0  0
    6.0966    6.6391    2.5352 C   0  0  2  0  0  0  0  0  0  0  0  0
    5.0102    5.8335    3.1140 N   0  0  0  0  0  0  0  0  0  0  0  0
    7.1727    7.1409    8.5043 C   0  0  0  0  0  0  0  0  0  0  0  0
    2.5040    4.3581    9.5026 C   0  0  2  0  0  0  0  0  0  0  0  0
    3.6755    3.6046    9.7683 O   0  0  0  0  0  0  0  0  0  0  0  0
    7.2298    5.7147    2.0395 C   0  0  1  0  0  0  0  0  0  0  0  0
    6.7094    4.7909    1.0696 O   0  0  0  0  0  0  0  0  0  0  0  0
    7.7104    6.8901    7.0549 C   0  0  2  0  0  0  0  0  0  0  0  0
    8.8754    7.7587    6.7909 N   0  0  0  0  0  0  0  0  0  0  0  0
    1.6512    3.6935    8.3535 C   0  0  1  0  0  0  0  0  0  0  0  0
    1.2666    2.2972    8.7192 N   0  0  0  0  0  0  0  0  0  0  0  0
    8.3610    6.5868    1.4450 C   0  0  2  0  0  0  0  0  0  0  0  0
    9.4294    5.7392    0.9883 O   0  0  0  0  0  0  0  0  0  0  0  0
    6.6151    7.1842    5.9981 C   0  0  2  0  0  0  0  0  0  0  0  0
    0.3722    4.5629    8.1008 C   0  0  1  0  0  0  0  0  0  0  0  0
   -0.4209    4.6017    9.2843 O   0  0  0  0  0  0  0  0  0  0  0  0
    8.8844    7.5922    2.5404 C   0  0  2  0  0  0  0  0  0  0  0  0
    7.7743    8.4416    3.0141 O   0  0  0  0  0  0  0  0  0  0  0  0
    5.3837    6.2845    6.2707 C   0  0  2  0  0  0  0  0  0  0  0  0
    4.3856    6.5848    5.3006 O   0  0  0  0  0  0  0  0  0  0  0  0
    0.8190    6.0117    7.7283 C   0  0  0  0  0  0  0  0  0  0  0  0
    1.6753    6.5885    8.7925 O   0  0  0  0  0  0  0  0  0  0  0  0
   10.0058    8.5133    1.9927 C   0  0  2  0  0  0  0  0  0  0  0  0
   10.5783    9.2539    3.0674 O   0  0  0  0  0  0  0  0  0  0  0  0
    4.7976    6.5476    7.6773 C   0  0  1  0  0  0  0  0  0  0  0  0
    3.6649    5.6610    7.8360 O   0  0  0  0  0  0  0  0  0  0  0  0
    9.4678    9.5038    0.9733 C   0  0  0  0  0  0  0  0  0  0  0  0
   -0.4940    3.9953    6.9830 C   0  0  0  0  0  0  0  0  0  0  0  0
    2.2160    1.3714    8.0721 C   0  0  0  0  0  0  0  0  0  0  0  0
  1  2  1  1  0  0  0
  1  6  1  0  0  0  0
  1 23  1  0  0  0  0
  3  4  1  1  0  0  0
  3  8  1  0  0  0  0
  3 30  1  0  0  0  0
  5  9  1  0  0  0  0
  5 27  1  0  0  0  0
  5 31  1  6  0  0  0
  6  7  1  1  0  0  0
  6 11  1  0  0  0  0
  8 13  1  0  0  0  0
  9 10  1  6  0  0  0
  9 15  1  0  0  0  0
 11 12  1  6  0  0  0
 11 17  1  0  0  0  0
 13 14  1  6  0  0  0
 13 19  1  0  0  0  0
 15 16  1  1  0  0  0
 15 20  1  0  0  0  0
 16 34  1  0  0  0  0
 17 18  1  1  0  0  0
 17 22  1  0  0  0  0
 19  2  1  6  0  0  0
 19 24  1  0  0  0  0
 20 21  1  1  0  0  0
 20 26  1  0  0  0  0
 20 33  1  0  0  0  0
 22 23  1  6  0  0  0
 22 28  1  0  0  0  0
 24 25  1  6  0  0  0
 24 30  1  0  0  0  0
 26 27  1  0  0  0  0
 28 29  1  1  0  0  0
 28 32  1  0  0  0  0
 30 31  1  1  0  0  0
M  END
>  <CHROM.1>
-121.51476178,-151.06026287,-98.07535530,-171.23619540,68.59116191,-141.27354628
5.27748462,6.07547800,5.85048290,0.59613302,-0.55250839,-1.75933975

>  <Name>
ligand

>  <RI>
0

>  <Rbt.Current_Directory>
/home/itssahil/PROJECTS/Mol_Feturizer/New_Systems/rnas/3TD1

>  <Rbt.Executable>
rbdock ($Id: //depot/dev/client3/rdock/2013.1/src/exe/rbdock.cxx#4 $)

>  <Rbt.Library>
libRbt.so (2013.1, Build901 2013/11/27)

>  <Rbt.Parameter_File>
/export/apps/rDock/src/rDock_2013.1_src/data/scripts/dock_solv.prm

>  <Rbt.Receptor>
prm/blind_docking_100.prm

>  <SCORE>
35.4455

>  <SCORE.INTER>
20.0227

>  <SCORE.INTER.CONST>
1

>  <SCORE.INTER.POLAR>
0

>  <SCORE.INTER.ROT>
6

>  <SCORE.INTER.SOLV>
29.0392

>  <SCORE.INTER.VDW>
-3.93129

>  <SCORE.INTER.norm>
0.588902

>  <SCORE.INTRA>
0.98889

>  <SCORE.INTRA.DIHEDRAL>
-2.27012

>  <SCORE.INTRA.DIHEDRAL.0>
19.5869

>  <SCORE.INTRA.POLAR>
0

>  <SCORE.INTRA.POLAR.0>
0

>  <SCORE.INTRA.REPUL>
0

>  <SCORE.INTRA.REPUL.0>
0

>  <SCORE.INTRA.SOLV>
0.7962

>  <SCORE.INTRA.SOLV.lig_0>
-70.101

>  <SCORE.INTRA.VDW>
1.72585

>  <SCORE.INTRA.VDW.0>
-3.39718

>  <SCORE.INTRA.norm>
0.029085

>  <SCORE.RESTR>
14.4339

>  <SCORE.RESTR.CAVITY>
14.4339

>  <SCORE.RESTR.norm>
0.424527

>  <SCORE.SYSTEM>
0

>  <SCORE.SYSTEM.CONST>
0

>  <SCORE.SYSTEM.DIHEDRAL>
0

>  <SCORE.SYSTEM.SOLV>
0

>  <SCORE.SYSTEM.norm>
0

>  <SCORE.heavy>
34

>  <SCORE.norm>
1.04251

>  <RMSD>
9.332

$$$$
ligand
 OpenBabel11021811483D
libRbt.so/2013.1/901 2013/11/27
 34 36  0  0  0  0  0  0  0  0999 V2000
    7.6011    6.9505    1.5297 C   0  0  2  0  0  0  0  0  0  0  0  0
    7.7234    6.1279    2.7006 O   0  0  0  0  0  0  0  0  0  0  0  0
    6.9149    6.4573    6.8838 C   0  0  2  0  0  0  0  0  0  0  0  0
    6.6669    7.0167    8.2081 N   0  0  0  0  0  0  0  0  0  0  0  0
    3.8827    6.8591    7.5406 C   0  0  2  0  0  0  0  0  0  0  0  0
    8.0564    6.1002    0.2902 C   0  0  2  0  0  0  0  0  0  0  0  0
    7.2101    4.9084    0.1242 N   0  0  0  0  0  0  0  0  0  0  0  0
    8.2638    7.0596    6.3667 C   0  0  0  0  0  0  0  0  0  0  0  0
    3.7213    5.6809    8.5666 C   0  0  2  0  0  0  0  0  0  0  0  0
    4.9941    5.1462    8.8904 O   0  0  0  0  0  0  0  0  0  0  0  0
    9.5300    5.6771    0.4743 C   0  0  1  0  0  0  0  0  0  0  0  0
    9.9557    4.9051   -0.6604 O   0  0  0  0  0  0  0  0  0  0  0  0
    8.5427    6.4417    4.9549 C   0  0  2  0  0  0  0  0  0  0  0  0
    9.8056    6.9788    4.4089 N   0  0  0  0  0  0  0  0  0  0  0  0
    2.7896    4.5792    7.9282 C   0  0  1  0  0  0  0  0  0  0  0  0
    2.6167    3.4258    8.8616 N   0  0  0  0  0  0  0  0  0  0  0  0
   10.3948    6.9471    0.6554 C   0  0  2  0  0  0  0  0  0  0  0  0
   11.7700    6.5679    0.8389 O   0  0  0  0  0  0  0  0  0  0  0  0
    7.3912    6.7672    3.9695 C   0  0  2  0  0  0  0  0  0  0  0  0
    1.4002    5.2206    7.5909 C   0  0  1  0  0  0  0  0  0  0  0  0
    0.7865    5.6892    8.7887 O   0  0  0  0  0  0  0  0  0  0  0  0
    9.8777    7.7657    1.8992 C   0  0  2  0  0  0  0  0  0  0  0  0
    8.4608    8.1309    1.7066 O   0  0  0  0  0  0  0  0  0  0  0  0
    6.0589    6.2162    4.5365 C   0  0  2  0  0  0  0  0  0  0  0  0
    5.0147    6.5425    3.6251 O   0  0  0  0  0  0  0  0  0  0  0  0
    1.6276    6.4221    6.6203 C   0  0  0  0  0  0  0  0  0  0  0  0
    2.5600    7.4098    7.2147 O   0  0  0  0  0  0  0  0  0  0  0  0
   10.6932    9.0673    2.1157 C   0  0  2  0  0  0  0  0  0  0  0  0
   10.8659    9.7321    0.8669 O   0  0  0  0  0  0  0  0  0  0  0  0
    5.7296    6.8485    5.9088 C   0  0  1  0  0  0  0  0  0  0  0  0
    4.4803    6.2683    6.3527 O   0  0  0  0  0  0  0  0  0  0  0  0
   12.0708    8.7756    2.6874 C   0  0  0  0  0  0  0  0  0  0  0  0
    0.4493    4.2197    6.9460 C   0  0  0  0  0  0  0  0  0  0  0  0
    3.4339    2.3023    8.3648 C   0  0  0  0  0  0  0  0  0  0  0  0
  1  2  1  1  0  0  0
  1  6  1  0  0  0  0
  1 23  1  0  0  0  0
  3  4  1  1  0  0  0
  3  8  1  0  0  0  0
  3 30  1  0  0  0  0
  5  9  1  0  0  0  0
  5 27  1  0  0  0  0
  5 31  1  6  0  0  0
  6  7  1  1  0  0  0
  6 11  1  0  0  0  0
  8 13  1  0  0  0  0
  9 10  1  6  0  0  0
  9 15  1  0  0  0  0
 11 12  1  6  0  0  0
 11 17  1  0  0  0  0
 13 14  1  6  0  0  0
 13 19  1  0  0  0  0
 15 16  1  1  0  0  0
 15 20  1  0  0  0  0
 16 34  1  0  0  0  0
 17 18  1  1  0  0  0
 17 22  1  0  0  0  0
 19  2  1  6  0  0  0
 19 24  1  0  0  0  0
 20 21  1  1  0  0  0
 20 26  1  0  0  0  0
 20 33  1  0  0  0  0
 22 23  1  6  0  0  0
 22 28  1  0  0  0  0
 24 25  1  6  0  0  0
 24 30  1  0  0  0  0
 26 27  1  0  0  0  0
 28 29  1  6  0  0  0
 28 32  1  0  0  0  0
 30 31  1  1  0  0  0
M  END
>  <CHROM.1>
177.72782359,-131.87955491,-104.99018667,45.49204926,72.39682008,-122.98616459
6.50907541,6.33202964,4.62724159,0.60249331,-0.48855677,-1.87484036

>  <Name>
ligand

>  <RI>
0

>  <Rbt.Current_Directory>
/home/itssahil/PROJECTS/Mol_Feturizer/New_Systems/rnas/3TD1

>  <Rbt.Executable>
rbdock ($Id: //depot/dev/client3/rdock/2013.1/src/exe/rbdock.cxx#4 $)

>  <Rbt.Library>
libRbt.so (2013.1, Build901 2013/11/27)

>  <Rbt.Parameter_File>
/export/apps/rDock/src/rDock_2013.1_src/data/scripts/dock_solv.prm

>  <Rbt.Receptor>
prm/blind_docking_40.prm

>  <SCORE>
9.18408

>  <SCORE.INTER>
-1.32806

>  <SCORE.INTER.CONST>
1

>  <SCORE.INTER.POLAR>
0

>  <SCORE.INTER.ROT>
6

>  <SCORE.INTER.SOLV>
21.8897

>  <SCORE.INTER.VDW>
-15.7819

>  <SCORE.INTER.norm>
-0.0390605

>  <SCORE.INTRA>
1.01132

>  <SCORE.INTRA.DIHEDRAL>
-3.36077

>  <SCORE.INTRA.DIHEDRAL.0>
19.5869

>  <SCORE.INTRA.POLAR>
0

>  <SCORE.INTRA.POLAR.0>
0

>  <SCORE.INTRA.REPUL>
0

>  <SCORE.INTRA.REPUL.0>
0

>  <SCORE.INTRA.SOLV>
3.22051

>  <SCORE.INTRA.SOLV.lig_0>
-70.101

>  <SCORE.INTRA.VDW>
1.08145

>  <SCORE.INTRA.VDW.0>
-3.39718

>  <SCORE.INTRA.norm>
0.0297447

>  <SCORE.RESTR>
9.50082

>  <SCORE.RESTR.CAVITY>
9.50082

>  <SCORE.RESTR.norm>
0.279436

>  <SCORE.SYSTEM>
0

>  <SCORE.SYSTEM.CONST>
0

>  <SCORE.SYSTEM.DIHEDRAL>
0

>  <SCORE.SYSTEM.SOLV>
0

>  <SCORE.SYSTEM.norm>
0

>  <SCORE.heavy>
34

>  <SCORE.norm>
0.27012

>  <RMSD>
9.332

$$$$
ligand
 OpenBabel11021811483D
libRbt.so/2013.1/901 2013/11/27
 34 36  0  0  0  0  0  0  0  0999 V2000
    9.1402    9.1693    2.6358 C   0  0  2  0  0  0  0  0  0  0  0  0
    8.6208    7.8499    2.4078 O   0  0  0  0  0  0  0  0  0  0  0  0
    7.1898    4.6567    4.8609 C   0  0  2  0  0  0  0  0  0  0  0  0
    7.0535    3.7059    5.9588 N   0  0  0  0  0  0  0  0  0  0  0  0
    5.3638    6.9468    7.1218 C   0  0  2  0  0  0  0  0  0  0  0  0
    9.0264    9.9740    1.2919 C   0  0  2  0  0  0  0  0  0  0  0  0
    7.6257   10.0835    0.8556 N   0  0  0  0  0  0  0  0  0  0  0  0
    8.6555    4.5440    4.3236 C   0  0  0  0  0  0  0  0  0  0  0  0
    5.2267    5.8187    8.2061 C   0  0  2  0  0  0  0  0  0  0  0  0
    6.4157    5.0474    8.2518 O   0  0  0  0  0  0  0  0  0  0  0  0
    9.8628    9.2692    0.2019 C   0  0  1  0  0  0  0  0  0  0  0  0
    9.7695   10.0048   -1.0289 O   0  0  0  0  0  0  0  0  0  0  0  0
    8.7959    5.5478    3.1296 C   0  0  2  0  0  0  0  0  0  0  0  0
   10.1662    5.4921    2.5812 N   0  0  0  0  0  0  0  0  0  0  0  0
    3.9815    4.9196    7.8448 C   0  0  1  0  0  0  0  0  0  0  0  0
    3.8165    3.8183    8.8404 N   0  0  0  0  0  0  0  0  0  0  0  0
   11.3269    9.1594    0.6896 C   0  0  2  0  0  0  0  0  0  0  0  0
   12.1168    8.4947   -0.3118 O   0  0  0  0  0  0  0  0  0  0  0  0
    8.4966    6.9985    3.5864 C   0  0  2  0  0  0  0  0  0  0  0  0
    2.6982    5.8181    7.8080 C   0  0  1  0  0  0  0  0  0  0  0  0
    2.4799    6.3926    9.0938 O   0  0  0  0  0  0  0  0  0  0  0  0
   11.3731    8.3611    2.0480 C   0  0  2  0  0  0  0  0  0  0  0  0
   10.5430    9.0430    3.0600 O   0  0  0  0  0  0  0  0  0  0  0  0
    7.0641    7.0673    4.1722 C   0  0  2  0  0  0  0  0  0  0  0  0
    6.8187    8.4027    4.6011 O   0  0  0  0  0  0  0  0  0  0  0  0
    2.9156    6.9562    6.7616 C   0  0  0  0  0  0  0  0  0  0  0  0
    4.1297    7.7435    7.0848 O   0  0  0  0  0  0  0  0  0  0  0  0
   12.8174    8.2408    2.6005 C   0  0  2  0  0  0  0  0  0  0  0  0
   13.6253    7.5306    1.6655 O   0  0  0  0  0  0  0  0  0  0  0  0
    6.9096    6.1239    5.3878 C   0  0  1  0  0  0  0  0  0  0  0  0
    5.5461    6.2555    5.8545 O   0  0  0  0  0  0  0  0  0  0  0  0
   12.8507    7.4859    3.9191 C   0  0  0  0  0  0  0  0  0  0  0  0
    1.4522    5.0217    7.4406 C   0  0  0  0  0  0  0  0  0  0  0  0
    3.9009    2.5310    8.1245 C   0  0  0  0  0  0  0  0  0  0  0  0
  1  2  1  6  0  0  0
  1  6  1  0  0  0  0
  1 23  1  0  0  0  0
  3  4  1  1  0  0  0
  3  8  1  0  0  0  0
  3 30  1  0  0  0  0
  5  9  1  0  0  0  0
  5 27  1  0  0  0  0
  5 31  1  6  0  0  0
  6  7  1  6  0  0  0
  6 11  1  0  0  0  0
  8 13  1  0  0  0  0
  9 10  1  6  0  0  0
  9 15  1  0  0  0  0
 11 12  1  6  0  0  0
 11 17  1  0  0  0  0
 13 14  1  1  0  0  0
 13 19  1  0  0  0  0
 15 16  1  1  0  0  0
 15 20  1  0  0  0  0
 16 34  1  0  0  0  0
 17 18  1  6  0  0  0
 17 22  1  0  0  0  0
 19  2  1  6  0  0  0
 19 24  1  0  0  0  0
 20 21  1  1  0  0  0
 20 26  1  0  0  0  0
 20 33  1  0  0  0  0
 22 23  1  1  0  0  0
 22 28  1  0  0  0  0
 24 25  1  1  0  0  0
 24 30  1  0  0  0  0
 26 27  1  0  0  0  0
 28 29  1  6  0  0  0
 28 32  1  0  0  0  0
 30 31  1  6  0  0  0
M  END
>  <CHROM.1>
-173.05104762,-145.54208719,-120.60248862,-61.25444134,135.14415823,-97.97523537
7.58818575,6.90915945,4.44425354,0.71555923,0.37052259,-0.70223753

>  <Name>
ligand

>  <RI>
0

>  <Rbt.Current_Directory>
/home/itssahil/PROJECTS/Mol_Feturizer/New_Systems/rnas/3TD1

>  <Rbt.Executable>
rbdock ($Id: //depot/dev/client3/rdock/2013.1/src/exe/rbdock.cxx#4 $)

>  <Rbt.Library>
libRbt.so (2013.1, Build901 2013/11/27)

>  <Rbt.Parameter_File>
/export/apps/rDock/src/rDock_2013.1_src/data/scripts/dock_solv.prm

>  <Rbt.Receptor>
prm/blind_docking_100.prm

>  <SCORE>
15.6658

>  <SCORE.INTER>
1.30166

>  <SCORE.INTER.CONST>
1

>  <SCORE.INTER.POLAR>
0

>  <SCORE.INTER.ROT>
6

>  <SCORE.INTER.SOLV>
20.2806

>  <SCORE.INTER.VDW>
-13.4924

>  <SCORE.INTER.norm>
0.0382841

>  <SCORE.INTRA>
-1.28125

>  <SCORE.INTRA.DIHEDRAL>
-2.56607

>  <SCORE.INTRA.DIHEDRAL.0>
19.5869

>  <SCORE.INTRA.POLAR>
0

>  <SCORE.INTRA.POLAR.0>
0

>  <SCORE.INTRA.REPUL>
0

>  <SCORE.INTRA.REPUL.0>
0

>  <SCORE.INTRA.SOLV>
1.98992

>  <SCORE.INTRA.SOLV.lig_0>
-70.101

>  <SCORE.INTRA.VDW>
-0.993174

>  <SCORE.INTRA.VDW.0>
-3.39718

>  <SCORE.INTRA.norm>
-0.0376837

>  <SCORE.RESTR>
15.6454

>  <SCORE.RESTR.CAVITY>
15.6454

>  <SCORE.RESTR.norm>
0.460159

>  <SCORE.SYSTEM>
0

>  <SCORE.SYSTEM.CONST>
0

>  <SCORE.SYSTEM.DIHEDRAL>
0

>  <SCORE.SYSTEM.SOLV>
0

>  <SCORE.SYSTEM.norm>
0

>  <SCORE.heavy>
34

>  <SCORE.norm>
0.46076

>  <RMSD>
9.334

$$$$
ligand
 OpenBabel11021811483D
libRbt.so/2013.1/901 2013/11/27
 34 36  0  0  0  0  0  0  0  0999 V2000
    9.1318    9.1690    2.6434 C   0  0  2  0  0  0  0  0  0  0  0  0
    8.6263    7.8449    2.4119 O   0  0  0  0  0  0  0  0  0  0  0  0
    7.1804    4.6559    4.8617 C   0  0  2  0  0  0  0  0  0  0  0  0
    7.0385    3.7058    5.9596 N   0  0  0  0  0  0  0  0  0  0  0  0
    5.3496    6.9843    7.0970 C   0  0  2  0  0  0  0  0  0  0  0  0
    9.0063    9.9772    1.3026 C   0  0  2  0  0  0  0  0  0  0  0  0
    7.6035   10.0729    0.8697 N   0  0  0  0  0  0  0  0  0  0  0  0
    8.6475    4.5396    4.3290 C   0  0  0  0  0  0  0  0  0  0  0  0
    5.2454    5.8870    8.2159 C   0  0  2  0  0  0  0  0  0  0  0  0
    6.4513    5.1434    8.2753 O   0  0  0  0  0  0  0  0  0  0  0  0
    9.8480    9.2854    0.2084 C   0  0  1  0  0  0  0  0  0  0  0  0
    9.7440   10.0243   -1.0196 O   0  0  0  0  0  0  0  0  0  0  0  0
    8.7939    5.5426    3.1351 C   0  0  2  0  0  0  0  0  0  0  0  0
   10.1657    5.4835    2.5909 N   0  0  0  0  0  0  0  0  0  0  0  0
    4.0175    4.9506    7.8922 C   0  0  1  0  0  0  0  0  0  0  0  0
    3.8841    3.8768    8.9221 N   0  0  0  0  0  0  0  0  0  0  0  0
   11.3143    9.1900    0.6926 C   0  0  2  0  0  0  0  0  0  0  0  0
   12.1092    8.5375   -0.3128 O   0  0  0  0  0  0  0  0  0  0  0  0
    8.4965    6.9942    3.5904 C   0  0  2  0  0  0  0  0  0  0  0  0
    2.7146    5.8196    7.8388 C   0  0  1  0  0  0  0  0  0  0  0  0
    2.4935    6.4281    9.1085 O   0  0  0  0  0  0  0  0  0  0  0  0
   11.3721    8.3874    2.0481 C   0  0  2  0  0  0  0  0  0  0  0  0
   10.5368    9.0567    3.0642 O   0  0  0  0  0  0  0  0  0  0  0  0
    7.0624    7.0665    4.1718 C   0  0  2  0  0  0  0  0  0  0  0  0
    6.8188    8.4026    4.5994 O   0  0  0  0  0  0  0  0  0  0  0  0
    2.8991    6.9298    6.7568 C   0  0  0  0  0  0  0  0  0  0  0  0
    4.0981    7.7526    7.0460 O   0  0  0  0  0  0  0  0  0  0  0  0
   12.8189    8.2810    2.5971 C   0  0  2  0  0  0  0  0  0  0  0  0
   13.6450    7.6319    1.6341 O   0  0  0  0  0  0  0  0  0  0  0  0
    6.9020    6.1239    5.3872 C   0  0  1  0  0  0  0  0  0  0  0  0
    5.5374    6.2589    5.8497 O   0  0  0  0  0  0  0  0  0  0  0  0
   12.8710    7.4722    3.8827 C   0  0  0  0  0  0  0  0  0  0  0  0
    1.4836    4.9855    7.5059 C   0  0  0  0  0  0  0  0  0  0  0  0
    3.7144    2.5869    8.2261 C   0  0  0  0  0  0  0  0  0  0  0  0
  1  2  1  6  0  0  0
  1  6  1  0  0  0  0
  1 23  1  0  0  0  0
  3  4  1  1  0  0  0
  3  8  1  0  0  0  0
  3 30  1  0  0  0  0
  5  9  1  0  0  0  0
  5 27  1  0  0  0  0
  5 31  1  6  0  0  0
  6  7  1  6  0  0  0
  6 11  1  0  0  0  0
  8 13  1  0  0  0  0
  9 10  1  6  0  0  0
  9 15  1  0  0  0  0
 11 12  1  6  0  0  0
 11 17  1  0  0  0  0
 13 14  1  1  0  0  0
 13 19  1  0  0  0  0
 15 16  1  1  0  0  0
 15 20  1  0  0  0  0
 16 34  1  0  0  0  0
 17 18  1  6  0  0  0
 17 22  1  0  0  0  0
 19  2  1  6  0  0  0
 19 24  1  0  0  0  0
 20 21  1  1  0  0  0
 20 26  1  0  0  0  0
 20 33  1  0  0  0  0
 22 23  1  1  0  0  0
 22 28  1  0  0  0  0
 24 25  1  1  0  0  0
 24 30  1  0  0  0  0
 26 27  1  0  0  0  0
 28 29  1  6  0  0  0
 28 32  1  0  0  0  0
 30 31  1  6  0  0  0
M  END
>  <CHROM.1>
-172.23351564,-146.32159949,-131.99158478,-58.87401933,136.83500741,-97.00648636
7.58341820,6.92659024,4.45321709,0.71832306,0.36788691,-0.70781542

>  <Name>
ligand

>  <RI>
0

>  <Rbt.Current_Directory>
/home/itssahil/PROJECTS/Mol_Feturizer/New_Systems/rnas/3TD1

>  <Rbt.Executable>
rbdock ($Id: //depot/dev/client3/rdock/2013.1/src/exe/rbdock.cxx#4 $)

>  <Rbt.Library>
libRbt.so (2013.1, Build901 2013/11/27)

>  <Rbt.Parameter_File>
/export/apps/rDock/src/rDock_2013.1_src/data/scripts/dock_solv.prm

>  <Rbt.Receptor>
prm/blind_docking_100.prm

>  <SCORE>
15.7563

>  <SCORE.INTER>
1.58087

>  <SCORE.INTER.CONST>
1

>  <SCORE.INTER.POLAR>
0

>  <SCORE.INTER.ROT>
6

>  <SCORE.INTER.SOLV>
20.4162

>  <SCORE.INTER.VDW>
-13.3515

>  <SCORE.INTER.norm>
0.0464961

>  <SCORE.INTRA>
-1.4095

>  <SCORE.INTRA.DIHEDRAL>
-3.16582

>  <SCORE.INTRA.DIHEDRAL.0>
19.5869

>  <SCORE.INTRA.POLAR>
0

>  <SCORE.INTRA.POLAR.0>
0

>  <SCORE.INTRA.REPUL>
0

>  <SCORE.INTRA.REPUL.0>
0

>  <SCORE.INTRA.SOLV>
1.73175

>  <SCORE.INTRA.SOLV.lig_0>
-70.101

>  <SCORE.INTRA.VDW>
-0.692468

>  <SCORE.INTRA.VDW.0>
-3.39718

>  <SCORE.INTRA.norm>
-0.041456

>  <SCORE.RESTR>
15.5849

>  <SCORE.RESTR.CAVITY>
15.5849

>  <SCORE.RESTR.norm>
0.45838

>  <SCORE.SYSTEM>
0

>  <SCORE.SYSTEM.CONST>
0

>  <SCORE.SYSTEM.DIHEDRAL>
0

>  <SCORE.SYSTEM.SOLV>
0

>  <SCORE.SYSTEM.norm>
0

>  <SCORE.heavy>
34

>  <SCORE.norm>
0.46342

>  <RMSD>
9.335

$$$$
ligand
 OpenBabel11021811483D
libRbt.so/2013.1/901 2013/11/27
 34 36  0  0  0  0  0  0  0  0999 V2000
    7.9593    6.4719    9.9748 C   0  0  2  0  0  0  0  0  0  0  0  0
    7.6698    5.0978    9.6739 O   0  0  0  0  0  0  0  0  0  0  0  0
    3.9828    3.1770    8.6847 C   0  0  2  0  0  0  0  0  0  0  0  0
    2.6226    2.6576    8.7741 N   0  0  0  0  0  0  0  0  0  0  0  0
    3.0261    6.7444    7.6134 C   0  0  2  0  0  0  0  0  0  0  0  0
    9.4345    6.7666    9.5237 C   0  0  2  0  0  0  0  0  0  0  0  0
    9.6005    6.5515    8.0778 N   0  0  0  0  0  0  0  0  0  0  0  0
    4.7830    2.6048    9.9021 C   0  0  0  0  0  0  0  0  0  0  0  0
    1.7782    6.9739    8.5392 C   0  0  2  0  0  0  0  0  0  0  0  0
    2.0650    6.5269    9.8540 O   0  0  0  0  0  0  0  0  0  0  0  0
   10.4006    5.8505   10.3057 C   0  0  1  0  0  0  0  0  0  0  0  0
   11.7534    6.1205    9.9034 O   0  0  0  0  0  0  0  0  0  0  0  0
    6.2498    3.1432    9.7941 C   0  0  2  0  0  0  0  0  0  0  0  0
    7.0570    2.6403   10.9242 N   0  0  0  0  0  0  0  0  0  0  0  0
    0.5482    6.1947    7.9313 C   0  0  1  0  0  0  0  0  0  0  0  0
   -0.6642    6.3687    8.7864 N   0  0  0  0  0  0  0  0  0  0  0  0
   10.1989    6.0902   11.8208 C   0  0  2  0  0  0  0  0  0  0  0  0
   11.0855    5.2351   12.5632 O   0  0  0  0  0  0  0  0  0  0  0  0
    6.2745    4.6930    9.8100 C   0  0  2  0  0  0  0  0  0  0  0  0
    0.2745    6.7260    6.4827 C   0  0  1  0  0  0  0  0  0  0  0  0
   -0.0530    8.1119    6.5357 O   0  0  0  0  0  0  0  0  0  0  0  0
    8.6989    5.7979   12.2070 C   0  0  2  0  0  0  0  0  0  0  0  0
    7.7998    6.6676   11.4239 O   0  0  0  0  0  0  0  0  0  0  0  0
    5.4230    5.2323    8.6335 C   0  0  2  0  0  0  0  0  0  0  0  0
    5.4453    6.6553    8.6791 O   0  0  0  0  0  0  0  0  0  0  0  0
    1.5658    6.5306    5.6272 C   0  0  0  0  0  0  0  0  0  0  0  0
    2.7217    7.2147    6.2550 O   0  0  0  0  0  0  0  0  0  0  0  0
    8.4298    6.0466   13.7142 C   0  0  2  0  0  0  0  0  0  0  0  0
    8.9920    7.2993   14.0960 O   0  0  0  0  0  0  0  0  0  0  0  0
    3.9545    4.7596    8.7414 C   0  0  1  0  0  0  0  0  0  0  0  0
    3.2495    5.3066    7.6021 O   0  0  0  0  0  0  0  0  0  0  0  0
    9.0569    4.9665   14.5800 C   0  0  0  0  0  0  0  0  0  0  0  0
   -0.8896    6.0015    5.8179 C   0  0  0  0  0  0  0  0  0  0  0  0
   -0.9518    5.0819    9.4483 C   0  0  0  0  0  0  0  0  0  0  0  0
  1  2  1  1  0  0  0
  1  6  1  0  0  0  0
  1 23  1  0  0  0  0
  3  4  1  1  0  0  0
  3  8  1  0  0  0  0
  3 30  1  0  0  0  0
  5  9  1  0  0  0  0
  5 27  1  0  0  0  0
  5 31  1  6  0  0  0
  6  7  1  6  0  0  0
  6 11  1  0  0  0  0
  8 13  1  0  0  0  0
  9 10  1  1  0  0  0
  9 15  1  0  0  0  0
 11 12  1  6  0  0  0
 11 17  1  0  0  0  0
 13 14  1  1  0  0  0
 13 19  1  0  0  0  0
 15 16  1  1  0  0  0
 15 20  1  0  0  0  0
 16 34  1  0  0  0  0
 17 18  1  1  0  0  0
 17 22  1  0  0  0  0
 19  2  1  6  0  0  0
 19 24  1  0  0  0  0
 20 21  1  1  0  0  0
 20 26  1  0  0  0  0
 20 33  1  0  0  0  0
 22 23  1  6  0  0  0
 22 28  1  0  0  0  0
 24 25  1  1  0  0  0
 24 30  1  0  0  0  0
 26 27  1  0  0  0  0
 28 29  1  1  0  0  0
 28 32  1  0  0  0  0
 30 31  1  6  0  0  0
M  END
>  <CHROM.1>
-169.92746176,-165.99826444,-109.65998573,46.95173436,173.46031178,-80.56829642
5.29008357,5.68380956,9.49268587,-0.39983188,-0.22092425,-0.99776029

>  <Name>
ligand

>  <RI>
0

>  <Rbt.Current_Directory>
/home/itssahil/PROJECTS/Mol_Feturizer/New_Systems/rnas/3TD1

>  <Rbt.Executable>
rbdock ($Id: //depot/dev/client3/rdock/2013.1/src/exe/rbdock.cxx#4 $)

>  <Rbt.Library>
libRbt.so (2013.1, Build901 2013/11/27)

>  <Rbt.Parameter_File>
/export/apps/rDock/src/rDock_2013.1_src/data/scripts/dock_solv.prm

>  <Rbt.Receptor>
prm/pocket_docking_8.prm

>  <SCORE>
-15.4465

>  <SCORE.INTER>
-9.21136

>  <SCORE.INTER.CONST>
1

>  <SCORE.INTER.POLAR>
0

>  <SCORE.INTER.ROT>
6

>  <SCORE.INTER.SOLV>
15.5814

>  <SCORE.INTER.VDW>
-18.9347

>  <SCORE.INTER.norm>
-0.270922

>  <SCORE.INTRA>
-6.24027

>  <SCORE.INTRA.DIHEDRAL>
-14.2996

>  <SCORE.INTRA.DIHEDRAL.0>
19.5869

>  <SCORE.INTRA.POLAR>
0

>  <SCORE.INTRA.POLAR.0>
0

>  <SCORE.INTRA.REPUL>
0

>  <SCORE.INTRA.REPUL.0>
0

>  <SCORE.INTRA.SOLV>
-1.73379

>  <SCORE.INTRA.SOLV.lig_0>
-70.101

>  <SCORE.INTRA.VDW>
1.77645

>  <SCORE.INTRA.VDW.0>
-3.39718

>  <SCORE.INTRA.norm>
-0.183537

>  <SCORE.RESTR>
0.00517325

>  <SCORE.RESTR.CAVITY>
0.00517325

>  <SCORE.RESTR.norm>
0.000152154

>  <SCORE.SYSTEM>
0

>  <SCORE.SYSTEM.CONST>
0

>  <SCORE.SYSTEM.DIHEDRAL>
0

>  <SCORE.SYSTEM.SOLV>
0

>  <SCORE.SYSTEM.norm>
0

>  <SCORE.heavy>
34

>  <SCORE.norm>
-0.454307

>  <RMSD>
9.345

$$$$
ligand
 OpenBabel11021811483D
libRbt.so/2013.1/901 2013/11/27
 34 36  0  0  0  0  0  0  0  0999 V2000
    9.1971    9.1960    2.6547 C   0  0  2  0  0  0  0  0  0  0  0  0
    8.6492    7.8912    2.4102 O   0  0  0  0  0  0  0  0  0  0  0  0
    7.1906    4.6726    4.8133 C   0  0  2  0  0  0  0  0  0  0  0  0
    7.0445    3.7075    5.8975 N   0  0  0  0  0  0  0  0  0  0  0  0
    5.3677    6.9436    7.0970 C   0  0  2  0  0  0  0  0  0  0  0  0
    9.0969   10.0214    1.3223 C   0  0  2  0  0  0  0  0  0  0  0  0
    7.6978   10.1665    0.8916 N   0  0  0  0  0  0  0  0  0  0  0  0
    8.6578    4.5591    4.2804 C   0  0  0  0  0  0  0  0  0  0  0  0
    5.2017    5.8032    8.1642 C   0  0  2  0  0  0  0  0  0  0  0  0
    6.3777    5.0122    8.2111 O   0  0  0  0  0  0  0  0  0  0  0  0
    9.9154    9.3140    0.2204 C   0  0  1  0  0  0  0  0  0  0  0  0
    9.8345   10.0683   -1.0000 O   0  0  0  0  0  0  0  0  0  0  0  0
    8.8087    5.5785    3.1010 C   0  0  2  0  0  0  0  0  0  0  0  0
   10.1809    5.5227    2.5574 N   0  0  0  0  0  0  0  0  0  0  0  0
    3.9460    4.9292    7.7784 C   0  0  1  0  0  0  0  0  0  0  0  0
    3.7534    3.8174    8.7572 N   0  0  0  0  0  0  0  0  0  0  0  0
   11.3781    9.1666    0.7024 C   0  0  2  0  0  0  0  0  0  0  0  0
   12.1511    8.4991   -0.3103 O   0  0  0  0  0  0  0  0  0  0  0  0
    8.5155    7.0244    3.5765 C   0  0  2  0  0  0  0  0  0  0  0  0
    2.6776    5.8488    7.7414 C   0  0  1  0  0  0  0  0  0  0  0  0
    2.4557    6.4092    9.0328 O   0  0  0  0  0  0  0  0  0  0  0  0
   11.4108    8.3489    2.0496 C   0  0  2  0  0  0  0  0  0  0  0  0
   10.5980    9.0343    3.0732 O   0  0  0  0  0  0  0  0  0  0  0  0
    7.0810    7.0931    4.1573 C   0  0  2  0  0  0  0  0  0  0  0  0
    6.8411    8.4238    4.6036 O   0  0  0  0  0  0  0  0  0  0  0  0
    2.9237    6.9974    6.7130 C   0  0  0  0  0  0  0  0  0  0  0  0
    4.1470    7.7605    7.0588 O   0  0  0  0  0  0  0  0  0  0  0  0
   12.8537    8.1904    2.5962 C   0  0  2  0  0  0  0  0  0  0  0  0
   13.6683    7.5620    1.6099 O   0  0  0  0  0  0  0  0  0  0  0  0
    6.9163    6.1339    5.3592 C   0  0  1  0  0  0  0  0  0  0  0  0
    5.5517    6.2667    5.8222 O   0  0  0  0  0  0  0  0  0  0  0  0
   12.8857    7.3311    3.8493 C   0  0  0  0  0  0  0  0  0  0  0  0
    1.4228    5.0776    7.3509 C   0  0  0  0  0  0  0  0  0  0  0  0
    3.9157    2.5376    8.0411 C   0  0  0  0  0  0  0  0  0  0  0  0
  1  2  1  6  0  0  0
  1  6  1  0  0  0  0
  1 23  1  0  0  0  0
  3  4  1  1  0  0  0
  3  8  1  0  0  0  0
  3 30  1  0  0  0  0
  5  9  1  0  0  0  0
  5 27  1  0  0  0  0
  5 31  1  6  0  0  0
  6  7  1  6  0  0  0
  6 11  1  0  0  0  0
  8 13  1  0  0  0  0
  9 10  1  6  0  0  0
  9 15  1  0  0  0  0
 11 12  1  6  0  0  0
 11 17  1  0  0  0  0
 13 14  1  1  0  0  0
 13 19  1  0  0  0  0
 15 16  1  1  0  0  0
 15 20  1  0  0  0  0
 16 34  1  0  0  0  0
 17 18  1  6  0  0  0
 17 22  1  0  0  0  0
 19  2  1  6  0  0  0
 19 24  1  0  0  0  0
 20 21  1  1  0  0  0
 20 26  1  0  0  0  0
 20 33  1  0  0  0  0
 22 23  1  1  0  0  0
 22 28  1  0  0  0  0
 24 25  1  1  0  0  0
 24 30  1  0  0  0  0
 26 27  1  0  0  0  0
 28 29  1  6  0  0  0
 28 32  1  0  0  0  0
 30 31  1  6  0  0  0
M  END
>  <CHROM.1>
-173.31083182,-144.47696064,-116.80624670,-57.09427215,135.24627545,-98.70504304
7.60414555,6.92175877,4.41803629,0.70197078,0.37809673,-0.68256828

>  <Name>
ligand

>  <RI>
0

>  <Rbt.Current_Directory>
/home/itssahil/PROJECTS/Mol_Feturizer/New_Systems/rnas/3TD1

>  <Rbt.Executable>
rbdock ($Id: //depot/dev/client3/rdock/2013.1/src/exe/rbdock.cxx#4 $)

>  <Rbt.Library>
libRbt.so (2013.1, Build901 2013/11/27)

>  <Rbt.Parameter_File>
/export/apps/rDock/src/rDock_2013.1_src/data/scripts/dock_solv.prm

>  <Rbt.Receptor>
prm/blind_docking_100.prm

>  <SCORE>
16.9209

>  <SCORE.INTER>
2.64958

>  <SCORE.INTER.CONST>
1

>  <SCORE.INTER.POLAR>
0

>  <SCORE.INTER.ROT>
6

>  <SCORE.INTER.SOLV>
20.38

>  <SCORE.INTER.VDW>
-12.627

>  <SCORE.INTER.norm>
0.0779288

>  <SCORE.INTRA>
-1.13184

>  <SCORE.INTRA.DIHEDRAL>
-2.25736

>  <SCORE.INTRA.DIHEDRAL.0>
19.5869

>  <SCORE.INTRA.POLAR>
0

>  <SCORE.INTRA.POLAR.0>
0

>  <SCORE.INTRA.REPUL>
0

>  <SCORE.INTRA.REPUL.0>
0

>  <SCORE.INTRA.SOLV>
2.10425

>  <SCORE.INTRA.SOLV.lig_0>
-70.101

>  <SCORE.INTRA.VDW>
-1.05528

>  <SCORE.INTRA.VDW.0>
-3.39718

>  <SCORE.INTRA.norm>
-0.0332893

>  <SCORE.RESTR>
15.4032

>  <SCORE.RESTR.CAVITY>
15.4032

>  <SCORE.RESTR.norm>
0.453034

>  <SCORE.SYSTEM>
0

>  <SCORE.SYSTEM.CONST>
0

>  <SCORE.SYSTEM.DIHEDRAL>
0

>  <SCORE.SYSTEM.SOLV>
0

>  <SCORE.SYSTEM.norm>
0

>  <SCORE.heavy>
34

>  <SCORE.norm>
0.497674

>  <RMSD>
9.354

$$$$
ligand
 OpenBabel11021811483D
libRbt.so/2013.1/901 2013/11/27
 34 36  0  0  0  0  0  0  0  0999 V2000
    7.5629    7.1105    1.9729 C   0  0  2  0  0  0  0  0  0  0  0  0
    7.7233    6.2662    3.1236 O   0  0  0  0  0  0  0  0  0  0  0  0
    6.5923    6.3586    7.2435 C   0  0  2  0  0  0  0  0  0  0  0  0
    6.2438    6.8421    8.5750 N   0  0  0  0  0  0  0  0  0  0  0  0
    3.5167    6.7511    7.6816 C   0  0  2  0  0  0  0  0  0  0  0  0
    7.7243    6.2181    0.6906 C   0  0  2  0  0  0  0  0  0  0  0  0
    6.7042    5.1590    0.6489 N   0  0  0  0  0  0  0  0  0  0  0  0
    7.9797    6.9787    6.8689 C   0  0  0  0  0  0  0  0  0  0  0  0
    3.3092    5.5283    8.6453 C   0  0  2  0  0  0  0  0  0  0  0  0
    4.5674    5.0025    9.0343 O   0  0  0  0  0  0  0  0  0  0  0  0
    9.1349    5.5899    0.6796 C   0  0  1  0  0  0  0  0  0  0  0  0
    9.2924    4.7781   -0.4955 O   0  0  0  0  0  0  0  0  0  0  0  0
    8.3654    6.4417    5.4491 C   0  0  2  0  0  0  0  0  0  0  0  0
    9.6691    6.9990    5.0353 N   0  0  0  0  0  0  0  0  0  0  0  0
    2.4456    4.4384    7.8998 C   0  0  1  0  0  0  0  0  0  0  0  0
    2.2325    3.2441    8.7713 N   0  0  0  0  0  0  0  0  0  0  0  0
   10.1863    6.7236    0.7331 C   0  0  2  0  0  0  0  0  0  0  0  0
   11.5065    6.1528    0.7343 O   0  0  0  0  0  0  0  0  0  0  0  0
    7.2955    6.8334    4.3982 C   0  0  2  0  0  0  0  0  0  0  0  0
    1.0699    5.0693    7.4936 C   0  0  1  0  0  0  0  0  0  0  0  0
    0.3665    5.4767    8.6642 O   0  0  0  0  0  0  0  0  0  0  0  0
    9.9604    7.5934    2.0282 C   0  0  2  0  0  0  0  0  0  0  0  0
    8.5961    8.1562    2.0236 O   0  0  0  0  0  0  0  0  0  0  0  0
    5.9210    6.2615    4.8267 C   0  0  2  0  0  0  0  0  0  0  0  0
    4.9523    6.6489    3.8578 O   0  0  0  0  0  0  0  0  0  0  0  0
    1.3390    6.3142    6.5906 C   0  0  0  0  0  0  0  0  0  0  0  0
    2.2085    7.2921    7.2878 O   0  0  0  0  0  0  0  0  0  0  0  0
   10.9725    8.7649    2.1231 C   0  0  2  0  0  0  0  0  0  0  0  0
   10.7708    9.4681    3.3463 O   0  0  0  0  0  0  0  0  0  0  0  0
    5.4881    6.8156    6.2041 C   0  0  1  0  0  0  0  0  0  0  0  0
    4.2058    6.2209    6.5149 O   0  0  0  0  0  0  0  0  0  0  0  0
   10.7961    9.7504    0.9797 C   0  0  0  0  0  0  0  0  0  0  0  0
    0.1856    4.0801    6.7443 C   0  0  0  0  0  0  0  0  0  0  0  0
    3.2025    2.2046    8.3768 C   0  0  0  0  0  0  0  0  0  0  0  0
  1  2  1  1  0  0  0
  1  6  1  0  0  0  0
  1 23  1  0  0  0  0
  3  4  1  1  0  0  0
  3  8  1  0  0  0  0
  3 30  1  0  0  0  0
  5  9  1  0  0  0  0
  5 27  1  0  0  0  0
  5 31  1  6  0  0  0
  6  7  1  1  0  0  0
  6 11  1  0  0  0  0
  8 13  1  0  0  0  0
  9 10  1  6  0  0  0
  9 15  1  0  0  0  0
 11 12  1  6  0  0  0
 11 17  1  0  0  0  0
 13 14  1  6  0  0  0
 13 19  1  0  0  0  0
 15 16  1  1  0  0  0
 15 20  1  0  0  0  0
 16 34  1  0  0  0  0
 17 18  1  1  0  0  0
 17 22  1  0  0  0  0
 19  2  1  6  0  0  0
 19 24  1  0  0  0  0
 20 21  1  1  0  0  0
 20 26  1  0  0  0  0
 20 33  1  0  0  0  0
 22 23  1  6  0  0  0
 22 28  1  0  0  0  0
 24 25  1  6  0  0  0
 24 30  1  0  0  0  0
 26 27  1  0  0  0  0
 28 29  1  1  0  0  0
 28 32  1  0  0  0  0
 30 31  1  1  0  0  0
M  END
>  <CHROM.1>
-165.82566282,-138.21514672,-99.20327000,-176.72299056,72.68204145,-121.32977636
6.23411519,6.28324940,4.83502847,0.56879810,-0.50064600,-1.89011703

>  <Name>
ligand

>  <RI>
0

>  <Rbt.Current_Directory>
/home/itssahil/PROJECTS/Mol_Feturizer/New_Systems/rnas/3TD1

>  <Rbt.Executable>
rbdock ($Id: //depot/dev/client3/rdock/2013.1/src/exe/rbdock.cxx#4 $)

>  <Rbt.Library>
libRbt.so (2013.1, Build901 2013/11/27)

>  <Rbt.Parameter_File>
/export/apps/rDock/src/rDock_2013.1_src/data/scripts/dock_solv.prm

>  <Rbt.Receptor>
prm/blind_docking_100.prm

>  <SCORE>
16.1065

>  <SCORE.INTER>
1.39495

>  <SCORE.INTER.CONST>
1

>  <SCORE.INTER.POLAR>
0

>  <SCORE.INTER.ROT>
6

>  <SCORE.INTER.SOLV>
23.3319

>  <SCORE.INTER.VDW>
-14.4473

>  <SCORE.INTER.norm>
0.0410279

>  <SCORE.INTRA>
-0.599578

>  <SCORE.INTRA.DIHEDRAL>
-4.04539

>  <SCORE.INTRA.DIHEDRAL.0>
19.5869

>  <SCORE.INTRA.POLAR>
0

>  <SCORE.INTRA.POLAR.0>
0

>  <SCORE.INTRA.REPUL>
0

>  <SCORE.INTRA.REPUL.0>
0

>  <SCORE.INTRA.SOLV>
2.0235

>  <SCORE.INTRA.SOLV.lig_0>
-70.101

>  <SCORE.INTRA.VDW>
0.411364

>  <SCORE.INTRA.VDW.0>
-3.39718

>  <SCORE.INTRA.norm>
-0.0176346

>  <SCORE.RESTR>
15.3112

>  <SCORE.RESTR.CAVITY>
15.3112

>  <SCORE.RESTR.norm>
0.450328

>  <SCORE.SYSTEM>
0

>  <SCORE.SYSTEM.CONST>
0

>  <SCORE.SYSTEM.DIHEDRAL>
0

>  <SCORE.SYSTEM.SOLV>
0

>  <SCORE.SYSTEM.norm>
0

>  <SCORE.heavy>
34

>  <SCORE.norm>
0.473722

>  <RMSD>
9.356

$$$$
ligand
 OpenBabel11021811483D
libRbt.so/2013.1/901 2013/11/27
 34 36  0  0  0  0  0  0  0  0999 V2000
    8.9539    9.1774    2.5635 C   0  0  2  0  0  0  0  0  0  0  0  0
    8.4661    7.8424    2.3575 O   0  0  0  0  0  0  0  0  0  0  0  0
    7.1925    4.6288    4.8699 C   0  0  2  0  0  0  0  0  0  0  0  0
    7.1142    3.6813    5.9763 N   0  0  0  0  0  0  0  0  0  0  0  0
    5.3769    6.9059    7.1629 C   0  0  2  0  0  0  0  0  0  0  0  0
    8.4323   10.0717    1.3825 C   0  0  2  0  0  0  0  0  0  0  0  0
    6.9619   10.1028    1.3494 N   0  0  0  0  0  0  0  0  0  0  0  0
    8.6433    4.5497    4.2881 C   0  0  0  0  0  0  0  0  0  0  0  0
    5.2325    5.7975    8.2664 C   0  0  2  0  0  0  0  0  0  0  0  0
    6.4113    5.0109    8.3162 O   0  0  0  0  0  0  0  0  0  0  0  0
    8.9767    9.5218    0.0462 C   0  0  1  0  0  0  0  0  0  0  0  0
    8.5096   10.3404   -1.0385 O   0  0  0  0  0  0  0  0  0  0  0  0
    8.7215    5.5497    3.0853 C   0  0  2  0  0  0  0  0  0  0  0  0
   10.0753    5.5251    2.4950 N   0  0  0  0  0  0  0  0  0  0  0  0
    3.9726    4.9097    7.9288 C   0  0  1  0  0  0  0  0  0  0  0  0
    3.8001    3.8272    8.9435 N   0  0  0  0  0  0  0  0  0  0  0  0
   10.5221    9.4916    0.1117 C   0  0  2  0  0  0  0  0  0  0  0  0
   11.0437    8.9709   -1.1234 O   0  0  0  0  0  0  0  0  0  0  0  0
    8.3999    6.9951    3.5437 C   0  0  2  0  0  0  0  0  0  0  0  0
    2.7014    5.8250    7.8866 C   0  0  1  0  0  0  0  0  0  0  0  0
    2.5005    6.4233    9.1644 O   0  0  0  0  0  0  0  0  0  0  0  0
   10.9823    8.5971    1.3253 C   0  0  2  0  0  0  0  0  0  0  0  0
   10.4240    9.1308    2.5829 O   0  0  0  0  0  0  0  0  0  0  0  0
    6.9848    7.0313    4.1732 C   0  0  2  0  0  0  0  0  0  0  0  0
    6.7190    8.3626    4.6027 O   0  0  0  0  0  0  0  0  0  0  0  0
    2.9264    6.9429    6.8202 C   0  0  0  0  0  0  0  0  0  0  0  0
    4.1535    7.7187    7.1217 O   0  0  0  0  0  0  0  0  0  0  0  0
   12.5270    8.5498    1.4572 C   0  0  2  0  0  0  0  0  0  0  0  0
   12.8818    7.7866    2.6074 O   0  0  0  0  0  0  0  0  0  0  0  0
    6.8917    6.0915    5.3977 C   0  0  1  0  0  0  0  0  0  0  0  0
    5.5404    6.1916    5.9058 O   0  0  0  0  0  0  0  0  0  0  0  0
   13.1176    9.9411    1.6157 C   0  0  0  0  0  0  0  0  0  0  0  0
    1.4420    5.0398    7.5413 C   0  0  0  0  0  0  0  0  0  0  0  0
    3.7088    2.5374    8.2329 C   0  0  0  0  0  0  0  0  0  0  0  0
  1  2  1  6  0  0  0
  1  6  1  0  0  0  0
  1 23  1  0  0  0  0
  3  4  1  1  0  0  0
  3  8  1  0  0  0  0
  3 30  1  0  0  0  0
  5  9  1  0  0  0  0
  5 27  1  0  0  0  0
  5 31  1  6  0  0  0
  6  7  1  6  0  0  0
  6 11  1  0  0  0  0
  8 13  1  0  0  0  0
  9 10  1  6  0  0  0
  9 15  1  0  0  0  0
 11 12  1  6  0  0  0
 11 17  1  0  0  0  0
 13 14  1  1  0  0  0
 13 19  1  0  0  0  0
 15 16  1  1  0  0  0
 15 20  1  0  0  0  0
 16 34  1  0  0  0  0
 17 18  1  6  0  0  0
 17 22  1  0  0  0  0
 19  2  1  6  0  0  0
 19 24  1  0  0  0  0
 20 21  1  1  0  0  0
 20 26  1  0  0  0  0
 20 33  1  0  0  0  0
 22 23  1  1  0  0  0
 22 28  1  0  0  0  0
 24 25  1  1  0  0  0
 24 30  1  0  0  0  0
 26 27  1  0  0  0  0
 28 29  1  1  0  0  0
 28 32  1  0  0  0  0
 30 31  1  6  0  0  0
M  END
>  <CHROM.1>
-157.80073422,-145.77975721,-126.90504290,177.02105736,136.18057276,-100.94029264
7.36483972,7.04951246,4.32469819,0.79152536,0.39373997,-0.70491189

>  <Name>
ligand

>  <RI>
0

>  <Rbt.Current_Directory>
/home/itssahil/PROJECTS/Mol_Feturizer/New_Systems/rnas/3TD1

>  <Rbt.Executable>
rbdock ($Id: //depot/dev/client3/rdock/2013.1/src/exe/rbdock.cxx#4 $)

>  <Rbt.Library>
libRbt.so (2013.1, Build901 2013/11/27)

>  <Rbt.Parameter_File>
/export/apps/rDock/src/rDock_2013.1_src/data/scripts/dock_solv.prm

>  <Rbt.Receptor>
prm/blind_docking_100.prm

>  <SCORE>
18.8326

>  <SCORE.INTER>
2.50116

>  <SCORE.INTER.CONST>
1

>  <SCORE.INTER.POLAR>
0

>  <SCORE.INTER.ROT>
6

>  <SCORE.INTER.SOLV>
22.0194

>  <SCORE.INTER.VDW>
-13.2723

>  <SCORE.INTER.norm>
0.0735635

>  <SCORE.INTRA>
0.16522

>  <SCORE.INTRA.DIHEDRAL>
-0.339737

>  <SCORE.INTRA.DIHEDRAL.0>
19.5869

>  <SCORE.INTRA.POLAR>
0

>  <SCORE.INTRA.POLAR.0>
0

>  <SCORE.INTRA.REPUL>
0

>  <SCORE.INTRA.REPUL.0>
0

>  <SCORE.INTRA.SOLV>
1.15035

>  <SCORE.INTRA.SOLV.lig_0>
-70.101

>  <SCORE.INTRA.VDW>
-0.240087

>  <SCORE.INTRA.VDW.0>
-3.39718

>  <SCORE.INTRA.norm>
0.00485941

>  <SCORE.RESTR>
16.1662

>  <SCORE.RESTR.CAVITY>
16.1662

>  <SCORE.RESTR.norm>
0.475477

>  <SCORE.SYSTEM>
0

>  <SCORE.SYSTEM.CONST>
0

>  <SCORE.SYSTEM.DIHEDRAL>
0

>  <SCORE.SYSTEM.SOLV>
0

>  <SCORE.SYSTEM.norm>
0

>  <SCORE.heavy>
34

>  <SCORE.norm>
0.5539

>  <RMSD>
9.362

$$$$
ligand
 OpenBabel11021811483D
libRbt.so/2013.1/901 2013/11/27
 34 36  0  0  0  0  0  0  0  0999 V2000
    8.0718    7.4534    5.7202 C   0  0  2  0  0  0  0  0  0  0  0  0
    8.1797    6.0289    5.8675 O   0  0  0  0  0  0  0  0  0  0  0  0
    5.5522    3.3756    7.9455 C   0  0  2  0  0  0  0  0  0  0  0  0
    4.8497    2.6769    9.0162 N   0  0  0  0  0  0  0  0  0  0  0  0
    3.1916    6.4019    7.9171 C   0  0  2  0  0  0  0  0  0  0  0  0
    8.6631    7.8420    4.3181 C   0  0  2  0  0  0  0  0  0  0  0  0
    7.9166    7.1936    3.2288 N   0  0  0  0  0  0  0  0  0  0  0  0
    7.0865    3.2147    8.2097 C   0  0  0  0  0  0  0  0  0  0  0  0
    1.7267    6.1674    8.4330 C   0  0  2  0  0  0  0  0  0  0  0  0
    1.7550    5.4358    9.6474 O   0  0  0  0  0  0  0  0  0  0  0  0
   10.1490    7.4261    4.2572 C   0  0  1  0  0  0  0  0  0  0  0  0
   10.6988    7.7860    2.9793 O   0  0  0  0  0  0  0  0  0  0  0  0
    7.8416    3.9447    7.0479 C   0  0  2  0  0  0  0  0  0  0  0  0
    9.3011    3.8329    7.2453 N   0  0  0  0  0  0  0  0  0  0  0  0
    0.9183    5.3912    7.3225 C   0  0  1  0  0  0  0  0  0  0  0  0
   -0.4818    5.1288    7.7725 N   0  0  0  0  0  0  0  0  0  0  0  0
   10.9075    8.1138    5.4171 C   0  0  2  0  0  0  0  0  0  0  0  0
   12.2922    7.7270    5.3798 O   0  0  0  0  0  0  0  0  0  0  0  0
    7.4560    5.4450    6.9921 C   0  0  2  0  0  0  0  0  0  0  0  0
    0.9175    6.2409    6.0058 C   0  0  1  0  0  0  0  0  0  0  0  0
    0.2714    7.4889    6.2426 O   0  0  0  0  0  0  0  0  0  0  0  0
   10.2566    7.7015    6.7922 C   0  0  2  0  0  0  0  0  0  0  0  0
    8.8318    8.0861    6.8091 O   0  0  0  0  0  0  0  0  0  0  0  0
    5.9250    5.5749    6.7943 C   0  0  2  0  0  0  0  0  0  0  0  0
    5.5925    6.9590    6.7645 O   0  0  0  0  0  0  0  0  0  0  0  0
    2.3965    6.4959    5.5756 C   0  0  0  0  0  0  0  0  0  0  0  0
    3.1528    7.1644    6.6616 O   0  0  0  0  0  0  0  0  0  0  0  0
   10.9614    8.3828    7.9942 C   0  0  2  0  0  0  0  0  0  0  0  0
   11.2260    9.7471    7.6778 O   0  0  0  0  0  0  0  0  0  0  0  0
    5.1512    4.9078    7.9553 C   0  0  1  0  0  0  0  0  0  0  0  0
    3.7414    5.0765    7.6756 O   0  0  0  0  0  0  0  0  0  0  0  0
   12.2848    7.7108    8.3208 C   0  0  0  0  0  0  0  0  0  0  0  0
    0.1728    5.5427    4.8746 C   0  0  0  0  0  0  0  0  0  0  0  0
   -0.5608    3.7347    8.2491 C   0  0  0  0  0  0  0  0  0  0  0  0
  1  2  1  1  0  0  0
  1  6  1  0  0  0  0
  1 23  1  0  0  0  0
  3  4  1  1  0  0  0
  3  8  1  0  0  0  0
  3 30  1  0  0  0  0
  5  9  1  0  0  0  0
  5 27  1  0  0  0  0
  5 31  1  6  0  0  0
  6  7  1  6  0  0  0
  6 11  1  0  0  0  0
  8 13  1  0  0  0  0
  9 10  1  1  0  0  0
  9 15  1  0  0  0  0
 11 12  1  6  0  0  0
 11 17  1  0  0  0  0
 13 14  1  1  0  0  0
 13 19  1  0  0  0  0
 15 16  1  1  0  0  0
 15 20  1  0  0  0  0
 16 34  1  0  0  0  0
 17 18  1  1  0  0  0
 17 22  1  0  0  0  0
 19  2  1  6  0  0  0
 19 24  1  0  0  0  0
 20 21  1  1  0  0  0
 20 26  1  0  0  0  0
 20 33  1  0  0  0  0
 22 23  1  6  0  0  0
 22 28  1  0  0  0  0
 24 25  1  1  0  0  0
 24 30  1  0  0  0  0
 26 27  1  0  0  0  0
 28 29  1  6  0  0  0
 28 32  1  0  0  0  0
 30 31  1  6  0  0  0
M  END
>  <CHROM.1>
-168.75355613,-173.76037946,-99.97320840,42.48820883,168.12336623,-145.07740371
6.07491364,6.25010784,6.73610884,0.26321209,-0.06980025,-0.80620593

>  <Name>
ligand

>  <RI>
0

>  <Rbt.Current_Directory>
/home/itssahil/PROJECTS/Mol_Feturizer/New_Systems/rnas/3TD1

>  <Rbt.Executable>
rbdock ($Id: //depot/dev/client3/rdock/2013.1/src/exe/rbdock.cxx#4 $)

>  <Rbt.Library>
libRbt.so (2013.1, Build901 2013/11/27)

>  <Rbt.Parameter_File>
/export/apps/rDock/src/rDock_2013.1_src/data/scripts/dock_solv.prm

>  <Rbt.Receptor>
prm/pocket_docking_4.prm

>  <SCORE>
-11.7396

>  <SCORE.INTER>
-6.66317

>  <SCORE.INTER.CONST>
1

>  <SCORE.INTER.POLAR>
0

>  <SCORE.INTER.ROT>
6

>  <SCORE.INTER.SOLV>
14.1559

>  <SCORE.INTER.VDW>
-16.7608

>  <SCORE.INTER.norm>
-0.195976

>  <SCORE.INTRA>
-5.07644

>  <SCORE.INTRA.DIHEDRAL>
-11.6105

>  <SCORE.INTRA.DIHEDRAL.0>
19.5869

>  <SCORE.INTRA.POLAR>
0

>  <SCORE.INTRA.POLAR.0>
0

>  <SCORE.INTRA.REPUL>
0

>  <SCORE.INTRA.REPUL.0>
0

>  <SCORE.INTRA.SOLV>
-2.84842

>  <SCORE.INTRA.SOLV.lig_0>
-70.101

>  <SCORE.INTRA.VDW>
2.153

>  <SCORE.INTRA.VDW.0>
-3.39718

>  <SCORE.INTRA.norm>
-0.149307

>  <SCORE.RESTR>
0

>  <SCORE.RESTR.CAVITY>
0

>  <SCORE.RESTR.norm>
0

>  <SCORE.SYSTEM>
0

>  <SCORE.SYSTEM.CONST>
0

>  <SCORE.SYSTEM.DIHEDRAL>
0

>  <SCORE.SYSTEM.SOLV>
0

>  <SCORE.SYSTEM.norm>
0

>  <SCORE.heavy>
34

>  <SCORE.norm>
-0.345283

>  <RMSD>
9.365

$$$$
ligand
 OpenBabel11021811483D
libRbt.so/2013.1/901 2013/11/27
 34 36  0  0  0  0  0  0  0  0999 V2000
    7.7048    6.9114    1.2271 C   0  0  2  0  0  0  0  0  0  0  0  0
    7.8873    6.1083    2.4036 O   0  0  0  0  0  0  0  0  0  0  0  0
    7.3144    6.5056    6.6197 C   0  0  2  0  0  0  0  0  0  0  0  0
    7.1244    7.0864    7.9444 N   0  0  0  0  0  0  0  0  0  0  0  0
    4.2851    6.8466    7.4183 C   0  0  2  0  0  0  0  0  0  0  0  0
    8.0394    6.0223   -0.0235 C   0  0  2  0  0  0  0  0  0  0  0  0
    7.1456    4.8564   -0.1006 N   0  0  0  0  0  0  0  0  0  0  0  0
    8.6078    7.1426    6.0108 C   0  0  0  0  0  0  0  0  0  0  0  0
    3.7560    5.6677    8.3113 C   0  0  2  0  0  0  0  0  0  0  0  0
    4.8356    4.8327    8.6959 O   0  0  0  0  0  0  0  0  0  0  0  0
    9.5083    5.5538    0.0610 C   0  0  1  0  0  0  0  0  0  0  0  0
    9.8238    4.7459   -1.0847 O   0  0  0  0  0  0  0  0  0  0  0  0
    8.8256    6.5025    4.5981 C   0  0  2  0  0  0  0  0  0  0  0  0
   10.0340    7.0706    3.9668 N   0  0  0  0  0  0  0  0  0  0  0  0
    2.6773    4.8583    7.4922 C   0  0  1  0  0  0  0  0  0  0  0  0
    2.1527    3.7128    8.2947 N   0  0  0  0  0  0  0  0  0  0  0  0
   10.4243    6.7975    0.1500 C   0  0  2  0  0  0  0  0  0  0  0  0
   11.7965    6.3762    0.2402 O   0  0  0  0  0  0  0  0  0  0  0  0
    7.6072    6.7647    3.6764 C   0  0  2  0  0  0  0  0  0  0  0  0
    1.5100    5.8248    7.0937 C   0  0  1  0  0  0  0  0  0  0  0  0
    0.8901    6.3364    8.2706 O   0  0  0  0  0  0  0  0  0  0  0  0
   10.0274    7.6572    1.4101 C   0  0  2  0  0  0  0  0  0  0  0  0
    8.6124    8.0657    1.3142 O   0  0  0  0  0  0  0  0  0  0  0  0
    6.3313    6.1807    4.3330 C   0  0  2  0  0  0  0  0  0  0  0  0
    5.2243    6.4492    3.4788 O   0  0  0  0  0  0  0  0  0  0  0  0
    2.1022    7.0071    6.2638 C   0  0  0  0  0  0  0  0  0  0  0  0
    3.1610    7.7089    7.0286 O   0  0  0  0  0  0  0  0  0  0  0  0
   10.8977    8.9348    1.5373 C   0  0  2  0  0  0  0  0  0  0  0  0
   10.5869    9.6008    2.7584 O   0  0  0  0  0  0  0  0  0  0  0  0
    6.0604    6.8325    5.7090 C   0  0  1  0  0  0  0  0  0  0  0  0
    4.8613    6.2194    6.2385 O   0  0  0  0  0  0  0  0  0  0  0  0
   10.6398    9.9032    0.3949 C   0  0  0  0  0  0  0  0  0  0  0  0
    0.4359    5.1182    6.2760 C   0  0  0  0  0  0  0  0  0  0  0  0
    3.0987    2.5877    8.1680 C   0  0  0  0  0  0  0  0  0  0  0  0
  1  2  1  1  0  0  0
  1  6  1  0  0  0  0
  1 23  1  0  0  0  0
  3  4  1  1  0  0  0
  3  8  1  0  0  0  0
  3 30  1  0  0  0  0
  5  9  1  0  0  0  0
  5 27  1  0  0  0  0
  5 31  1  6  0  0  0
  6  7  1  1  0  0  0
  6 11  1  0  0  0  0
  8 13  1  0  0  0  0
  9 10  1  6  0  0  0
  9 15  1  0  0  0  0
 11 12  1  6  0  0  0
 11 17  1  0  0  0  0
 13 14  1  6  0  0  0
 13 19  1  0  0  0  0
 15 16  1  1  0  0  0
 15 20  1  0  0  0  0
 16 34  1  0  0  0  0
 17 18  1  1  0  0  0
 17 22  1  0  0  0  0
 19  2  1  6  0  0  0
 19 24  1  0  0  0  0
 20 21  1  1  0  0  0
 20 26  1  0  0  0  0
 20 33  1  0  0  0  0
 22 23  1  6  0  0  0
 22 28  1  0  0  0  0
 24 25  1  6  0  0  0
 24 30  1  0  0  0  0
 26 27  1  0  0  0  0
 28 29  1  1  0  0  0
 28 32  1  0  0  0  0
 30 31  1  1  0  0  0
M  END
>  <CHROM.1>
-179.37831940,-130.10083128,-82.63754209,-174.30389616,74.61662517,-142.54037960
6.58137086,6.43858999,4.29268805,0.60332246,-0.51128809,-1.94233351

>  <Name>
ligand

>  <RI>
0

>  <Rbt.Current_Directory>
/home/itssahil/PROJECTS/Mol_Feturizer/New_Systems/rnas/3TD1

>  <Rbt.Executable>
rbdock ($Id: //depot/dev/client3/rdock/2013.1/src/exe/rbdock.cxx#4 $)

>  <Rbt.Library>
libRbt.so (2013.1, Build901 2013/11/27)

>  <Rbt.Parameter_File>
/export/apps/rDock/src/rDock_2013.1_src/data/scripts/dock_solv.prm

>  <Rbt.Receptor>
prm/blind_docking_20.prm

>  <SCORE>
7.88735

>  <SCORE.INTER>
-2.84347

>  <SCORE.INTER.CONST>
1

>  <SCORE.INTER.POLAR>
0

>  <SCORE.INTER.ROT>
6

>  <SCORE.INTER.SOLV>
21.679

>  <SCORE.INTER.VDW>
-16.722

>  <SCORE.INTER.norm>
-0.0836315

>  <SCORE.INTRA>
-0.29443

>  <SCORE.INTRA.DIHEDRAL>
-6.36522

>  <SCORE.INTRA.DIHEDRAL.0>
19.5869

>  <SCORE.INTRA.POLAR>
0

>  <SCORE.INTRA.POLAR.0>
0

>  <SCORE.INTRA.REPUL>
0

>  <SCORE.INTRA.REPUL.0>
0

>  <SCORE.INTRA.SOLV>
2.43971

>  <SCORE.INTRA.SOLV.lig_0>
-70.101

>  <SCORE.INTRA.VDW>
1.66832

>  <SCORE.INTRA.VDW.0>
-3.39718

>  <SCORE.INTRA.norm>
-0.0086597

>  <SCORE.RESTR>
11.0253

>  <SCORE.RESTR.CAVITY>
11.0253

>  <SCORE.RESTR.norm>
0.324272

>  <SCORE.SYSTEM>
0

>  <SCORE.SYSTEM.CONST>
0

>  <SCORE.SYSTEM.DIHEDRAL>
0

>  <SCORE.SYSTEM.SOLV>
0

>  <SCORE.SYSTEM.norm>
0

>  <SCORE.heavy>
34

>  <SCORE.norm>
0.231981

>  <RMSD>
9.366

$$$$
ligand
 OpenBabel11021811483D
libRbt.so/2013.1/901 2013/11/27
 34 36  0  0  0  0  0  0  0  0999 V2000
    9.0528    9.1658    2.6210 C   0  0  2  0  0  0  0  0  0  0  0  0
    8.5512    7.8393    2.3939 O   0  0  0  0  0  0  0  0  0  0  0  0
    7.1717    4.6285    4.8534 C   0  0  2  0  0  0  0  0  0  0  0  0
    7.0539    3.6745    5.9507 N   0  0  0  0  0  0  0  0  0  0  0  0
    5.3361    6.9651    7.0943 C   0  0  2  0  0  0  0  0  0  0  0  0
    8.9581    9.9581    1.2682 C   0  0  2  0  0  0  0  0  0  0  0  0
    7.5655   10.0497    0.8029 N   0  0  0  0  0  0  0  0  0  0  0  0
    8.6336    4.5304    4.3030 C   0  0  0  0  0  0  0  0  0  0  0  0
    5.2298    5.8947    8.2388 C   0  0  2  0  0  0  0  0  0  0  0  0
    6.4341    5.1500    8.3154 O   0  0  0  0  0  0  0  0  0  0  0  0
    9.8234    9.2527    0.2014 C   0  0  1  0  0  0  0  0  0  0  0  0
    9.7478    9.9771   -1.0373 O   0  0  0  0  0  0  0  0  0  0  0  0
    8.7542    5.5377    3.1098 C   0  0  2  0  0  0  0  0  0  0  0  0
   10.1200    5.4957    2.5493 N   0  0  0  0  0  0  0  0  0  0  0  0
    3.9997    4.9536    7.9375 C   0  0  1  0  0  0  0  0  0  0  0  0
    3.8643    3.9047    8.9923 N   0  0  0  0  0  0  0  0  0  0  0  0
   11.2784    9.1620    0.7195 C   0  0  2  0  0  0  0  0  0  0  0  0
   12.0950    8.4970   -0.2600 O   0  0  0  0  0  0  0  0  0  0  0  0
    8.4454    6.9847    3.5719 C   0  0  2  0  0  0  0  0  0  0  0  0
    2.6988    5.8240    7.8640 C   0  0  1  0  0  0  0  0  0  0  0  0
    2.4793    6.4627    9.1190 O   0  0  0  0  0  0  0  0  0  0  0  0
   11.3050    8.3755    2.0853 C   0  0  2  0  0  0  0  0  0  0  0  0
   10.4478    9.0574    3.0745 O   0  0  0  0  0  0  0  0  0  0  0  0
    7.0175    7.0391    4.1704 C   0  0  2  0  0  0  0  0  0  0  0  0
    6.7634    8.3713    4.6039 O   0  0  0  0  0  0  0  0  0  0  0  0
    2.8855    6.9080    6.7561 C   0  0  0  0  0  0  0  0  0  0  0  0
    4.0864    7.7348    7.0255 O   0  0  0  0  0  0  0  0  0  0  0  0
   12.7390    8.2745    2.6678 C   0  0  2  0  0  0  0  0  0  0  0  0
   13.4286    9.5019    2.4462 O   0  0  0  0  0  0  0  0  0  0  0  0
    6.8825    6.0921    5.3855 C   0  0  1  0  0  0  0  0  0  0  0  0
    5.5220    6.2101    5.8644 O   0  0  0  0  0  0  0  0  0  0  0  0
   13.5347    7.1621    2.0052 C   0  0  0  0  0  0  0  0  0  0  0  0
    1.4658    4.9851    7.5510 C   0  0  0  0  0  0  0  0  0  0  0  0
    3.6357    2.6073    8.3279 C   0  0  0  0  0  0  0  0  0  0  0  0
  1  2  1  6  0  0  0
  1  6  1  0  0  0  0
  1 23  1  0  0  0  0
  3  4  1  1  0  0  0
  3  8  1  0  0  0  0
  3 30  1  0  0  0  0
  5  9  1  0  0  0  0
  5 27  1  0  0  0  0
  5 31  1  6  0  0  0
  6  7  1  6  0  0  0
  6 11  1  0  0  0  0
  8 13  1  0  0  0  0
  9 10  1  6  0  0  0
  9 15  1  0  0  0  0
 11 12  1  6  0  0  0
 11 17  1  0  0  0  0
 13 14  1  1  0  0  0
 13 19  1  0  0  0  0
 15 16  1  1  0  0  0
 15 20  1  0  0  0  0
 16 34  1  0  0  0  0
 17 18  1  6  0  0  0
 17 22  1  0  0  0  0
 19  2  1  6  0  0  0
 19 24  1  0  0  0  0
 20 21  1  1  0  0  0
 20 26  1  0  0  0  0
 20 33  1  0  0  0  0
 22 23  1  1  0  0  0
 22 28  1  0  0  0  0
 24 25  1  1  0  0  0
 24 30  1  0  0  0  0
 26 27  1  0  0  0  0
 28 29  1  6  0  0  0
 28 32  1  0  0  0  0
 30 31  1  6  0  0  0
M  END
>  <CHROM.1>
-174.62547354,-145.90551717,-134.30029190,38.92006536,138.62048873,-98.62139324
7.56592625,6.96763443,4.42950664,0.71454568,0.38488304,-0.67660160

>  <Name>
ligand

>  <RI>
0

>  <Rbt.Current_Directory>
/home/itssahil/PROJECTS/Mol_Feturizer/New_Systems/rnas/3TD1

>  <Rbt.Executable>
rbdock ($Id: //depot/dev/client3/rdock/2013.1/src/exe/rbdock.cxx#4 $)

>  <Rbt.Library>
libRbt.so (2013.1, Build901 2013/11/27)

>  <Rbt.Parameter_File>
/export/apps/rDock/src/rDock_2013.1_src/data/scripts/dock_solv.prm

>  <Rbt.Receptor>
prm/blind_docking_100.prm

>  <SCORE>
17.0021

>  <SCORE.INTER>
3.25801

>  <SCORE.INTER.CONST>
1

>  <SCORE.INTER.POLAR>
0

>  <SCORE.INTER.ROT>
6

>  <SCORE.INTER.SOLV>
21.3973

>  <SCORE.INTER.VDW>
-12.5604

>  <SCORE.INTER.norm>
0.0958238

>  <SCORE.INTRA>
-0.569198

>  <SCORE.INTRA.DIHEDRAL>
-1.81515

>  <SCORE.INTRA.DIHEDRAL.0>
19.5869

>  <SCORE.INTRA.POLAR>
0

>  <SCORE.INTRA.POLAR.0>
0

>  <SCORE.INTRA.REPUL>
0

>  <SCORE.INTRA.REPUL.0>
0

>  <SCORE.INTRA.SOLV>
1.45475

>  <SCORE.INTRA.SOLV.lig_0>
-70.101

>  <SCORE.INTRA.VDW>
-0.389001

>  <SCORE.INTRA.VDW.0>
-3.39718

>  <SCORE.INTRA.norm>
-0.0167411

>  <SCORE.RESTR>
14.3133

>  <SCORE.RESTR.CAVITY>
14.3133

>  <SCORE.RESTR.norm>
0.420979

>  <SCORE.SYSTEM>
0

>  <SCORE.SYSTEM.CONST>
0

>  <SCORE.SYSTEM.DIHEDRAL>
0

>  <SCORE.SYSTEM.SOLV>
0

>  <SCORE.SYSTEM.norm>
0

>  <SCORE.heavy>
34

>  <SCORE.norm>
0.500062

>  <RMSD>
9.379

$$$$
ligand
 OpenBabel11021811483D
libRbt.so/2013.1/901 2013/11/27
 34 36  0  0  0  0  0  0  0  0999 V2000
    8.8153    9.4001    2.4802 C   0  0  2  0  0  0  0  0  0  0  0  0
    8.4446    8.0360    2.2262 O   0  0  0  0  0  0  0  0  0  0  0  0
    7.1753    4.7754    4.6795 C   0  0  2  0  0  0  0  0  0  0  0  0
    7.1041    3.8017    5.7635 N   0  0  0  0  0  0  0  0  0  0  0  0
    5.4251    6.9982    7.0661 C   0  0  2  0  0  0  0  0  0  0  0  0
    8.3140   10.2714    1.2736 C   0  0  2  0  0  0  0  0  0  0  0  0
    6.8515   10.1944    1.1345 N   0  0  0  0  0  0  0  0  0  0  0  0
    8.6156    4.6949    4.0723 C   0  0  0  0  0  0  0  0  0  0  0  0
    5.3759    5.8515    8.1385 C   0  0  2  0  0  0  0  0  0  0  0  0
    6.5858    5.1125    8.1092 O   0  0  0  0  0  0  0  0  0  0  0  0
    8.9919    9.7837   -0.0253 C   0  0  1  0  0  0  0  0  0  0  0  0
    8.5436   10.5822   -1.1326 O   0  0  0  0  0  0  0  0  0  0  0  0
    8.6857    5.7234    2.8932 C   0  0  2  0  0  0  0  0  0  0  0  0
   10.0294    5.6986    2.2804 N   0  0  0  0  0  0  0  0  0  0  0  0
    4.1376    4.9239    7.8296 C   0  0  1  0  0  0  0  0  0  0  0  0
    4.0552    3.8046    8.8153 N   0  0  0  0  0  0  0  0  0  0  0  0
   10.5266    9.8666    0.1516 C   0  0  2  0  0  0  0  0  0  0  0  0
   11.1726    9.4049   -1.0477 O   0  0  0  0  0  0  0  0  0  0  0  0
    8.3878    7.1604    3.3922 C   0  0  2  0  0  0  0  0  0  0  0  0
    2.8308    5.7875    7.8747 C   0  0  1  0  0  0  0  0  0  0  0  0
    2.6661    6.3375    9.1791 O   0  0  0  0  0  0  0  0  0  0  0  0
   10.9646    8.9901    1.3863 C   0  0  2  0  0  0  0  0  0  0  0  0
   10.2796    9.4618    2.6055 O   0  0  0  0  0  0  0  0  0  0  0  0
    6.9836    7.1966    4.0455 C   0  0  2  0  0  0  0  0  0  0  0  0
    6.7399    8.5197    4.5118 O   0  0  0  0  0  0  0  0  0  0  0  0
    2.9618    6.9457    6.8361 C   0  0  0  0  0  0  0  0  0  0  0  0
    4.1701    7.7613    7.1068 O   0  0  0  0  0  0  0  0  0  0  0  0
   12.4952    9.0549    1.6290 C   0  0  2  0  0  0  0  0  0  0  0  0
   13.1803    8.8355    0.3987 O   0  0  0  0  0  0  0  0  0  0  0  0
    6.8997    6.2278    5.2480 C   0  0  1  0  0  0  0  0  0  0  0  0
    5.5579    6.3301    5.7804 O   0  0  0  0  0  0  0  0  0  0  0  0
   12.9503    7.9928    2.6163 C   0  0  0  0  0  0  0  0  0  0  0  0
    1.5886    4.9625    7.5614 C   0  0  0  0  0  0  0  0  0  0  0  0
    4.0819    2.5305    8.0717 C   0  0  0  0  0  0  0  0  0  0  0  0
  1  2  1  6  0  0  0
  1  6  1  0  0  0  0
  1 23  1  0  0  0  0
  3  4  1  1  0  0  0
  3  8  1  0  0  0  0
  3 30  1  0  0  0  0
  5  9  1  0  0  0  0
  5 27  1  0  0  0  0
  5 31  1  6  0  0  0
  6  7  1  6  0  0  0
  6 11  1  0  0  0  0
  8 13  1  0  0  0  0
  9 10  1  6  0  0  0
  9 15  1  0  0  0  0
 11 12  1  6  0  0  0
 11 17  1  0  0  0  0
 13 14  1  1  0  0  0
 13 19  1  0  0  0  0
 15 16  1  1  0  0  0
 15 20  1  0  0  0  0
 16 34  1  0  0  0  0
 17 18  1  6  0  0  0
 17 22  1  0  0  0  0
 19  2  1  6  0  0  0
 19 24  1  0  0  0  0
 20 21  1  1  0  0  0
 20 26  1  0  0  0  0
 20 33  1  0  0  0  0
 22 23  1  1  0  0  0
 22 28  1  0  0  0  0
 24 25  1  1  0  0  0
 24 30  1  0  0  0  0
 26 27  1  0  0  0  0
 28 29  1  6  0  0  0
 28 32  1  0  0  0  0
 30 31  1  6  0  0  0
M  END
>  <CHROM.1>
-159.18674358,-152.13451612,-122.80307637,-48.34804663,135.34426968,-97.24000569
7.40496425,7.16457460,4.20136173,0.80511642,0.41496094,-0.68802643

>  <Name>
ligand

>  <RI>
0

>  <Rbt.Current_Directory>
/home/itssahil/PROJECTS/Mol_Feturizer/New_Systems/rnas/3TD1

>  <Rbt.Executable>
rbdock ($Id: //depot/dev/client3/rdock/2013.1/src/exe/rbdock.cxx#4 $)

>  <Rbt.Library>
libRbt.so (2013.1, Build901 2013/11/27)

>  <Rbt.Parameter_File>
/export/apps/rDock/src/rDock_2013.1_src/data/scripts/dock_solv.prm

>  <Rbt.Receptor>
prm/blind_docking_40.prm

>  <SCORE>
15.3529

>  <SCORE.INTER>
4.07397

>  <SCORE.INTER.CONST>
1

>  <SCORE.INTER.POLAR>
0

>  <SCORE.INTER.ROT>
6

>  <SCORE.INTER.SOLV>
22.3212

>  <SCORE.INTER.VDW>
-12.3244

>  <SCORE.INTER.norm>
0.119823

>  <SCORE.INTRA>
-0.704153

>  <SCORE.INTRA.DIHEDRAL>
-1.7688

>  <SCORE.INTRA.DIHEDRAL.0>
19.5869

>  <SCORE.INTRA.POLAR>
0

>  <SCORE.INTRA.POLAR.0>
0

>  <SCORE.INTRA.REPUL>
0

>  <SCORE.INTRA.REPUL.0>
0

>  <SCORE.INTRA.SOLV>
1.59324

>  <SCORE.INTRA.SOLV.lig_0>
-70.101

>  <SCORE.INTRA.VDW>
-0.616371

>  <SCORE.INTRA.VDW.0>
-3.39718

>  <SCORE.INTRA.norm>
-0.0207104

>  <SCORE.RESTR>
11.9831

>  <SCORE.RESTR.CAVITY>
11.9831

>  <SCORE.RESTR.norm>
0.352444

>  <SCORE.SYSTEM>
0

>  <SCORE.SYSTEM.CONST>
0

>  <SCORE.SYSTEM.DIHEDRAL>
0

>  <SCORE.SYSTEM.SOLV>
0

>  <SCORE.SYSTEM.norm>
0

>  <SCORE.heavy>
34

>  <SCORE.norm>
0.451556

>  <RMSD>
9.380

$$$$
ligand
 OpenBabel11021811483D
libRbt.so/2013.1/901 2013/11/27
 34 36  0  0  0  0  0  0  0  0999 V2000
    9.0742    9.1710    2.6382 C   0  0  2  0  0  0  0  0  0  0  0  0
    8.5584    7.8504    2.4089 O   0  0  0  0  0  0  0  0  0  0  0  0
    7.1920    4.6243    4.8557 C   0  0  2  0  0  0  0  0  0  0  0  0
    7.0786    3.6650    5.9489 N   0  0  0  0  0  0  0  0  0  0  0  0
    5.3547    6.9227    7.1230 C   0  0  2  0  0  0  0  0  0  0  0  0
    8.9848    9.9676    1.2877 C   0  0  2  0  0  0  0  0  0  0  0  0
    7.5922   10.0749    0.8257 N   0  0  0  0  0  0  0  0  0  0  0  0
    8.6535    4.5333    4.3032 C   0  0  0  0  0  0  0  0  0  0  0  0
    5.2207    5.8254    8.2389 C   0  0  2  0  0  0  0  0  0  0  0  0
    6.4117    5.0587    8.3061 O   0  0  0  0  0  0  0  0  0  0  0  0
    9.8403    9.2561    0.2171 C   0  0  1  0  0  0  0  0  0  0  0  0
    9.7694    9.9843   -1.0195 O   0  0  0  0  0  0  0  0  0  0  0  0
    8.7694    5.5462    3.1143 C   0  0  2  0  0  0  0  0  0  0  0  0
   10.1348    5.5111    2.5520 N   0  0  0  0  0  0  0  0  0  0  0  0
    3.9777    4.9132    7.9036 C   0  0  1  0  0  0  0  0  0  0  0  0
    3.8158    3.8403    8.9301 N   0  0  0  0  0  0  0  0  0  0  0  0
   11.2954    9.1488    0.7317 C   0  0  2  0  0  0  0  0  0  0  0  0
   12.1029    8.4779   -0.2514 O   0  0  0  0  0  0  0  0  0  0  0  0
    8.4566    6.9902    3.5832 C   0  0  2  0  0  0  0  0  0  0  0  0
    2.6922    5.8072    7.8417 C   0  0  1  0  0  0  0  0  0  0  0  0
    2.4727    6.4174    9.1108 O   0  0  0  0  0  0  0  0  0  0  0  0
   11.3169    8.3586    2.0955 C   0  0  2  0  0  0  0  0  0  0  0  0
   10.4690    9.0469    3.0883 O   0  0  0  0  0  0  0  0  0  0  0  0
    7.0293    7.0374    4.1836 C   0  0  2  0  0  0  0  0  0  0  0  0
    6.7715    8.3668    4.6235 O   0  0  0  0  0  0  0  0  0  0  0  0
    2.9065    6.9156    6.7634 C   0  0  0  0  0  0  0  0  0  0  0  0
    4.1187    7.7149    7.0637 O   0  0  0  0  0  0  0  0  0  0  0  0
   12.7510    8.2412    2.6745 C   0  0  2  0  0  0  0  0  0  0  0  0
   13.4501    9.4649    2.4619 O   0  0  0  0  0  0  0  0  0  0  0  0
    6.8988    6.0845    5.3947 C   0  0  1  0  0  0  0  0  0  0  0  0
    5.5385    6.1961    5.8758 O   0  0  0  0  0  0  0  0  0  0  0  0
   13.5366    7.1280    2.0011 C   0  0  0  0  0  0  0  0  0  0  0  0
    1.4481    4.9975    7.4974 C   0  0  0  0  0  0  0  0  0  0  0  0
    3.6791    2.5482    8.2311 C   0  0  0  0  0  0  0  0  0  0  0  0
  1  2  1  6  0  0  0
  1  6  1  0  0  0  0
  1 23  1  0  0  0  0
  3  4  1  1  0  0  0
  3  8  1  0  0  0  0
  3 30  1  0  0  0  0
  5  9  1  0  0  0  0
  5 27  1  0  0  0  0
  5 31  1  6  0  0  0
  6  7  1  6  0  0  0
  6 11  1  0  0  0  0
  8 13  1  0  0  0  0
  9 10  1  6  0  0  0
  9 15  1  0  0  0  0
 11 12  1  6  0  0  0
 11 17  1  0  0  0  0
 13 14  1  1  0  0  0
 13 19  1  0  0  0  0
 15 16  1  1  0  0  0
 15 20  1  0  0  0  0
 16 34  1  0  0  0  0
 17 18  1  6  0  0  0
 17 22  1  0  0  0  0
 19  2  1  6  0  0  0
 19 24  1  0  0  0  0
 20 21  1  1  0  0  0
 20 26  1  0  0  0  0
 20 33  1  0  0  0  0
 22 23  1  1  0  0  0
 22 28  1  0  0  0  0
 24 25  1  1  0  0  0
 24 30  1  0  0  0  0
 26 27  1  0  0  0  0
 28 29  1  6  0  0  0
 28 32  1  0  0  0  0
 30 31  1  6  0  0  0
M  END
>  <CHROM.1>
-175.11444212,-145.03601432,-129.83404311,39.28119323,137.46052432,-99.51548081
7.57639376,6.95135408,4.43044556,0.71091471,0.38682820,-0.66742065

>  <Name>
ligand

>  <RI>
0

>  <Rbt.Current_Directory>
/home/itssahil/PROJECTS/Mol_Feturizer/New_Systems/rnas/3TD1

>  <Rbt.Executable>
rbdock ($Id: //depot/dev/client3/rdock/2013.1/src/exe/rbdock.cxx#4 $)

>  <Rbt.Library>
libRbt.so (2013.1, Build901 2013/11/27)

>  <Rbt.Parameter_File>
/export/apps/rDock/src/rDock_2013.1_src/data/scripts/dock_solv.prm

>  <Rbt.Receptor>
prm/blind_docking_100.prm

>  <SCORE>
16.7022

>  <SCORE.INTER>
2.75472

>  <SCORE.INTER.CONST>
1

>  <SCORE.INTER.POLAR>
0

>  <SCORE.INTER.ROT>
6

>  <SCORE.INTER.SOLV>
21.2646

>  <SCORE.INTER.VDW>
-12.8517

>  <SCORE.INTER.norm>
0.0810212

>  <SCORE.INTRA>
-0.437599

>  <SCORE.INTRA.DIHEDRAL>
-1.31903

>  <SCORE.INTRA.DIHEDRAL.0>
19.5869

>  <SCORE.INTRA.POLAR>
0

>  <SCORE.INTRA.POLAR.0>
0

>  <SCORE.INTRA.REPUL>
0

>  <SCORE.INTRA.REPUL.0>
0

>  <SCORE.INTRA.SOLV>
1.60276

>  <SCORE.INTRA.SOLV.lig_0>
-70.101

>  <SCORE.INTRA.VDW>
-0.579464

>  <SCORE.INTRA.VDW.0>
-3.39718

>  <SCORE.INTRA.norm>
-0.0128705

>  <SCORE.RESTR>
14.3851

>  <SCORE.RESTR.CAVITY>
14.3851

>  <SCORE.RESTR.norm>
0.42309

>  <SCORE.SYSTEM>
0

>  <SCORE.SYSTEM.CONST>
0

>  <SCORE.SYSTEM.DIHEDRAL>
0

>  <SCORE.SYSTEM.SOLV>
0

>  <SCORE.SYSTEM.norm>
0

>  <SCORE.heavy>
34

>  <SCORE.norm>
0.491241

>  <RMSD>
9.381

$$$$
ligand
 OpenBabel11021811483D
libRbt.so/2013.1/901 2013/11/27
 34 36  0  0  0  0  0  0  0  0999 V2000
    7.8865    6.1687   10.4826 C   0  0  2  0  0  0  0  0  0  0  0  0
    7.5025    5.0192    9.7121 O   0  0  0  0  0  0  0  0  0  0  0  0
    3.8081    3.2495    8.4951 C   0  0  2  0  0  0  0  0  0  0  0  0
    2.4324    2.7643    8.5087 N   0  0  0  0  0  0  0  0  0  0  0  0
    2.9122    6.8745    7.5951 C   0  0  2  0  0  0  0  0  0  0  0  0
    9.3722    6.5231   10.1172 C   0  0  2  0  0  0  0  0  0  0  0  0
    9.5055    6.8431    8.6875 N   0  0  0  0  0  0  0  0  0  0  0  0
    4.5456    2.5991    9.7128 C   0  0  0  0  0  0  0  0  0  0  0  0
    1.6765    7.0116    8.5550 C   0  0  2  0  0  0  0  0  0  0  0  0
    1.9997    6.4907    9.8337 O   0  0  0  0  0  0  0  0  0  0  0  0
   10.2851    5.3305   10.4762 C   0  0  1  0  0  0  0  0  0  0  0  0
   11.6477    5.6510   10.1517 O   0  0  0  0  0  0  0  0  0  0  0  0
    6.0289    3.1011    9.6856 C   0  0  2  0  0  0  0  0  0  0  0  0
    6.7785    2.5238   10.8197 N   0  0  0  0  0  0  0  0  0  0  0  0
    0.4558    6.2391    7.9204 C   0  0  1  0  0  0  0  0  0  0  0  0
   -0.7442    6.3261    8.8057 N   0  0  0  0  0  0  0  0  0  0  0  0
   10.1187    5.0101   11.9806 C   0  0  2  0  0  0  0  0  0  0  0  0
   10.9557    3.8932   12.3279 O   0  0  0  0  0  0  0  0  0  0  0  0
    6.0930    4.6472    9.7764 C   0  0  2  0  0  0  0  0  0  0  0  0
    0.1410    6.8528    6.5133 C   0  0  1  0  0  0  0  0  0  0  0  0
   -0.2213    8.2233    6.6598 O   0  0  0  0  0  0  0  0  0  0  0  0
    8.6075    4.6831   12.2874 C   0  0  2  0  0  0  0  0  0  0  0  0
    7.7584    5.8291   11.9081 O   0  0  0  0  0  0  0  0  0  0  0  0
    5.3018    5.2643    8.5961 C   0  0  2  0  0  0  0  0  0  0  0  0
    5.3592    6.6824    8.7105 O   0  0  0  0  0  0  0  0  0  0  0  0
    1.4204    6.7466    5.6249 C   0  0  0  0  0  0  0  0  0  0  0  0
    2.5700    7.4209    6.2747 O   0  0  0  0  0  0  0  0  0  0  0  0
    8.3743    4.3778   13.7902 C   0  0  2  0  0  0  0  0  0  0  0  0
    9.0886    5.3229   14.5826 O   0  0  0  0  0  0  0  0  0  0  0  0
    3.8186    4.8279    8.6263 C   0  0  1  0  0  0  0  0  0  0  0  0
    3.1725    5.4469    7.4889 O   0  0  0  0  0  0  0  0  0  0  0  0
    8.8641    2.9878   14.1610 C   0  0  0  0  0  0  0  0  0  0  0  0
   -1.0164    6.1403    5.8243 C   0  0  0  0  0  0  0  0  0  0  0  0
   -0.9272    5.0197    9.4665 C   0  0  0  0  0  0  0  0  0  0  0  0
  1  2  1  6  0  0  0
  1  6  1  0  0  0  0
  1 23  1  0  0  0  0
  3  4  1  1  0  0  0
  3  8  1  0  0  0  0
  3 30  1  0  0  0  0
  5  9  1  0  0  0  0
  5 27  1  0  0  0  0
  5 31  1  6  0  0  0
  6  7  1  6  0  0  0
  6 11  1  0  0  0  0
  8 13  1  0  0  0  0
  9 10  1  1  0  0  0
  9 15  1  0  0  0  0
 11 12  1  1  0  0  0
 11 17  1  0  0  0  0
 13 14  1  1  0  0  0
 13 19  1  0  0  0  0
 15 16  1  1  0  0  0
 15 20  1  0  0  0  0
 16 34  1  0  0  0  0
 17 18  1  6  0  0  0
 17 22  1  0  0  0  0
 19  2  1  6  0  0  0
 19 24  1  0  0  0  0
 20 21  1  1  0  0  0
 20 26  1  0  0  0  0
 20 33  1  0  0  0  0
 22 23  1  1  0  0  0
 22 28  1  0  0  0  0
 24 25  1  1  0  0  0
 24 30  1  0  0  0  0
 26 27  1  0  0  0  0
 28 29  1  1  0  0  0
 28 32  1  0  0  0  0
 30 31  1  6  0  0  0
M  END
>  <CHROM.1>
-171.87028025,-146.03662541,-105.55650918,43.53643284,169.82760242,-75.81527041
5.17455879,5.37521494,9.54769980,-0.45533278,-0.20140289,-0.85692733

>  <Name>
ligand

>  <RI>
0

>  <Rbt.Current_Directory>
/home/itssahil/PROJECTS/Mol_Feturizer/New_Systems/rnas/3TD1

>  <Rbt.Executable>
rbdock ($Id: //depot/dev/client3/rdock/2013.1/src/exe/rbdock.cxx#4 $)

>  <Rbt.Library>
libRbt.so (2013.1, Build901 2013/11/27)

>  <Rbt.Parameter_File>
/export/apps/rDock/src/rDock_2013.1_src/data/scripts/dock_solv.prm

>  <Rbt.Receptor>
prm/pocket_docking_7.prm

>  <SCORE>
-15.3519

>  <SCORE.INTER>
-10.8542

>  <SCORE.INTER.CONST>
1

>  <SCORE.INTER.POLAR>
0

>  <SCORE.INTER.ROT>
6

>  <SCORE.INTER.SOLV>
15.73

>  <SCORE.INTER.VDW>
-20.0795

>  <SCORE.INTER.norm>
-0.319241

>  <SCORE.INTRA>
-4.49774

>  <SCORE.INTRA.DIHEDRAL>
-11.2372

>  <SCORE.INTRA.DIHEDRAL.0>
19.5869

>  <SCORE.INTRA.POLAR>
0

>  <SCORE.INTRA.POLAR.0>
0

>  <SCORE.INTRA.REPUL>
0

>  <SCORE.INTRA.REPUL.0>
0

>  <SCORE.INTRA.SOLV>
0.480253

>  <SCORE.INTRA.SOLV.lig_0>
-70.101

>  <SCORE.INTRA.VDW>
0.880712

>  <SCORE.INTRA.VDW.0>
-3.39718

>  <SCORE.INTRA.norm>
-0.132286

>  <SCORE.RESTR>
0

>  <SCORE.RESTR.CAVITY>
0

>  <SCORE.RESTR.norm>
0

>  <SCORE.SYSTEM>
0

>  <SCORE.SYSTEM.CONST>
0

>  <SCORE.SYSTEM.DIHEDRAL>
0

>  <SCORE.SYSTEM.SOLV>
0

>  <SCORE.SYSTEM.norm>
0

>  <SCORE.heavy>
34

>  <SCORE.norm>
-0.451527

>  <RMSD>
9.383

$$$$
ligand
 OpenBabel11021811483D
libRbt.so/2013.1/901 2013/11/27
 34 36  0  0  0  0  0  0  0  0999 V2000
    9.0981    9.1676    2.6345 C   0  0  2  0  0  0  0  0  0  0  0  0
    8.5634    7.8556    2.3990 O   0  0  0  0  0  0  0  0  0  0  0  0
    7.1848    4.6202    4.8266 C   0  0  2  0  0  0  0  0  0  0  0  0
    7.0692    3.6535    5.9129 N   0  0  0  0  0  0  0  0  0  0  0  0
    5.3705    6.9211    7.1136 C   0  0  2  0  0  0  0  0  0  0  0  0
    9.0055    9.9771    1.2918 C   0  0  2  0  0  0  0  0  0  0  0  0
    7.6099   10.1058    0.8447 N   0  0  0  0  0  0  0  0  0  0  0  0
    8.6436    4.5238    4.2678 C   0  0  0  0  0  0  0  0  0  0  0  0
    5.2332    5.8230    8.2283 C   0  0  2  0  0  0  0  0  0  0  0  0
    6.4196    5.0488    8.2906 O   0  0  0  0  0  0  0  0  0  0  0  0
    9.8414    9.2642    0.2068 C   0  0  1  0  0  0  0  0  0  0  0  0
    9.7676   10.0041   -1.0228 O   0  0  0  0  0  0  0  0  0  0  0  0
    8.7618    5.5449    3.0862 C   0  0  2  0  0  0  0  0  0  0  0  0
   10.1248    5.5049    2.5184 N   0  0  0  0  0  0  0  0  0  0  0  0
    3.9834    4.9191    7.8957 C   0  0  1  0  0  0  0  0  0  0  0  0
    3.8180    3.8457    8.9212 N   0  0  0  0  0  0  0  0  0  0  0  0
   11.3000    9.1343    0.7059 C   0  0  2  0  0  0  0  0  0  0  0  0
   12.0893    8.4619   -0.2908 O   0  0  0  0  0  0  0  0  0  0  0  0
    8.4604    6.9873    3.5671 C   0  0  2  0  0  0  0  0  0  0  0  0
    2.7033    5.8212    7.8393 C   0  0  1  0  0  0  0  0  0  0  0  0
    2.4917    6.4308    9.1099 O   0  0  0  0  0  0  0  0  0  0  0  0
   11.3249    8.3320    2.0626 C   0  0  2  0  0  0  0  0  0  0  0  0
   10.4956    9.0221    3.0696 O   0  0  0  0  0  0  0  0  0  0  0  0
    7.0357    7.0393    4.1733 C   0  0  2  0  0  0  0  0  0  0  0  0
    6.7884    8.3671    4.6241 O   0  0  0  0  0  0  0  0  0  0  0  0
    2.9210    6.9298    6.7619 C   0  0  0  0  0  0  0  0  0  0  0  0
    4.1392    7.7210    7.0594 O   0  0  0  0  0  0  0  0  0  0  0  0
   12.7631    8.1916    2.6263 C   0  0  2  0  0  0  0  0  0  0  0  0
   13.4598    9.4239    2.4609 O   0  0  0  0  0  0  0  0  0  0  0  0
    6.9034    6.0783    5.3776 C   0  0  1  0  0  0  0  0  0  0  0  0
    5.5457    6.1952    5.8647 O   0  0  0  0  0  0  0  0  0  0  0  0
   13.5448    7.1087    1.9010 C   0  0  0  0  0  0  0  0  0  0  0  0
    1.4531    5.0197    7.4978 C   0  0  0  0  0  0  0  0  0  0  0  0
    3.6777    2.5546    8.2209 C   0  0  0  0  0  0  0  0  0  0  0  0
  1  2  1  6  0  0  0
  1  6  1  0  0  0  0
  1 23  1  0  0  0  0
  3  4  1  1  0  0  0
  3  8  1  0  0  0  0
  3 30  1  0  0  0  0
  5  9  1  0  0  0  0
  5 27  1  0  0  0  0
  5 31  1  6  0  0  0
  6  7  1  6  0  0  0
  6 11  1  0  0  0  0
  8 13  1  0  0  0  0
  9 10  1  6  0  0  0
  9 15  1  0  0  0  0
 11 12  1  6  0  0  0
 11 17  1  0  0  0  0
 13 14  1  1  0  0  0
 13 19  1  0  0  0  0
 15 16  1  1  0  0  0
 15 20  1  0  0  0  0
 16 34  1  0  0  0  0
 17 18  1  6  0  0  0
 17 22  1  0  0  0  0
 19  2  1  6  0  0  0
 19 24  1  0  0  0  0
 20 21  1  1  0  0  0
 20 26  1  0  0  0  0
 20 33  1  0  0  0  0
 22 23  1  1  0  0  0
 22 28  1  0  0  0  0
 24 25  1  1  0  0  0
 24 30  1  0  0  0  0
 26 27  1  0  0  0  0
 28 29  1  6  0  0  0
 28 32  1  0  0  0  0
 30 31  1  6  0  0  0
M  END
>  <CHROM.1>
-175.02057894,-144.59266824,-129.56222186,41.36565446,137.84858209,-99.64165548
7.58321221,6.94873773,4.41414943,0.70670532,0.39650715,-0.65908821

>  <Name>
ligand

>  <RI>
0

>  <Rbt.Current_Directory>
/home/itssahil/PROJECTS/Mol_Feturizer/New_Systems/rnas/3TD1

>  <Rbt.Executable>
rbdock ($Id: //depot/dev/client3/rdock/2013.1/src/exe/rbdock.cxx#4 $)

>  <Rbt.Library>
libRbt.so (2013.1, Build901 2013/11/27)

>  <Rbt.Parameter_File>
/export/apps/rDock/src/rDock_2013.1_src/data/scripts/dock_solv.prm

>  <Rbt.Receptor>
prm/blind_docking_100.prm

>  <SCORE>
16.9375

>  <SCORE.INTER>
3.11538

>  <SCORE.INTER.CONST>
1

>  <SCORE.INTER.POLAR>
0

>  <SCORE.INTER.ROT>
6

>  <SCORE.INTER.SOLV>
21.3482

>  <SCORE.INTER.VDW>
-12.6392

>  <SCORE.INTER.norm>
0.0916289

>  <SCORE.INTRA>
-0.487709

>  <SCORE.INTRA.DIHEDRAL>
-1.51764

>  <SCORE.INTRA.DIHEDRAL.0>
19.5869

>  <SCORE.INTRA.POLAR>
0

>  <SCORE.INTRA.POLAR.0>
0

>  <SCORE.INTRA.REPUL>
0

>  <SCORE.INTRA.REPUL.0>
0

>  <SCORE.INTRA.SOLV>
1.59622

>  <SCORE.INTRA.SOLV.lig_0>
-70.101

>  <SCORE.INTRA.VDW>
-0.527003

>  <SCORE.INTRA.VDW.0>
-3.39718

>  <SCORE.INTRA.norm>
-0.0143444

>  <SCORE.RESTR>
14.3098

>  <SCORE.RESTR.CAVITY>
14.3098

>  <SCORE.RESTR.norm>
0.420877

>  <SCORE.SYSTEM>
0

>  <SCORE.SYSTEM.CONST>
0

>  <SCORE.SYSTEM.DIHEDRAL>
0

>  <SCORE.SYSTEM.SOLV>
0

>  <SCORE.SYSTEM.norm>
0

>  <SCORE.heavy>
34

>  <SCORE.norm>
0.498162

>  <RMSD>
9.385

$$$$
ligand
 OpenBabel11021811483D
libRbt.so/2013.1/901 2013/11/27
 34 36  0  0  0  0  0  0  0  0999 V2000
    9.0913    9.1720    2.6165 C   0  0  2  0  0  0  0  0  0  0  0  0
    8.5548    7.8597    2.3868 O   0  0  0  0  0  0  0  0  0  0  0  0
    7.1973    4.6223    4.8237 C   0  0  2  0  0  0  0  0  0  0  0  0
    7.0878    3.6581    5.9129 N   0  0  0  0  0  0  0  0  0  0  0  0
    5.3677    6.9078    7.1089 C   0  0  2  0  0  0  0  0  0  0  0  0
    8.9993    9.9758    1.2704 C   0  0  2  0  0  0  0  0  0  0  0  0
    7.6037   10.1045    0.8232 N   0  0  0  0  0  0  0  0  0  0  0  0
    8.6570    4.5341    4.2658 C   0  0  0  0  0  0  0  0  0  0  0  0
    5.2235    5.8033    8.2164 C   0  0  2  0  0  0  0  0  0  0  0  0
    6.4081    5.0265    8.2792 O   0  0  0  0  0  0  0  0  0  0  0  0
    9.8339    9.2571    0.1882 C   0  0  1  0  0  0  0  0  0  0  0  0
    9.7607    9.9918   -1.0446 O   0  0  0  0  0  0  0  0  0  0  0  0
    8.7687    5.5524    3.0811 C   0  0  2  0  0  0  0  0  0  0  0  0
   10.1321    5.5201    2.5140 N   0  0  0  0  0  0  0  0  0  0  0  0
    3.9735    4.9038    7.8728 C   0  0  1  0  0  0  0  0  0  0  0  0
    3.8016    3.8245    8.8911 N   0  0  0  0  0  0  0  0  0  0  0  0
   11.2925    9.1274    0.6874 C   0  0  2  0  0  0  0  0  0  0  0  0
   12.0805    8.4496   -0.3067 O   0  0  0  0  0  0  0  0  0  0  0  0
    8.4572    6.9942    3.5576 C   0  0  2  0  0  0  0  0  0  0  0  0
    2.6953    5.8086    7.8163 C   0  0  1  0  0  0  0  0  0  0  0  0
    2.4793    6.4110    9.0897 O   0  0  0  0  0  0  0  0  0  0  0  0
   11.3168    8.3309    2.0475 C   0  0  2  0  0  0  0  0  0  0  0  0
   10.4888    9.0265    3.0518 O   0  0  0  0  0  0  0  0  0  0  0  0
    7.0319    7.0384    4.1631 C   0  0  2  0  0  0  0  0  0  0  0  0
    6.7754    8.3658    4.6098 O   0  0  0  0  0  0  0  0  0  0  0  0
    2.9199    6.9234    6.7466 C   0  0  0  0  0  0  0  0  0  0  0  0
    4.1382    7.7104    7.0542 O   0  0  0  0  0  0  0  0  0  0  0  0
   12.7550    8.1910    2.6113 C   0  0  2  0  0  0  0  0  0  0  0  0
   13.4550    9.4199    2.4356 O   0  0  0  0  0  0  0  0  0  0  0  0
    6.9057    6.0801    5.3703 C   0  0  1  0  0  0  0  0  0  0  0  0
    5.5471    6.1892    5.8565 O   0  0  0  0  0  0  0  0  0  0  0  0
   13.5331    7.1001    1.8942 C   0  0  0  0  0  0  0  0  0  0  0  0
    1.4452    5.0116    7.4645 C   0  0  0  0  0  0  0  0  0  0  0  0
    3.7392    2.5296    8.1865 C   0  0  0  0  0  0  0  0  0  0  0  0
  1  2  1  6  0  0  0
  1  6  1  0  0  0  0
  1 23  1  0  0  0  0
  3  4  1  1  0  0  0
  3  8  1  0  0  0  0
  3 30  1  0  0  0  0
  5  9  1  0  0  0  0
  5 27  1  0  0  0  0
  5 31  1  6  0  0  0
  6  7  1  6  0  0  0
  6 11  1  0  0  0  0
  8 13  1  0  0  0  0
  9 10  1  6  0  0  0
  9 15  1  0  0  0  0
 11 12  1  6  0  0  0
 11 17  1  0  0  0  0
 13 14  1  1  0  0  0
 13 19  1  0  0  0  0
 15 16  1  1  0  0  0
 15 20  1  0  0  0  0
 16 34  1  0  0  0  0
 17 18  1  6  0  0  0
 17 22  1  0  0  0  0
 19  2  1  6  0  0  0
 19 24  1  0  0  0  0
 20 21  1  1  0  0  0
 20 26  1  0  0  0  0
 20 33  1  0  0  0  0
 22 23  1  1  0  0  0
 22 28  1  0  0  0  0
 24 25  1  1  0  0  0
 24 30  1  0  0  0  0
 26 27  1  0  0  0  0
 28 29  1  6  0  0  0
 28 32  1  0  0  0  0
 30 31  1  6  0  0  0
M  END
>  <CHROM.1>
-175.31621578,-144.06815651,-126.38245446,41.13507757,137.34376402,-100.02441647
7.58098656,6.94333369,4.39921035,0.70889326,0.39393102,-0.66187349

>  <Name>
ligand

>  <RI>
0

>  <Rbt.Current_Directory>
/home/itssahil/PROJECTS/Mol_Feturizer/New_Systems/rnas/3TD1

>  <Rbt.Executable>
rbdock ($Id: //depot/dev/client3/rdock/2013.1/src/exe/rbdock.cxx#4 $)

>  <Rbt.Library>
libRbt.so (2013.1, Build901 2013/11/27)

>  <Rbt.Parameter_File>
/export/apps/rDock/src/rDock_2013.1_src/data/scripts/dock_solv.prm

>  <Rbt.Receptor>
prm/blind_docking_100.prm

>  <SCORE>
16.7564

>  <SCORE.INTER>
2.78728

>  <SCORE.INTER.CONST>
1

>  <SCORE.INTER.POLAR>
0

>  <SCORE.INTER.ROT>
6

>  <SCORE.INTER.SOLV>
21.2372

>  <SCORE.INTER.VDW>
-12.8209

>  <SCORE.INTER.norm>
0.0819789

>  <SCORE.INTRA>
-0.40195

>  <SCORE.INTRA.DIHEDRAL>
-1.23251

>  <SCORE.INTRA.DIHEDRAL.0>
19.5869

>  <SCORE.INTRA.POLAR>
0

>  <SCORE.INTRA.POLAR.0>
0

>  <SCORE.INTRA.REPUL>
0

>  <SCORE.INTRA.REPUL.0>
0

>  <SCORE.INTRA.SOLV>
1.69293

>  <SCORE.INTRA.SOLV.lig_0>
-70.101

>  <SCORE.INTRA.VDW>
-0.632156

>  <SCORE.INTRA.VDW.0>
-3.39718

>  <SCORE.INTRA.norm>
-0.0118221

>  <SCORE.RESTR>
14.3711

>  <SCORE.RESTR.CAVITY>
14.3711

>  <SCORE.RESTR.norm>
0.42268

>  <SCORE.SYSTEM>
0

>  <SCORE.SYSTEM.CONST>
0

>  <SCORE.SYSTEM.DIHEDRAL>
0

>  <SCORE.SYSTEM.SOLV>
0

>  <SCORE.SYSTEM.norm>
0

>  <SCORE.heavy>
34

>  <SCORE.norm>
0.492837

>  <RMSD>
9.390

$$$$
ligand
 OpenBabel11021811483D
libRbt.so/2013.1/901 2013/11/27
 34 36  0  0  0  0  0  0  0  0999 V2000
   10.8394    8.7819    1.9980 C   0  0  2  0  0  0  0  0  0  0  0  0
    9.6935    8.2353    1.3267 O   0  0  0  0  0  0  0  0  0  0  0  0
    6.9889    5.2433    2.7393 C   0  0  2  0  0  0  0  0  0  0  0  0
    6.4306    3.9556    3.1369 N   0  0  0  0  0  0  0  0  0  0  0  0
    7.2119    7.1549    5.4084 C   0  0  2  0  0  0  0  0  0  0  0  0
   11.3748    9.9848    1.1418 C   0  0  2  0  0  0  0  0  0  0  0  0
   10.3553   11.0369    1.0085 N   0  0  0  0  0  0  0  0  0  0  0  0
    7.5254    5.0893    1.2770 C   0  0  0  0  0  0  0  0  0  0  0  0
    6.9862    7.1441    6.9627 C   0  0  2  0  0  0  0  0  0  0  0  0
    8.2136    6.8908    7.6260 O   0  0  0  0  0  0  0  0  0  0  0  0
   11.7881    9.4734   -0.2554 C   0  0  1  0  0  0  0  0  0  0  0  0
   12.2865   10.5679   -1.0417 O   0  0  0  0  0  0  0  0  0  0  0  0
    8.1040    6.4778    0.8409 C   0  0  2  0  0  0  0  0  0  0  0  0
    8.6339    6.3945   -0.5353 N   0  0  0  0  0  0  0  0  0  0  0  0
    5.9157    6.0382    7.3099 C   0  0  1  0  0  0  0  0  0  0  0  0
    5.6762    5.9768    8.7831 N   0  0  0  0  0  0  0  0  0  0  0  0
   12.8525    8.3635   -0.0856 C   0  0  2  0  0  0  0  0  0  0  0  0
   13.2398    7.8694   -1.3796 O   0  0  0  0  0  0  0  0  0  0  0  0
    9.2431    6.9274    1.7912 C   0  0  2  0  0  0  0  0  0  0  0  0
    4.5825    6.3651    6.5540 C   0  0  1  0  0  0  0  0  0  0  0  0
    4.0830    7.6268    6.9895 O   0  0  0  0  0  0  0  0  0  0  0  0
   12.2639    7.1972    0.7965 C   0  0  2  0  0  0  0  0  0  0  0  0
   11.8525    7.7218    2.1132 O   0  0  0  0  0  0  0  0  0  0  0  0
    8.7009    7.0095    3.2401 C   0  0  2  0  0  0  0  0  0  0  0  0
    9.7674    7.4057    4.0962 O   0  0  0  0  0  0  0  0  0  0  0  0
    4.8791    6.4253    5.0224 C   0  0  0  0  0  0  0  0  0  0  0  0
    5.9364    7.4227    4.7298 O   0  0  0  0  0  0  0  0  0  0  0  0
   13.2981    6.0637    1.0230 C   0  0  2  0  0  0  0  0  0  0  0  0
   12.6253    4.8907    1.4732 O   0  0  0  0  0  0  0  0  0  0  0  0
    8.1696    5.6382    3.7184 C   0  0  1  0  0  0  0  0  0  0  0  0
    7.6837    5.8209    5.0692 O   0  0  0  0  0  0  0  0  0  0  0  0
   14.3275    6.4474    2.0732 C   0  0  0  0  0  0  0  0  0  0  0  0
    3.5028    5.3237    6.8216 C   0  0  0  0  0  0  0  0  0  0  0  0
    5.4184    4.5715    9.1515 C   0  0  0  0  0  0  0  0  0  0  0  0
  1  2  1  6  0  0  0
  1  6  1  0  0  0  0
  1 23  1  0  0  0  0
  3  4  1  1  0  0  0
  3  8  1  0  0  0  0
  3 30  1  0  0  0  0
  5  9  1  0  0  0  0
  5 27  1  0  0  0  0
  5 31  1  6  0  0  0
  6  7  1  6  0  0  0
  6 11  1  0  0  0  0
  8 13  1  0  0  0  0
  9 10  1  1  0  0  0
  9 15  1  0  0  0  0
 11 12  1  6  0  0  0
 11 17  1  0  0  0  0
 13 14  1  6  0  0  0
 13 19  1  0  0  0  0
 15 16  1  1  0  0  0
 15 20  1  0  0  0  0
 16 34  1  0  0  0  0
 17 18  1  6  0  0  0
 17 22  1  0  0  0  0
 19  2  1  6  0  0  0
 19 24  1  0  0  0  0
 20 21  1  1  0  0  0
 20 26  1  0  0  0  0
 20 33  1  0  0  0  0
 22 23  1  1  0  0  0
 22 28  1  0  0  0  0
 24 25  1  1  0  0  0
 24 30  1  0  0  0  0
 26 27  1  0  0  0  0
 28 29  1  1  0  0  0
 28 32  1  0  0  0  0
 30 31  1  1  0  0  0
M  END
>  <CHROM.1>
166.12491867,-174.32555303,-145.28572014,-163.25435271,-88.12118734,-170.41035416
8.85561432,6.99036719,3.27824688,0.34450069,0.73420188,-0.18273441

>  <Name>
ligand

>  <RI>
0

>  <Rbt.Current_Directory>
/home/itssahil/PROJECTS/Mol_Feturizer/New_Systems/rnas/3TD1

>  <Rbt.Executable>
rbdock ($Id: //depot/dev/client3/rdock/2013.1/src/exe/rbdock.cxx#4 $)

>  <Rbt.Library>
libRbt.so (2013.1, Build901 2013/11/27)

>  <Rbt.Parameter_File>
/export/apps/rDock/src/rDock_2013.1_src/data/scripts/dock_solv.prm

>  <Rbt.Receptor>
prm/blind_docking_100.prm

>  <SCORE>
47.165

>  <SCORE.INTER>
31.0822

>  <SCORE.INTER.CONST>
1

>  <SCORE.INTER.POLAR>
0

>  <SCORE.INTER.ROT>
6

>  <SCORE.INTER.SOLV>
23.4479

>  <SCORE.INTER.VDW>
5.30546

>  <SCORE.INTER.norm>
0.914181

>  <SCORE.INTRA>
-2.24278

>  <SCORE.INTRA.DIHEDRAL>
-13.0739

>  <SCORE.INTRA.DIHEDRAL.0>
19.5869

>  <SCORE.INTRA.POLAR>
0

>  <SCORE.INTRA.POLAR.0>
0

>  <SCORE.INTRA.REPUL>
0

>  <SCORE.INTRA.REPUL.0>
0

>  <SCORE.INTRA.SOLV>
-2.12592

>  <SCORE.INTRA.SOLV.lig_0>
-70.101

>  <SCORE.INTRA.VDW>
5.35713

>  <SCORE.INTRA.VDW.0>
-3.39718

>  <SCORE.INTRA.norm>
-0.0659641

>  <SCORE.RESTR>
18.3256

>  <SCORE.RESTR.CAVITY>
18.3256

>  <SCORE.RESTR.norm>
0.538988

>  <SCORE.SYSTEM>
0

>  <SCORE.SYSTEM.CONST>
0

>  <SCORE.SYSTEM.DIHEDRAL>
0

>  <SCORE.SYSTEM.SOLV>
0

>  <SCORE.SYSTEM.norm>
0

>  <SCORE.heavy>
34

>  <SCORE.norm>
1.38721

>  <RMSD>
9.391

$$$$
ligand
 OpenBabel11021811483D
libRbt.so/2013.1/901 2013/11/27
 34 36  0  0  0  0  0  0  0  0999 V2000
   11.4160    7.3227    2.4647 C   0  0  2  0  0  0  0  0  0  0  0  0
   10.7957    8.5719    2.1225 O   0  0  0  0  0  0  0  0  0  0  0  0
    6.6519    9.5287    2.5411 C   0  0  2  0  0  0  0  0  0  0  0  0
    5.2157    9.6072    2.2976 N   0  0  0  0  0  0  0  0  0  0  0  0
    6.4569    6.1264    4.2968 C   0  0  2  0  0  0  0  0  0  0  0  0
   12.9612    7.4666    2.2237 C   0  0  2  0  0  0  0  0  0  0  0  0
   13.5334    8.5279    3.0667 N   0  0  0  0  0  0  0  0  0  0  0  0
    7.3740   10.0295    1.2459 C   0  0  0  0  0  0  0  0  0  0  0  0
    4.9540    5.6835    4.4084 C   0  0  2  0  0  0  0  0  0  0  0  0
    4.2793    5.9581    3.1918 O   0  0  0  0  0  0  0  0  0  0  0  0
   13.2189    7.7821    0.7343 C   0  0  1  0  0  0  0  0  0  0  0  0
   14.6319    7.9073    0.5050 O   0  0  0  0  0  0  0  0  0  0  0  0
    8.9157    9.9676    1.5147 C   0  0  2  0  0  0  0  0  0  0  0  0
    9.6555   10.4244    0.3208 N   0  0  0  0  0  0  0  0  0  0  0  0
    4.2880    6.4554    5.6125 C   0  0  1  0  0  0  0  0  0  0  0  0
    2.8490    6.0798    5.7515 N   0  0  0  0  0  0  0  0  0  0  0  0
   12.6000    6.6567   -0.1283 C   0  0  2  0  0  0  0  0  0  0  0  0
   12.8230    6.9425   -1.5201 O   0  0  0  0  0  0  0  0  0  0  0  0
    9.3612    8.5234    1.8593 C   0  0  2  0  0  0  0  0  0  0  0  0
    5.0693    6.1176    6.9283 C   0  0  1  0  0  0  0  0  0  0  0  0
    4.9844    4.7190    7.1888 O   0  0  0  0  0  0  0  0  0  0  0  0
   11.0564    6.5486    0.1721 C   0  0  2  0  0  0  0  0  0  0  0  0
   10.8417    6.2751    1.6064 O   0  0  0  0  0  0  0  0  0  0  0  0
    8.5847    8.0299    3.1057 C   0  0  2  0  0  0  0  0  0  0  0  0
    8.9962    6.6972    3.3918 O   0  0  0  0  0  0  0  0  0  0  0  0
    6.5657    6.5198    6.7374 C   0  0  0  0  0  0  0  0  0  0  0  0
    7.1490    5.8339    5.5594 O   0  0  0  0  0  0  0  0  0  0  0  0
   10.3845    5.4162   -0.6477 C   0  0  2  0  0  0  0  0  0  0  0  0
   10.7219    5.5631   -2.0246 O   0  0  0  0  0  0  0  0  0  0  0  0
    7.0592    8.0300    2.8521 C   0  0  1  0  0  0  0  0  0  0  0  0
    6.4284    7.5631    4.0680 O   0  0  0  0  0  0  0  0  0  0  0  0
    8.8702    5.4615   -0.5273 C   0  0  0  0  0  0  0  0  0  0  0  0
    4.4972    6.8480    8.1370 C   0  0  0  0  0  0  0  0  0  0  0  0
    2.0931    7.2833    6.1480 C   0  0  0  0  0  0  0  0  0  0  0  0
  1  2  1  6  0  0  0
  1  6  1  0  0  0  0
  1 23  1  0  0  0  0
  3  4  1  6  0  0  0
  3  8  1  0  0  0  0
  3 30  1  0  0  0  0
  5  9  1  0  0  0  0
  5 27  1  0  0  0  0
  5 31  1  1  0  0  0
  6  7  1  1  0  0  0
  6 11  1  0  0  0  0
  8 13  1  0  0  0  0
  9 10  1  6  0  0  0
  9 15  1  0  0  0  0
 11 12  1  1  0  0  0
 11 17  1  0  0  0  0
 13 14  1  6  0  0  0
 13 19  1  0  0  0  0
 15 16  1  1  0  0  0
 15 20  1  0  0  0  0
 16 34  1  0  0  0  0
 17 18  1  6  0  0  0
 17 22  1  0  0  0  0
 19  2  1  1  0  0  0
 19 24  1  0  0  0  0
 20 21  1  1  0  0  0
 20 26  1  0  0  0  0
 20 33  1  0  0  0  0
 22 23  1  1  0  0  0
 22 28  1  0  0  0  0
 24 25  1  6  0  0  0
 24 30  1  0  0  0  0
 26 27  1  0  0  0  0
 28 29  1  6  0  0  0
 28 32  1  0  0  0  0
 30 31  1  1  0  0  0
M  END
>  <CHROM.1>
160.78864153,-179.97967407,-143.01565703,-51.26966386,165.78469737,-121.24992597
8.39421882,7.21842451,2.79518514,-0.60752549,-0.19178052,1.99610654

>  <Name>
ligand

>  <RI>
0

>  <Rbt.Current_Directory>
/home/itssahil/PROJECTS/Mol_Feturizer/New_Systems/rnas/3TD1

>  <Rbt.Executable>
rbdock ($Id: //depot/dev/client3/rdock/2013.1/src/exe/rbdock.cxx#4 $)

>  <Rbt.Library>
libRbt.so (2013.1, Build901 2013/11/27)

>  <Rbt.Parameter_File>
/export/apps/rDock/src/rDock_2013.1_src/data/scripts/dock_solv.prm

>  <Rbt.Receptor>
prm/blind_docking_40.prm

>  <SCORE>
36.0481

>  <SCORE.INTER>
32.6729

>  <SCORE.INTER.CONST>
1

>  <SCORE.INTER.POLAR>
0

>  <SCORE.INTER.ROT>
6

>  <SCORE.INTER.SOLV>
31.8348

>  <SCORE.INTER.VDW>
3.57035

>  <SCORE.INTER.norm>
0.960968

>  <SCORE.INTRA>
-2.79547

>  <SCORE.INTRA.DIHEDRAL>
-8.63538

>  <SCORE.INTRA.DIHEDRAL.0>
19.5869

>  <SCORE.INTRA.POLAR>
0

>  <SCORE.INTRA.POLAR.0>
0

>  <SCORE.INTRA.REPUL>
0

>  <SCORE.INTRA.REPUL.0>
0

>  <SCORE.INTRA.SOLV>
-2.775

>  <SCORE.INTRA.SOLV.lig_0>
-70.101

>  <SCORE.INTRA.VDW>
2.90972

>  <SCORE.INTRA.VDW.0>
-3.39718

>  <SCORE.INTRA.norm>
-0.0822196

>  <SCORE.RESTR>
6.17062

>  <SCORE.RESTR.CAVITY>
6.17062

>  <SCORE.RESTR.norm>
0.181489

>  <SCORE.SYSTEM>
0

>  <SCORE.SYSTEM.CONST>
0

>  <SCORE.SYSTEM.DIHEDRAL>
0

>  <SCORE.SYSTEM.SOLV>
0

>  <SCORE.SYSTEM.norm>
0

>  <SCORE.heavy>
34

>  <SCORE.norm>
1.06024

>  <RMSD>
9.393

$$$$
ligand
 OpenBabel11021811483D
libRbt.so/2013.1/901 2013/11/27
 34 36  0  0  0  0  0  0  0  0999 V2000
    8.8645    9.4472    2.3645 C   0  0  2  0  0  0  0  0  0  0  0  0
    8.4445    8.0920    2.1417 O   0  0  0  0  0  0  0  0  0  0  0  0
    7.2051    4.8610    4.6490 C   0  0  2  0  0  0  0  0  0  0  0  0
    7.1435    3.9042    5.7484 N   0  0  0  0  0  0  0  0  0  0  0  0
    5.4495    7.0554    7.0313 C   0  0  2  0  0  0  0  0  0  0  0  0
    8.7249   10.2271    1.0084 C   0  0  2  0  0  0  0  0  0  0  0  0
    7.3303   10.2326    0.5402 N   0  0  0  0  0  0  0  0  0  0  0  0
    8.6448    4.7819    4.0401 C   0  0  0  0  0  0  0  0  0  0  0  0
    5.4115    5.8819    8.0746 C   0  0  2  0  0  0  0  0  0  0  0  0
    6.6245    5.1494    8.0200 O   0  0  0  0  0  0  0  0  0  0  0  0
    9.6335    9.5713   -0.0540 C   0  0  1  0  0  0  0  0  0  0  0  0
    9.5168   10.2850   -1.2957 O   0  0  0  0  0  0  0  0  0  0  0  0
    8.7047    5.7922    2.8448 C   0  0  2  0  0  0  0  0  0  0  0  0
   10.0474    5.7680    2.2297 N   0  0  0  0  0  0  0  0  0  0  0  0
    4.1756    4.9567    7.7494 C   0  0  1  0  0  0  0  0  0  0  0  0
    4.1038    3.8126    8.7071 N   0  0  0  0  0  0  0  0  0  0  0  0
   11.0902    9.5706    0.4672 C   0  0  2  0  0  0  0  0  0  0  0  0
   11.9476    8.9524   -0.5082 O   0  0  0  0  0  0  0  0  0  0  0  0
    8.3967    7.2346    3.3215 C   0  0  2  0  0  0  0  0  0  0  0  0
    2.8652    5.8129    7.8236 C   0  0  1  0  0  0  0  0  0  0  0  0
    2.7056    6.3292    9.1424 O   0  0  0  0  0  0  0  0  0  0  0  0
   11.1615    8.7924    1.8361 C   0  0  2  0  0  0  0  0  0  0  0  0
   10.2626    9.4250    2.8210 O   0  0  0  0  0  0  0  0  0  0  0  0
    6.9935    7.2703    3.9771 C   0  0  2  0  0  0  0  0  0  0  0  0
    6.7405    8.5987    4.4229 O   0  0  0  0  0  0  0  0  0  0  0  0
    2.9852    6.9975    6.8139 C   0  0  0  0  0  0  0  0  0  0  0  0
    4.1914    7.8115    7.0982 O   0  0  0  0  0  0  0  0  0  0  0  0
   12.5977    8.7805    2.4217 C   0  0  2  0  0  0  0  0  0  0  0  0
   13.2287   10.0305    2.1560 O   0  0  0  0  0  0  0  0  0  0  0  0
    6.9194    6.3201    5.1949 C   0  0  1  0  0  0  0  0  0  0  0  0
    5.5779    6.4205    5.7284 O   0  0  0  0  0  0  0  0  0  0  0  0
   13.4463    7.6840    1.7993 C   0  0  0  0  0  0  0  0  0  0  0  0
    1.6249    4.9904    7.4966 C   0  0  0  0  0  0  0  0  0  0  0  0
    4.0978    2.5585    7.9298 C   0  0  0  0  0  0  0  0  0  0  0  0
  1  2  1  6  0  0  0
  1  6  1  0  0  0  0
  1 23  1  0  0  0  0
  3  4  1  1  0  0  0
  3  8  1  0  0  0  0
  3 30  1  0  0  0  0
  5  9  1  0  0  0  0
  5 27  1  0  0  0  0
  5 31  1  6  0  0  0
  6  7  1  6  0  0  0
  6 11  1  0  0  0  0
  8 13  1  0  0  0  0
  9 10  1  6  0  0  0
  9 15  1  0  0  0  0
 11 12  1  6  0  0  0
 11 17  1  0  0  0  0
 13 14  1  1  0  0  0
 13 19  1  0  0  0  0
 15 16  1  1  0  0  0
 15 20  1  0  0  0  0
 16 34  1  0  0  0  0
 17 18  1  6  0  0  0
 17 22  1  0  0  0  0
 19  2  1  6  0  0  0
 19 24  1  0  0  0  0
 20 21  1  1  0  0  0
 20 26  1  0  0  0  0
 20 33  1  0  0  0  0
 22 23  1  1  0  0  0
 22 28  1  0  0  0  0
 24 25  1  1  0  0  0
 24 30  1  0  0  0  0
 26 27  1  0  0  0  0
 28 29  1  6  0  0  0
 28 32  1  0  0  0  0
 30 31  1  6  0  0  0
M  END
>  <CHROM.1>
-175.02819949,-149.38390456,-124.19564205,36.93710877,132.72300947,-96.36070330
7.56210423,7.17880779,4.22907277,0.76791376,0.38706405,-0.67616267

>  <Name>
ligand

>  <RI>
0

>  <Rbt.Current_Directory>
/home/itssahil/PROJECTS/Mol_Feturizer/New_Systems/rnas/3TD1

>  <Rbt.Executable>
rbdock ($Id: //depot/dev/client3/rdock/2013.1/src/exe/rbdock.cxx#4 $)

>  <Rbt.Library>
libRbt.so (2013.1, Build901 2013/11/27)

>  <Rbt.Parameter_File>
/export/apps/rDock/src/rDock_2013.1_src/data/scripts/dock_solv.prm

>  <Rbt.Receptor>
prm/blind_docking_40.prm

>  <SCORE>
14.5958

>  <SCORE.INTER>
3.13185

>  <SCORE.INTER.CONST>
1

>  <SCORE.INTER.POLAR>
0

>  <SCORE.INTER.ROT>
6

>  <SCORE.INTER.SOLV>
22.0344

>  <SCORE.INTER.VDW>
-12.8569

>  <SCORE.INTER.norm>
0.0921132

>  <SCORE.INTRA>
-0.502445

>  <SCORE.INTRA.DIHEDRAL>
-1.67815

>  <SCORE.INTRA.DIHEDRAL.0>
19.5869

>  <SCORE.INTRA.POLAR>
0

>  <SCORE.INTRA.POLAR.0>
0

>  <SCORE.INTRA.REPUL>
0

>  <SCORE.INTRA.REPUL.0>
0

>  <SCORE.INTRA.SOLV>
1.82746

>  <SCORE.INTRA.SOLV.lig_0>
-70.101

>  <SCORE.INTRA.VDW>
-0.577098

>  <SCORE.INTRA.VDW.0>
-3.39718

>  <SCORE.INTRA.norm>
-0.0147778

>  <SCORE.RESTR>
11.9664

>  <SCORE.RESTR.CAVITY>
11.9664

>  <SCORE.RESTR.norm>
0.351953

>  <SCORE.SYSTEM>
0

>  <SCORE.SYSTEM.CONST>
0

>  <SCORE.SYSTEM.DIHEDRAL>
0

>  <SCORE.SYSTEM.SOLV>
0

>  <SCORE.SYSTEM.norm>
0

>  <SCORE.heavy>
34

>  <SCORE.norm>
0.429288

>  <RMSD>
9.400

$$$$
ligand
 OpenBabel11021811483D
libRbt.so/2013.1/901 2013/11/27
 34 36  0  0  0  0  0  0  0  0999 V2000
    7.5834    6.5097    7.9599 C   0  0  2  0  0  0  0  0  0  0  0  0
    7.2811    5.1133    8.1058 O   0  0  0  0  0  0  0  0  0  0  0  0
    3.5327    3.2489    8.9632 C   0  0  2  0  0  0  0  0  0  0  0  0
    2.3307    2.8100    9.6637 N   0  0  0  0  0  0  0  0  0  0  0  0
    2.1794    6.6786    7.8704 C   0  0  2  0  0  0  0  0  0  0  0  0
    8.8867    6.6356    7.0927 C   0  0  2  0  0  0  0  0  0  0  0  0
    8.6947    6.0488    5.7574 N   0  0  0  0  0  0  0  0  0  0  0  0
    4.7631    2.8105    9.8255 C   0  0  0  0  0  0  0  0  0  0  0  0
    0.6217    6.8755    7.9131 C   0  0  2  0  0  0  0  0  0  0  0  0
    0.1103    6.4043    9.1489 O   0  0  0  0  0  0  0  0  0  0  0  0
   10.0521    5.9262    7.8159 C   0  0  1  0  0  0  0  0  0  0  0  0
   11.2502    6.0444    7.0315 O   0  0  0  0  0  0  0  0  0  0  0  0
    6.0548    3.2608    9.0628 C   0  0  2  0  0  0  0  0  0  0  0  0
    7.2555    2.8788    9.8334 N   0  0  0  0  0  0  0  0  0  0  0  0
   -0.0193    6.0959    6.7003 C   0  0  1  0  0  0  0  0  0  0  0  0
   -1.5062    6.2391    6.7050 N   0  0  0  0  0  0  0  0  0  0  0  0
   10.2259    6.5556    9.2185 C   0  0  2  0  0  0  0  0  0  0  0  0
   11.3021    5.8972    9.9090 O   0  0  0  0  0  0  0  0  0  0  0  0
    6.0645    4.7957    8.8462 C   0  0  2  0  0  0  0  0  0  0  0  0
    0.5779    6.6542    5.3634 C   0  0  1  0  0  0  0  0  0  0  0  0
    0.2507    8.0352    5.2336 O   0  0  0  0  0  0  0  0  0  0  0  0
    8.8823    6.4159   10.0307 C   0  0  2  0  0  0  0  0  0  0  0  0
    7.7833    7.0783    9.3017 O   0  0  0  0  0  0  0  0  0  0  0  0
    4.8040    5.2095    8.0462 C   0  0  2  0  0  0  0  0  0  0  0  0
    4.8252    6.6229    7.8756 O   0  0  0  0  0  0  0  0  0  0  0  0
    2.1300    6.4905    5.4035 C   0  0  0  0  0  0  0  0  0  0  0  0
    2.7010    7.1737    6.5891 O   0  0  0  0  0  0  0  0  0  0  0  0
    8.9885    7.0540   11.4405 C   0  0  2  0  0  0  0  0  0  0  0  0
    7.7826    6.8147   12.1616 O   0  0  0  0  0  0  0  0  0  0  0  0
    3.5100    4.8242    8.8002 C   0  0  1  0  0  0  0  0  0  0  0  0
    2.3984    5.2439    7.9740 O   0  0  0  0  0  0  0  0  0  0  0  0
    9.1974    8.5572   11.3597 C   0  0  0  0  0  0  0  0  0  0  0  0
    0.0223    5.9313    4.1426 C   0  0  0  0  0  0  0  0  0  0  0  0
   -2.0896    4.9891    7.2285 C   0  0  0  0  0  0  0  0  0  0  0  0
  1  2  1  1  0  0  0
  1  6  1  0  0  0  0
  1 23  1  0  0  0  0
  3  4  1  1  0  0  0
  3  8  1  0  0  0  0
  3 30  1  0  0  0  0
  5  9  1  0  0  0  0
  5 27  1  0  0  0  0
  5 31  1  6  0  0  0
  6  7  1  6  0  0  0
  6 11  1  0  0  0  0
  8 13  1  0  0  0  0
  9 10  1  1  0  0  0
  9 15  1  0  0  0  0
 11 12  1  6  0  0  0
 11 17  1  0  0  0  0
 13 14  1  1  0  0  0
 13 19  1  0  0  0  0
 15 16  1  6  0  0  0
 15 20  1  0  0  0  0
 16 34  1  0  0  0  0
 17 18  1  1  0  0  0
 17 22  1  0  0  0  0
 19  2  1  6  0  0  0
 19 24  1  0  0  0  0
 20 21  1  6  0  0  0
 20 26  1  0  0  0  0
 20 33  1  0  0  0  0
 22 23  1  6  0  0  0
 22 28  1  0  0  0  0
 24 25  1  1  0  0  0
 24 30  1  0  0  0  0
 26 27  1  0  0  0  0
 28 29  1  1  0  0  0
 28 32  1  0  0  0  0
 30 31  1  6  0  0  0
M  END
>  <CHROM.1>
-177.78629365,-171.58376321,-102.70791012,-175.88065508,173.36301819,-140.14338297
4.95604146,5.85053013,8.19068874,-0.21824279,-0.16365430,-0.99880560

>  <Name>
ligand

>  <RI>
0

>  <Rbt.Current_Directory>
/home/itssahil/PROJECTS/Mol_Feturizer/New_Systems/rnas/3TD1

>  <Rbt.Executable>
rbdock ($Id: //depot/dev/client3/rdock/2013.1/src/exe/rbdock.cxx#4 $)

>  <Rbt.Library>
libRbt.so (2013.1, Build901 2013/11/27)

>  <Rbt.Parameter_File>
/export/apps/rDock/src/rDock_2013.1_src/data/scripts/dock_solv.prm

>  <Rbt.Receptor>
prm/pocket_docking_7.prm

>  <SCORE>
-14.1974

>  <SCORE.INTER>
-8.43311

>  <SCORE.INTER.CONST>
1

>  <SCORE.INTER.POLAR>
0

>  <SCORE.INTER.ROT>
6

>  <SCORE.INTER.SOLV>
13.5679

>  <SCORE.INTER.VDW>
-17.7447

>  <SCORE.INTER.norm>
-0.248033

>  <SCORE.INTRA>
-5.7643

>  <SCORE.INTRA.DIHEDRAL>
-12.5382

>  <SCORE.INTRA.DIHEDRAL.0>
19.5869

>  <SCORE.INTRA.POLAR>
0

>  <SCORE.INTRA.POLAR.0>
0

>  <SCORE.INTRA.REPUL>
0

>  <SCORE.INTRA.REPUL.0>
0

>  <SCORE.INTRA.SOLV>
-3.4174

>  <SCORE.INTRA.SOLV.lig_0>
-70.101

>  <SCORE.INTRA.VDW>
2.21351

>  <SCORE.INTRA.VDW.0>
-3.39718

>  <SCORE.INTRA.norm>
-0.169538

>  <SCORE.RESTR>
0

>  <SCORE.RESTR.CAVITY>
0

>  <SCORE.RESTR.norm>
0

>  <SCORE.SYSTEM>
0

>  <SCORE.SYSTEM.CONST>
0

>  <SCORE.SYSTEM.DIHEDRAL>
0

>  <SCORE.SYSTEM.SOLV>
0

>  <SCORE.SYSTEM.norm>
0

>  <SCORE.heavy>
34

>  <SCORE.norm>
-0.417571

>  <RMSD>
9.400

$$$$
ligand
 OpenBabel11021811483D
libRbt.so/2013.1/901 2013/11/27
 34 36  0  0  0  0  0  0  0  0999 V2000
    7.6638    7.2157    1.5282 C   0  0  2  0  0  0  0  0  0  0  0  0
    7.7103    6.3444    2.6690 O   0  0  0  0  0  0  0  0  0  0  0  0
    6.9196    6.5892    6.8614 C   0  0  2  0  0  0  0  0  0  0  0  0
    6.5455    7.1045    8.1739 N   0  0  0  0  0  0  0  0  0  0  0  0
    4.6168    5.4675    7.8458 C   0  0  2  0  0  0  0  0  0  0  0  0
    7.8806    6.3417    0.2415 C   0  0  2  0  0  0  0  0  0  0  0  0
    6.8259    5.3250    0.1063 N   0  0  0  0  0  0  0  0  0  0  0  0
    8.0274    7.5335    6.2864 C   0  0  0  0  0  0  0  0  0  0  0  0
    3.6078    4.2875    8.0841 C   0  0  2  0  0  0  0  0  0  0  0  0
    4.0711    3.1179    7.4297 O   0  0  0  0  0  0  0  0  0  0  0  0
    9.2632    5.6581    0.3151 C   0  0  1  0  0  0  0  0  0  0  0  0
    9.4716    4.8627   -0.8633 O   0  0  0  0  0  0  0  0  0  0  0  0
    8.4462    6.9678    4.8873 C   0  0  2  0  0  0  0  0  0  0  0  0
    9.4901    7.8239    4.2881 N   0  0  0  0  0  0  0  0  0  0  0  0
    2.1904    4.7174    7.5405 C   0  0  1  0  0  0  0  0  0  0  0  0
    1.1951    3.6197    7.7300 N   0  0  0  0  0  0  0  0  0  0  0  0
   10.3511    6.7479    0.4658 C   0  0  2  0  0  0  0  0  0  0  0  0
   11.6450    6.1250    0.5465 O   0  0  0  0  0  0  0  0  0  0  0  0
    7.2316    6.9098    3.9261 C   0  0  2  0  0  0  0  0  0  0  0  0
    1.7264    6.0102    8.2949 C   0  0  1  0  0  0  0  0  0  0  0  0
    1.6088    5.7344    9.6881 O   0  0  0  0  0  0  0  0  0  0  0  0
   10.0682    7.6016    1.7603 C   0  0  2  0  0  0  0  0  0  0  0  0
    8.7303    8.2184    1.6730 O   0  0  0  0  0  0  0  0  0  0  0  0
    6.1258    6.0213    4.5487 C   0  0  2  0  0  0  0  0  0  0  0  0
    5.0150    5.9978    3.6582 O   0  0  0  0  0  0  0  0  0  0  0  0
    2.7953    7.1267    8.0756 C   0  0  0  0  0  0  0  0  0  0  0  0
    4.1314    6.6732    8.5312 O   0  0  0  0  0  0  0  0  0  0  0  0
   11.1155    8.7299    1.9504 C   0  0  2  0  0  0  0  0  0  0  0  0
   10.6983    9.5912    3.0065 O   0  0  0  0  0  0  0  0  0  0  0  0
    5.6538    6.5847    5.9093 C   0  0  1  0  0  0  0  0  0  0  0  0
    4.6336    5.6873    6.4076 O   0  0  0  0  0  0  0  0  0  0  0  0
   11.2683    9.5687    0.6923 C   0  0  0  0  0  0  0  0  0  0  0  0
    0.3699    6.5025    7.8056 C   0  0  0  0  0  0  0  0  0  0  0  0
    0.1236    3.7892    6.7299 C   0  0  0  0  0  0  0  0  0  0  0  0
  1  2  1  1  0  0  0
  1  6  1  0  0  0  0
  1 23  1  0  0  0  0
  3  4  1  1  0  0  0
  3  8  1  0  0  0  0
  3 30  1  0  0  0  0
  5  9  1  0  0  0  0
  5 27  1  0  0  0  0
  5 31  1  6  0  0  0
  6  7  1  1  0  0  0
  6 11  1  0  0  0  0
  8 13  1  0  0  0  0
  9 10  1  6  0  0  0
  9 15  1  0  0  0  0
 11 12  1  6  0  0  0
 11 17  1  0  0  0  0
 13 14  1  6  0  0  0
 13 19  1  0  0  0  0
 15 16  1  1  0  0  0
 15 20  1  0  0  0  0
 16 34  1  0  0  0  0
 17 18  1  1  0  0  0
 17 22  1  0  0  0  0
 19  2  1  6  0  0  0
 19 24  1  0  0  0  0
 20 21  1  1  0  0  0
 20 26  1  0  0  0  0
 20 33  1  0  0  0  0
 22 23  1  6  0  0  0
 22 28  1  0  0  0  0
 24 25  1  6  0  0  0
 24 30  1  0  0  0  0
 26 27  1  0  0  0  0
 28 29  1  1  0  0  0
 28 32  1  0  0  0  0
 30 31  1  1  0  0  0
M  END
>  <CHROM.1>
-166.55585658,-115.29949261,-155.20913594,171.04854346,27.49765009,-170.32842926
6.38405751,6.36673118,4.60343656,0.54188128,-0.56061967,-2.00851262

>  <Name>
ligand

>  <RI>
0

>  <Rbt.Current_Directory>
/home/itssahil/PROJECTS/Mol_Feturizer/New_Systems/rnas/3TD1

>  <Rbt.Executable>
rbdock ($Id: //depot/dev/client3/rdock/2013.1/src/exe/rbdock.cxx#4 $)

>  <Rbt.Library>
libRbt.so (2013.1, Build901 2013/11/27)

>  <Rbt.Parameter_File>
/export/apps/rDock/src/rDock_2013.1_src/data/scripts/dock_solv.prm

>  <Rbt.Receptor>
prm/blind_docking_40.prm

>  <SCORE>
24.1239

>  <SCORE.INTER>
7.64191

>  <SCORE.INTER.CONST>
1

>  <SCORE.INTER.POLAR>
0

>  <SCORE.INTER.ROT>
6

>  <SCORE.INTER.SOLV>
25.0317

>  <SCORE.INTER.VDW>
-10.8493

>  <SCORE.INTER.norm>
0.224762

>  <SCORE.INTRA>
7.80223

>  <SCORE.INTRA.DIHEDRAL>
-6.38973

>  <SCORE.INTRA.DIHEDRAL.0>
19.5869

>  <SCORE.INTRA.POLAR>
0

>  <SCORE.INTRA.POLAR.0>
0

>  <SCORE.INTRA.REPUL>
0

>  <SCORE.INTRA.REPUL.0>
0

>  <SCORE.INTRA.SOLV>
3.7001

>  <SCORE.INTRA.SOLV.lig_0>
-70.101

>  <SCORE.INTRA.VDW>
9.14704

>  <SCORE.INTRA.VDW.0>
-3.39718

>  <SCORE.INTRA.norm>
0.229477

>  <SCORE.RESTR>
8.67979

>  <SCORE.RESTR.CAVITY>
8.67979

>  <SCORE.RESTR.norm>
0.255288

>  <SCORE.SYSTEM>
0

>  <SCORE.SYSTEM.CONST>
0

>  <SCORE.SYSTEM.DIHEDRAL>
0

>  <SCORE.SYSTEM.SOLV>
0

>  <SCORE.SYSTEM.norm>
0

>  <SCORE.heavy>
34

>  <SCORE.norm>
0.709527

>  <RMSD>
9.406

$$$$
ligand
 OpenBabel11021811483D
libRbt.so/2013.1/901 2013/11/27
 34 36  0  0  0  0  0  0  0  0999 V2000
    7.1691    5.8872    5.1699 C   0  0  2  0  0  0  0  0  0  0  0  0
    6.0868    6.8146    5.3468 O   0  0  0  0  0  0  0  0  0  0  0  0
    1.8161    6.6648    5.3397 C   0  0  2  0  0  0  0  0  0  0  0  0
    0.4465    6.1626    5.3328 N   0  0  0  0  0  0  0  0  0  0  0  0
    2.1515    6.2706    9.1281 C   0  0  2  0  0  0  0  0  0  0  0  0
    8.4718    6.5463    5.7486 C   0  0  2  0  0  0  0  0  0  0  0  0
    8.3266    6.8393    7.1829 N   0  0  0  0  0  0  0  0  0  0  0  0
    2.5561    6.0226    4.1192 C   0  0  0  0  0  0  0  0  0  0  0  0
    2.1870    4.7194    8.8837 C   0  0  2  0  0  0  0  0  0  0  0  0
    3.2337    4.3975    7.9828 O   0  0  0  0  0  0  0  0  0  0  0  0
    8.7732    7.8478    4.9741 C   0  0  1  0  0  0  0  0  0  0  0  0
    9.9689    8.4523    5.4934 O   0  0  0  0  0  0  0  0  0  0  0  0
    4.0199    6.5793    4.1123 C   0  0  2  0  0  0  0  0  0  0  0  0
    4.7745    6.0024    2.9812 N   0  0  0  0  0  0  0  0  0  0  0  0
    0.7880    4.2659    8.3122 C   0  0  1  0  0  0  0  0  0  0  0  0
    0.7753    2.7960    8.0471 N   0  0  0  0  0  0  0  0  0  0  0  0
    8.9120    7.5126    3.4701 C   0  0  2  0  0  0  0  0  0  0  0  0
    9.1825    8.7181    2.7338 O   0  0  0  0  0  0  0  0  0  0  0  0
    4.7520    6.2315    5.4336 C   0  0  2  0  0  0  0  0  0  0  0  0
   -0.3298    4.6436    9.3435 C   0  0  1  0  0  0  0  0  0  0  0  0
   -0.1008    3.9553   10.5702 O   0  0  0  0  0  0  0  0  0  0  0  0
    7.5842    6.8376    2.9544 C   0  0  2  0  0  0  0  0  0  0  0  0
    7.3083    5.6135    3.7314 O   0  0  0  0  0  0  0  0  0  0  0  0
    3.9642    6.8242    6.6286 C   0  0  2  0  0  0  0  0  0  0  0  0
    4.6443    6.4770    7.8305 O   0  0  0  0  0  0  0  0  0  0  0  0
   -0.2771    6.1835    9.5952 C   0  0  0  0  0  0  0  0  0  0  0  0
    1.0676    6.5942   10.0659 O   0  0  0  0  0  0  0  0  0  0  0  0
    7.6739    6.4547    1.4540 C   0  0  2  0  0  0  0  0  0  0  0  0
    8.7048    5.4876    1.2720 O   0  0  0  0  0  0  0  0  0  0  0  0
    2.5288    6.2523    6.6927 C   0  0  1  0  0  0  0  0  0  0  0  0
    1.8788    6.8681    7.8297 O   0  0  0  0  0  0  0  0  0  0  0  0
    8.0017    7.6598    0.5880 C   0  0  0  0  0  0  0  0  0  0  0  0
   -1.7185    4.2570    8.8495 C   0  0  0  0  0  0  0  0  0  0  0  0
    1.3690    2.1109    9.2112 C   0  0  0  0  0  0  0  0  0  0  0  0
  1  2  1  6  0  0  0
  1  6  1  0  0  0  0
  1 23  1  0  0  0  0
  3  4  1  1  0  0  0
  3  8  1  0  0  0  0
  3 30  1  0  0  0  0
  5  9  1  0  0  0  0
  5 27  1  0  0  0  0
  5 31  1  6  0  0  0
  6  7  1  1  0  0  0
  6 11  1  0  0  0  0
  8 13  1  0  0  0  0
  9 10  1  6  0  0  0
  9 15  1  0  0  0  0
 11 12  1  1  0  0  0
 11 17  1  0  0  0  0
 13 14  1  6  0  0  0
 13 19  1  0  0  0  0
 15 16  1  1  0  0  0
 15 20  1  0  0  0  0
 16 34  1  0  0  0  0
 17 18  1  6  0  0  0
 17 22  1  0  0  0  0
 19  2  1  6  0  0  0
 19 24  1  0  0  0  0
 20 21  1  1  0  0  0
 20 26  1  0  0  0  0
 20 33  1  0  0  0  0
 22 23  1  1  0  0  0
 22 28  1  0  0  0  0
 24 25  1  1  0  0  0
 24 30  1  0  0  0  0
 26 27  1  0  0  0  0
 28 29  1  1  0  0  0
 28 32  1  0  0  0  0
 30 31  1  1  0  0  0
M  END
>  <CHROM.1>
-154.14181166,-108.15865151,45.68387044,62.69802067,161.71389580,-38.85040042
4.33726754,6.02861355,6.08085524,-0.60437276,0.30463787,1.55515409

>  <Name>
ligand

>  <RI>
0

>  <Rbt.Current_Directory>
/home/itssahil/PROJECTS/Mol_Feturizer/New_Systems/rnas/3TD1

>  <Rbt.Executable>
rbdock ($Id: //depot/dev/client3/rdock/2013.1/src/exe/rbdock.cxx#4 $)

>  <Rbt.Library>
libRbt.so (2013.1, Build901 2013/11/27)

>  <Rbt.Parameter_File>
/export/apps/rDock/src/rDock_2013.1_src/data/scripts/dock_solv.prm

>  <Rbt.Receptor>
prm/blind_docking_60.prm

>  <SCORE>
46.8583

>  <SCORE.INTER>
15.619

>  <SCORE.INTER.CONST>
1

>  <SCORE.INTER.POLAR>
0

>  <SCORE.INTER.ROT>
6

>  <SCORE.INTER.SOLV>
24.4663

>  <SCORE.INTER.VDW>
-5.34278

>  <SCORE.INTER.norm>
0.459382

>  <SCORE.INTRA>
13.1023

>  <SCORE.INTRA.DIHEDRAL>
-6.48212

>  <SCORE.INTRA.DIHEDRAL.0>
19.5869

>  <SCORE.INTRA.POLAR>
0

>  <SCORE.INTRA.POLAR.0>
0

>  <SCORE.INTRA.REPUL>
0

>  <SCORE.INTRA.REPUL.0>
0

>  <SCORE.INTRA.SOLV>
3.05875

>  <SCORE.INTRA.SOLV.lig_0>
-70.101

>  <SCORE.INTRA.VDW>
14.814

>  <SCORE.INTRA.VDW.0>
-3.39718

>  <SCORE.INTRA.norm>
0.385362

>  <SCORE.RESTR>
18.1371

>  <SCORE.RESTR.CAVITY>
18.1371

>  <SCORE.RESTR.norm>
0.533443

>  <SCORE.SYSTEM>
0

>  <SCORE.SYSTEM.CONST>
0

>  <SCORE.SYSTEM.DIHEDRAL>
0

>  <SCORE.SYSTEM.SOLV>
0

>  <SCORE.SYSTEM.norm>
0

>  <SCORE.heavy>
34

>  <SCORE.norm>
1.37819

>  <RMSD>
9.406

$$$$
ligand
 OpenBabel11021811483D
libRbt.so/2013.1/901 2013/11/27
 34 36  0  0  0  0  0  0  0  0999 V2000
   11.3688    6.5443    2.2903 C   0  0  2  0  0  0  0  0  0  0  0  0
   10.8362    7.8721    2.1645 O   0  0  0  0  0  0  0  0  0  0  0  0
    6.8750    9.4026    2.6422 C   0  0  2  0  0  0  0  0  0  0  0  0
    5.4444    9.6262    2.4649 N   0  0  0  0  0  0  0  0  0  0  0  0
    6.5543    6.3776    4.9943 C   0  0  2  0  0  0  0  0  0  0  0  0
   12.8569    6.5693    1.7888 C   0  0  2  0  0  0  0  0  0  0  0  0
   13.6741    7.4876    2.5969 N   0  0  0  0  0  0  0  0  0  0  0  0
    7.5565    9.6053    1.2478 C   0  0  0  0  0  0  0  0  0  0  0  0
    5.3283    5.6479    4.3372 C   0  0  2  0  0  0  0  0  0  0  0  0
    5.4842    5.6179    2.9281 O   0  0  0  0  0  0  0  0  0  0  0  0
   12.8895    7.0022    0.3070 C   0  0  1  0  0  0  0  0  0  0  0  0
   14.2481    7.0196   -0.1608 O   0  0  0  0  0  0  0  0  0  0  0  0
    9.0954    9.3883    1.4419 C   0  0  2  0  0  0  0  0  0  0  0  0
    9.7964    9.5609    0.1534 N   0  0  0  0  0  0  0  0  0  0  0  0
    4.0087    6.4104    4.7453 C   0  0  1  0  0  0  0  0  0  0  0  0
    2.8111    5.7627    4.1308 N   0  0  0  0  0  0  0  0  0  0  0  0
   12.0164    6.0264   -0.5171 C   0  0  2  0  0  0  0  0  0  0  0  0
   12.0285    6.4237   -1.8994 O   0  0  0  0  0  0  0  0  0  0  0  0
    9.3909    7.9679    1.9878 C   0  0  2  0  0  0  0  0  0  0  0  0
    3.8851    6.4139    6.3075 C   0  0  1  0  0  0  0  0  0  0  0  0
    3.7952    5.0735    6.7830 O   0  0  0  0  0  0  0  0  0  0  0  0
   10.5439    6.0311    0.0452 C   0  0  2  0  0  0  0  0  0  0  0  0
   10.5484    5.6412    1.4686 O   0  0  0  0  0  0  0  0  0  0  0  0
    8.6529    7.7720    3.3358 C   0  0  2  0  0  0  0  0  0  0  0  0
    8.9237    6.4563    3.8082 O   0  0  0  0  0  0  0  0  0  0  0  0
    5.1568    7.0927    6.9072 C   0  0  0  0  0  0  0  0  0  0  0  0
    6.3867    6.3997    6.4539 O   0  0  0  0  0  0  0  0  0  0  0  0
    9.6253    5.0491   -0.7280 C   0  0  2  0  0  0  0  0  0  0  0  0
    9.9046    5.1369   -2.1228 O   0  0  0  0  0  0  0  0  0  0  0  0
    7.1239    7.9286    3.1657 C   0  0  1  0  0  0  0  0  0  0  0  0
    6.5312    7.7354    4.4717 O   0  0  0  0  0  0  0  0  0  0  0  0
    8.1559    5.3774   -0.5213 C   0  0  0  0  0  0  0  0  0  0  0  0
    2.6418    7.1564    6.7815 C   0  0  0  0  0  0  0  0  0  0  0  0
    1.7930    6.8039    3.8934 C   0  0  0  0  0  0  0  0  0  0  0  0
  1  2  1  6  0  0  0
  1  6  1  0  0  0  0
  1 23  1  0  0  0  0
  3  4  1  6  0  0  0
  3  8  1  0  0  0  0
  3 30  1  0  0  0  0
  5  9  1  0  0  0  0
  5 27  1  0  0  0  0
  5 31  1  6  0  0  0
  6  7  1  1  0  0  0
  6 11  1  0  0  0  0
  8 13  1  0  0  0  0
  9 10  1  6  0  0  0
  9 15  1  0  0  0  0
 11 12  1  6  0  0  0
 11 17  1  0  0  0  0
 13 14  1  6  0  0  0
 13 19  1  0  0  0  0
 15 16  1  6  0  0  0
 15 20  1  0  0  0  0
 16 34  1  0  0  0  0
 17 18  1  6  0  0  0
 17 22  1  0  0  0  0
 19  2  1  1  0  0  0
 19 24  1  0  0  0  0
 20 21  1  1  0  0  0
 20 26  1  0  0  0  0
 20 33  1  0  0  0  0
 22 23  1  1  0  0  0
 22 28  1  0  0  0  0
 24 25  1  6  0  0  0
 24 30  1  0  0  0  0
 26 27  1  0  0  0  0
 28 29  1  6  0  0  0
 28 32  1  0  0  0  0
 30 31  1  1  0  0  0
M  END
>  <CHROM.1>
153.26581660,-162.71986473,-149.54219104,-41.38390011,173.03215573,-82.30155757
8.11304302,6.92454773,2.57408323,-0.57699181,0.15304542,1.36623167

>  <Name>
ligand

>  <RI>
0

>  <Rbt.Current_Directory>
/home/itssahil/PROJECTS/Mol_Feturizer/New_Systems/rnas/3TD1

>  <Rbt.Executable>
rbdock ($Id: //depot/dev/client3/rdock/2013.1/src/exe/rbdock.cxx#4 $)

>  <Rbt.Library>
libRbt.so (2013.1, Build901 2013/11/27)

>  <Rbt.Parameter_File>
/export/apps/rDock/src/rDock_2013.1_src/data/scripts/dock_solv.prm

>  <Rbt.Receptor>
prm/blind_docking_40.prm

>  <SCORE>
30.5634

>  <SCORE.INTER>
27.1657

>  <SCORE.INTER.CONST>
1

>  <SCORE.INTER.POLAR>
0

>  <SCORE.INTER.ROT>
6

>  <SCORE.INTER.SOLV>
31.281

>  <SCORE.INTER.VDW>
0.083481

>  <SCORE.INTER.norm>
0.798991

>  <SCORE.INTRA>
-2.25489

>  <SCORE.INTRA.DIHEDRAL>
-10.9253

>  <SCORE.INTRA.DIHEDRAL.0>
19.5869

>  <SCORE.INTRA.POLAR>
0

>  <SCORE.INTRA.POLAR.0>
0

>  <SCORE.INTRA.REPUL>
0

>  <SCORE.INTRA.REPUL.0>
0

>  <SCORE.INTRA.SOLV>
-1.30567

>  <SCORE.INTRA.SOLV.lig_0>
-70.101

>  <SCORE.INTRA.VDW>
3.8606

>  <SCORE.INTRA.VDW.0>
-3.39718

>  <SCORE.INTRA.norm>
-0.0663202

>  <SCORE.RESTR>
5.65261

>  <SCORE.RESTR.CAVITY>
5.65261

>  <SCORE.RESTR.norm>
0.166253

>  <SCORE.SYSTEM>
0

>  <SCORE.SYSTEM.CONST>
0

>  <SCORE.SYSTEM.DIHEDRAL>
0

>  <SCORE.SYSTEM.SOLV>
0

>  <SCORE.SYSTEM.norm>
0

>  <SCORE.heavy>
34

>  <SCORE.norm>
0.898924

>  <RMSD>
9.416

$$$$
ligand
 OpenBabel11021811483D
libRbt.so/2013.1/901 2013/11/27
 34 36  0  0  0  0  0  0  0  0999 V2000
    7.7734    6.2964    8.7735 C   0  0  2  0  0  0  0  0  0  0  0  0
    7.3444    4.9284    8.6893 O   0  0  0  0  0  0  0  0  0  0  0  0
    3.4551    3.1720    8.4657 C   0  0  2  0  0  0  0  0  0  0  0  0
    2.0851    2.7912    8.7915 N   0  0  0  0  0  0  0  0  0  0  0  0
    2.4870    6.5508    6.9274 C   0  0  2  0  0  0  0  0  0  0  0  0
    9.2797    6.3602    8.3337 C   0  0  2  0  0  0  0  0  0  0  0  0
    9.4487    5.8935    6.9488 N   0  0  0  0  0  0  0  0  0  0  0  0
    4.3552    2.7640    9.6795 C   0  0  0  0  0  0  0  0  0  0  0  0
    1.0185    6.7867    7.4324 C   0  0  2  0  0  0  0  0  0  0  0  0
    0.9178    6.4344    8.8023 O   0  0  0  0  0  0  0  0  0  0  0  0
   10.1278    5.4917    9.2881 C   0  0  1  0  0  0  0  0  0  0  0  0
   11.5090    5.5518    8.8961 O   0  0  0  0  0  0  0  0  0  0  0  0
    5.8298    3.1513    9.3210 C   0  0  2  0  0  0  0  0  0  0  0  0
    6.7310    2.7950   10.4356 N   0  0  0  0  0  0  0  0  0  0  0  0
    0.0363    5.9218    6.5511 C   0  0  1  0  0  0  0  0  0  0  0  0
   -1.3764    6.0993    7.0030 N   0  0  0  0  0  0  0  0  0  0  0  0
    9.9247    5.9976   10.7360 C   0  0  2  0  0  0  0  0  0  0  0  0
   10.7010    5.1906   11.6386 O   0  0  0  0  0  0  0  0  0  0  0  0
    5.9522    4.6713    9.0427 C   0  0  2  0  0  0  0  0  0  0  0  0
    0.1869    6.3502    5.0513 C   0  0  1  0  0  0  0  0  0  0  0  0
   -0.1704    7.7223    4.9079 O   0  0  0  0  0  0  0  0  0  0  0  0
    8.3952    5.9281   11.1105 C   0  0  2  0  0  0  0  0  0  0  0  0
    7.6088    6.7440   10.1650 O   0  0  0  0  0  0  0  0  0  0  0  0
    5.0040    5.0586    7.8804 C   0  0  2  0  0  0  0  0  0  0  0  0
    5.1197    6.4598    7.6553 O   0  0  0  0  0  0  0  0  0  0  0  0
    1.6756    6.1545    4.6235 C   0  0  0  0  0  0  0  0  0  0  0  0
    2.5832    6.9227    5.5092 O   0  0  0  0  0  0  0  0  0  0  0  0
    8.1262    6.4484   12.5468 C   0  0  2  0  0  0  0  0  0  0  0  0
    8.9133    7.6125   12.7847 O   0  0  0  0  0  0  0  0  0  0  0  0
    3.5318    4.7359    8.2267 C   0  0  1  0  0  0  0  0  0  0  0  0
    2.7336    5.1253    7.0842 O   0  0  0  0  0  0  0  0  0  0  0  0
    8.4924    5.4110   13.5952 C   0  0  0  0  0  0  0  0  0  0  0  0
   -0.7168    5.5391    4.1309 C   0  0  0  0  0  0  0  0  0  0  0  0
   -1.7397    4.9465    7.8491 C   0  0  0  0  0  0  0  0  0  0  0  0
  1  2  1  1  0  0  0
  1  6  1  0  0  0  0
  1 23  1  0  0  0  0
  3  4  1  1  0  0  0
  3  8  1  0  0  0  0
  3 30  1  0  0  0  0
  5  9  1  0  0  0  0
  5 27  1  0  0  0  0
  5 31  1  6  0  0  0
  6  7  1  6  0  0  0
  6 11  1  0  0  0  0
  8 13  1  0  0  0  0
  9 10  1  1  0  0  0
  9 15  1  0  0  0  0
 11 12  1  6  0  0  0
 11 17  1  0  0  0  0
 13 14  1  1  0  0  0
 13 19  1  0  0  0  0
 15 16  1  1  0  0  0
 15 20  1  0  0  0  0
 16 34  1  0  0  0  0
 17 18  1  1  0  0  0
 17 22  1  0  0  0  0
 19  2  1  6  0  0  0
 19 24  1  0  0  0  0
 20 21  1  6  0  0  0
 20 26  1  0  0  0  0
 20 33  1  0  0  0  0
 22 23  1  6  0  0  0
 22 28  1  0  0  0  0
 24 25  1  1  0  0  0
 24 30  1  0  0  0  0
 26 27  1  0  0  0  0
 28 29  1  1  0  0  0
 28 32  1  0  0  0  0
 30 31  1  6  0  0  0
M  END
>  <CHROM.1>
-179.07659851,-162.36014353,-99.73434009,41.35691063,167.29840807,-102.20037107
4.93127410,5.55688364,8.50387393,-0.41821279,-0.17998415,-1.13750713

>  <Name>
ligand

>  <RI>
0

>  <Rbt.Current_Directory>
/home/itssahil/PROJECTS/Mol_Feturizer/New_Systems/rnas/3TD1

>  <Rbt.Executable>
rbdock ($Id: //depot/dev/client3/rdock/2013.1/src/exe/rbdock.cxx#4 $)

>  <Rbt.Library>
libRbt.so (2013.1, Build901 2013/11/27)

>  <Rbt.Parameter_File>
/export/apps/rDock/src/rDock_2013.1_src/data/scripts/dock_solv.prm

>  <Rbt.Receptor>
prm/pocket_docking_5.prm

>  <SCORE>
-14.0297

>  <SCORE.INTER>
-9.16529

>  <SCORE.INTER.CONST>
1

>  <SCORE.INTER.POLAR>
0

>  <SCORE.INTER.ROT>
6

>  <SCORE.INTER.SOLV>
12.4347

>  <SCORE.INTER.VDW>
-17.8551

>  <SCORE.INTER.norm>
-0.269567

>  <SCORE.INTRA>
-4.86443

>  <SCORE.INTRA.DIHEDRAL>
-9.53534

>  <SCORE.INTRA.DIHEDRAL.0>
19.5869

>  <SCORE.INTRA.POLAR>
0

>  <SCORE.INTRA.POLAR.0>
0

>  <SCORE.INTRA.REPUL>
0

>  <SCORE.INTRA.REPUL.0>
0

>  <SCORE.INTRA.SOLV>
-1.59029

>  <SCORE.INTRA.SOLV.lig_0>
-70.101

>  <SCORE.INTRA.VDW>
0.698384

>  <SCORE.INTRA.VDW.0>
-3.39718

>  <SCORE.INTRA.norm>
-0.143072

>  <SCORE.RESTR>
0

>  <SCORE.RESTR.CAVITY>
0

>  <SCORE.RESTR.norm>
0

>  <SCORE.SYSTEM>
0

>  <SCORE.SYSTEM.CONST>
0

>  <SCORE.SYSTEM.DIHEDRAL>
0

>  <SCORE.SYSTEM.SOLV>
0

>  <SCORE.SYSTEM.norm>
0

>  <SCORE.heavy>
34

>  <SCORE.norm>
-0.412639

>  <RMSD>
9.434

$$$$
ligand
 OpenBabel11021811483D
libRbt.so/2013.1/901 2013/11/27
 34 36  0  0  0  0  0  0  0  0999 V2000
    7.6265    6.7476    0.7214 C   0  0  2  0  0  0  0  0  0  0  0  0
    7.9739    6.1045    1.9577 O   0  0  0  0  0  0  0  0  0  0  0  0
    7.5842    6.8706    6.1437 C   0  0  2  0  0  0  0  0  0  0  0  0
    7.3616    7.5538    7.4133 N   0  0  0  0  0  0  0  0  0  0  0  0
    4.8598    6.5352    7.3275 C   0  0  2  0  0  0  0  0  0  0  0  0
    7.8580    5.7184   -0.4421 C   0  0  2  0  0  0  0  0  0  0  0  0
    7.0126    4.5264   -0.2726 N   0  0  0  0  0  0  0  0  0  0  0  0
    8.6874    7.6675    5.3707 C   0  0  0  0  0  0  0  0  0  0  0  0
    4.2719    5.2775    8.0622 C   0  0  2  0  0  0  0  0  0  0  0  0
    5.2622    4.2668    8.1544 O   0  0  0  0  0  0  0  0  0  0  0  0
    9.3461    5.3075   -0.4723 C   0  0  1  0  0  0  0  0  0  0  0  0
    9.5667    4.3715   -1.5401 O   0  0  0  0  0  0  0  0  0  0  0  0
    8.9437    6.9214    4.0177 C   0  0  2  0  0  0  0  0  0  0  0  0
    9.9760    7.6324    3.2364 N   0  0  0  0  0  0  0  0  0  0  0  0
    3.0133    4.7662    7.2597 C   0  0  1  0  0  0  0  0  0  0  0  0
    2.4248    3.5576    7.9112 N   0  0  0  0  0  0  0  0  0  0  0  0
   10.2114    6.5787   -0.6421 C   0  0  2  0  0  0  0  0  0  0  0  0
   11.6021    6.2125   -0.6612 O   0  0  0  0  0  0  0  0  0  0  0  0
    7.6451    6.8383    3.1753 C   0  0  2  0  0  0  0  0  0  0  0  0
    1.9529    5.9178    7.1881 C   0  0  1  0  0  0  0  0  0  0  0  0
    1.5352    6.2656    8.5055 O   0  0  0  0  0  0  0  0  0  0  0  0
    9.9205    7.5781    0.5416 C   0  0  2  0  0  0  0  0  0  0  0  0
    8.4872    7.9297    0.5616 O   0  0  0  0  0  0  0  0  0  0  0  0
    6.5515    6.1019    3.9888 C   0  0  2  0  0  0  0  0  0  0  0  0
    5.3646    6.0539    3.2037 O   0  0  0  0  0  0  0  0  0  0  0  0
    2.6101    7.1597    6.5075 C   0  0  0  0  0  0  0  0  0  0  0  0
    3.8288    7.5785    7.2409 O   0  0  0  0  0  0  0  0  0  0  0  0
   10.7432    8.8865    0.4107 C   0  0  2  0  0  0  0  0  0  0  0  0
   12.1119    8.6173    0.7031 O   0  0  0  0  0  0  0  0  0  0  0  0
    6.2387    6.8450    5.3085 C   0  0  1  0  0  0  0  0  0  0  0  0
    5.2183    6.0801    5.9927 O   0  0  0  0  0  0  0  0  0  0  0  0
   10.2566    9.9523    1.3786 C   0  0  0  0  0  0  0  0  0  0  0  0
    0.7129    5.5059    6.4042 C   0  0  0  0  0  0  0  0  0  0  0  0
    2.3678    3.7978    9.3658 C   0  0  0  0  0  0  0  0  0  0  0  0
  1  2  1  1  0  0  0
  1  6  1  0  0  0  0
  1 23  1  0  0  0  0
  3  4  1  1  0  0  0
  3  8  1  0  0  0  0
  3 30  1  0  0  0  0
  5  9  1  0  0  0  0
  5 27  1  0  0  0  0
  5 31  1  6  0  0  0
  6  7  1  1  0  0  0
  6 11  1  0  0  0  0
  8 13  1  0  0  0  0
  9 10  1  6  0  0  0
  9 15  1  0  0  0  0
 11 12  1  6  0  0  0
 11 17  1  0  0  0  0
 13 14  1  6  0  0  0
 13 19  1  0  0  0  0
 15 16  1  1  0  0  0
 15 20  1  0  0  0  0
 16 34  1  0  0  0  0
 17 18  1  1  0  0  0
 17 22  1  0  0  0  0
 19  2  1  6  0  0  0
 19 24  1  0  0  0  0
 20 21  1  1  0  0  0
 20 26  1  0  0  0  0
 20 33  1  0  0  0  0
 22 23  1  6  0  0  0
 22 28  1  0  0  0  0
 24 25  1  6  0  0  0
 24 30  1  0  0  0  0
 26 27  1  0  0  0  0
 28 29  1  1  0  0  0
 28 32  1  0  0  0  0
 30 31  1  1  0  0  0
M  END
>  <CHROM.1>
-171.58099321,-127.09436232,44.38222528,-72.21438136,58.47926823,-155.95204102
6.73735996,6.40084912,3.93806923,0.63985256,-0.57694741,-2.00630436

>  <Name>
ligand

>  <RI>
0

>  <Rbt.Current_Directory>
/home/itssahil/PROJECTS/Mol_Feturizer/New_Systems/rnas/3TD1

>  <Rbt.Executable>
rbdock ($Id: //depot/dev/client3/rdock/2013.1/src/exe/rbdock.cxx#4 $)

>  <Rbt.Library>
libRbt.so (2013.1, Build901 2013/11/27)

>  <Rbt.Parameter_File>
/export/apps/rDock/src/rDock_2013.1_src/data/scripts/dock_solv.prm

>  <Rbt.Receptor>
prm/blind_docking_40.prm

>  <SCORE>
17.1876

>  <SCORE.INTER>
3.36109

>  <SCORE.INTER.CONST>
1

>  <SCORE.INTER.POLAR>
0

>  <SCORE.INTER.ROT>
6

>  <SCORE.INTER.SOLV>
22.8485

>  <SCORE.INTER.VDW>
-12.9754

>  <SCORE.INTER.norm>
0.0988555

>  <SCORE.INTRA>
3.85191

>  <SCORE.INTRA.DIHEDRAL>
-9.00812

>  <SCORE.INTRA.DIHEDRAL.0>
19.5869

>  <SCORE.INTRA.POLAR>
0

>  <SCORE.INTRA.POLAR.0>
0

>  <SCORE.INTRA.REPUL>
0

>  <SCORE.INTRA.REPUL.0>
0

>  <SCORE.INTRA.SOLV>
2.88564

>  <SCORE.INTRA.SOLV.lig_0>
-70.101

>  <SCORE.INTRA.VDW>
6.91314

>  <SCORE.INTRA.VDW.0>
-3.39718

>  <SCORE.INTRA.norm>
0.113291

>  <SCORE.RESTR>
9.97463

>  <SCORE.RESTR.CAVITY>
9.97463

>  <SCORE.RESTR.norm>
0.293371

>  <SCORE.SYSTEM>
0

>  <SCORE.SYSTEM.CONST>
0

>  <SCORE.SYSTEM.DIHEDRAL>
0

>  <SCORE.SYSTEM.SOLV>
0

>  <SCORE.SYSTEM.norm>
0

>  <SCORE.heavy>
34

>  <SCORE.norm>
0.505518

>  <RMSD>
9.435

$$$$
ligand
 OpenBabel11021811483D
libRbt.so/2013.1/901 2013/11/27
 34 36  0  0  0  0  0  0  0  0999 V2000
    7.6026    6.8583    7.6070 C   0  0  2  0  0  0  0  0  0  0  0  0
    7.4345    5.4586    7.8810 O   0  0  0  0  0  0  0  0  0  0  0  0
    3.8372    3.4079    8.9374 C   0  0  2  0  0  0  0  0  0  0  0  0
    2.6878    2.9254    9.6952 N   0  0  0  0  0  0  0  0  0  0  0  0
    2.2120    6.7019    7.8078 C   0  0  2  0  0  0  0  0  0  0  0  0
    8.7864    7.0137    6.5866 C   0  0  2  0  0  0  0  0  0  0  0  0
    8.4957    6.3141    5.3256 N   0  0  0  0  0  0  0  0  0  0  0  0
    5.1196    3.0781    9.7719 C   0  0  0  0  0  0  0  0  0  0  0  0
    0.6438    6.7682    7.8669 C   0  0  2  0  0  0  0  0  0  0  0  0
    0.1868    6.2625    9.1104 O   0  0  0  0  0  0  0  0  0  0  0  0
   10.0795    6.4499    7.2145 C   0  0  1  0  0  0  0  0  0  0  0  0
   11.1689    6.5962    6.2889 O   0  0  0  0  0  0  0  0  0  0  0  0
    6.3557    3.5748    8.9483 C   0  0  2  0  0  0  0  0  0  0  0  0
    7.6021    3.2959    9.6901 N   0  0  0  0  0  0  0  0  0  0  0  0
    0.0572    5.9315    6.6647 C   0  0  1  0  0  0  0  0  0  0  0  0
   -1.4363    5.9500    6.6853 N   0  0  0  0  0  0  0  0  0  0  0  0
   10.3562    7.1958    8.5414 C   0  0  2  0  0  0  0  0  0  0  0  0
   11.5532    6.6734    9.1439 O   0  0  0  0  0  0  0  0  0  0  0  0
    6.2644    5.0979    8.6748 C   0  0  2  0  0  0  0  0  0  0  0  0
    0.5914    6.5306    5.3189 C   0  0  1  0  0  0  0  0  0  0  0  0
    0.1486    7.8788    5.1866 O   0  0  0  0  0  0  0  0  0  0  0  0
    9.1276    7.0194    9.5130 C   0  0  2  0  0  0  0  0  0  0  0  0
    7.9034    7.5411    8.8747 O   0  0  0  0  0  0  0  0  0  0  0  0
    4.9555    5.4037    7.9045 C   0  0  2  0  0  0  0  0  0  0  0  0
    4.8845    6.8082    7.6810 O   0  0  0  0  0  0  0  0  0  0  0  0
    2.1521    6.4973    5.3424 C   0  0  0  0  0  0  0  0  0  0  0  0
    2.6766    7.2321    6.5186 O   0  0  0  0  0  0  0  0  0  0  0  0
    9.3374    7.7694   10.8544 C   0  0  2  0  0  0  0  0  0  0  0  0
   10.5204    7.2881   11.4869 O   0  0  0  0  0  0  0  0  0  0  0  0
    3.7128    4.9714    8.7170 C   0  0  1  0  0  0  0  0  0  0  0  0
    2.5513    5.2910    7.9151 O   0  0  0  0  0  0  0  0  0  0  0  0
    8.1729    7.5498   11.8060 C   0  0  0  0  0  0  0  0  0  0  0  0
    0.0851    5.7574    4.1074 C   0  0  0  0  0  0  0  0  0  0  0  0
   -1.9094    4.6206    7.1163 C   0  0  0  0  0  0  0  0  0  0  0  0
  1  2  1  1  0  0  0
  1  6  1  0  0  0  0
  1 23  1  0  0  0  0
  3  4  1  1  0  0  0
  3  8  1  0  0  0  0
  3 30  1  0  0  0  0
  5  9  1  0  0  0  0
  5 27  1  0  0  0  0
  5 31  1  6  0  0  0
  6  7  1  6  0  0  0
  6 11  1  0  0  0  0
  8 13  1  0  0  0  0
  9 10  1  1  0  0  0
  9 15  1  0  0  0  0
 11 12  1  6  0  0  0
 11 17  1  0  0  0  0
 13 14  1  1  0  0  0
 13 19  1  0  0  0  0
 15 16  1  6  0  0  0
 15 20  1  0  0  0  0
 16 34  1  0  0  0  0
 17 18  1  1  0  0  0
 17 22  1  0  0  0  0
 19  2  1  6  0  0  0
 19 24  1  0  0  0  0
 20 21  1  6  0  0  0
 20 26  1  0  0  0  0
 20 33  1  0  0  0  0
 22 23  1  6  0  0  0
 22 28  1  0  0  0  0
 24 25  1  1  0  0  0
 24 30  1  0  0  0  0
 26 27  1  0  0  0  0
 28 29  1  1  0  0  0
 28 32  1  0  0  0  0
 30 31  1  6  0  0  0
M  END
>  <CHROM.1>
-172.19473598,-175.09439393,-107.25089997,-58.27794935,171.12067416,-140.89748985
5.12316909,6.01789621,7.96626752,-0.16503972,-0.18051685,-1.06373038

>  <Name>
ligand

>  <RI>
0

>  <Rbt.Current_Directory>
/home/itssahil/PROJECTS/Mol_Feturizer/New_Systems/rnas/3TD1

>  <Rbt.Executable>
rbdock ($Id: //depot/dev/client3/rdock/2013.1/src/exe/rbdock.cxx#4 $)

>  <Rbt.Library>
libRbt.so (2013.1, Build901 2013/11/27)

>  <Rbt.Parameter_File>
/export/apps/rDock/src/rDock_2013.1_src/data/scripts/dock_solv.prm

>  <Rbt.Receptor>
prm/pocket_docking_5.prm

>  <SCORE>
-14.1445

>  <SCORE.INTER>
-8.09141

>  <SCORE.INTER.CONST>
1

>  <SCORE.INTER.POLAR>
0

>  <SCORE.INTER.ROT>
6

>  <SCORE.INTER.SOLV>
13.2789

>  <SCORE.INTER.VDW>
-17.4206

>  <SCORE.INTER.norm>
-0.237983

>  <SCORE.INTRA>
-6.05307

>  <SCORE.INTRA.DIHEDRAL>
-12.4049

>  <SCORE.INTRA.DIHEDRAL.0>
19.5869

>  <SCORE.INTRA.POLAR>
0

>  <SCORE.INTRA.POLAR.0>
0

>  <SCORE.INTRA.REPUL>
0

>  <SCORE.INTRA.REPUL.0>
0

>  <SCORE.INTRA.SOLV>
-3.19703

>  <SCORE.INTRA.SOLV.lig_0>
-70.101

>  <SCORE.INTRA.VDW>
1.74788

>  <SCORE.INTRA.VDW.0>
-3.39718

>  <SCORE.INTRA.norm>
-0.178031

>  <SCORE.RESTR>
0

>  <SCORE.RESTR.CAVITY>
0

>  <SCORE.RESTR.norm>
0

>  <SCORE.SYSTEM>
0

>  <SCORE.SYSTEM.CONST>
0

>  <SCORE.SYSTEM.DIHEDRAL>
0

>  <SCORE.SYSTEM.SOLV>
0

>  <SCORE.SYSTEM.norm>
0

>  <SCORE.heavy>
34

>  <SCORE.norm>
-0.416014

>  <RMSD>
9.438

$$$$
ligand
 OpenBabel11021811483D
libRbt.so/2013.1/901 2013/11/27
 34 36  0  0  0  0  0  0  0  0999 V2000
    7.5774    6.8132    7.5919 C   0  0  2  0  0  0  0  0  0  0  0  0
    7.4138    5.4108    7.8544 O   0  0  0  0  0  0  0  0  0  0  0  0
    3.8069    3.3568    8.8712 C   0  0  2  0  0  0  0  0  0  0  0  0
    2.6558    2.8644    9.6199 N   0  0  0  0  0  0  0  0  0  0  0  0
    2.2126    6.6845    7.7922 C   0  0  2  0  0  0  0  0  0  0  0  0
    8.7548    6.9802    6.5659 C   0  0  2  0  0  0  0  0  0  0  0  0
    8.4580    6.2912    5.3004 N   0  0  0  0  0  0  0  0  0  0  0  0
    5.0884    3.0029    9.6971 C   0  0  0  0  0  0  0  0  0  0  0  0
    0.6460    6.7755    7.8591 C   0  0  2  0  0  0  0  0  0  0  0  0
    0.1868    6.2702    9.1020 O   0  0  0  0  0  0  0  0  0  0  0  0
   10.0528    6.4135    7.1811 C   0  0  1  0  0  0  0  0  0  0  0  0
   11.1363    6.5702    6.2504 O   0  0  0  0  0  0  0  0  0  0  0  0
    6.3263    3.5105    8.8829 C   0  0  2  0  0  0  0  0  0  0  0  0
    7.5719    3.2096    9.6173 N   0  0  0  0  0  0  0  0  0  0  0  0
    0.0405    5.9548    6.6552 C   0  0  1  0  0  0  0  0  0  0  0  0
   -1.4524    5.9971    6.6830 N   0  0  0  0  0  0  0  0  0  0  0  0
   10.3358    7.1481    8.5129 C   0  0  2  0  0  0  0  0  0  0  0  0
   11.5374    6.6229    9.1036 O   0  0  0  0  0  0  0  0  0  0  0  0
    6.2426    5.0394    8.6416 C   0  0  2  0  0  0  0  0  0  0  0  0
    0.5779    6.5528    5.3101 C   0  0  1  0  0  0  0  0  0  0  0  0
    0.1560    7.9085    5.1873 O   0  0  0  0  0  0  0  0  0  0  0  0
    9.1134    6.9606    9.4901 C   0  0  2  0  0  0  0  0  0  0  0  0
    7.8843    7.4853    8.8638 O   0  0  0  0  0  0  0  0  0  0  0  0
    4.9346    5.3683    7.8794 C   0  0  2  0  0  0  0  0  0  0  0  0
    4.8706    6.7774    7.6856 O   0  0  0  0  0  0  0  0  0  0  0  0
    2.1379    6.4945    5.3260 C   0  0  0  0  0  0  0  0  0  0  0  0
    2.6797    7.2143    6.5037 O   0  0  0  0  0  0  0  0  0  0  0  0
    9.3297    7.6990   10.8369 C   0  0  2  0  0  0  0  0  0  0  0  0
   10.5076    7.2018   11.4667 O   0  0  0  0  0  0  0  0  0  0  0  0
    3.6904    4.9253    8.6839 C   0  0  1  0  0  0  0  0  0  0  0  0
    2.5298    5.2678    7.8902 O   0  0  0  0  0  0  0  0  0  0  0  0
    8.1626    7.4841   11.7863 C   0  0  0  0  0  0  0  0  0  0  0  0
    0.0537    5.7945    4.0969 C   0  0  0  0  0  0  0  0  0  0  0  0
   -1.9402    4.7321    7.2651 C   0  0  0  0  0  0  0  0  0  0  0  0
  1  2  1  1  0  0  0
  1  6  1  0  0  0  0
  1 23  1  0  0  0  0
  3  4  1  1  0  0  0
  3  8  1  0  0  0  0
  3 30  1  0  0  0  0
  5  9  1  0  0  0  0
  5 27  1  0  0  0  0
  5 31  1  6  0  0  0
  6  7  1  6  0  0  0
  6 11  1  0  0  0  0
  8 13  1  0  0  0  0
  9 10  1  1  0  0  0
  9 15  1  0  0  0  0
 11 12  1  6  0  0  0
 11 17  1  0  0  0  0
 13 14  1  1  0  0  0
 13 19  1  0  0  0  0
 15 16  1  6  0  0  0
 15 20  1  0  0  0  0
 16 34  1  0  0  0  0
 17 18  1  1  0  0  0
 17 22  1  0  0  0  0
 19  2  1  6  0  0  0
 19 24  1  0  0  0  0
 20 21  1  6  0  0  0
 20 26  1  0  0  0  0
 20 33  1  0  0  0  0
 22 23  1  6  0  0  0
 22 28  1  0  0  0  0
 24 25  1  1  0  0  0
 24 30  1  0  0  0  0
 26 27  1  0  0  0  0
 28 29  1  1  0  0  0
 28 32  1  0  0  0  0
 30 31  1  6  0  0  0
M  END
>  <CHROM.1>
-171.66143212,-176.04248668,-100.41814205,-59.05587461,172.24988237,-140.94546781
5.10460910,5.99084962,7.94545925,-0.16307919,-0.17425967,-1.04803310

>  <Name>
ligand

>  <RI>
0

>  <Rbt.Current_Directory>
/home/itssahil/PROJECTS/Mol_Feturizer/New_Systems/rnas/3TD1

>  <Rbt.Executable>
rbdock ($Id: //depot/dev/client3/rdock/2013.1/src/exe/rbdock.cxx#4 $)

>  <Rbt.Library>
libRbt.so (2013.1, Build901 2013/11/27)

>  <Rbt.Parameter_File>
/export/apps/rDock/src/rDock_2013.1_src/data/scripts/dock_solv.prm

>  <Rbt.Receptor>
prm/pocket_docking_5.prm

>  <SCORE>
-14.1366

>  <SCORE.INTER>
-8.20183

>  <SCORE.INTER.CONST>
1

>  <SCORE.INTER.POLAR>
0

>  <SCORE.INTER.ROT>
6

>  <SCORE.INTER.SOLV>
12.9041

>  <SCORE.INTER.VDW>
-17.3693

>  <SCORE.INTER.norm>
-0.24123

>  <SCORE.INTRA>
-5.93479

>  <SCORE.INTRA.DIHEDRAL>
-12.6694

>  <SCORE.INTRA.DIHEDRAL.0>
19.5869

>  <SCORE.INTRA.POLAR>
0

>  <SCORE.INTRA.POLAR.0>
0

>  <SCORE.INTRA.REPUL>
0

>  <SCORE.INTRA.REPUL.0>
0

>  <SCORE.INTRA.SOLV>
-3.22498

>  <SCORE.INTRA.SOLV.lig_0>
-70.101

>  <SCORE.INTRA.VDW>
2.01237

>  <SCORE.INTRA.VDW.0>
-3.39718

>  <SCORE.INTRA.norm>
-0.174553

>  <SCORE.RESTR>
0

>  <SCORE.RESTR.CAVITY>
0

>  <SCORE.RESTR.norm>
0

>  <SCORE.SYSTEM>
0

>  <SCORE.SYSTEM.CONST>
0

>  <SCORE.SYSTEM.DIHEDRAL>
0

>  <SCORE.SYSTEM.SOLV>
0

>  <SCORE.SYSTEM.norm>
0

>  <SCORE.heavy>
34

>  <SCORE.norm>
-0.415783

>  <RMSD>
9.439

$$$$
ligand
 OpenBabel11021811483D
libRbt.so/2013.1/901 2013/11/27
 34 36  0  0  0  0  0  0  0  0999 V2000
    8.8842    9.2816    2.5551 C   0  0  2  0  0  0  0  0  0  0  0  0
    8.4740    7.9263    2.3151 O   0  0  0  0  0  0  0  0  0  0  0  0
    7.2066    4.6679    4.7724 C   0  0  2  0  0  0  0  0  0  0  0  0
    7.1285    3.7032    5.8639 N   0  0  0  0  0  0  0  0  0  0  0  0
    5.3731    6.8681    7.1092 C   0  0  2  0  0  0  0  0  0  0  0  0
    8.6272   10.1054    1.2429 C   0  0  2  0  0  0  0  0  0  0  0  0
    7.2012   10.0974    0.8816 N   0  0  0  0  0  0  0  0  0  0  0  0
    8.6604    4.6055    4.1960 C   0  0  0  0  0  0  0  0  0  0  0  0
    5.1473    5.7177    8.1545 C   0  0  2  0  0  0  0  0  0  0  0  0
    6.2880    4.8764    8.1989 O   0  0  0  0  0  0  0  0  0  0  0  0
    9.4645    9.5070    0.0917 C   0  0  1  0  0  0  0  0  0  0  0  0
    9.2402   10.2612   -1.1106 O   0  0  0  0  0  0  0  0  0  0  0  0
    8.7385    5.6241    3.0089 C   0  0  2  0  0  0  0  0  0  0  0  0
   10.0950    5.6158    2.4245 N   0  0  0  0  0  0  0  0  0  0  0  0
    3.8597    4.9051    7.7410 C   0  0  1  0  0  0  0  0  0  0  0  0
    3.6095    3.7858    8.6981 N   0  0  0  0  0  0  0  0  0  0  0  0
   10.9564    9.5194    0.5012 C   0  0  2  0  0  0  0  0  0  0  0  0
   11.7485    8.9545   -0.5581 O   0  0  0  0  0  0  0  0  0  0  0  0
    8.4070    7.0606    3.4879 C   0  0  2  0  0  0  0  0  0  0  0  0
    2.6322    5.8786    7.7078 C   0  0  1  0  0  0  0  0  0  0  0  0
    2.4207    6.4257    9.0066 O   0  0  0  0  0  0  0  0  0  0  0  0
   11.1462    8.6953    1.8314 C   0  0  2  0  0  0  0  0  0  0  0  0
   10.3132    9.2734    2.9038 O   0  0  0  0  0  0  0  0  0  0  0  0
    6.9890    7.0797    4.1115 C   0  0  2  0  0  0  0  0  0  0  0  0
    6.7142    8.4029    4.5600 O   0  0  0  0  0  0  0  0  0  0  0  0
    2.9378    7.0331    6.7022 C   0  0  0  0  0  0  0  0  0  0  0  0
    4.1888    7.7371    7.0734 O   0  0  0  0  0  0  0  0  0  0  0  0
   12.6228    8.6937    2.3062 C   0  0  2  0  0  0  0  0  0  0  0  0
   13.1895    9.9847    2.0977 O   0  0  0  0  0  0  0  0  0  0  0  0
    6.8956    6.1208    5.3211 C   0  0  1  0  0  0  0  0  0  0  0  0
    5.5415    6.2060    5.8245 O   0  0  0  0  0  0  0  0  0  0  0  0
   13.4571    7.6841    1.5353 C   0  0  0  0  0  0  0  0  0  0  0  0
    1.3498    5.1687    7.2914 C   0  0  0  0  0  0  0  0  0  0  0  0
    3.6114    2.5200    7.9401 C   0  0  0  0  0  0  0  0  0  0  0  0
  1  2  1  6  0  0  0
  1  6  1  0  0  0  0
  1 23  1  0  0  0  0
  3  4  1  1  0  0  0
  3  8  1  0  0  0  0
  3 30  1  0  0  0  0
  5  9  1  0  0  0  0
  5 27  1  0  0  0  0
  5 31  1  6  0  0  0
  6  7  1  6  0  0  0
  6 11  1  0  0  0  0
  8 13  1  0  0  0  0
  9 10  1  6  0  0  0
  9 15  1  0  0  0  0
 11 12  1  6  0  0  0
 11 17  1  0  0  0  0
 13 14  1  1  0  0  0
 13 19  1  0  0  0  0
 15 16  1  1  0  0  0
 15 20  1  0  0  0  0
 16 34  1  0  0  0  0
 17 18  1  6  0  0  0
 17 22  1  0  0  0  0
 19  2  1  6  0  0  0
 19 24  1  0  0  0  0
 20 21  1  1  0  0  0
 20 26  1  0  0  0  0
 20 33  1  0  0  0  0
 22 23  1  1  0  0  0
 22 28  1  0  0  0  0
 24 25  1  1  0  0  0
 24 30  1  0  0  0  0
 26 27  1  0  0  0  0
 28 29  1  6  0  0  0
 28 32  1  0  0  0  0
 30 31  1  6  0  0  0
M  END
>  <CHROM.1>
-169.25519848,-149.04276945,-121.52752557,39.65595497,134.56608960,-103.60689530
7.45061660,7.07960467,4.28747671,0.73954181,0.39460033,-0.64839910

>  <Name>
ligand

>  <RI>
0

>  <Rbt.Current_Directory>
/home/itssahil/PROJECTS/Mol_Feturizer/New_Systems/rnas/3TD1

>  <Rbt.Executable>
rbdock ($Id: //depot/dev/client3/rdock/2013.1/src/exe/rbdock.cxx#4 $)

>  <Rbt.Library>
libRbt.so (2013.1, Build901 2013/11/27)

>  <Rbt.Parameter_File>
/export/apps/rDock/src/rDock_2013.1_src/data/scripts/dock_solv.prm

>  <Rbt.Receptor>
prm/blind_docking_20.prm

>  <SCORE>
17.2246

>  <SCORE.INTER>
4.27769

>  <SCORE.INTER.CONST>
1

>  <SCORE.INTER.POLAR>
0

>  <SCORE.INTER.ROT>
6

>  <SCORE.INTER.SOLV>
22.4701

>  <SCORE.INTER.VDW>
-12.2382

>  <SCORE.INTER.norm>
0.125815

>  <SCORE.INTRA>
-0.353824

>  <SCORE.INTRA.DIHEDRAL>
-0.566227

>  <SCORE.INTRA.DIHEDRAL.0>
19.5869

>  <SCORE.INTRA.POLAR>
0

>  <SCORE.INTRA.POLAR.0>
0

>  <SCORE.INTRA.REPUL>
0

>  <SCORE.INTRA.REPUL.0>
0

>  <SCORE.INTRA.SOLV>
1.21902

>  <SCORE.INTRA.SOLV.lig_0>
-70.101

>  <SCORE.INTRA.VDW>
-0.680222

>  <SCORE.INTRA.VDW.0>
-3.39718

>  <SCORE.INTRA.norm>
-0.0104066

>  <SCORE.RESTR>
13.3007

>  <SCORE.RESTR.CAVITY>
13.3007

>  <SCORE.RESTR.norm>
0.391197

>  <SCORE.SYSTEM>
0

>  <SCORE.SYSTEM.CONST>
0

>  <SCORE.SYSTEM.DIHEDRAL>
0

>  <SCORE.SYSTEM.SOLV>
0

>  <SCORE.SYSTEM.norm>
0

>  <SCORE.heavy>
34

>  <SCORE.norm>
0.506605

>  <RMSD>
9.444

$$$$
ligand
 OpenBabel11021811483D
libRbt.so/2013.1/901 2013/11/27
 34 36  0  0  0  0  0  0  0  0999 V2000
    7.7051    6.9498    1.2800 C   0  0  2  0  0  0  0  0  0  0  0  0
    7.7783    6.0567    2.4023 O   0  0  0  0  0  0  0  0  0  0  0  0
    7.0291    6.2163    6.6065 C   0  0  2  0  0  0  0  0  0  0  0  0
    6.8450    6.7181    7.9638 N   0  0  0  0  0  0  0  0  0  0  0  0
    3.9549    7.0288    7.1836 C   0  0  2  0  0  0  0  0  0  0  0  0
    7.8422    6.0944   -0.0300 C   0  0  2  0  0  0  0  0  0  0  0  0
    6.7561    5.1079   -0.1360 N   0  0  0  0  0  0  0  0  0  0  0  0
    8.4284    6.7117    6.1103 C   0  0  0  0  0  0  0  0  0  0  0  0
    3.5735    5.9447    8.2543 C   0  0  2  0  0  0  0  0  0  0  0  0
    4.7454    5.3007    8.7264 O   0  0  0  0  0  0  0  0  0  0  0  0
    9.2082    5.3743   -0.0294 C   0  0  1  0  0  0  0  0  0  0  0  0
    9.3437    4.5957   -1.2294 O   0  0  0  0  0  0  0  0  0  0  0  0
    8.6369    6.1539    4.6617 C   0  0  2  0  0  0  0  0  0  0  0  0
    9.9440    6.5947    4.1339 N   0  0  0  0  0  0  0  0  0  0  0  0
    2.5844    4.9082    7.5933 C   0  0  1  0  0  0  0  0  0  0  0  0
    2.2026    3.8438    8.5694 N   0  0  0  0  0  0  0  0  0  0  0  0
   10.3300    6.4327    0.0920 C   0  0  2  0  0  0  0  0  0  0  0  0
   11.6093    5.7754    0.1047 O   0  0  0  0  0  0  0  0  0  0  0  0
    7.5181    6.6495    3.7101 C   0  0  2  0  0  0  0  0  0  0  0  0
    1.3103    5.6695    7.0907 C   0  0  1  0  0  0  0  0  0  0  0  0
    0.6499    6.2786    8.1970 O   0  0  0  0  0  0  0  0  0  0  0  0
   10.1268    7.2694    1.4123 C   0  0  2  0  0  0  0  0  0  0  0  0
    8.8031    7.9219    1.3949 O   0  0  0  0  0  0  0  0  0  0  0  0
    6.1408    6.2005    4.2588 C   0  0  2  0  0  0  0  0  0  0  0  0
    5.1293    6.6819    3.3798 O   0  0  0  0  0  0  0  0  0  0  0  0
    1.7548    6.7734    6.0801 C   0  0  0  0  0  0  0  0  0  0  0  0
    2.7357    7.6939    6.7037 O   0  0  0  0  0  0  0  0  0  0  0  0
   11.2109    8.3667    1.5755 C   0  0  2  0  0  0  0  0  0  0  0  0
   12.4822    7.7524    1.7693 O   0  0  0  0  0  0  0  0  0  0  0  0
    5.8833    6.7798    5.6693 C   0  0  1  0  0  0  0  0  0  0  0  0
    4.5850    6.3008    6.0926 O   0  0  0  0  0  0  0  0  0  0  0  0
   10.9305    9.2556    2.7759 C   0  0  0  0  0  0  0  0  0  0  0  0
    0.3141    4.7346    6.4159 C   0  0  0  0  0  0  0  0  0  0  0  0
    3.1621    2.7306    8.4387 C   0  0  0  0  0  0  0  0  0  0  0  0
  1  2  1  1  0  0  0
  1  6  1  0  0  0  0
  1 23  1  0  0  0  0
  3  4  1  1  0  0  0
  3  8  1  0  0  0  0
  3 30  1  0  0  0  0
  5  9  1  0  0  0  0
  5 27  1  0  0  0  0
  5 31  1  6  0  0  0
  6  7  1  1  0  0  0
  6 11  1  0  0  0  0
  8 13  1  0  0  0  0
  9 10  1  6  0  0  0
  9 15  1  0  0  0  0
 11 12  1  6  0  0  0
 11 17  1  0  0  0  0
 13 14  1  6  0  0  0
 13 19  1  0  0  0  0
 15 16  1  1  0  0  0
 15 20  1  0  0  0  0
 16 34  1  0  0  0  0
 17 18  1  1  0  0  0
 17 22  1  0  0  0  0
 19  2  1  6  0  0  0
 19 24  1  0  0  0  0
 20 21  1  1  0  0  0
 20 26  1  0  0  0  0
 20 33  1  0  0  0  0
 22 23  1  6  0  0  0
 22 28  1  0  0  0  0
 24 25  1  6  0  0  0
 24 30  1  0  0  0  0
 26 27  1  0  0  0  0
 28 29  1  1  0  0  0
 28 32  1  0  0  0  0
 30 31  1  1  0  0  0
M  END
>  <CHROM.1>
-173.30784236,-133.11156764,-90.89782807,-66.11034599,82.39990067,-127.52504693
6.50767531,6.26054312,4.32206087,0.66570534,-0.32517131,-1.77571998

>  <Name>
ligand

>  <RI>
0

>  <Rbt.Current_Directory>
/home/itssahil/PROJECTS/Mol_Feturizer/New_Systems/rnas/3TD1

>  <Rbt.Executable>
rbdock ($Id: //depot/dev/client3/rdock/2013.1/src/exe/rbdock.cxx#4 $)

>  <Rbt.Library>
libRbt.so (2013.1, Build901 2013/11/27)

>  <Rbt.Parameter_File>
/export/apps/rDock/src/rDock_2013.1_src/data/scripts/dock_solv.prm

>  <Rbt.Receptor>
prm/blind_docking_40.prm

>  <SCORE>
9.35585

>  <SCORE.INTER>
-0.918353

>  <SCORE.INTER.CONST>
1

>  <SCORE.INTER.POLAR>
0

>  <SCORE.INTER.ROT>
6

>  <SCORE.INTER.SOLV>
21.0807

>  <SCORE.INTER.VDW>
-15.2391

>  <SCORE.INTER.norm>
-0.0270104

>  <SCORE.INTRA>
-0.120386

>  <SCORE.INTRA.DIHEDRAL>
-3.08189

>  <SCORE.INTRA.DIHEDRAL.0>
19.5869

>  <SCORE.INTRA.POLAR>
0

>  <SCORE.INTRA.POLAR.0>
0

>  <SCORE.INTRA.REPUL>
0

>  <SCORE.INTRA.REPUL.0>
0

>  <SCORE.INTRA.SOLV>
2.85903

>  <SCORE.INTRA.SOLV.lig_0>
-70.101

>  <SCORE.INTRA.VDW>
-0.00895785

>  <SCORE.INTRA.VDW.0>
-3.39718

>  <SCORE.INTRA.norm>
-0.00354076

>  <SCORE.RESTR>
10.3946

>  <SCORE.RESTR.CAVITY>
10.3946

>  <SCORE.RESTR.norm>
0.305723

>  <SCORE.SYSTEM>
0

>  <SCORE.SYSTEM.CONST>
0

>  <SCORE.SYSTEM.DIHEDRAL>
0

>  <SCORE.SYSTEM.SOLV>
0

>  <SCORE.SYSTEM.norm>
0

>  <SCORE.heavy>
34

>  <SCORE.norm>
0.275172

>  <RMSD>
9.449

$$$$
ligand
 OpenBabel11021811483D
libRbt.so/2013.1/901 2013/11/27
 34 36  0  0  0  0  0  0  0  0999 V2000
    7.5700    6.8915    7.5416 C   0  0  2  0  0  0  0  0  0  0  0  0
    7.3964    5.4920    7.8135 O   0  0  0  0  0  0  0  0  0  0  0  0
    3.8038    3.4573    8.9155 C   0  0  2  0  0  0  0  0  0  0  0  0
    2.6620    2.9799    9.6879 N   0  0  0  0  0  0  0  0  0  0  0  0
    2.2049    6.7613    7.7693 C   0  0  2  0  0  0  0  0  0  0  0  0
    8.7440    7.0427    6.5093 C   0  0  2  0  0  0  0  0  0  0  0  0
    8.4359    6.3484    5.2494 N   0  0  0  0  0  0  0  0  0  0  0  0
    5.0952    3.1217    9.7336 C   0  0  0  0  0  0  0  0  0  0  0  0
    0.6403    6.8668    7.8596 C   0  0  2  0  0  0  0  0  0  0  0  0
    0.1988    6.4072    9.1264 O   0  0  0  0  0  0  0  0  0  0  0  0
   10.0402    6.4694    7.1220 C   0  0  1  0  0  0  0  0  0  0  0  0
   11.1207    6.6118    6.1855 O   0  0  0  0  0  0  0  0  0  0  0  0
    6.3229    3.6130    8.8944 C   0  0  2  0  0  0  0  0  0  0  0  0
    7.5774    3.3285    9.6203 N   0  0  0  0  0  0  0  0  0  0  0  0
    0.0083    6.0110    6.6944 C   0  0  1  0  0  0  0  0  0  0  0  0
   -1.4836    6.0659    6.7460 N   0  0  0  0  0  0  0  0  0  0  0  0
   10.3352    7.2099    8.4480 C   0  0  2  0  0  0  0  0  0  0  0  0
   11.5352    6.6788    9.0365 O   0  0  0  0  0  0  0  0  0  0  0  0
    6.2349    5.1364    8.6220 C   0  0  2  0  0  0  0  0  0  0  0  0
    0.5269    6.5592    5.3211 C   0  0  1  0  0  0  0  0  0  0  0  0
    0.1129    7.9133    5.1598 O   0  0  0  0  0  0  0  0  0  0  0  0
    9.1157    7.0382    9.4319 C   0  0  2  0  0  0  0  0  0  0  0  0
    7.8881    7.5689    8.8079 O   0  0  0  0  0  0  0  0  0  0  0  0
    4.9177    5.4482    7.8685 C   0  0  2  0  0  0  0  0  0  0  0  0
    4.8501    6.8529    7.6459 O   0  0  0  0  0  0  0  0  0  0  0  0
    2.0865    6.4891    5.3126 C   0  0  0  0  0  0  0  0  0  0  0  0
    2.6536    7.2438    6.4560 O   0  0  0  0  0  0  0  0  0  0  0  0
    9.3441    7.7832   10.7731 C   0  0  2  0  0  0  0  0  0  0  0  0
   10.5430    7.3094   11.3807 O   0  0  0  0  0  0  0  0  0  0  0  0
    3.6835    5.0213    8.6967 C   0  0  1  0  0  0  0  0  0  0  0  0
    2.5133    5.3462    7.9097 O   0  0  0  0  0  0  0  0  0  0  0  0
    8.1998    7.5481   11.7452 C   0  0  0  0  0  0  0  0  0  0  0  0
   -0.0236    5.7647    4.1431 C   0  0  0  0  0  0  0  0  0  0  0  0
   -1.9721    4.8103    7.3475 C   0  0  0  0  0  0  0  0  0  0  0  0
  1  2  1  1  0  0  0
  1  6  1  0  0  0  0
  1 23  1  0  0  0  0
  3  4  1  1  0  0  0
  3  8  1  0  0  0  0
  3 30  1  0  0  0  0
  5  9  1  0  0  0  0
  5 27  1  0  0  0  0
  5 31  1  6  0  0  0
  6  7  1  6  0  0  0
  6 11  1  0  0  0  0
  8 13  1  0  0  0  0
  9 10  1  1  0  0  0
  9 15  1  0  0  0  0
 11 12  1  6  0  0  0
 11 17  1  0  0  0  0
 13 14  1  1  0  0  0
 13 19  1  0  0  0  0
 15 16  1  6  0  0  0
 15 20  1  0  0  0  0
 16 34  1  0  0  0  0
 17 18  1  1  0  0  0
 17 22  1  0  0  0  0
 19  2  1  6  0  0  0
 19 24  1  0  0  0  0
 20 21  1  6  0  0  0
 20 26  1  0  0  0  0
 20 33  1  0  0  0  0
 22 23  1  6  0  0  0
 22 28  1  0  0  0  0
 24 25  1  1  0  0  0
 24 30  1  0  0  0  0
 26 27  1  0  0  0  0
 28 29  1  1  0  0  0
 28 32  1  0  0  0  0
 30 31  1  6  0  0  0
M  END
>  <CHROM.1>
-172.38405022,-174.87054373,-101.82641912,-57.28377400,173.12026226,-140.84082392
5.09297321,6.06140469,7.93073738,-0.15902558,-0.16713298,-1.07393994

>  <Name>
ligand

>  <RI>
0

>  <Rbt.Current_Directory>
/home/itssahil/PROJECTS/Mol_Feturizer/New_Systems/rnas/3TD1

>  <Rbt.Executable>
rbdock ($Id: //depot/dev/client3/rdock/2013.1/src/exe/rbdock.cxx#4 $)

>  <Rbt.Library>
libRbt.so (2013.1, Build901 2013/11/27)

>  <Rbt.Parameter_File>
/export/apps/rDock/src/rDock_2013.1_src/data/scripts/dock_solv.prm

>  <Rbt.Receptor>
prm/pocket_docking_5.prm

>  <SCORE>
-14.1641

>  <SCORE.INTER>
-8.21817

>  <SCORE.INTER.CONST>
1

>  <SCORE.INTER.POLAR>
0

>  <SCORE.INTER.ROT>
6

>  <SCORE.INTER.SOLV>
13.3325

>  <SCORE.INTER.VDW>
-17.5229

>  <SCORE.INTER.norm>
-0.241711

>  <SCORE.INTRA>
-5.94595

>  <SCORE.INTRA.DIHEDRAL>
-12.6529

>  <SCORE.INTRA.DIHEDRAL.0>
19.5869

>  <SCORE.INTRA.POLAR>
0

>  <SCORE.INTRA.POLAR.0>
0

>  <SCORE.INTRA.REPUL>
0

>  <SCORE.INTRA.REPUL.0>
0

>  <SCORE.INTRA.SOLV>
-3.19956

>  <SCORE.INTRA.SOLV.lig_0>
-70.101

>  <SCORE.INTRA.VDW>
1.9803

>  <SCORE.INTRA.VDW.0>
-3.39718

>  <SCORE.INTRA.norm>
-0.174881

>  <SCORE.RESTR>
0

>  <SCORE.RESTR.CAVITY>
0

>  <SCORE.RESTR.norm>
0

>  <SCORE.SYSTEM>
0

>  <SCORE.SYSTEM.CONST>
0

>  <SCORE.SYSTEM.DIHEDRAL>
0

>  <SCORE.SYSTEM.SOLV>
0

>  <SCORE.SYSTEM.norm>
0

>  <SCORE.heavy>
34

>  <SCORE.norm>
-0.416592

>  <RMSD>
9.451

$$$$
ligand
 OpenBabel11021811483D
libRbt.so/2013.1/901 2013/11/27
 34 36  0  0  0  0  0  0  0  0999 V2000
    8.8439    9.5457    2.4188 C   0  0  2  0  0  0  0  0  0  0  0  0
    8.5246    8.1744    2.1356 O   0  0  0  0  0  0  0  0  0  0  0  0
    7.1828    4.9060    4.5394 C   0  0  2  0  0  0  0  0  0  0  0  0
    7.0887    3.9190    5.6095 N   0  0  0  0  0  0  0  0  0  0  0  0
    5.4818    6.9806    7.0176 C   0  0  2  0  0  0  0  0  0  0  0  0
    8.3278   10.4209    1.2212 C   0  0  2  0  0  0  0  0  0  0  0  0
    6.8708   10.2955    1.0611 N   0  0  0  0  0  0  0  0  0  0  0  0
    8.6232    4.8052    3.9354 C   0  0  0  0  0  0  0  0  0  0  0  0
    5.3604    5.7100    7.9329 C   0  0  2  0  0  0  0  0  0  0  0  0
    6.5297    4.9166    7.8134 O   0  0  0  0  0  0  0  0  0  0  0  0
    9.0390    9.9810   -0.0769 C   0  0  1  0  0  0  0  0  0  0  0  0
    8.5772   10.7833   -1.1759 O   0  0  0  0  0  0  0  0  0  0  0  0
    8.7176    5.8484    2.7710 C   0  0  2  0  0  0  0  0  0  0  0  0
   10.0625    5.8054    2.1620 N   0  0  0  0  0  0  0  0  0  0  0  0
    4.0781    4.8979    7.5021 C   0  0  1  0  0  0  0  0  0  0  0  0
    3.9258    3.6672    8.3350 N   0  0  0  0  0  0  0  0  0  0  0  0
   10.5675   10.1141    0.1220 C   0  0  2  0  0  0  0  0  0  0  0  0
   11.2446    9.6972   -1.0764 O   0  0  0  0  0  0  0  0  0  0  0  0
    8.4467    7.2841    3.2890 C   0  0  2  0  0  0  0  0  0  0  0  0
    2.8184    5.8177    7.6532 C   0  0  1  0  0  0  0  0  0  0  0  0
    2.6690    6.2036    9.0169 O   0  0  0  0  0  0  0  0  0  0  0  0
   11.0201    9.2310    1.3467 C   0  0  2  0  0  0  0  0  0  0  0  0
   10.3034    9.6562    2.5648 O   0  0  0  0  0  0  0  0  0  0  0  0
    7.0413    7.3391    3.9385 C   0  0  2  0  0  0  0  0  0  0  0  0
    6.8224    8.6602    4.4225 O   0  0  0  0  0  0  0  0  0  0  0  0
    3.0219    7.0911    6.7731 C   0  0  0  0  0  0  0  0  0  0  0  0
    4.2687    7.7987    7.1514 O   0  0  0  0  0  0  0  0  0  0  0  0
   12.5442    9.3448    1.6112 C   0  0  2  0  0  0  0  0  0  0  0  0
   13.2536    9.1431    0.3916 O   0  0  0  0  0  0  0  0  0  0  0  0
    6.9342    6.3556    5.1272 C   0  0  1  0  0  0  0  0  0  0  0  0
    5.5930    6.4772    5.6569 O   0  0  0  0  0  0  0  0  0  0  0  0
   13.0182    8.3007    2.6087 C   0  0  0  0  0  0  0  0  0  0  0  0
    1.5377    5.1081    7.2312 C   0  0  0  0  0  0  0  0  0  0  0  0
    4.1255    4.0381    9.7490 C   0  0  0  0  0  0  0  0  0  0  0  0
  1  2  1  6  0  0  0
  1  6  1  0  0  0  0
  1 23  1  0  0  0  0
  3  4  1  1  0  0  0
  3  8  1  0  0  0  0
  3 30  1  0  0  0  0
  5  9  1  0  0  0  0
  5 27  1  0  0  0  0
  5 31  1  6  0  0  0
  6  7  1  6  0  0  0
  6 11  1  0  0  0  0
  8 13  1  0  0  0  0
  9 10  1  6  0  0  0
  9 15  1  0  0  0  0
 11 12  1  6  0  0  0
 11 17  1  0  0  0  0
 13 14  1  1  0  0  0
 13 19  1  0  0  0  0
 15 16  1  1  0  0  0
 15 20  1  0  0  0  0
 16 34  1  0  0  0  0
 17 18  1  6  0  0  0
 17 22  1  0  0  0  0
 19  2  1  6  0  0  0
 19 24  1  0  0  0  0
 20 21  1  1  0  0  0
 20 26  1  0  0  0  0
 20 33  1  0  0  0  0
 22 23  1  1  0  0  0
 22 28  1  0  0  0  0
 24 25  1  1  0  0  0
 24 30  1  0  0  0  0
 26 27  1  0  0  0  0
 28 29  1  6  0  0  0
 28 32  1  0  0  0  0
 30 31  1  6  0  0  0
M  END
>  <CHROM.1>
-157.52285390,-155.70225236,46.40706488,-49.59345139,128.15199656,-96.46623339
7.43154133,7.32326824,4.14165903,0.82386420,0.36962007,-0.72836654

>  <Name>
ligand

>  <RI>
0

>  <Rbt.Current_Directory>
/home/itssahil/PROJECTS/Mol_Feturizer/New_Systems/rnas/3TD1

>  <Rbt.Executable>
rbdock ($Id: //depot/dev/client3/rdock/2013.1/src/exe/rbdock.cxx#4 $)

>  <Rbt.Library>
libRbt.so (2013.1, Build901 2013/11/27)

>  <Rbt.Parameter_File>
/export/apps/rDock/src/rDock_2013.1_src/data/scripts/dock_solv.prm

>  <Rbt.Receptor>
prm/blind_docking_40.prm

>  <SCORE>
22.8832

>  <SCORE.INTER>
6.48699

>  <SCORE.INTER.CONST>
1

>  <SCORE.INTER.POLAR>
0

>  <SCORE.INTER.ROT>
6

>  <SCORE.INTER.SOLV>
22.6292

>  <SCORE.INTER.VDW>
-10.8184

>  <SCORE.INTER.norm>
0.190794

>  <SCORE.INTRA>
5.10048

>  <SCORE.INTRA.DIHEDRAL>
-2.65623

>  <SCORE.INTRA.DIHEDRAL.0>
19.5869

>  <SCORE.INTRA.POLAR>
0

>  <SCORE.INTRA.POLAR.0>
0

>  <SCORE.INTRA.REPUL>
0

>  <SCORE.INTRA.REPUL.0>
0

>  <SCORE.INTRA.SOLV>
1.62789

>  <SCORE.INTRA.SOLV.lig_0>
-70.101

>  <SCORE.INTRA.VDW>
5.61465

>  <SCORE.INTRA.VDW.0>
-3.39718

>  <SCORE.INTRA.norm>
0.150014

>  <SCORE.RESTR>
11.2957

>  <SCORE.RESTR.CAVITY>
11.2957

>  <SCORE.RESTR.norm>
0.332226

>  <SCORE.SYSTEM>
0

>  <SCORE.SYSTEM.CONST>
0

>  <SCORE.SYSTEM.DIHEDRAL>
0

>  <SCORE.SYSTEM.SOLV>
0

>  <SCORE.SYSTEM.norm>
0

>  <SCORE.heavy>
34

>  <SCORE.norm>
0.673034

>  <RMSD>
9.453

$$$$
ligand
 OpenBabel11021811483D
libRbt.so/2013.1/901 2013/11/27
 34 36  0  0  0  0  0  0  0  0999 V2000
    8.4815    8.2124    0.8061 C   0  0  2  0  0  0  0  0  0  0  0  0
    9.5654    8.9835    1.3475 O   0  0  0  0  0  0  0  0  0  0  0  0
   13.7380    9.5011    0.5838 C   0  0  2  0  0  0  0  0  0  0  0  0
   15.0573    9.4043   -0.0312 N   0  0  0  0  0  0  0  0  0  0  0  0
   12.7041   12.2595   -1.8319 C   0  0  2  0  0  0  0  0  0  0  0  0
    7.1607    9.0442    0.9795 C   0  0  2  0  0  0  0  0  0  0  0  0
    7.2405   10.3238    0.2580 N   0  0  0  0  0  0  0  0  0  0  0  0
   13.2340    8.0420    0.8418 C   0  0  0  0  0  0  0  0  0  0  0  0
   13.8418   13.2517   -2.2658 C   0  0  2  0  0  0  0  0  0  0  0  0
   15.0315   12.5304   -2.5397 O   0  0  0  0  0  0  0  0  0  0  0  0
    6.9130    9.3024    2.4817 C   0  0  1  0  0  0  0  0  0  0  0  0
    5.7013   10.0566    2.6482 O   0  0  0  0  0  0  0  0  0  0  0  0
   11.8276    8.1452    1.5233 C   0  0  2  0  0  0  0  0  0  0  0  0
   11.2940    6.7935    1.7878 N   0  0  0  0  0  0  0  0  0  0  0  0
   14.0678   14.2987   -1.1073 C   0  0  1  0  0  0  0  0  0  0  0  0
   15.1548   15.2587   -1.4655 N   0  0  0  0  0  0  0  0  0  0  0  0
    6.8426    7.9428    3.2166 C   0  0  2  0  0  0  0  0  0  0  0  0
    6.6227    8.1678    4.6200 O   0  0  0  0  0  0  0  0  0  0  0  0
   10.8281    8.9116    0.6197 C   0  0  2  0  0  0  0  0  0  0  0  0
   12.7268   15.0662   -0.8459 C   0  0  1  0  0  0  0  0  0  0  0  0
   12.3436   15.7733   -2.0224 O   0  0  0  0  0  0  0  0  0  0  0  0
    8.1851    7.1488    2.9890 C   0  0  2  0  0  0  0  0  0  0  0  0
    8.4082    6.9425    1.5448 O   0  0  0  0  0  0  0  0  0  0  0  0
   11.3820   10.3286    0.3279 C   0  0  2  0  0  0  0  0  0  0  0  0
   10.4577   11.0061   -0.5171 O   0  0  0  0  0  0  0  0  0  0  0  0
   11.6200   14.0272   -0.4815 C   0  0  0  0  0  0  0  0  0  0  0  0
   11.4745   13.0148   -1.5549 O   0  0  0  0  0  0  0  0  0  0  0  0
    8.1629    5.7621    3.6836 C   0  0  2  0  0  0  0  0  0  0  0  0
    9.3543    5.0502    3.3595 O   0  0  0  0  0  0  0  0  0  0  0  0
   12.7482   10.2590   -0.3933 C   0  0  1  0  0  0  0  0  0  0  0  0
   13.1801   11.6226   -0.6133 O   0  0  0  0  0  0  0  0  0  0  0  0
    6.9777    4.9272    3.2276 C   0  0  0  0  0  0  0  0  0  0  0  0
   12.8598   16.0830    0.2812 C   0  0  0  0  0  0  0  0  0  0  0  0
   14.8839   15.7801   -2.8189 C   0  0  0  0  0  0  0  0  0  0  0  0
  1  2  1  1  0  0  0
  1  6  1  0  0  0  0
  1 23  1  0  0  0  0
  3  4  1  6  0  0  0
  3  8  1  0  0  0  0
  3 30  1  0  0  0  0
  5  9  1  0  0  0  0
  5 27  1  0  0  0  0
  5 31  1  1  0  0  0
  6  7  1  6  0  0  0
  6 11  1  0  0  0  0
  8 13  1  0  0  0  0
  9 10  1  1  0  0  0
  9 15  1  0  0  0  0
 11 12  1  6  0  0  0
 11 17  1  0  0  0  0
 13 14  1  6  0  0  0
 13 19  1  0  0  0  0
 15 16  1  6  0  0  0
 15 20  1  0  0  0  0
 16 34  1  0  0  0  0
 17 18  1  1  0  0  0
 17 22  1  0  0  0  0
 19  2  1  1  0  0  0
 19 24  1  0  0  0  0
 20 21  1  6  0  0  0
 20 26  1  0  0  0  0
 20 33  1  0  0  0  0
 22 23  1  6  0  0  0
 22 28  1  0  0  0  0
 24 25  1  6  0  0  0
 24 30  1  0  0  0  0
 26 27  1  0  0  0  0
 28 29  1  6  0  0  0
 28 32  1  0  0  0  0
 30 31  1  1  0  0  0
M  END
>  <CHROM.1>
-141.99838307,-111.35026494,49.50956293,175.55388670,157.22413577,-148.17442786
10.86496593,10.40116412,0.54710940,2.23091269,-0.30786173,2.81923643

>  <Name>
ligand

>  <RI>
0

>  <Rbt.Current_Directory>
/home/itssahil/PROJECTS/Mol_Feturizer/New_Systems/rnas/3TD1

>  <Rbt.Executable>
rbdock ($Id: //depot/dev/client3/rdock/2013.1/src/exe/rbdock.cxx#4 $)

>  <Rbt.Library>
libRbt.so (2013.1, Build901 2013/11/27)

>  <Rbt.Parameter_File>
/export/apps/rDock/src/rDock_2013.1_src/data/scripts/dock_solv.prm

>  <Rbt.Receptor>
prm/blind_docking_40.prm

>  <SCORE>
30.2995

>  <SCORE.INTER>
13.5926

>  <SCORE.INTER.CONST>
1

>  <SCORE.INTER.POLAR>
0

>  <SCORE.INTER.ROT>
6

>  <SCORE.INTER.SOLV>
24.0679

>  <SCORE.INTER.VDW>
-6.56087

>  <SCORE.INTER.norm>
0.399784

>  <SCORE.INTRA>
5.91692

>  <SCORE.INTRA.DIHEDRAL>
-1.29218

>  <SCORE.INTRA.DIHEDRAL.0>
19.5869

>  <SCORE.INTRA.POLAR>
0

>  <SCORE.INTRA.POLAR.0>
0

>  <SCORE.INTRA.REPUL>
0

>  <SCORE.INTRA.REPUL.0>
0

>  <SCORE.INTRA.SOLV>
0.861524

>  <SCORE.INTRA.SOLV.lig_0>
-70.101

>  <SCORE.INTRA.VDW>
6.13224

>  <SCORE.INTRA.VDW.0>
-3.39718

>  <SCORE.INTRA.norm>
0.174027

>  <SCORE.RESTR>
10.7899

>  <SCORE.RESTR.CAVITY>
10.7899

>  <SCORE.RESTR.norm>
0.317351

>  <SCORE.SYSTEM>
0

>  <SCORE.SYSTEM.CONST>
0

>  <SCORE.SYSTEM.DIHEDRAL>
0

>  <SCORE.SYSTEM.SOLV>
0

>  <SCORE.SYSTEM.norm>
0

>  <SCORE.heavy>
34

>  <SCORE.norm>
0.891161

>  <RMSD>
9.460

$$$$
ligand
 OpenBabel11021811483D
libRbt.so/2013.1/901 2013/11/27
 34 36  0  0  0  0  0  0  0  0999 V2000
    8.8011    9.3218    2.5595 C   0  0  2  0  0  0  0  0  0  0  0  0
    8.4235    7.9595    2.3060 O   0  0  0  0  0  0  0  0  0  0  0  0
    7.2025    4.6687    4.7435 C   0  0  2  0  0  0  0  0  0  0  0  0
    7.1420    3.6926    5.8259 N   0  0  0  0  0  0  0  0  0  0  0  0
    5.3781    6.8524    7.1122 C   0  0  2  0  0  0  0  0  0  0  0  0
    8.3060   10.1948    1.3515 C   0  0  2  0  0  0  0  0  0  0  0  0
    6.8433   10.1254    1.2105 N   0  0  0  0  0  0  0  0  0  0  0  0
    8.6503    4.6211    4.1510 C   0  0  0  0  0  0  0  0  0  0  0  0
    5.1571    5.7058    8.1627 C   0  0  2  0  0  0  0  0  0  0  0  0
    6.2975    4.8640    8.2041 O   0  0  0  0  0  0  0  0  0  0  0  0
    8.9831    9.7026    0.0540 C   0  0  1  0  0  0  0  0  0  0  0  0
    8.5405   10.5025   -1.0547 O   0  0  0  0  0  0  0  0  0  0  0  0
    8.7095    5.6521    2.9735 C   0  0  2  0  0  0  0  0  0  0  0  0
   10.0595    5.6581    2.3746 N   0  0  0  0  0  0  0  0  0  0  0  0
    3.8668    4.8926    7.7586 C   0  0  1  0  0  0  0  0  0  0  0  0
    3.6209    3.7768    8.7209 N   0  0  0  0  0  0  0  0  0  0  0  0
   10.5180    9.7775    0.2328 C   0  0  2  0  0  0  0  0  0  0  0  0
   11.1631    9.3115   -0.9652 O   0  0  0  0  0  0  0  0  0  0  0  0
    8.3744    7.0817    3.4706 C   0  0  2  0  0  0  0  0  0  0  0  0
    2.6397    5.8667    7.7283 C   0  0  1  0  0  0  0  0  0  0  0  0
    2.4352    6.4185    9.0263 O   0  0  0  0  0  0  0  0  0  0  0  0
   10.9496    8.8996    1.4688 C   0  0  2  0  0  0  0  0  0  0  0  0
   10.2655    9.3758    2.6867 O   0  0  0  0  0  0  0  0  0  0  0  0
    6.9631    7.0857    4.1095 C   0  0  2  0  0  0  0  0  0  0  0  0
    6.6851    8.4025    4.5744 O   0  0  0  0  0  0  0  0  0  0  0  0
    2.9409    7.0175    6.7172 C   0  0  0  0  0  0  0  0  0  0  0  0
    4.1942    7.7220    7.0794 O   0  0  0  0  0  0  0  0  0  0  0  0
   12.4802    8.9565    1.7136 C   0  0  2  0  0  0  0  0  0  0  0  0
   12.9353   10.2985    1.5615 O   0  0  0  0  0  0  0  0  0  0  0  0
    6.8886    6.1140    5.3103 C   0  0  1  0  0  0  0  0  0  0  0  0
    5.5395    6.1857    5.8290 O   0  0  0  0  0  0  0  0  0  0  0  0
   13.2377    8.0881    0.7227 C   0  0  0  0  0  0  0  0  0  0  0  0
    1.3548    5.1561    7.3211 C   0  0  0  0  0  0  0  0  0  0  0  0
    3.6166    2.5084    7.9671 C   0  0  0  0  0  0  0  0  0  0  0  0
  1  2  1  6  0  0  0
  1  6  1  0  0  0  0
  1 23  1  0  0  0  0
  3  4  1  1  0  0  0
  3  8  1  0  0  0  0
  3 30  1  0  0  0  0
  5  9  1  0  0  0  0
  5 27  1  0  0  0  0
  5 31  1  6  0  0  0
  6  7  1  6  0  0  0
  6 11  1  0  0  0  0
  8 13  1  0  0  0  0
  9 10  1  6  0  0  0
  9 15  1  0  0  0  0
 11 12  1  6  0  0  0
 11 17  1  0  0  0  0
 13 14  1  1  0  0  0
 13 19  1  0  0  0  0
 15 16  1  1  0  0  0
 15 20  1  0  0  0  0
 16 34  1  0  0  0  0
 17 18  1  6  0  0  0
 17 22  1  0  0  0  0
 19  2  1  6  0  0  0
 19 24  1  0  0  0  0
 20 21  1  1  0  0  0
 20 26  1  0  0  0  0
 20 33  1  0  0  0  0
 22 23  1  1  0  0  0
 22 28  1  0  0  0  0
 24 25  1  1  0  0  0
 24 30  1  0  0  0  0
 26 27  1  0  0  0  0
 28 29  1  6  0  0  0
 28 32  1  0  0  0  0
 30 31  1  6  0  0  0
M  END
>  <CHROM.1>
-159.81839789,-150.29032434,-121.59180130,42.49686323,135.50058237,-104.41849190
7.33230725,7.15395164,4.20335578,0.77303710,0.42999634,-0.63430988

>  <Name>
ligand

>  <RI>
0

>  <Rbt.Current_Directory>
/home/itssahil/PROJECTS/Mol_Feturizer/New_Systems/rnas/3TD1

>  <Rbt.Executable>
rbdock ($Id: //depot/dev/client3/rdock/2013.1/src/exe/rbdock.cxx#4 $)

>  <Rbt.Library>
libRbt.so (2013.1, Build901 2013/11/27)

>  <Rbt.Parameter_File>
/export/apps/rDock/src/rDock_2013.1_src/data/scripts/dock_solv.prm

>  <Rbt.Receptor>
prm/blind_docking_20.prm

>  <SCORE>
18.6685

>  <SCORE.INTER>
5.66215

>  <SCORE.INTER.CONST>
1

>  <SCORE.INTER.POLAR>
0

>  <SCORE.INTER.ROT>
6

>  <SCORE.INTER.SOLV>
23.1994

>  <SCORE.INTER.VDW>
-11.5584

>  <SCORE.INTER.norm>
0.166534

>  <SCORE.INTRA>
0.0165658

>  <SCORE.INTRA.DIHEDRAL>
0.130279

>  <SCORE.INTRA.DIHEDRAL.0>
19.5869

>  <SCORE.INTRA.POLAR>
0

>  <SCORE.INTRA.POLAR.0>
0

>  <SCORE.INTRA.REPUL>
0

>  <SCORE.INTRA.REPUL.0>
0

>  <SCORE.INTRA.SOLV>
0.99622

>  <SCORE.INTRA.SOLV.lig_0>
-70.101

>  <SCORE.INTRA.VDW>
-0.546684

>  <SCORE.INTRA.VDW.0>
-3.39718

>  <SCORE.INTRA.norm>
0.00048723

>  <SCORE.RESTR>
12.9898

>  <SCORE.RESTR.CAVITY>
12.9898

>  <SCORE.RESTR.norm>
0.382053

>  <SCORE.SYSTEM>
0

>  <SCORE.SYSTEM.CONST>
0

>  <SCORE.SYSTEM.DIHEDRAL>
0

>  <SCORE.SYSTEM.SOLV>
0

>  <SCORE.SYSTEM.norm>
0

>  <SCORE.heavy>
34

>  <SCORE.norm>
0.549074

>  <RMSD>
9.461

$$$$
ligand
 OpenBabel11021811483D
libRbt.so/2013.1/901 2013/11/27
 34 36  0  0  0  0  0  0  0  0999 V2000
    7.6779    7.3217    1.6063 C   0  0  2  0  0  0  0  0  0  0  0  0
    7.6746    6.4093    2.7154 O   0  0  0  0  0  0  0  0  0  0  0  0
    6.8889    6.5647    6.9130 C   0  0  2  0  0  0  0  0  0  0  0  0
    6.5132    7.0510    8.2361 N   0  0  0  0  0  0  0  0  0  0  0  0
    4.5747    5.4322    7.8824 C   0  0  2  0  0  0  0  0  0  0  0  0
    7.9003    6.4884    0.2937 C   0  0  2  0  0  0  0  0  0  0  0  0
    6.8217    5.5072    0.0987 N   0  0  0  0  0  0  0  0  0  0  0  0
    7.9886    7.5287    6.3553 C   0  0  0  0  0  0  0  0  0  0  0  0
    3.5477    4.2654    8.1079 C   0  0  2  0  0  0  0  0  0  0  0  0
    4.0018    3.0911    7.4556 O   0  0  0  0  0  0  0  0  0  0  0  0
    9.2617    5.7642    0.3728 C   0  0  1  0  0  0  0  0  0  0  0  0
    9.4753    5.0059   -0.8289 O   0  0  0  0  0  0  0  0  0  0  0  0
    8.4094    6.9940    4.9446 C   0  0  2  0  0  0  0  0  0  0  0  0
    9.4458    7.8698    4.3609 N   0  0  0  0  0  0  0  0  0  0  0  0
    2.1417    4.7154    7.5509 C   0  0  1  0  0  0  0  0  0  0  0  0
    1.1299    3.6308    7.7279 N   0  0  0  0  0  0  0  0  0  0  0  0
   10.3751    6.8169    0.5867 C   0  0  2  0  0  0  0  0  0  0  0  0
   11.6494    6.1556    0.6731 O   0  0  0  0  0  0  0  0  0  0  0  0
    7.1936    6.9460    3.9842 C   0  0  2  0  0  0  0  0  0  0  0  0
    1.6875    6.0128    8.3034 C   0  0  1  0  0  0  0  0  0  0  0  0
    1.5522    5.7358    9.6948 O   0  0  0  0  0  0  0  0  0  0  0  0
   10.0860    7.6315    1.9049 C   0  0  2  0  0  0  0  0  0  0  0  0
    8.7677    8.2882    1.8107 O   0  0  0  0  0  0  0  0  0  0  0  0
    6.0956    6.0368    4.5908 C   0  0  2  0  0  0  0  0  0  0  0  0
    4.9836    6.0226    3.7017 O   0  0  0  0  0  0  0  0  0  0  0  0
    2.7735    7.1153    8.0973 C   0  0  0  0  0  0  0  0  0  0  0  0
    4.0987    6.6429    8.5654 O   0  0  0  0  0  0  0  0  0  0  0  0
   11.1590    8.7225    2.1588 C   0  0  2  0  0  0  0  0  0  0  0  0
   11.3777    9.4609    0.9595 O   0  0  0  0  0  0  0  0  0  0  0  0
    5.6216    6.5696    5.9630 C   0  0  1  0  0  0  0  0  0  0  0  0
    4.6091    5.6547    6.4448 O   0  0  0  0  0  0  0  0  0  0  0  0
   12.4850    8.1144    2.5848 C   0  0  0  0  0  0  0  0  0  0  0  0
    0.3428    6.5244    7.8015 C   0  0  0  0  0  0  0  0  0  0  0  0
    0.0759    3.8112    6.7113 C   0  0  0  0  0  0  0  0  0  0  0  0
  1  2  1  1  0  0  0
  1  6  1  0  0  0  0
  1 23  1  0  0  0  0
  3  4  1  1  0  0  0
  3  8  1  0  0  0  0
  3 30  1  0  0  0  0
  5  9  1  0  0  0  0
  5 27  1  0  0  0  0
  5 31  1  6  0  0  0
  6  7  1  1  0  0  0
  6 11  1  0  0  0  0
  8 13  1  0  0  0  0
  9 10  1  6  0  0  0
  9 15  1  0  0  0  0
 11 12  1  6  0  0  0
 11 17  1  0  0  0  0
 13 14  1  6  0  0  0
 13 19  1  0  0  0  0
 15 16  1  1  0  0  0
 15 20  1  0  0  0  0
 16 34  1  0  0  0  0
 17 18  1  1  0  0  0
 17 22  1  0  0  0  0
 19  2  1  6  0  0  0
 19 24  1  0  0  0  0
 20 21  1  1  0  0  0
 20 26  1  0  0  0  0
 20 33  1  0  0  0  0
 22 23  1  6  0  0  0
 22 28  1  0  0  0  0
 24 25  1  6  0  0  0
 24 30  1  0  0  0  0
 26 27  1  0  0  0  0
 28 29  1  6  0  0  0
 28 32  1  0  0  0  0
 30 31  1  1  0  0  0
M  END
>  <CHROM.1>
-167.07070380,-112.50322749,-154.81632289,47.72642544,28.98721788,-172.05700101
6.42290485,6.34319152,4.64342126,0.57394841,-0.48822684,-1.91478823

>  <Name>
ligand

>  <RI>
0

>  <Rbt.Current_Directory>
/home/itssahil/PROJECTS/Mol_Feturizer/New_Systems/rnas/3TD1

>  <Rbt.Executable>
rbdock ($Id: //depot/dev/client3/rdock/2013.1/src/exe/rbdock.cxx#4 $)

>  <Rbt.Library>
libRbt.so (2013.1, Build901 2013/11/27)

>  <Rbt.Parameter_File>
/export/apps/rDock/src/rDock_2013.1_src/data/scripts/dock_solv.prm

>  <Rbt.Receptor>
prm/blind_docking_40.prm

>  <SCORE>
21.9016

>  <SCORE.INTER>
6.09698

>  <SCORE.INTER.CONST>
1

>  <SCORE.INTER.POLAR>
0

>  <SCORE.INTER.ROT>
6

>  <SCORE.INTER.SOLV>
24.0063

>  <SCORE.INTER.VDW>
-11.5374

>  <SCORE.INTER.norm>
0.179323

>  <SCORE.INTRA>
7.27048

>  <SCORE.INTRA.DIHEDRAL>
-6.78042

>  <SCORE.INTRA.DIHEDRAL.0>
19.5869

>  <SCORE.INTRA.POLAR>
0

>  <SCORE.INTRA.POLAR.0>
0

>  <SCORE.INTRA.REPUL>
0

>  <SCORE.INTRA.REPUL.0>
0

>  <SCORE.INTRA.SOLV>
3.56111

>  <SCORE.INTRA.SOLV.lig_0>
-70.101

>  <SCORE.INTRA.VDW>
8.88014

>  <SCORE.INTRA.VDW.0>
-3.39718

>  <SCORE.INTRA.norm>
0.213838

>  <SCORE.RESTR>
8.53414

>  <SCORE.RESTR.CAVITY>
8.53414

>  <SCORE.RESTR.norm>
0.251004

>  <SCORE.SYSTEM>
0

>  <SCORE.SYSTEM.CONST>
0

>  <SCORE.SYSTEM.DIHEDRAL>
0

>  <SCORE.SYSTEM.SOLV>
0

>  <SCORE.SYSTEM.norm>
0

>  <SCORE.heavy>
34

>  <SCORE.norm>
0.644165

>  <RMSD>
9.462

$$$$
ligand
 OpenBabel11021811483D
libRbt.so/2013.1/901 2013/11/27
 34 36  0  0  0  0  0  0  0  0999 V2000
    7.4101    6.5737    7.5992 C   0  0  2  0  0  0  0  0  0  0  0  0
    7.1835    5.1782    7.8519 O   0  0  0  0  0  0  0  0  0  0  0  0
    3.5106    3.2781    8.9295 C   0  0  2  0  0  0  0  0  0  0  0  0
    2.3526    2.8342    9.6976 N   0  0  0  0  0  0  0  0  0  0  0  0
    2.0468    6.6720    7.8702 C   0  0  2  0  0  0  0  0  0  0  0  0
    8.6033    6.6953    6.5852 C   0  0  2  0  0  0  0  0  0  0  0  0
    8.2889    6.0268    5.3129 N   0  0  0  0  0  0  0  0  0  0  0  0
    4.7898    2.8692    9.7333 C   0  0  0  0  0  0  0  0  0  0  0  0
    0.4845    6.8314    7.8991 C   0  0  2  0  0  0  0  0  0  0  0  0
   -0.0269    6.3439    9.1286 O   0  0  0  0  0  0  0  0  0  0  0  0
    9.8696    6.0694    7.2089 C   0  0  1  0  0  0  0  0  0  0  0  0
   10.9677    6.1843    6.2892 O   0  0  0  0  0  0  0  0  0  0  0  0
    6.0340    3.3247    8.8982 C   0  0  2  0  0  0  0  0  0  0  0  0
    7.2782    2.9705    9.6111 N   0  0  0  0  0  0  0  0  0  0  0  0
   -0.1266    6.0409    6.6780 C   0  0  1  0  0  0  0  0  0  0  0  0
   -1.6164    6.1485    6.6694 N   0  0  0  0  0  0  0  0  0  0  0  0
   10.1716    6.7837    8.5477 C   0  0  2  0  0  0  0  0  0  0  0  0
   11.3436    6.2037    9.1463 O   0  0  0  0  0  0  0  0  0  0  0  0
    6.0112    4.8561    8.6589 C   0  0  2  0  0  0  0  0  0  0  0  0
    0.4694    6.6179    5.3485 C   0  0  1  0  0  0  0  0  0  0  0  0
    0.1104    7.9911    5.2201 O   0  0  0  0  0  0  0  0  0  0  0  0
    8.9329    6.6438    9.5124 C   0  0  2  0  0  0  0  0  0  0  0  0
    7.7337    7.2248    8.8779 O   0  0  0  0  0  0  0  0  0  0  0  0
    4.7055    5.2409    7.9192 C   0  0  2  0  0  0  0  0  0  0  0  0
    4.6981    6.6517    7.7271 O   0  0  0  0  0  0  0  0  0  0  0  0
    2.0245    6.4912    5.4024 C   0  0  0  0  0  0  0  0  0  0  0  0
    2.5681    7.1838    6.5953 O   0  0  0  0  0  0  0  0  0  0  0  0
    9.1682    7.3648   10.8655 C   0  0  2  0  0  0  0  0  0  0  0  0
   10.3245    6.8219   11.4975 O   0  0  0  0  0  0  0  0  0  0  0  0
    3.4575    4.8503    8.7448 C   0  0  1  0  0  0  0  0  0  0  0  0
    2.2991    5.2425    7.9712 O   0  0  0  0  0  0  0  0  0  0  0  0
    7.9893    7.1845   11.8076 C   0  0  0  0  0  0  0  0  0  0  0  0
   -0.0575    5.8861    4.1202 C   0  0  0  0  0  0  0  0  0  0  0  0
   -2.1783    4.8112    6.9396 C   0  0  0  0  0  0  0  0  0  0  0  0
  1  2  1  1  0  0  0
  1  6  1  0  0  0  0
  1 23  1  0  0  0  0
  3  4  1  1  0  0  0
  3  8  1  0  0  0  0
  3 30  1  0  0  0  0
  5  9  1  0  0  0  0
  5 27  1  0  0  0  0
  5 31  1  6  0  0  0
  6  7  1  6  0  0  0
  6 11  1  0  0  0  0
  8 13  1  0  0  0  0
  9 10  1  1  0  0  0
  9 15  1  0  0  0  0
 11 12  1  6  0  0  0
 11 17  1  0  0  0  0
 13 14  1  1  0  0  0
 13 19  1  0  0  0  0
 15 16  1  6  0  0  0
 15 20  1  0  0  0  0
 16 34  1  0  0  0  0
 17 18  1  1  0  0  0
 17 22  1  0  0  0  0
 19  2  1  6  0  0  0
 19 24  1  0  0  0  0
 20 21  1  6  0  0  0
 20 26  1  0  0  0  0
 20 33  1  0  0  0  0
 22 23  1  6  0  0  0
 22 28  1  0  0  0  0
 24 25  1  1  0  0  0
 24 30  1  0  0  0  0
 26 27  1  0  0  0  0
 28 29  1  1  0  0  0
 28 32  1  0  0  0  0
 30 31  1  6  0  0  0
M  END
>  <CHROM.1>
-173.37664295,-175.39004692,-113.11748722,-58.52738782,172.71828502,-143.50559958
4.91550777,5.85228182,7.96885969,-0.18708146,-0.13913619,-1.04999994

>  <Name>
ligand

>  <RI>
0

>  <Rbt.Current_Directory>
/home/itssahil/PROJECTS/Mol_Feturizer/New_Systems/rnas/3TD1

>  <Rbt.Executable>
rbdock ($Id: //depot/dev/client3/rdock/2013.1/src/exe/rbdock.cxx#4 $)

>  <Rbt.Library>
libRbt.so (2013.1, Build901 2013/11/27)

>  <Rbt.Parameter_File>
/export/apps/rDock/src/rDock_2013.1_src/data/scripts/dock_solv.prm

>  <Rbt.Receptor>
prm/pocket_docking_6.prm

>  <SCORE>
-14.0192

>  <SCORE.INTER>
-8.0154

>  <SCORE.INTER.CONST>
1

>  <SCORE.INTER.POLAR>
0

>  <SCORE.INTER.ROT>
6

>  <SCORE.INTER.SOLV>
12.9686

>  <SCORE.INTER.VDW>
-17.2665

>  <SCORE.INTER.norm>
-0.235747

>  <SCORE.INTRA>
-6.00385

>  <SCORE.INTRA.DIHEDRAL>
-12.9848

>  <SCORE.INTRA.DIHEDRAL.0>
19.5869

>  <SCORE.INTRA.POLAR>
0

>  <SCORE.INTRA.POLAR.0>
0

>  <SCORE.INTRA.REPUL>
0

>  <SCORE.INTRA.REPUL.0>
0

>  <SCORE.INTRA.SOLV>
-3.27288

>  <SCORE.INTRA.SOLV.lig_0>
-70.101

>  <SCORE.INTRA.VDW>
2.12498

>  <SCORE.INTRA.VDW.0>
-3.39718

>  <SCORE.INTRA.norm>
-0.176584

>  <SCORE.RESTR>
0

>  <SCORE.RESTR.CAVITY>
0

>  <SCORE.RESTR.norm>
0

>  <SCORE.SYSTEM>
0

>  <SCORE.SYSTEM.CONST>
0

>  <SCORE.SYSTEM.DIHEDRAL>
0

>  <SCORE.SYSTEM.SOLV>
0

>  <SCORE.SYSTEM.norm>
0

>  <SCORE.heavy>
34

>  <SCORE.norm>
-0.412331

>  <RMSD>
9.483

$$$$
ligand
 OpenBabel11021811483D
libRbt.so/2013.1/901 2013/11/27
 34 36  0  0  0  0  0  0  0  0999 V2000
    9.2131    9.2686    2.5897 C   0  0  2  0  0  0  0  0  0  0  0  0
    8.5984    7.9938    2.3457 O   0  0  0  0  0  0  0  0  0  0  0  0
    7.1614    4.7386    4.7123 C   0  0  2  0  0  0  0  0  0  0  0  0
    7.0216    3.7607    5.7856 N   0  0  0  0  0  0  0  0  0  0  0  0
    5.3306    6.8401    7.0806 C   0  0  2  0  0  0  0  0  0  0  0  0
    9.1940   10.0812    1.2458 C   0  0  2  0  0  0  0  0  0  0  0  0
    7.8168   10.2995    0.7769 N   0  0  0  0  0  0  0  0  0  0  0  0
    8.6297    4.6414    4.1791 C   0  0  0  0  0  0  0  0  0  0  0  0
    5.0398    5.5958    7.9940 C   0  0  2  0  0  0  0  0  0  0  0  0
    6.1507    4.7147    7.9756 O   0  0  0  0  0  0  0  0  0  0  0  0
    9.9989    9.3147    0.1739 C   0  0  1  0  0  0  0  0  0  0  0  0
    9.9922   10.0567   -1.0567 O   0  0  0  0  0  0  0  0  0  0  0  0
    8.7740    5.6747    3.0111 C   0  0  2  0  0  0  0  0  0  0  0  0
   10.1468    5.6346    2.4678 N   0  0  0  0  0  0  0  0  0  0  0  0
    3.7374    4.8769    7.4685 C   0  0  1  0  0  0  0  0  0  0  0  0
    3.4256    3.6736    8.2969 N   0  0  0  0  0  0  0  0  0  0  0  0
   11.4381    9.0912    0.6958 C   0  0  2  0  0  0  0  0  0  0  0  0
   12.1976    8.3683   -0.2886 O   0  0  0  0  0  0  0  0  0  0  0  0
    8.4702    7.1132    3.5022 C   0  0  2  0  0  0  0  0  0  0  0  0
    2.5438    5.8915    7.5099 C   0  0  1  0  0  0  0  0  0  0  0  0
    2.3165    6.3075    8.8539 O   0  0  0  0  0  0  0  0  0  0  0  0
   11.3899    8.2903    2.0525 C   0  0  2  0  0  0  0  0  0  0  0  0
   10.5913    9.0335    3.0466 O   0  0  0  0  0  0  0  0  0  0  0  0
    7.0350    7.1653    4.0830 C   0  0  2  0  0  0  0  0  0  0  0  0
    6.7854    8.4893    4.5437 O   0  0  0  0  0  0  0  0  0  0  0  0
    2.9135    7.1328    6.6383 C   0  0  0  0  0  0  0  0  0  0  0  0
    4.1768    7.7495    7.1095 O   0  0  0  0  0  0  0  0  0  0  0  0
   12.8070    8.0577    2.6386 C   0  0  2  0  0  0  0  0  0  0  0  0
   13.5561    9.2677    2.5629 O   0  0  0  0  0  0  0  0  0  0  0  0
    6.8765    6.1919    5.2741 C   0  0  1  0  0  0  0  0  0  0  0  0
    5.5107    6.3098    5.7376 O   0  0  0  0  0  0  0  0  0  0  0  0
   13.5625    6.9880    1.8674 C   0  0  0  0  0  0  0  0  0  0  0  0
    1.2502    5.2746    6.9925 C   0  0  0  0  0  0  0  0  0  0  0  0
    3.5284    4.0521    9.7193 C   0  0  0  0  0  0  0  0  0  0  0  0
  1  2  1  6  0  0  0
  1  6  1  0  0  0  0
  1 23  1  0  0  0  0
  3  4  1  1  0  0  0
  3  8  1  0  0  0  0
  3 30  1  0  0  0  0
  5  9  1  0  0  0  0
  5 27  1  0  0  0  0
  5 31  1  6  0  0  0
  6  7  1  6  0  0  0
  6 11  1  0  0  0  0
  8 13  1  0  0  0  0
  9 10  1  6  0  0  0
  9 15  1  0  0  0  0
 11 12  1  6  0  0  0
 11 17  1  0  0  0  0
 13 14  1  1  0  0  0
 13 19  1  0  0  0  0
 15 16  1  1  0  0  0
 15 20  1  0  0  0  0
 16 34  1  0  0  0  0
 17 18  1  6  0  0  0
 17 22  1  0  0  0  0
 19  2  1  6  0  0  0
 19 24  1  0  0  0  0
 20 21  1  1  0  0  0
 20 26  1  0  0  0  0
 20 33  1  0  0  0  0
 22 23  1  1  0  0  0
 22 28  1  0  0  0  0
 24 25  1  1  0  0  0
 24 30  1  0  0  0  0
 26 27  1  0  0  0  0
 28 29  1  6  0  0  0
 28 32  1  0  0  0  0
 30 31  1  6  0  0  0
M  END
>  <CHROM.1>
-177.40079741,-140.76647185,46.90166045,45.09038048,128.88119460,-101.80465479
7.57132069,7.01816169,4.34582505,0.69305155,0.36037041,-0.69849732

>  <Name>
ligand

>  <RI>
0

>  <Rbt.Current_Directory>
/home/itssahil/PROJECTS/Mol_Feturizer/New_Systems/rnas/3TD1

>  <Rbt.Executable>
rbdock ($Id: //depot/dev/client3/rdock/2013.1/src/exe/rbdock.cxx#4 $)

>  <Rbt.Library>
libRbt.so (2013.1, Build901 2013/11/27)

>  <Rbt.Parameter_File>
/export/apps/rDock/src/rDock_2013.1_src/data/scripts/dock_solv.prm

>  <Rbt.Receptor>
prm/blind_docking_100.prm

>  <SCORE>
26.3934

>  <SCORE.INTER>
6.51746

>  <SCORE.INTER.CONST>
1

>  <SCORE.INTER.POLAR>
0

>  <SCORE.INTER.ROT>
6

>  <SCORE.INTER.SOLV>
21

>  <SCORE.INTER.VDW>
-10.255

>  <SCORE.INTER.norm>
0.19169

>  <SCORE.INTRA>
6.1375

>  <SCORE.INTRA.DIHEDRAL>
-0.924016

>  <SCORE.INTRA.DIHEDRAL.0>
19.5869

>  <SCORE.INTRA.POLAR>
0

>  <SCORE.INTRA.POLAR.0>
0

>  <SCORE.INTRA.REPUL>
0

>  <SCORE.INTRA.REPUL.0>
0

>  <SCORE.INTRA.SOLV>
2.26747

>  <SCORE.INTRA.SOLV.lig_0>
-70.101

>  <SCORE.INTRA.VDW>
5.46577

>  <SCORE.INTRA.VDW.0>
-3.39718

>  <SCORE.INTRA.norm>
0.180515

>  <SCORE.RESTR>
13.7385

>  <SCORE.RESTR.CAVITY>
13.7385

>  <SCORE.RESTR.norm>
0.404072

>  <SCORE.SYSTEM>
0

>  <SCORE.SYSTEM.CONST>
0

>  <SCORE.SYSTEM.DIHEDRAL>
0

>  <SCORE.SYSTEM.SOLV>
0

>  <SCORE.SYSTEM.norm>
0

>  <SCORE.heavy>
34

>  <SCORE.norm>
0.776277

>  <RMSD>
9.487

$$$$
ligand
 OpenBabel11021811483D
libRbt.so/2013.1/901 2013/11/27
 34 36  0  0  0  0  0  0  0  0999 V2000
   14.0985    5.4621   10.7622 C   0  0  2  0  0  0  0  0  0  0  0  0
   15.3125    4.7384   10.5071 O   0  0  0  0  0  0  0  0  0  0  0  0
   16.1155    1.5182    7.8151 C   0  0  2  0  0  0  0  0  0  0  0  0
   16.0898    0.2082    7.1737 N   0  0  0  0  0  0  0  0  0  0  0  0
   13.4753    1.4987    5.6584 C   0  0  2  0  0  0  0  0  0  0  0  0
   14.4846    6.8571   11.3717 C   0  0  2  0  0  0  0  0  0  0  0  0
   15.3134    7.6339   10.4369 N   0  0  0  0  0  0  0  0  0  0  0  0
   16.4672    1.2936    9.3236 C   0  0  0  0  0  0  0  0  0  0  0  0
   13.4025    1.9192    4.1467 C   0  0  2  0  0  0  0  0  0  0  0  0
   14.6894    1.8268    3.5584 O   0  0  0  0  0  0  0  0  0  0  0  0
   15.2478    6.6421   12.6968 C   0  0  1  0  0  0  0  0  0  0  0  0
   15.5974    7.9152   13.2642 O   0  0  0  0  0  0  0  0  0  0  0  0
   16.5179    2.7014   10.0080 C   0  0  2  0  0  0  0  0  0  0  0  0
   16.8409    2.5548   11.4418 N   0  0  0  0  0  0  0  0  0  0  0  0
   12.8435    3.3921    4.0586 C   0  0  1  0  0  0  0  0  0  0  0  0
   12.7694    3.8464    2.6375 N   0  0  0  0  0  0  0  0  0  0  0  0
   14.3584    5.8164   13.6564 C   0  0  2  0  0  0  0  0  0  0  0  0
   15.0609    5.5987   14.8924 O   0  0  0  0  0  0  0  0  0  0  0  0
   15.1585    3.4337    9.8720 C   0  0  2  0  0  0  0  0  0  0  0  0
   11.4238    3.4383    4.7204 C   0  0  1  0  0  0  0  0  0  0  0  0
   10.5371    2.5776    4.0104 O   0  0  0  0  0  0  0  0  0  0  0  0
   13.9893    4.4402   12.9821 C   0  0  2  0  0  0  0  0  0  0  0  0
   13.2870    4.6783   11.7061 O   0  0  0  0  0  0  0  0  0  0  0  0
   14.8046    3.5853    8.3714 C   0  0  2  0  0  0  0  0  0  0  0  0
   13.5457    4.2431    8.2717 O   0  0  0  0  0  0  0  0  0  0  0  0
   11.5462    2.9514    6.1987 C   0  0  0  0  0  0  0  0  0  0  0  0
   12.1373    1.5929    6.2583 O   0  0  0  0  0  0  0  0  0  0  0  0
   13.0746    3.5772   13.8901 C   0  0  2  0  0  0  0  0  0  0  0  0
   12.8442    2.3153   13.2689 O   0  0  0  0  0  0  0  0  0  0  0  0
   14.6956    2.2068    7.6791 C   0  0  1  0  0  0  0  0  0  0  0  0
   14.3709    2.4553    6.2909 O   0  0  0  0  0  0  0  0  0  0  0  0
   11.7270    4.2414   14.1194 C   0  0  0  0  0  0  0  0  0  0  0  0
   10.8260    4.8396    4.6951 C   0  0  0  0  0  0  0  0  0  0  0  0
   13.9557    4.6770    2.3551 C   0  0  0  0  0  0  0  0  0  0  0  0
  1  2  1  1  0  0  0
  1  6  1  0  0  0  0
  1 23  1  0  0  0  0
  3  4  1  6  0  0  0
  3  8  1  0  0  0  0
  3 30  1  0  0  0  0
  5  9  1  0  0  0  0
  5 27  1  0  0  0  0
  5 31  1  1  0  0  0
  6  7  1  6  0  0  0
  6 11  1  0  0  0  0
  8 13  1  0  0  0  0
  9 10  1  1  0  0  0
  9 15  1  0  0  0  0
 11 12  1  1  0  0  0
 11 17  1  0  0  0  0
 13 14  1  1  0  0  0
 13 19  1  0  0  0  0
 15 16  1  6  0  0  0
 15 20  1  0  0  0  0
 16 34  1  0  0  0  0
 17 18  1  1  0  0  0
 17 22  1  0  0  0  0
 19  2  1  6  0  0  0
 19 24  1  0  0  0  0
 20 21  1  6  0  0  0
 20 26  1  0  0  0  0
 20 33  1  0  0  0  0
 22 23  1  6  0  0  0
 22 28  1  0  0  0  0
 24 25  1  1  0  0  0
 24 30  1  0  0  0  0
 26 27  1  0  0  0  0
 28 29  1  6  0  0  0
 28 32  1  0  0  0  0
 30 31  1  6  0  0  0
M  END
>  <CHROM.1>
-177.02591647,-166.50106044,-99.08382121,-176.33213502,99.96293235,-174.74885085
13.99299669,3.73332810,8.77037621,1.30658537,-0.87463041,1.09403919

>  <Name>
ligand

>  <RI>
0

>  <Rbt.Current_Directory>
/home/itssahil/PROJECTS/Mol_Feturizer/New_Systems/rnas/3TD1

>  <Rbt.Executable>
rbdock ($Id: //depot/dev/client3/rdock/2013.1/src/exe/rbdock.cxx#4 $)

>  <Rbt.Library>
libRbt.so (2013.1, Build901 2013/11/27)

>  <Rbt.Parameter_File>
/export/apps/rDock/src/rDock_2013.1_src/data/scripts/dock_solv.prm

>  <Rbt.Receptor>
prm/pocket_docking_7.prm

>  <SCORE>
-10.0898

>  <SCORE.INTER>
-2.97676

>  <SCORE.INTER.CONST>
1

>  <SCORE.INTER.POLAR>
0

>  <SCORE.INTER.ROT>
6

>  <SCORE.INTER.SOLV>
15.2002

>  <SCORE.INTER.VDW>
-14.6513

>  <SCORE.INTER.norm>
-0.0875518

>  <SCORE.INTRA>
-7.11303

>  <SCORE.INTRA.DIHEDRAL>
-12.2322

>  <SCORE.INTRA.DIHEDRAL.0>
19.5869

>  <SCORE.INTRA.POLAR>
0

>  <SCORE.INTRA.POLAR.0>
0

>  <SCORE.INTRA.REPUL>
0

>  <SCORE.INTRA.REPUL.0>
0

>  <SCORE.INTRA.SOLV>
-2.63254

>  <SCORE.INTRA.SOLV.lig_0>
-70.101

>  <SCORE.INTRA.VDW>
0.319316

>  <SCORE.INTRA.VDW.0>
-3.39718

>  <SCORE.INTRA.norm>
-0.209207

>  <SCORE.RESTR>
0

>  <SCORE.RESTR.CAVITY>
0

>  <SCORE.RESTR.norm>
0

>  <SCORE.SYSTEM>
0

>  <SCORE.SYSTEM.CONST>
0

>  <SCORE.SYSTEM.DIHEDRAL>
0

>  <SCORE.SYSTEM.SOLV>
0

>  <SCORE.SYSTEM.norm>
0

>  <SCORE.heavy>
34

>  <SCORE.norm>
-0.296759

>  <RMSD>
9.495

$$$$
ligand
 OpenBabel11021811483D
libRbt.so/2013.1/901 2013/11/27
 34 36  0  0  0  0  0  0  0  0999 V2000
    7.1091    4.7189    7.5414 C   0  0  2  0  0  0  0  0  0  0  0  0
    6.4365    5.5654    8.4868 O   0  0  0  0  0  0  0  0  0  0  0  0
    2.8155    3.2960    8.4789 C   0  0  2  0  0  0  0  0  0  0  0  0
    1.5348    2.7275    8.8846 N   0  0  0  0  0  0  0  0  0  0  0  0
    0.3575    4.7642    7.4021 C   0  0  2  0  0  0  0  0  0  0  0  0
    8.6519    4.9857    7.6637 C   0  0  2  0  0  0  0  0  0  0  0  0
    9.1398    4.6702    9.0153 N   0  0  0  0  0  0  0  0  0  0  0  0
    3.8419    3.0007    9.6230 C   0  0  0  0  0  0  0  0  0  0  0  0
   -0.4131    5.2144    6.1096 C   0  0  2  0  0  0  0  0  0  0  0  0
    0.1009    4.5297    4.9792 O   0  0  0  0  0  0  0  0  0  0  0  0
    8.9424    6.4655    7.3321 C   0  0  1  0  0  0  0  0  0  0  0  0
   10.3538    6.7149    7.4344 O   0  0  0  0  0  0  0  0  0  0  0  0
    5.2229    3.5903    9.1780 C   0  0  2  0  0  0  0  0  0  0  0  0
    6.2367    3.3475   10.2243 N   0  0  0  0  0  0  0  0  0  0  0  0
   -0.2562    6.7758    5.9461 C   0  0  1  0  0  0  0  0  0  0  0  0
   -0.9606    7.2533    4.7184 N   0  0  0  0  0  0  0  0  0  0  0  0
    8.4120    6.7719    5.9115 C   0  0  2  0  0  0  0  0  0  0  0  0
    8.6660    8.1511    5.5924 O   0  0  0  0  0  0  0  0  0  0  0  0
    5.1189    5.1159    8.9241 C   0  0  2  0  0  0  0  0  0  0  0  0
   -0.8384    7.4820    7.2181 C   0  0  1  0  0  0  0  0  0  0  0  0
   -2.2258    7.1799    7.3397 O   0  0  0  0  0  0  0  0  0  0  0  0
    6.8669    6.4665    5.8469 C   0  0  2  0  0  0  0  0  0  0  0  0
    6.6189    5.0540    6.1957 O   0  0  0  0  0  0  0  0  0  0  0  0
    4.0512    5.3836    7.8340 C   0  0  2  0  0  0  0  0  0  0  0  0
    3.9602    6.7900    7.6311 O   0  0  0  0  0  0  0  0  0  0  0  0
   -0.0798    6.9508    8.4750 C   0  0  0  0  0  0  0  0  0  0  0  0
   -0.1846    5.4748    8.5684 O   0  0  0  0  0  0  0  0  0  0  0  0
    6.2824    6.7316    4.4348 C   0  0  2  0  0  0  0  0  0  0  0  0
    4.8846    6.4537    4.4402 O   0  0  0  0  0  0  0  0  0  0  0  0
    2.6630    4.8583    8.2680 C   0  0  1  0  0  0  0  0  0  0  0  0
    1.7445    5.1484    7.1879 O   0  0  0  0  0  0  0  0  0  0  0  0
    6.9336    5.8465    3.3849 C   0  0  0  0  0  0  0  0  0  0  0  0
   -0.7006    8.9977    7.1447 C   0  0  0  0  0  0  0  0  0  0  0  0
    0.0386    7.4135    3.6447 C   0  0  0  0  0  0  0  0  0  0  0  0
  1  2  1  1  0  0  0
  1  6  1  0  0  0  0
  1 23  1  0  0  0  0
  3  4  1  1  0  0  0
  3  8  1  0  0  0  0
  3 30  1  0  0  0  0
  5  9  1  0  0  0  0
  5 27  1  0  0  0  0
  5 31  1  6  0  0  0
  6  7  1  1  0  0  0
  6 11  1  0  0  0  0
  8 13  1  0  0  0  0
  9 10  1  6  0  0  0
  9 15  1  0  0  0  0
 11 12  1  6  0  0  0
 11 17  1  0  0  0  0
 13 14  1  1  0  0  0
 13 19  1  0  0  0  0
 15 16  1  6  0  0  0
 15 20  1  0  0  0  0
 16 34  1  0  0  0  0
 17 18  1  1  0  0  0
 17 22  1  0  0  0  0
 19  2  1  6  0  0  0
 19 24  1  0  0  0  0
 20 21  1  1  0  0  0
 20 26  1  0  0  0  0
 20 33  1  0  0  0  0
 22 23  1  6  0  0  0
 22 28  1  0  0  0  0
 24 25  1  1  0  0  0
 24 30  1  0  0  0  0
 26 27  1  0  0  0  0
 28 29  1  1  0  0  0
 28 32  1  0  0  0  0
 30 31  1  6  0  0  0
M  END
>  <CHROM.1>
-155.95709408,42.71026861,-99.01131725,-179.35950776,65.55300829,178.81955103
3.85357585,5.73243130,7.05869853,0.07575588,-0.02369773,2.21534991

>  <Name>
ligand

>  <RI>
0

>  <Rbt.Current_Directory>
/home/itssahil/PROJECTS/Mol_Feturizer/New_Systems/rnas/3TD1

>  <Rbt.Executable>
rbdock ($Id: //depot/dev/client3/rdock/2013.1/src/exe/rbdock.cxx#4 $)

>  <Rbt.Library>
libRbt.so (2013.1, Build901 2013/11/27)

>  <Rbt.Parameter_File>
/export/apps/rDock/src/rDock_2013.1_src/data/scripts/dock_solv.prm

>  <Rbt.Receptor>
prm/pocket_docking_6.prm

>  <SCORE>
-14.4927

>  <SCORE.INTER>
-9.54908

>  <SCORE.INTER.CONST>
1

>  <SCORE.INTER.POLAR>
0

>  <SCORE.INTER.ROT>
6

>  <SCORE.INTER.SOLV>
13.7613

>  <SCORE.INTER.VDW>
-18.5531

>  <SCORE.INTER.norm>
-0.280855

>  <SCORE.INTRA>
-4.94359

>  <SCORE.INTRA.DIHEDRAL>
-14.6113

>  <SCORE.INTRA.DIHEDRAL.0>
19.5869

>  <SCORE.INTRA.POLAR>
0

>  <SCORE.INTRA.POLAR.0>
0

>  <SCORE.INTRA.REPUL>
0.0219418

>  <SCORE.INTRA.REPUL.0>
0

>  <SCORE.INTRA.SOLV>
0.663422

>  <SCORE.INTRA.SOLV.lig_0>
-70.101

>  <SCORE.INTRA.VDW>
1.92064

>  <SCORE.INTRA.VDW.0>
-3.39718

>  <SCORE.INTRA.norm>
-0.1454

>  <SCORE.RESTR>
0

>  <SCORE.RESTR.CAVITY>
0

>  <SCORE.RESTR.norm>
0

>  <SCORE.SYSTEM>
0

>  <SCORE.SYSTEM.CONST>
0

>  <SCORE.SYSTEM.DIHEDRAL>
0

>  <SCORE.SYSTEM.SOLV>
0

>  <SCORE.SYSTEM.norm>
0

>  <SCORE.heavy>
34

>  <SCORE.norm>
-0.426255

>  <RMSD>
9.514

$$$$
ligand
 OpenBabel11021811483D
libRbt.so/2013.1/901 2013/11/27
 34 36  0  0  0  0  0  0  0  0999 V2000
    7.8096    7.0494    1.4061 C   0  0  2  0  0  0  0  0  0  0  0  0
    7.8119    6.1078    2.4905 O   0  0  0  0  0  0  0  0  0  0  0  0
    6.9152    6.1139    6.6687 C   0  0  2  0  0  0  0  0  0  0  0  0
    6.6949    6.5641    8.0387 N   0  0  0  0  0  0  0  0  0  0  0  0
    3.8017    7.0495    7.0997 C   0  0  2  0  0  0  0  0  0  0  0  0
    7.9416    6.2439    0.0643 C   0  0  2  0  0  0  0  0  0  0  0  0
    6.8142    5.3150   -0.1104 N   0  0  0  0  0  0  0  0  0  0  0  0
    8.3437    6.5916    6.2433 C   0  0  0  0  0  0  0  0  0  0  0  0
    3.3278    5.9982    8.1661 C   0  0  2  0  0  0  0  0  0  0  0  0
    4.4525    5.3483    8.7348 O   0  0  0  0  0  0  0  0  0  0  0  0
    9.2724    5.4606    0.0674 C   0  0  1  0  0  0  0  0  0  0  0  0
    9.4034    4.7272   -1.1613 O   0  0  0  0  0  0  0  0  0  0  0  0
    8.5903    6.0887    4.7807 C   0  0  2  0  0  0  0  0  0  0  0  0
    9.9264    6.5157    4.3182 N   0  0  0  0  0  0  0  0  0  0  0  0
    2.3700    4.9609    7.4618 C   0  0  1  0  0  0  0  0  0  0  0  0
    1.9026    3.9270    8.4334 N   0  0  0  0  0  0  0  0  0  0  0  0
   10.4383    6.4588    0.2613 C   0  0  2  0  0  0  0  0  0  0  0  0
   11.6850    5.7419    0.2771 O   0  0  0  0  0  0  0  0  0  0  0  0
    7.5197    6.6529    3.8121 C   0  0  2  0  0  0  0  0  0  0  0  0
    1.1474    5.7289    6.8527 C   0  0  1  0  0  0  0  0  0  0  0  0
    0.4215    6.3753    7.8949 O   0  0  0  0  0  0  0  0  0  0  0  0
   10.2392    7.2484    1.6110 C   0  0  2  0  0  0  0  0  0  0  0  0
    8.9479    7.9628    1.5893 O   0  0  0  0  0  0  0  0  0  0  0  0
    6.1124    6.2187    4.2927 C   0  0  2  0  0  0  0  0  0  0  0  0
    5.1459    6.7629    3.3998 O   0  0  0  0  0  0  0  0  0  0  0  0
    1.6804    6.8005    5.8501 C   0  0  0  0  0  0  0  0  0  0  0  0
    2.6307    7.7210    6.5194 O   0  0  0  0  0  0  0  0  0  0  0  0
   11.3680    8.2855    1.8475 C   0  0  2  0  0  0  0  0  0  0  0  0
   12.6160    7.6083    1.9714 O   0  0  0  0  0  0  0  0  0  0  0  0
    5.8188    6.7461    5.7165 C   0  0  1  0  0  0  0  0  0  0  0  0
    4.4943    6.2851    6.0733 O   0  0  0  0  0  0  0  0  0  0  0  0
   11.1374    9.0826    3.1207 C   0  0  0  0  0  0  0  0  0  0  0  0
    0.1852    4.7930    6.1316 C   0  0  0  0  0  0  0  0  0  0  0  0
    2.8676    2.8110    8.4212 C   0  0  0  0  0  0  0  0  0  0  0  0
  1  2  1  1  0  0  0
  1  6  1  0  0  0  0
  1 23  1  0  0  0  0
  3  4  1  1  0  0  0
  3  8  1  0  0  0  0
  3 30  1  0  0  0  0
  5  9  1  0  0  0  0
  5 27  1  0  0  0  0
  5 31  1  6  0  0  0
  6  7  1  1  0  0  0
  6 11  1  0  0  0  0
  8 13  1  0  0  0  0
  9 10  1  6  0  0  0
  9 15  1  0  0  0  0
 11 12  1  6  0  0  0
 11 17  1  0  0  0  0
 13 14  1  6  0  0  0
 13 19  1  0  0  0  0
 15 16  1  1  0  0  0
 15 20  1  0  0  0  0
 16 34  1  0  0  0  0
 17 18  1  1  0  0  0
 17 22  1  0  0  0  0
 19  2  1  6  0  0  0
 19 24  1  0  0  0  0
 20 21  1  1  0  0  0
 20 26  1  0  0  0  0
 20 33  1  0  0  0  0
 22 23  1  6  0  0  0
 22 28  1  0  0  0  0
 24 25  1  6  0  0  0
 24 30  1  0  0  0  0
 26 27  1  0  0  0  0
 28 29  1  1  0  0  0
 28 32  1  0  0  0  0
 30 31  1  1  0  0  0
M  END
>  <CHROM.1>
-172.17554081,-132.76517984,-89.53100585,-62.89876423,87.03984396,-128.46358436
6.46614038,6.27483506,4.35460486,0.64004958,-0.26843143,-1.72723221

>  <Name>
ligand

>  <RI>
0

>  <Rbt.Current_Directory>
/home/itssahil/PROJECTS/Mol_Feturizer/New_Systems/rnas/3TD1

>  <Rbt.Executable>
rbdock ($Id: //depot/dev/client3/rdock/2013.1/src/exe/rbdock.cxx#4 $)

>  <Rbt.Library>
libRbt.so (2013.1, Build901 2013/11/27)

>  <Rbt.Parameter_File>
/export/apps/rDock/src/rDock_2013.1_src/data/scripts/dock_solv.prm

>  <Rbt.Receptor>
prm/blind_docking_40.prm

>  <SCORE>
8.21267

>  <SCORE.INTER>
-2.66979

>  <SCORE.INTER.CONST>
1

>  <SCORE.INTER.POLAR>
0

>  <SCORE.INTER.ROT>
6

>  <SCORE.INTER.SOLV>
20.2719

>  <SCORE.INTER.VDW>
-16.1372

>  <SCORE.INTER.norm>
-0.0785232

>  <SCORE.INTRA>
0.243254

>  <SCORE.INTRA.DIHEDRAL>
-2.35237

>  <SCORE.INTRA.DIHEDRAL.0>
19.5869

>  <SCORE.INTRA.POLAR>
0

>  <SCORE.INTRA.POLAR.0>
0

>  <SCORE.INTRA.REPUL>
0

>  <SCORE.INTRA.REPUL.0>
0

>  <SCORE.INTRA.SOLV>
2.84495

>  <SCORE.INTRA.SOLV.lig_0>
-70.101

>  <SCORE.INTRA.VDW>
-0.00303482

>  <SCORE.INTRA.VDW.0>
-3.39718

>  <SCORE.INTRA.norm>
0.00715452

>  <SCORE.RESTR>
10.6392

>  <SCORE.RESTR.CAVITY>
10.6392

>  <SCORE.RESTR.norm>
0.312918

>  <SCORE.SYSTEM>
0

>  <SCORE.SYSTEM.CONST>
0

>  <SCORE.SYSTEM.DIHEDRAL>
0

>  <SCORE.SYSTEM.SOLV>
0

>  <SCORE.SYSTEM.norm>
0

>  <SCORE.heavy>
34

>  <SCORE.norm>
0.241549

>  <RMSD>
9.516

$$$$
ligand
 OpenBabel11021811483D
libRbt.so/2013.1/901 2013/11/27
 34 36  0  0  0  0  0  0  0  0999 V2000
    7.6863    7.1700    1.9212 C   0  0  2  0  0  0  0  0  0  0  0  0
    7.8252    6.3084    3.0618 O   0  0  0  0  0  0  0  0  0  0  0  0
    6.6260    6.3419    7.1633 C   0  0  2  0  0  0  0  0  0  0  0  0
    6.2554    6.8064    8.4956 N   0  0  0  0  0  0  0  0  0  0  0  0
    3.5136    6.7728    7.5158 C   0  0  2  0  0  0  0  0  0  0  0  0
    7.8210    6.2885    0.6284 C   0  0  2  0  0  0  0  0  0  0  0  0
    6.7720    5.2584    0.5766 N   0  0  0  0  0  0  0  0  0  0  0  0
    8.0192    6.9675    6.8206 C   0  0  0  0  0  0  0  0  0  0  0  0
    3.1125    5.5476    8.4131 C   0  0  2  0  0  0  0  0  0  0  0  0
    4.2789    4.8960    8.8882 O   0  0  0  0  0  0  0  0  0  0  0  0
    9.2137    5.6219    0.6074 C   0  0  1  0  0  0  0  0  0  0  0  0
    9.3468    4.8197   -0.5773 O   0  0  0  0  0  0  0  0  0  0  0  0
    8.4287    6.4509    5.4000 C   0  0  2  0  0  0  0  0  0  0  0  0
    9.7388    7.0143    5.0157 N   0  0  0  0  0  0  0  0  0  0  0  0
    2.2229    4.5647    7.5575 C   0  0  1  0  0  0  0  0  0  0  0  0
    1.8269    3.3711    8.3636 N   0  0  0  0  0  0  0  0  0  0  0  0
   10.2960    6.7255    0.6719 C   0  0  2  0  0  0  0  0  0  0  0  0
   11.6000    6.1186    0.6640 O   0  0  0  0  0  0  0  0  0  0  0  0
    7.3762    6.8574    4.3371 C   0  0  2  0  0  0  0  0  0  0  0  0
    0.9510    5.3324    7.0591 C   0  0  1  0  0  0  0  0  0  0  0  0
    0.1870    5.7699    8.1798 O   0  0  0  0  0  0  0  0  0  0  0  0
   10.0963    7.5861    1.9773 C   0  0  2  0  0  0  0  0  0  0  0  0
    8.7480    8.1863    1.9820 O   0  0  0  0  0  0  0  0  0  0  0  0
    5.9950    6.2791    4.7346 C   0  0  2  0  0  0  0  0  0  0  0  0
    5.0423    6.6801    3.7553 O   0  0  0  0  0  0  0  0  0  0  0  0
    1.4099    6.5720    6.2284 C   0  0  0  0  0  0  0  0  0  0  0  0
    2.2995    7.4443    7.0321 O   0  0  0  0  0  0  0  0  0  0  0  0
   11.1405    8.7281    2.0838 C   0  0  2  0  0  0  0  0  0  0  0  0
   10.8793    9.5022    3.2516 O   0  0  0  0  0  0  0  0  0  0  0  0
    5.5390    6.8135    6.1123 C   0  0  1  0  0  0  0  0  0  0  0  0
    4.2521    6.2142    6.3933 O   0  0  0  0  0  0  0  0  0  0  0  0
   11.0792    9.6557    0.8815 C   0  0  0  0  0  0  0  0  0  0  0  0
    0.0503    4.4517    6.2018 C   0  0  0  0  0  0  0  0  0  0  0  0
    1.2671    3.8431    9.6446 C   0  0  0  0  0  0  0  0  0  0  0  0
  1  2  1  1  0  0  0
  1  6  1  0  0  0  0
  1 23  1  0  0  0  0
  3  4  1  1  0  0  0
  3  8  1  0  0  0  0
  3 30  1  0  0  0  0
  5  9  1  0  0  0  0
  5 27  1  0  0  0  0
  5 31  1  6  0  0  0
  6  7  1  1  0  0  0
  6 11  1  0  0  0  0
  8 13  1  0  0  0  0
  9 10  1  6  0  0  0
  9 15  1  0  0  0  0
 11 12  1  6  0  0  0
 11 17  1  0  0  0  0
 13 14  1  6  0  0  0
 13 19  1  0  0  0  0
 15 16  1  1  0  0  0
 15 20  1  0  0  0  0
 16 34  1  0  0  0  0
 17 18  1  1  0  0  0
 17 22  1  0  0  0  0
 19  2  1  6  0  0  0
 19 24  1  0  0  0  0
 20 21  1  1  0  0  0
 20 26  1  0  0  0  0
 20 33  1  0  0  0  0
 22 23  1  6  0  0  0
 22 28  1  0  0  0  0
 24 25  1  6  0  0  0
 24 30  1  0  0  0  0
 26 27  1  0  0  0  0
 28 29  1  1  0  0  0
 28 32  1  0  0  0  0
 30 31  1  1  0  0  0
M  END
>  <CHROM.1>
-163.96811171,-138.08520251,50.28574403,177.72096504,75.64003721,-128.82112981
6.19622480,6.38685513,4.72761770,0.58659494,-0.40938321,-1.81335891

>  <Name>
ligand

>  <RI>
0

>  <Rbt.Current_Directory>
/home/itssahil/PROJECTS/Mol_Feturizer/New_Systems/rnas/3TD1

>  <Rbt.Executable>
rbdock ($Id: //depot/dev/client3/rdock/2013.1/src/exe/rbdock.cxx#4 $)

>  <Rbt.Library>
libRbt.so (2013.1, Build901 2013/11/27)

>  <Rbt.Parameter_File>
/export/apps/rDock/src/rDock_2013.1_src/data/scripts/dock_solv.prm

>  <Rbt.Receptor>
prm/blind_docking_100.prm

>  <SCORE>
22.4803

>  <SCORE.INTER>
2.31423

>  <SCORE.INTER.CONST>
1

>  <SCORE.INTER.POLAR>
0

>  <SCORE.INTER.ROT>
6

>  <SCORE.INTER.SOLV>
22.2379

>  <SCORE.INTER.VDW>
-13.4698

>  <SCORE.INTER.norm>
0.0680657

>  <SCORE.INTRA>
4.23209

>  <SCORE.INTRA.DIHEDRAL>
-4.6009

>  <SCORE.INTRA.DIHEDRAL.0>
19.5869

>  <SCORE.INTRA.POLAR>
0

>  <SCORE.INTRA.POLAR.0>
0

>  <SCORE.INTRA.REPUL>
0

>  <SCORE.INTRA.REPUL.0>
0

>  <SCORE.INTRA.SOLV>
1.865

>  <SCORE.INTRA.SOLV.lig_0>
-70.101

>  <SCORE.INTRA.VDW>
5.60004

>  <SCORE.INTRA.VDW.0>
-3.39718

>  <SCORE.INTRA.norm>
0.124473

>  <SCORE.RESTR>
15.9339

>  <SCORE.RESTR.CAVITY>
15.9339

>  <SCORE.RESTR.norm>
0.468645

>  <SCORE.SYSTEM>
0

>  <SCORE.SYSTEM.CONST>
0

>  <SCORE.SYSTEM.DIHEDRAL>
0

>  <SCORE.SYSTEM.SOLV>
0

>  <SCORE.SYSTEM.norm>
0

>  <SCORE.heavy>
34

>  <SCORE.norm>
0.661184

>  <RMSD>
9.524

$$$$
ligand
 OpenBabel11021811483D
libRbt.so/2013.1/901 2013/11/27
 34 36  0  0  0  0  0  0  0  0999 V2000
   -0.2645    1.5043    4.8014 C   0  0  2  0  0  0  0  0  0  0  0  0
   -1.4501    2.2483    5.1229 O   0  0  0  0  0  0  0  0  0  0  0  0
   -0.1188    5.9853    3.5344 C   0  0  2  0  0  0  0  0  0  0  0  0
   -0.0189    7.4113    3.2432 N   0  0  0  0  0  0  0  0  0  0  0  0
    1.6849    7.2724    6.2641 C   0  0  2  0  0  0  0  0  0  0  0  0
   -0.6980    0.0457    4.4126 C   0  0  2  0  0  0  0  0  0  0  0  0
   -1.5882    0.0508    3.2413 N   0  0  0  0  0  0  0  0  0  0  0  0
   -1.5762    5.5368    3.1812 C   0  0  0  0  0  0  0  0  0  0  0  0
    2.9466    6.9837    7.1540 C   0  0  2  0  0  0  0  0  0  0  0  0
    4.0942    6.8459    6.3324 O   0  0  0  0  0  0  0  0  0  0  0  0
   -1.4125   -0.6121    5.6130 C   0  0  1  0  0  0  0  0  0  0  0  0
   -1.8050   -1.9503    5.2668 O   0  0  0  0  0  0  0  0  0  0  0  0
   -1.6776    4.0011    3.4715 C   0  0  2  0  0  0  0  0  0  0  0  0
   -3.0384    3.5173    3.1620 N   0  0  0  0  0  0  0  0  0  0  0  0
    2.6861    5.6704    7.9887 C   0  0  1  0  0  0  0  0  0  0  0  0
    3.8670    5.3425    8.8427 N   0  0  0  0  0  0  0  0  0  0  0  0
   -0.4589   -0.5960    6.8312 C   0  0  2  0  0  0  0  0  0  0  0  0
   -1.1153   -1.1964    7.9613 O   0  0  0  0  0  0  0  0  0  0  0  0
   -1.3621    3.6954    4.9581 C   0  0  2  0  0  0  0  0  0  0  0  0
    1.4114    5.8759    8.8766 C   0  0  1  0  0  0  0  0  0  0  0  0
    1.6307    6.9507    9.7864 O   0  0  0  0  0  0  0  0  0  0  0  0
   -0.0451    0.8893    7.1589 C   0  0  2  0  0  0  0  0  0  0  0  0
    0.6090    1.4993    5.9848 O   0  0  0  0  0  0  0  0  0  0  0  0
    0.0604    4.2070    5.2969 C   0  0  2  0  0  0  0  0  0  0  0  0
    0.3206    3.9323    6.6695 O   0  0  0  0  0  0  0  0  0  0  0  0
    0.2058    6.2213    7.9467 C   0  0  0  0  0  0  0  0  0  0  0  0
    0.5021    7.4184    7.1235 O   0  0  0  0  0  0  0  0  0  0  0  0
    0.9341    0.9665    8.3593 C   0  0  2  0  0  0  0  0  0  0  0  0
    0.3730    1.7917    9.3768 O   0  0  0  0  0  0  0  0  0  0  0  0
    0.1765    5.7323    5.0698 C   0  0  1  0  0  0  0  0  0  0  0  0
    1.5333    6.1076    5.4053 O   0  0  0  0  0  0  0  0  0  0  0  0
    2.2709    1.5645    7.9531 C   0  0  0  0  0  0  0  0  0  0  0  0
    1.0801    4.6359    9.6980 C   0  0  0  0  0  0  0  0  0  0  0  0
    4.2032    3.9201    8.6408 C   0  0  0  0  0  0  0  0  0  0  0  0
  1  2  1  1  0  0  0
  1  6  1  0  0  0  0
  1 23  1  0  0  0  0
  3  4  1  1  0  0  0
  3  8  1  0  0  0  0
  3 30  1  0  0  0  0
  5  9  1  0  0  0  0
  5 27  1  0  0  0  0
  5 31  1  6  0  0  0
  6  7  1  6  0  0  0
  6 11  1  0  0  0  0
  8 13  1  0  0  0  0
  9 10  1  6  0  0  0
  9 15  1  0  0  0  0
 11 12  1  6  0  0  0
 11 17  1  0  0  0  0
 13 14  1  1  0  0  0
 13 19  1  0  0  0  0
 15 16  1  1  0  0  0
 15 20  1  0  0  0  0
 16 34  1  0  0  0  0
 17 18  1  1  0  0  0
 17 22  1  0  0  0  0
 19  2  1  6  0  0  0
 19 24  1  0  0  0  0
 20 21  1  1  0  0  0
 20 26  1  0  0  0  0
 20 33  1  0  0  0  0
 22 23  1  6  0  0  0
 22 28  1  0  0  0  0
 24 25  1  1  0  0  0
 24 30  1  0  0  0  0
 26 27  1  0  0  0  0
 28 29  1  1  0  0  0
 28 32  1  0  0  0  0
 30 31  1  6  0  0  0
M  END
>  <CHROM.1>
-154.94754257,85.16466715,-130.89748166,-122.21884701,111.37964050,146.14438197
0.42897521,3.62014177,6.36009533,2.40071515,0.93692743,2.70769725

>  <Name>
ligand

>  <RI>
0

>  <Rbt.Current_Directory>
/home/itssahil/PROJECTS/Mol_Feturizer/New_Systems/rnas/3TD1

>  <Rbt.Executable>
rbdock ($Id: //depot/dev/client3/rdock/2013.1/src/exe/rbdock.cxx#4 $)

>  <Rbt.Library>
libRbt.so (2013.1, Build901 2013/11/27)

>  <Rbt.Parameter_File>
/export/apps/rDock/src/rDock_2013.1_src/data/scripts/dock_solv.prm

>  <Rbt.Receptor>
prm/blind_docking_80.prm

>  <SCORE>
19.0342

>  <SCORE.INTER>
0.0234839

>  <SCORE.INTER.CONST>
1

>  <SCORE.INTER.POLAR>
0

>  <SCORE.INTER.ROT>
6

>  <SCORE.INTER.SOLV>
21.033

>  <SCORE.INTER.VDW>
-14.5954

>  <SCORE.INTER.norm>
0.000690703

>  <SCORE.INTRA>
8.71907

>  <SCORE.INTRA.DIHEDRAL>
3.38352

>  <SCORE.INTRA.DIHEDRAL.0>
19.5869

>  <SCORE.INTRA.POLAR>
0

>  <SCORE.INTRA.POLAR.0>
0

>  <SCORE.INTRA.REPUL>
0

>  <SCORE.INTRA.REPUL.0>
0

>  <SCORE.INTRA.SOLV>
-0.230399

>  <SCORE.INTRA.SOLV.lig_0>
-70.101

>  <SCORE.INTRA.VDW>
7.14251

>  <SCORE.INTRA.VDW.0>
-3.39718

>  <SCORE.INTRA.norm>
0.256443

>  <SCORE.RESTR>
10.2917

>  <SCORE.RESTR.CAVITY>
10.2917

>  <SCORE.RESTR.norm>
0.302696

>  <SCORE.SYSTEM>
0

>  <SCORE.SYSTEM.CONST>
0

>  <SCORE.SYSTEM.DIHEDRAL>
0

>  <SCORE.SYSTEM.SOLV>
0

>  <SCORE.SYSTEM.norm>
0

>  <SCORE.heavy>
34

>  <SCORE.norm>
0.55983

>  <RMSD>
9.546

$$$$
ligand
 OpenBabel11021811483D
libRbt.so/2013.1/901 2013/11/27
 34 36  0  0  0  0  0  0  0  0999 V2000
    7.8535    9.1550    1.4728 C   0  0  2  0  0  0  0  0  0  0  0  0
    9.0304    9.7189    2.0723 O   0  0  0  0  0  0  0  0  0  0  0  0
   13.1639   10.1344    1.0705 C   0  0  2  0  0  0  0  0  0  0  0  0
   14.4801    9.8957    0.4886 N   0  0  0  0  0  0  0  0  0  0  0  0
   13.8764   12.1246   -0.6271 C   0  0  2  0  0  0  0  0  0  0  0  0
    7.0395    8.4225    2.5986 C   0  0  2  0  0  0  0  0  0  0  0  0
    6.6315    9.3613    3.6552 N   0  0  0  0  0  0  0  0  0  0  0  0
   12.7364    8.8249    1.8135 C   0  0  0  0  0  0  0  0  0  0  0  0
   13.8361   13.5390    0.0548 C   0  0  2  0  0  0  0  0  0  0  0  0
   13.2541   13.4360    1.3437 O   0  0  0  0  0  0  0  0  0  0  0  0
    7.9041    7.2947    3.2027 C   0  0  1  0  0  0  0  0  0  0  0  0
    7.1623    6.6148    4.2284 O   0  0  0  0  0  0  0  0  0  0  0  0
   11.3335    9.0880    2.4582 C   0  0  2  0  0  0  0  0  0  0  0  0
   10.8712    7.8805    3.1722 N   0  0  0  0  0  0  0  0  0  0  0  0
   13.0087   14.5192   -0.8639 C   0  0  1  0  0  0  0  0  0  0  0  0
   12.9272   15.8785   -0.2500 N   0  0  0  0  0  0  0  0  0  0  0  0
    8.3261    6.3286    2.0703 C   0  0  2  0  0  0  0  0  0  0  0  0
    9.1419    5.2776    2.6166 O   0  0  0  0  0  0  0  0  0  0  0  0
   10.2878    9.4634    1.3773 C   0  0  2  0  0  0  0  0  0  0  0  0
   13.6929   14.5969   -2.2716 C   0  0  1  0  0  0  0  0  0  0  0  0
   15.0127   15.1167   -2.1336 O   0  0  0  0  0  0  0  0  0  0  0  0
    9.1194    7.1244    0.9648 C   0  0  2  0  0  0  0  0  0  0  0  0
    8.2782    8.2115    0.4274 O   0  0  0  0  0  0  0  0  0  0  0  0
   10.7668   10.7242    0.6152 C   0  0  2  0  0  0  0  0  0  0  0  0
    9.8012   11.0388   -0.3828 O   0  0  0  0  0  0  0  0  0  0  0  0
   13.7624   13.1578   -2.8728 C   0  0  0  0  0  0  0  0  0  0  0  0
   14.4850   12.2401   -1.9595 O   0  0  0  0  0  0  0  0  0  0  0  0
    9.5476    6.2097   -0.2124 C   0  0  2  0  0  0  0  0  0  0  0  0
    8.5831    5.1745   -0.3839 O   0  0  0  0  0  0  0  0  0  0  0  0
   12.1275   10.4777   -0.0771 C   0  0  1  0  0  0  0  0  0  0  0  0
   12.4881   11.7068   -0.7505 O   0  0  0  0  0  0  0  0  0  0  0  0
   10.8956    5.5578    0.0477 C   0  0  0  0  0  0  0  0  0  0  0  0
   12.9345   15.5103   -3.2268 C   0  0  0  0  0  0  0  0  0  0  0  0
   11.5757   16.4169   -0.4961 C   0  0  0  0  0  0  0  0  0  0  0  0
  1  2  1  1  0  0  0
  1  6  1  0  0  0  0
  1 23  1  0  0  0  0
  3  4  1  6  0  0  0
  3  8  1  0  0  0  0
  3 30  1  0  0  0  0
  5  9  1  0  0  0  0
  5 27  1  0  0  0  0
  5 31  1  6  0  0  0
  6  7  1  1  0  0  0
  6 11  1  0  0  0  0
  8 13  1  0  0  0  0
  9 10  1  1  0  0  0
  9 15  1  0  0  0  0
 11 12  1  1  0  0  0
 11 17  1  0  0  0  0
 13 14  1  6  0  0  0
 13 19  1  0  0  0  0
 15 16  1  1  0  0  0
 15 20  1  0  0  0  0
 16 34  1  0  0  0  0
 17 18  1  1  0  0  0
 17 22  1  0  0  0  0
 19  2  1  1  0  0  0
 19 24  1  0  0  0  0
 20 21  1  1  0  0  0
 20 26  1  0  0  0  0
 20 33  1  0  0  0  0
 22 23  1  6  0  0  0
 22 28  1  0  0  0  0
 24 25  1  6  0  0  0
 24 30  1  0  0  0  0
 26 27  1  0  0  0  0
 28 29  1  1  0  0  0
 28 32  1  0  0  0  0
 30 31  1  1  0  0  0
M  END
>  <CHROM.1>
131.90414552,-136.24758210,-141.30575376,31.33097133,20.98449659,-120.37592151
11.05074228,10.29815196,0.55113453,2.24881073,-0.56364685,3.11085643

>  <Name>
ligand

>  <RI>
0

>  <Rbt.Current_Directory>
/home/itssahil/PROJECTS/Mol_Feturizer/New_Systems/rnas/3TD1

>  <Rbt.Executable>
rbdock ($Id: //depot/dev/client3/rdock/2013.1/src/exe/rbdock.cxx#4 $)

>  <Rbt.Library>
libRbt.so (2013.1, Build901 2013/11/27)

>  <Rbt.Parameter_File>
/export/apps/rDock/src/rDock_2013.1_src/data/scripts/dock_solv.prm

>  <Rbt.Receptor>
prm/blind_docking_40.prm

>  <SCORE>
27.4658

>  <SCORE.INTER>
6.97407

>  <SCORE.INTER.CONST>
1

>  <SCORE.INTER.POLAR>
0

>  <SCORE.INTER.ROT>
6

>  <SCORE.INTER.SOLV>
27.6968

>  <SCORE.INTER.VDW>
-12.1829

>  <SCORE.INTER.norm>
0.20512

>  <SCORE.INTRA>
13.1766

>  <SCORE.INTRA.DIHEDRAL>
8.66542

>  <SCORE.INTRA.DIHEDRAL.0>
19.5869

>  <SCORE.INTRA.POLAR>
0

>  <SCORE.INTRA.POLAR.0>
0

>  <SCORE.INTRA.REPUL>
0

>  <SCORE.INTRA.REPUL.0>
0

>  <SCORE.INTRA.SOLV>
4.02809

>  <SCORE.INTRA.SOLV.lig_0>
-70.101

>  <SCORE.INTRA.VDW>
6.82987

>  <SCORE.INTRA.VDW.0>
-3.39718

>  <SCORE.INTRA.norm>
0.387548

>  <SCORE.RESTR>
7.31513

>  <SCORE.RESTR.CAVITY>
7.31513

>  <SCORE.RESTR.norm>
0.215151

>  <SCORE.SYSTEM>
0

>  <SCORE.SYSTEM.CONST>
0

>  <SCORE.SYSTEM.DIHEDRAL>
0

>  <SCORE.SYSTEM.SOLV>
0

>  <SCORE.SYSTEM.norm>
0

>  <SCORE.heavy>
34

>  <SCORE.norm>
0.807818

>  <RMSD>
9.557

$$$$
ligand
 OpenBabel11021811483D
libRbt.so/2013.1/901 2013/11/27
 34 36  0  0  0  0  0  0  0  0999 V2000
    8.2724    7.8777    2.8097 C   0  0  2  0  0  0  0  0  0  0  0  0
    7.1932    6.9565    3.0318 O   0  0  0  0  0  0  0  0  0  0  0  0
    5.5456    5.4865    6.6905 C   0  0  2  0  0  0  0  0  0  0  0  0
    5.0043    5.4318    8.0441 N   0  0  0  0  0  0  0  0  0  0  0  0
    2.0994    6.4642    5.7301 C   0  0  2  0  0  0  0  0  0  0  0  0
    7.9077    8.7601    1.5628 C   0  0  2  0  0  0  0  0  0  0  0  0
    6.6717    9.5232    1.7956 N   0  0  0  0  0  0  0  0  0  0  0  0
    6.9320    6.2085    6.7699 C   0  0  0  0  0  0  0  0  0  0  0  0
    2.2122    7.2094    7.1082 C   0  0  2  0  0  0  0  0  0  0  0  0
    3.3756    8.0201    7.1237 O   0  0  0  0  0  0  0  0  0  0  0  0
    7.7393    7.8515    0.3256 C   0  0  1  0  0  0  0  0  0  0  0  0
    7.4132    8.6535   -0.8212 O   0  0  0  0  0  0  0  0  0  0  0  0
    7.5244    6.2470    5.3206 C   0  0  2  0  0  0  0  0  0  0  0  0
    8.8364    6.9252    5.3290 N   0  0  0  0  0  0  0  0  0  0  0  0
    2.2556    6.1339    8.2619 C   0  0  1  0  0  0  0  0  0  0  0  0
    2.3789    6.7934    9.5965 N   0  0  0  0  0  0  0  0  0  0  0  0
    9.0482    7.0554    0.1095 C   0  0  2  0  0  0  0  0  0  0  0  0
    8.9026    6.1958   -1.0343 O   0  0  0  0  0  0  0  0  0  0  0  0
    6.5759    7.0004    4.3533 C   0  0  2  0  0  0  0  0  0  0  0  0
    0.9509    5.2681    8.2001 C   0  0  1  0  0  0  0  0  0  0  0  0
   -0.1864    6.1021    8.4054 O   0  0  0  0  0  0  0  0  0  0  0  0
    9.3702    6.2078    1.3989 C   0  0  2  0  0  0  0  0  0  0  0  0
    9.4971    7.0998    2.5678 O   0  0  0  0  0  0  0  0  0  0  0  0
    5.1928    6.3028    4.3431 C   0  0  2  0  0  0  0  0  0  0  0  0
    4.3344    7.0217    3.4635 O   0  0  0  0  0  0  0  0  0  0  0  0
    0.8591    4.6037    6.7903 C   0  0  0  0  0  0  0  0  0  0  0  0
    0.8893    5.6308    5.7213 O   0  0  0  0  0  0  0  0  0  0  0  0
   10.6893    5.4055    1.2503 C   0  0  2  0  0  0  0  0  0  0  0  0
   10.9661    4.7180    2.4677 O   0  0  0  0  0  0  0  0  0  0  0  0
    4.5580    6.2958    5.7533 C   0  0  1  0  0  0  0  0  0  0  0  0
    3.2824    5.6219    5.6394 O   0  0  0  0  0  0  0  0  0  0  0  0
   11.8670    6.3169    0.9471 C   0  0  0  0  0  0  0  0  0  0  0  0
    0.9303    4.1868    9.2734 C   0  0  0  0  0  0  0  0  0  0  0  0
    3.7798    6.6735   10.0439 C   0  0  0  0  0  0  0  0  0  0  0  0
  1  2  1  6  0  0  0
  1  6  1  0  0  0  0
  1 23  1  0  0  0  0
  3  4  1  1  0  0  0
  3  8  1  0  0  0  0
  3 30  1  0  0  0  0
  5  9  1  0  0  0  0
  5 27  1  0  0  0  0
  5 31  1  1  0  0  0
  6  7  1  1  0  0  0
  6 11  1  0  0  0  0
  8 13  1  0  0  0  0
  9 10  1  6  0  0  0
  9 15  1  0  0  0  0
 11 12  1  6  0  0  0
 11 17  1  0  0  0  0
 13 14  1  1  0  0  0
 13 19  1  0  0  0  0
 15 16  1  1  0  0  0
 15 20  1  0  0  0  0
 16 34  1  0  0  0  0
 17 18  1  6  0  0  0
 17 22  1  0  0  0  0
 19  2  1  6  0  0  0
 19 24  1  0  0  0  0
 20 21  1  1  0  0  0
 20 26  1  0  0  0  0
 20 33  1  0  0  0  0
 22 23  1  1  0  0  0
 22 28  1  0  0  0  0
 24 25  1  6  0  0  0
 24 30  1  0  0  0  0
 26 27  1  0  0  0  0
 28 29  1  1  0  0  0
 28 32  1  0  0  0  0
 30 31  1  6  0  0  0
M  END
>  <CHROM.1>
-123.23540869,-77.95361562,-102.48849952,176.88800510,136.50129558,-56.77478151
5.66709652,6.53370362,4.63650435,-0.74206987,-0.14897570,1.87969470

>  <Name>
ligand

>  <RI>
0

>  <Rbt.Current_Directory>
/home/itssahil/PROJECTS/Mol_Feturizer/New_Systems/rnas/3TD1

>  <Rbt.Executable>
rbdock ($Id: //depot/dev/client3/rdock/2013.1/src/exe/rbdock.cxx#4 $)

>  <Rbt.Library>
libRbt.so (2013.1, Build901 2013/11/27)

>  <Rbt.Parameter_File>
/export/apps/rDock/src/rDock_2013.1_src/data/scripts/dock_solv.prm

>  <Rbt.Receptor>
prm/blind_docking_40.prm

>  <SCORE>
25.8039

>  <SCORE.INTER>
13.1522

>  <SCORE.INTER.CONST>
1

>  <SCORE.INTER.POLAR>
0

>  <SCORE.INTER.ROT>
6

>  <SCORE.INTER.SOLV>
25.3266

>  <SCORE.INTER.VDW>
-7.27407

>  <SCORE.INTER.norm>
0.38683

>  <SCORE.INTRA>
5.39816

>  <SCORE.INTRA.DIHEDRAL>
-3.99202

>  <SCORE.INTRA.DIHEDRAL.0>
19.5869

>  <SCORE.INTRA.POLAR>
0

>  <SCORE.INTRA.POLAR.0>
0

>  <SCORE.INTRA.REPUL>
0

>  <SCORE.INTRA.REPUL.0>
0

>  <SCORE.INTRA.SOLV>
4.40781

>  <SCORE.INTRA.SOLV.lig_0>
-70.101

>  <SCORE.INTRA.VDW>
5.19027

>  <SCORE.INTRA.VDW.0>
-3.39718

>  <SCORE.INTRA.norm>
0.158769

>  <SCORE.RESTR>
7.25355

>  <SCORE.RESTR.CAVITY>
7.25355

>  <SCORE.RESTR.norm>
0.21334

>  <SCORE.SYSTEM>
0

>  <SCORE.SYSTEM.CONST>
0

>  <SCORE.SYSTEM.DIHEDRAL>
0

>  <SCORE.SYSTEM.SOLV>
0

>  <SCORE.SYSTEM.norm>
0

>  <SCORE.heavy>
34

>  <SCORE.norm>
0.758939

>  <RMSD>
9.588

$$$$
ligand
 OpenBabel11021811483D
libRbt.so/2013.1/901 2013/11/27
 34 36  0  0  0  0  0  0  0  0999 V2000
    8.6223    8.0303    1.9350 C   0  0  2  0  0  0  0  0  0  0  0  0
    7.7677    6.9590    2.3643 O   0  0  0  0  0  0  0  0  0  0  0  0
    6.4881    5.3668    6.1179 C   0  0  2  0  0  0  0  0  0  0  0  0
    6.1988    5.2348    7.5416 N   0  0  0  0  0  0  0  0  0  0  0  0
    3.3102    7.1020    6.2492 C   0  0  2  0  0  0  0  0  0  0  0  0
    8.4204    8.2219    0.3893 C   0  0  2  0  0  0  0  0  0  0  0  0
    7.0262    8.5711    0.0753 N   0  0  0  0  0  0  0  0  0  0  0  0
    7.9998    5.7487    5.9812 C   0  0  0  0  0  0  0  0  0  0  0  0
    3.4214    6.7721    7.7809 C   0  0  2  0  0  0  0  0  0  0  0  0
    4.7586    6.9528    8.2168 O   0  0  0  0  0  0  0  0  0  0  0  0
    8.8138    6.9204   -0.3425 C   0  0  1  0  0  0  0  0  0  0  0  0
    8.6390    7.0913   -1.7585 O   0  0  0  0  0  0  0  0  0  0  0  0
    8.3171    5.8679    4.4522 C   0  0  2  0  0  0  0  0  0  0  0  0
    9.7346    6.2341    4.2574 N   0  0  0  0  0  0  0  0  0  0  0  0
    2.9455    5.2858    8.0132 C   0  0  1  0  0  0  0  0  0  0  0  0
    3.0472    4.9166    9.4571 N   0  0  0  0  0  0  0  0  0  0  0  0
   10.2790    6.5721    0.0119 C   0  0  2  0  0  0  0  0  0  0  0  0
   10.6567    5.3550   -0.6547 O   0  0  0  0  0  0  0  0  0  0  0  0
    7.4241    6.9434    3.7824 C   0  0  2  0  0  0  0  0  0  0  0  0
    1.4663    5.1413    7.5165 C   0  0  1  0  0  0  0  0  0  0  0  0
    0.6220    6.0069    8.2709 O   0  0  0  0  0  0  0  0  0  0  0  0
   10.4214    6.4126    1.5736 C   0  0  2  0  0  0  0  0  0  0  0  0
   10.0119    7.6612    2.2456 O   0  0  0  0  0  0  0  0  0  0  0  0
    5.9336    6.5743    3.9882 C   0  0  2  0  0  0  0  0  0  0  0  0
    5.1337    7.5841    3.3817 O   0  0  0  0  0  0  0  0  0  0  0  0
    1.4048    5.5415    6.0087 C   0  0  0  0  0  0  0  0  0  0  0  0
    1.9211    6.9168    5.8076 O   0  0  0  0  0  0  0  0  0  0  0  0
   11.8790    6.0872    1.9922 C   0  0  2  0  0  0  0  0  0  0  0  0
   12.7729    6.9776    1.3294 O   0  0  0  0  0  0  0  0  0  0  0  0
    5.5767    6.5005    5.4911 C   0  0  1  0  0  0  0  0  0  0  0  0
    4.1763    6.1459    5.5762 O   0  0  0  0  0  0  0  0  0  0  0  0
   12.2652    4.6665    1.6151 C   0  0  0  0  0  0  0  0  0  0  0  0
    0.9416    3.7209    7.6868 C   0  0  0  0  0  0  0  0  0  0  0  0
    3.5852    3.5457    9.5471 C   0  0  0  0  0  0  0  0  0  0  0  0
  1  2  1  6  0  0  0
  1  6  1  0  0  0  0
  1 23  1  0  0  0  0
  3  4  1  1  0  0  0
  3  8  1  0  0  0  0
  3 30  1  0  0  0  0
  5  9  1  0  0  0  0
  5 27  1  0  0  0  0
  5 31  1  6  0  0  0
  6  7  1  1  0  0  0
  6 11  1  0  0  0  0
  8 13  1  0  0  0  0
  9 10  1  6  0  0  0
  9 15  1  0  0  0  0
 11 12  1  6  0  0  0
 11 17  1  0  0  0  0
 13 14  1  1  0  0  0
 13 19  1  0  0  0  0
 15 16  1  1  0  0  0
 15 20  1  0  0  0  0
 16 34  1  0  0  0  0
 17 18  1  6  0  0  0
 17 22  1  0  0  0  0
 19  2  1  6  0  0  0
 19 24  1  0  0  0  0
 20 21  1  1  0  0  0
 20 26  1  0  0  0  0
 20 33  1  0  0  0  0
 22 23  1  1  0  0  0
 22 28  1  0  0  0  0
 24 25  1  6  0  0  0
 24 30  1  0  0  0  0
 26 27  1  0  0  0  0
 28 29  1  6  0  0  0
 28 32  1  0  0  0  0
 30 31  1  6  0  0  0
M  END
>  <CHROM.1>
-157.91403750,-101.81427299,-138.31505350,47.43893079,124.25691240,-84.71785118
6.52717239,6.28342719,4.27486349,0.72557919,0.18284572,-1.19487462

>  <Name>
ligand

>  <RI>
0

>  <Rbt.Current_Directory>
/home/itssahil/PROJECTS/Mol_Feturizer/New_Systems/rnas/3TD1

>  <Rbt.Executable>
rbdock ($Id: //depot/dev/client3/rdock/2013.1/src/exe/rbdock.cxx#4 $)

>  <Rbt.Library>
libRbt.so (2013.1, Build901 2013/11/27)

>  <Rbt.Parameter_File>
/export/apps/rDock/src/rDock_2013.1_src/data/scripts/dock_solv.prm

>  <Rbt.Receptor>
prm/blind_docking_20.prm

>  <SCORE>
26.2446

>  <SCORE.INTER>
10.8693

>  <SCORE.INTER.CONST>
1

>  <SCORE.INTER.POLAR>
0

>  <SCORE.INTER.ROT>
6

>  <SCORE.INTER.SOLV>
18.1402

>  <SCORE.INTER.VDW>
-6.40056

>  <SCORE.INTER.norm>
0.319685

>  <SCORE.INTRA>
5.05474

>  <SCORE.INTRA.DIHEDRAL>
-0.570844

>  <SCORE.INTRA.DIHEDRAL.0>
19.5869

>  <SCORE.INTRA.POLAR>
0

>  <SCORE.INTRA.POLAR.0>
0

>  <SCORE.INTRA.REPUL>
0

>  <SCORE.INTRA.REPUL.0>
0

>  <SCORE.INTRA.SOLV>
4.97519

>  <SCORE.INTRA.SOLV.lig_0>
-70.101

>  <SCORE.INTRA.VDW>
2.85256

>  <SCORE.INTRA.VDW.0>
-3.39718

>  <SCORE.INTRA.norm>
0.148669

>  <SCORE.RESTR>
10.3206

>  <SCORE.RESTR.CAVITY>
10.3206

>  <SCORE.RESTR.norm>
0.303547

>  <SCORE.SYSTEM>
0

>  <SCORE.SYSTEM.CONST>
0

>  <SCORE.SYSTEM.DIHEDRAL>
0

>  <SCORE.SYSTEM.SOLV>
0

>  <SCORE.SYSTEM.norm>
0

>  <SCORE.heavy>
34

>  <SCORE.norm>
0.7719

>  <RMSD>
9.597

$$$$
ligand
 OpenBabel11021811483D
libRbt.so/2013.1/901 2013/11/27
 34 36  0  0  0  0  0  0  0  0999 V2000
    6.9302    6.8401    7.2437 C   0  0  2  0  0  0  0  0  0  0  0  0
    6.7958    5.4238    7.4400 O   0  0  0  0  0  0  0  0  0  0  0  0
    3.3920    3.1010    8.5715 C   0  0  2  0  0  0  0  0  0  0  0  0
    2.2841    2.5505    9.3445 N   0  0  0  0  0  0  0  0  0  0  0  0
    0.9724    5.7780    7.9204 C   0  0  2  0  0  0  0  0  0  0  0  0
    7.9534    7.0727    6.0752 C   0  0  2  0  0  0  0  0  0  0  0  0
    7.4779    6.4625    4.8238 N   0  0  0  0  0  0  0  0  0  0  0  0
    4.6904    2.9313    9.4288 C   0  0  0  0  0  0  0  0  0  0  0  0
   -0.3620    5.4388    7.1645 C   0  0  2  0  0  0  0  0  0  0  0  0
   -0.7905    4.1311    7.5067 O   0  0  0  0  0  0  0  0  0  0  0  0
    9.3210    6.4720    6.4664 C   0  0  1  0  0  0  0  0  0  0  0  0
   10.2646    6.6883    5.4045 O   0  0  0  0  0  0  0  0  0  0  0  0
    5.8842    3.5009    8.5900 C   0  0  2  0  0  0  0  0  0  0  0  0
    7.1430    3.3742    9.3522 N   0  0  0  0  0  0  0  0  0  0  0  0
   -0.1092    5.5644    5.6122 C   0  0  1  0  0  0  0  0  0  0  0  0
   -1.3481    5.2353    4.8453 N   0  0  0  0  0  0  0  0  0  0  0  0
    9.7925    7.1237    7.7880 C   0  0  2  0  0  0  0  0  0  0  0  0
   11.0615    6.5657    8.1712 O   0  0  0  0  0  0  0  0  0  0  0  0
    5.6556    4.9942    8.2429 C   0  0  2  0  0  0  0  0  0  0  0  0
    0.3604    7.0241    5.2892 C   0  0  1  0  0  0  0  0  0  0  0  0
   -0.6624    7.9470    5.6542 O   0  0  0  0  0  0  0  0  0  0  0  0
    8.7176    6.8734    8.9135 C   0  0  2  0  0  0  0  0  0  0  0  0
    7.4164    7.4331    8.4990 O   0  0  0  0  0  0  0  0  0  0  0  0
    4.3324    5.1407    7.4506 C   0  0  2  0  0  0  0  0  0  0  0  0
    4.1345    6.5203    7.1593 O   0  0  0  0  0  0  0  0  0  0  0  0
    1.6508    7.3272    6.1140 C   0  0  0  0  0  0  0  0  0  0  0  0
    1.4061    7.1358    7.5637 O   0  0  0  0  0  0  0  0  0  0  0  0
    9.1251    7.5278   10.2595 C   0  0  2  0  0  0  0  0  0  0  0  0
   10.4214    7.0706   10.6361 O   0  0  0  0  0  0  0  0  0  0  0  0
    3.1263    4.6340    8.2753 C   0  0  1  0  0  0  0  0  0  0  0  0
    1.9488    4.8063    7.4517 O   0  0  0  0  0  0  0  0  0  0  0  0
    8.1568    7.1653   11.3734 C   0  0  0  0  0  0  0  0  0  0  0  0
    0.6488    7.2174    3.8055 C   0  0  0  0  0  0  0  0  0  0  0  0
   -1.1671    3.9112    4.2201 C   0  0  0  0  0  0  0  0  0  0  0  0
  1  2  1  1  0  0  0
  1  6  1  0  0  0  0
  1 23  1  0  0  0  0
  3  4  1  1  0  0  0
  3  8  1  0  0  0  0
  3 30  1  0  0  0  0
  5  9  1  0  0  0  0
  5 27  1  0  0  0  0
  5 31  1  6  0  0  0
  6  7  1  6  0  0  0
  6 11  1  0  0  0  0
  8 13  1  0  0  0  0
  9 10  1  6  0  0  0
  9 15  1  0  0  0  0
 11 12  1  6  0  0  0
 11 17  1  0  0  0  0
 13 14  1  1  0  0  0
 13 19  1  0  0  0  0
 15 16  1  6  0  0  0
 15 20  1  0  0  0  0
 16 34  1  0  0  0  0
 17 18  1  1  0  0  0
 17 22  1  0  0  0  0
 19  2  1  6  0  0  0
 19 24  1  0  0  0  0
 20 21  1  1  0  0  0
 20 26  1  0  0  0  0
 20 33  1  0  0  0  0
 22 23  1  6  0  0  0
 22 28  1  0  0  0  0
 24 25  1  1  0  0  0
 24 30  1  0  0  0  0
 26 27  1  0  0  0  0
 28 29  1  1  0  0  0
 28 32  1  0  0  0  0
 30 31  1  6  0  0  0
M  END
>  <CHROM.1>
-165.26631182,-167.42050331,-106.62360016,-54.74541477,130.18669311,-161.67516942
4.61440388,5.81641268,7.42937161,-0.12516542,-0.24016087,-0.90570291

>  <Name>
ligand

>  <RI>
0

>  <Rbt.Current_Directory>
/home/itssahil/PROJECTS/Mol_Feturizer/New_Systems/rnas/3TD1

>  <Rbt.Executable>
rbdock ($Id: //depot/dev/client3/rdock/2013.1/src/exe/rbdock.cxx#4 $)

>  <Rbt.Library>
libRbt.so (2013.1, Build901 2013/11/27)

>  <Rbt.Parameter_File>
/export/apps/rDock/src/rDock_2013.1_src/data/scripts/dock_solv.prm

>  <Rbt.Receptor>
prm/pocket_docking_7.prm

>  <SCORE>
-13.9447

>  <SCORE.INTER>
-9.01418

>  <SCORE.INTER.CONST>
1

>  <SCORE.INTER.POLAR>
0

>  <SCORE.INTER.ROT>
6

>  <SCORE.INTER.SOLV>
12.3344

>  <SCORE.INTER.VDW>
-17.7209

>  <SCORE.INTER.norm>
-0.265123

>  <SCORE.INTRA>
-4.93051

>  <SCORE.INTRA.DIHEDRAL>
-8.44842

>  <SCORE.INTRA.DIHEDRAL.0>
19.5869

>  <SCORE.INTRA.POLAR>
0

>  <SCORE.INTRA.POLAR.0>
0

>  <SCORE.INTRA.REPUL>
0

>  <SCORE.INTRA.REPUL.0>
0

>  <SCORE.INTRA.SOLV>
-1.9392

>  <SCORE.INTRA.SOLV.lig_0>
-70.101

>  <SCORE.INTRA.VDW>
0.263299

>  <SCORE.INTRA.VDW.0>
-3.39718

>  <SCORE.INTRA.norm>
-0.145015

>  <SCORE.RESTR>
0

>  <SCORE.RESTR.CAVITY>
0

>  <SCORE.RESTR.norm>
0

>  <SCORE.SYSTEM>
0

>  <SCORE.SYSTEM.CONST>
0

>  <SCORE.SYSTEM.DIHEDRAL>
0

>  <SCORE.SYSTEM.SOLV>
0

>  <SCORE.SYSTEM.norm>
0

>  <SCORE.heavy>
34

>  <SCORE.norm>
-0.410138

>  <RMSD>
9.606

$$$$
ligand
 OpenBabel11021811483D
libRbt.so/2013.1/901 2013/11/27
 34 36  0  0  0  0  0  0  0  0999 V2000
   10.3795    8.8182    1.9197 C   0  0  2  0  0  0  0  0  0  0  0  0
    9.5398    8.2339    0.9118 O   0  0  0  0  0  0  0  0  0  0  0  0
    6.7134    5.0513    1.2916 C   0  0  2  0  0  0  0  0  0  0  0  0
    6.1366    3.7236    1.4722 N   0  0  0  0  0  0  0  0  0  0  0  0
    6.0754    6.9786    4.0427 C   0  0  2  0  0  0  0  0  0  0  0  0
   10.9600   10.1611    1.3485 C   0  0  2  0  0  0  0  0  0  0  0  0
    9.8830   11.1078    1.0198 N   0  0  0  0  0  0  0  0  0  0  0  0
    7.7399    4.9592    0.1137 C   0  0  0  0  0  0  0  0  0  0  0  0
    6.4231    7.1775    5.5615 C   0  0  2  0  0  0  0  0  0  0  0  0
    7.8231    7.0610    5.7544 O   0  0  0  0  0  0  0  0  0  0  0  0
   11.7980    9.8598    0.0870 C   0  0  1  0  0  0  0  0  0  0  0  0
   12.3389   11.0837   -0.4366 O   0  0  0  0  0  0  0  0  0  0  0  0
    8.3427    6.3894   -0.0962 C   0  0  2  0  0  0  0  0  0  0  0  0
    9.3280    6.3659   -1.1962 N   0  0  0  0  0  0  0  0  0  0  0  0
    5.6429    6.0955    6.4041 C   0  0  1  0  0  0  0  0  0  0  0  0
    5.9529    6.2324    7.8590 N   0  0  0  0  0  0  0  0  0  0  0  0
   12.9157    8.8566    0.4584 C   0  0  2  0  0  0  0  0  0  0  0  0
   13.6989    8.5578   -0.7103 O   0  0  0  0  0  0  0  0  0  0  0  0
    9.0414    6.8916    1.1931 C   0  0  2  0  0  0  0  0  0  0  0  0
    4.1054    6.2683    6.1557 C   0  0  1  0  0  0  0  0  0  0  0  0
    3.6930    7.5609    6.5919 O   0  0  0  0  0  0  0  0  0  0  0  0
   12.2727    7.5413    1.0425 C   0  0  2  0  0  0  0  0  0  0  0  0
   11.4564    7.8650    2.2287 O   0  0  0  0  0  0  0  0  0  0  0  0
    8.0190    6.9119    2.3569 C   0  0  2  0  0  0  0  0  0  0  0  0
    8.6867    7.3581    3.5326 O   0  0  0  0  0  0  0  0  0  0  0  0
    3.8276    6.1239    4.6262 C   0  0  0  0  0  0  0  0  0  0  0  0
    4.6241    7.1057    3.8516 O   0  0  0  0  0  0  0  0  0  0  0  0
   13.3496    6.5051    1.4579 C   0  0  2  0  0  0  0  0  0  0  0  0
   12.7181    5.2701    1.7854 O   0  0  0  0  0  0  0  0  0  0  0  0
    7.4444    5.5010    2.6228 C   0  0  1  0  0  0  0  0  0  0  0  0
    6.5025    5.6270    3.7143 O   0  0  0  0  0  0  0  0  0  0  0  0
   14.1329    6.9696    2.6745 C   0  0  0  0  0  0  0  0  0  0  0  0
    3.2828    5.2387    6.9207 C   0  0  0  0  0  0  0  0  0  0  0  0
    6.0322    4.8803    8.4442 C   0  0  0  0  0  0  0  0  0  0  0  0
  1  2  1  6  0  0  0
  1  6  1  0  0  0  0
  1 23  1  0  0  0  0
  3  4  1  1  0  0  0
  3  8  1  0  0  0  0
  3 30  1  0  0  0  0
  5  9  1  0  0  0  0
  5 27  1  0  0  0  0
  5 31  1  1  0  0  0
  6  7  1  6  0  0  0
  6 11  1  0  0  0  0
  8 13  1  0  0  0  0
  9 10  1  6  0  0  0
  9 15  1  0  0  0  0
 11 12  1  1  0  0  0
 11 17  1  0  0  0  0
 13 14  1  6  0  0  0
 13 19  1  0  0  0  0
 15 16  1  1  0  0  0
 15 20  1  0  0  0  0
 16 34  1  0  0  0  0
 17 18  1  6  0  0  0
 17 22  1  0  0  0  0
 19  2  1  6  0  0  0
 19 24  1  0  0  0  0
 20 21  1  1  0  0  0
 20 26  1  0  0  0  0
 20 33  1  0  0  0  0
 22 23  1  1  0  0  0
 22 28  1  0  0  0  0
 24 25  1  1  0  0  0
 24 30  1  0  0  0  0
 26 27  1  0  0  0  0
 28 29  1  1  0  0  0
 28 32  1  0  0  0  0
 30 31  1  1  0  0  0
M  END
>  <CHROM.1>
172.51270650,-172.00050075,-142.30355904,-171.28801314,-100.98836804,-123.48735113
8.57191151,7.07605049,2.81717106,-0.48175680,0.50602992,1.23969809

>  <Name>
ligand

>  <RI>
0

>  <Rbt.Current_Directory>
/home/itssahil/PROJECTS/Mol_Feturizer/New_Systems/rnas/3TD1

>  <Rbt.Executable>
rbdock ($Id: //depot/dev/client3/rdock/2013.1/src/exe/rbdock.cxx#4 $)

>  <Rbt.Library>
libRbt.so (2013.1, Build901 2013/11/27)

>  <Rbt.Parameter_File>
/export/apps/rDock/src/rDock_2013.1_src/data/scripts/dock_solv.prm

>  <Rbt.Receptor>
prm/blind_docking_20.prm

>  <SCORE>
67.0268

>  <SCORE.INTER>
54.5369

>  <SCORE.INTER.CONST>
1

>  <SCORE.INTER.POLAR>
0

>  <SCORE.INTER.ROT>
6

>  <SCORE.INTER.SOLV>
26.5582

>  <SCORE.INTER.VDW>
19.9052

>  <SCORE.INTER.norm>
1.60403

>  <SCORE.INTRA>
3.68456

>  <SCORE.INTRA.DIHEDRAL>
-5.21865

>  <SCORE.INTRA.DIHEDRAL.0>
19.5869

>  <SCORE.INTRA.POLAR>
0

>  <SCORE.INTRA.POLAR.0>
0

>  <SCORE.INTRA.REPUL>
0

>  <SCORE.INTRA.REPUL.0>
0

>  <SCORE.INTRA.SOLV>
-2.84797

>  <SCORE.INTRA.SOLV.lig_0>
-70.101

>  <SCORE.INTRA.VDW>
7.71787

>  <SCORE.INTRA.VDW.0>
-3.39718

>  <SCORE.INTRA.norm>
0.108369

>  <SCORE.RESTR>
8.80536

>  <SCORE.RESTR.CAVITY>
8.80536

>  <SCORE.RESTR.norm>
0.258981

>  <SCORE.SYSTEM>
0

>  <SCORE.SYSTEM.CONST>
0

>  <SCORE.SYSTEM.DIHEDRAL>
0

>  <SCORE.SYSTEM.SOLV>
0

>  <SCORE.SYSTEM.norm>
0

>  <SCORE.heavy>
34

>  <SCORE.norm>
1.97138

>  <RMSD>
9.608

$$$$
ligand
 OpenBabel11021811483D
libRbt.so/2013.1/901 2013/11/27
 34 36  0  0  0  0  0  0  0  0999 V2000
    8.6602    7.8250    2.2697 C   0  0  2  0  0  0  0  0  0  0  0  0
    7.6954    6.8307    2.6477 O   0  0  0  0  0  0  0  0  0  0  0  0
    6.1380    5.4003    6.3613 C   0  0  2  0  0  0  0  0  0  0  0  0
    5.7339    5.3334    7.7614 N   0  0  0  0  0  0  0  0  0  0  0  0
    2.9310    7.0595    6.1593 C   0  0  2  0  0  0  0  0  0  0  0  0
    8.3295    8.2899    0.8065 C   0  0  2  0  0  0  0  0  0  0  0  0
    6.9839    8.8793    0.7280 N   0  0  0  0  0  0  0  0  0  0  0  0
    7.6486    5.8089    6.3293 C   0  0  0  0  0  0  0  0  0  0  0  0
    2.9818    6.8359    7.7132 C   0  0  2  0  0  0  0  0  0  0  0  0
    4.2885    7.1015    8.1957 O   0  0  0  0  0  0  0  0  0  0  0  0
    8.4304    7.0809   -0.1488 C   0  0  1  0  0  0  0  0  0  0  0  0
    8.1366    7.5009   -1.4912 O   0  0  0  0  0  0  0  0  0  0  0  0
    8.0895    5.8583    4.8273 C   0  0  2  0  0  0  0  0  0  0  0  0
    9.5113    6.2462    4.7306 N   0  0  0  0  0  0  0  0  0  0  0  0
    2.5542    5.3492    8.0238 C   0  0  1  0  0  0  0  0  0  0  0  0
    2.6014    5.0803    9.4924 N   0  0  0  0  0  0  0  0  0  0  0  0
    9.8501    6.4759   -0.0396 C   0  0  2  0  0  0  0  0  0  0  0  0
    9.9559    5.3410   -0.9168 O   0  0  0  0  0  0  0  0  0  0  0  0
    7.2356    6.8785    4.0317 C   0  0  2  0  0  0  0  0  0  0  0  0
    1.1073    5.1097    7.4719 C   0  0  1  0  0  0  0  0  0  0  0  0
    0.1945    5.9862    8.1272 O   0  0  0  0  0  0  0  0  0  0  0  0
   10.1291    6.0482    1.4516 C   0  0  2  0  0  0  0  0  0  0  0  0
    9.9978    7.2174    2.3426 O   0  0  0  0  0  0  0  0  0  0  0  0
    5.7402    6.4866    4.1335 C   0  0  2  0  0  0  0  0  0  0  0  0
    4.9750    7.4464    3.4120 O   0  0  0  0  0  0  0  0  0  0  0  0
    1.1022    5.4070    5.9392 C   0  0  0  0  0  0  0  0  0  0  0  0
    1.5729    6.7868    5.6691 O   0  0  0  0  0  0  0  0  0  0  0  0
   11.5519    5.4562    1.6280 C   0  0  2  0  0  0  0  0  0  0  0  0
   11.9859    4.8889    0.3947 O   0  0  0  0  0  0  0  0  0  0  0  0
    5.2612    6.4803    5.6039 C   0  0  1  0  0  0  0  0  0  0  0  0
    3.8652    6.0989    5.5921 O   0  0  0  0  0  0  0  0  0  0  0  0
   11.5757    4.3623    2.6827 C   0  0  0  0  0  0  0  0  0  0  0  0
    0.6315    3.6825    7.7139 C   0  0  0  0  0  0  0  0  0  0  0  0
    3.6650    4.0899    9.7473 C   0  0  0  0  0  0  0  0  0  0  0  0
  1  2  1  6  0  0  0
  1  6  1  0  0  0  0
  1 23  1  0  0  0  0
  3  4  1  1  0  0  0
  3  8  1  0  0  0  0
  3 30  1  0  0  0  0
  5  9  1  0  0  0  0
  5 27  1  0  0  0  0
  5 31  1  6  0  0  0
  6  7  1  1  0  0  0
  6 11  1  0  0  0  0
  8 13  1  0  0  0  0
  9 10  1  6  0  0  0
  9 15  1  0  0  0  0
 11 12  1  6  0  0  0
 11 17  1  0  0  0  0
 13 14  1  1  0  0  0
 13 19  1  0  0  0  0
 15 16  1  1  0  0  0
 15 20  1  0  0  0  0
 16 34  1  0  0  0  0
 17 18  1  6  0  0  0
 17 22  1  0  0  0  0
 19  2  1  6  0  0  0
 19 24  1  0  0  0  0
 20 21  1  1  0  0  0
 20 26  1  0  0  0  0
 20 33  1  0  0  0  0
 22 23  1  1  0  0  0
 22 28  1  0  0  0  0
 24 25  1  6  0  0  0
 24 30  1  0  0  0  0
 26 27  1  0  0  0  0
 28 29  1  6  0  0  0
 28 32  1  0  0  0  0
 30 31  1  6  0  0  0
M  END
>  <CHROM.1>
-141.85575960,-96.19425650,-113.91665172,-26.75659622,123.38534109,-81.91100428
6.20419389,6.19200910,4.37278373,0.70810403,0.23744420,-1.18134936

>  <Name>
ligand

>  <RI>
0

>  <Rbt.Current_Directory>
/home/itssahil/PROJECTS/Mol_Feturizer/New_Systems/rnas/3TD1

>  <Rbt.Executable>
rbdock ($Id: //depot/dev/client3/rdock/2013.1/src/exe/rbdock.cxx#4 $)

>  <Rbt.Library>
libRbt.so (2013.1, Build901 2013/11/27)

>  <Rbt.Parameter_File>
/export/apps/rDock/src/rDock_2013.1_src/data/scripts/dock_solv.prm

>  <Rbt.Receptor>
prm/blind_docking_40.prm

>  <SCORE>
24.8308

>  <SCORE.INTER>
8.71268

>  <SCORE.INTER.CONST>
1

>  <SCORE.INTER.POLAR>
0

>  <SCORE.INTER.ROT>
6

>  <SCORE.INTER.SOLV>
20.3725

>  <SCORE.INTER.VDW>
-8.58238

>  <SCORE.INTER.norm>
0.256255

>  <SCORE.INTRA>
6.50484

>  <SCORE.INTRA.DIHEDRAL>
3.80793

>  <SCORE.INTRA.DIHEDRAL.0>
19.5869

>  <SCORE.INTRA.POLAR>
0

>  <SCORE.INTRA.POLAR.0>
0

>  <SCORE.INTRA.REPUL>
0

>  <SCORE.INTRA.REPUL.0>
0

>  <SCORE.INTRA.SOLV>
5.29305

>  <SCORE.INTRA.SOLV.lig_0>
-70.101

>  <SCORE.INTRA.VDW>
1.95435

>  <SCORE.INTRA.VDW.0>
-3.39718

>  <SCORE.INTRA.norm>
0.191319

>  <SCORE.RESTR>
9.61332

>  <SCORE.RESTR.CAVITY>
9.61332

>  <SCORE.RESTR.norm>
0.282745

>  <SCORE.SYSTEM>
0

>  <SCORE.SYSTEM.CONST>
0

>  <SCORE.SYSTEM.DIHEDRAL>
0

>  <SCORE.SYSTEM.SOLV>
0

>  <SCORE.SYSTEM.norm>
0

>  <SCORE.heavy>
34

>  <SCORE.norm>
0.730319

>  <RMSD>
9.617

$$$$
ligand
 OpenBabel11021811483D
libRbt.so/2013.1/901 2013/11/27
 34 36  0  0  0  0  0  0  0  0999 V2000
   11.3072    8.3773    1.0681 C   0  0  2  0  0  0  0  0  0  0  0  0
   10.4143    7.9989    2.1274 O   0  0  0  0  0  0  0  0  0  0  0  0
    6.4697    9.5690    2.6138 C   0  0  2  0  0  0  0  0  0  0  0  0
    5.0654    9.8871    2.3792 N   0  0  0  0  0  0  0  0  0  0  0  0
    5.6062    6.1580    4.0939 C   0  0  2  0  0  0  0  0  0  0  0  0
   10.9447    7.5239   -0.1995 C   0  0  2  0  0  0  0  0  0  0  0  0
    9.5611    7.7759   -0.6314 N   0  0  0  0  0  0  0  0  0  0  0  0
    7.2706   10.0269    1.3495 C   0  0  0  0  0  0  0  0  0  0  0  0
    4.1383    6.0847    4.6479 C   0  0  2  0  0  0  0  0  0  0  0  0
    3.2511    6.7282    3.7482 O   0  0  0  0  0  0  0  0  0  0  0  0
   11.1297    6.0253    0.1234 C   0  0  1  0  0  0  0  0  0  0  0  0
   10.8073    5.2386   -1.0350 O   0  0  0  0  0  0  0  0  0  0  0  0
    8.7815    9.7070    1.6101 C   0  0  2  0  0  0  0  0  0  0  0  0
    9.5922   10.1127    0.4440 N   0  0  0  0  0  0  0  0  0  0  0  0
    4.1000    6.7697    6.0688 C   0  0  1  0  0  0  0  0  0  0  0  0
    2.7177    6.7401    6.6341 N   0  0  0  0  0  0  0  0  0  0  0  0
   12.5883    5.7903    0.5827 C   0  0  2  0  0  0  0  0  0  0  0  0
   12.7731    4.3992    0.8977 O   0  0  0  0  0  0  0  0  0  0  0  0
    8.9919    8.1927    1.8654 C   0  0  2  0  0  0  0  0  0  0  0  0
    5.0947    6.0222    7.0214 C   0  0  1  0  0  0  0  0  0  0  0  0
    4.6884    4.6639    7.1661 O   0  0  0  0  0  0  0  0  0  0  0  0
   12.8967    6.6866    1.8422 C   0  0  2  0  0  0  0  0  0  0  0  0
   12.6840    8.1090    1.5109 O   0  0  0  0  0  0  0  0  0  0  0  0
    8.1388    7.7534    3.0816 C   0  0  2  0  0  0  0  0  0  0  0  0
    8.3336    6.3578    3.2855 O   0  0  0  0  0  0  0  0  0  0  0  0
    6.5222    6.0723    6.3911 C   0  0  0  0  0  0  0  0  0  0  0  0
    6.5174    5.4849    5.0297 O   0  0  0  0  0  0  0  0  0  0  0  0
   14.3574    6.5120    2.3339 C   0  0  2  0  0  0  0  0  0  0  0  0
   15.2561    6.8583    1.2833 O   0  0  0  0  0  0  0  0  0  0  0  0
    6.6340    8.0089    2.8324 C   0  0  1  0  0  0  0  0  0  0  0  0
    5.9292    7.5748    4.0195 O   0  0  0  0  0  0  0  0  0  0  0  0
   14.6423    5.0760    2.7418 C   0  0  0  0  0  0  0  0  0  0  0  0
    5.1315    6.6438    8.4121 C   0  0  0  0  0  0  0  0  0  0  0  0
    1.8236    7.4609    5.7077 C   0  0  0  0  0  0  0  0  0  0  0  0
  1  2  1  1  0  0  0
  1  6  1  0  0  0  0
  1 23  1  0  0  0  0
  3  4  1  6  0  0  0
  3  8  1  0  0  0  0
  3 30  1  0  0  0  0
  5  9  1  0  0  0  0
  5 27  1  0  0  0  0
  5 31  1  1  0  0  0
  6  7  1  1  0  0  0
  6 11  1  0  0  0  0
  8 13  1  0  0  0  0
  9 10  1  6  0  0  0
  9 15  1  0  0  0  0
 11 12  1  6  0  0  0
 11 17  1  0  0  0  0
 13 14  1  6  0  0  0
 13 19  1  0  0  0  0
 15 16  1  1  0  0  0
 15 20  1  0  0  0  0
 16 34  1  0  0  0  0
 17 18  1  1  0  0  0
 17 22  1  0  0  0  0
 19  2  1  1  0  0  0
 19 24  1  0  0  0  0
 20 21  1  1  0  0  0
 20 26  1  0  0  0  0
 20 33  1  0  0  0  0
 22 23  1  6  0  0  0
 22 28  1  0  0  0  0
 24 25  1  6  0  0  0
 24 30  1  0  0  0  0
 26 27  1  0  0  0  0
 28 29  1  6  0  0  0
 28 32  1  0  0  0  0
 30 31  1  1  0  0  0
M  END
>  <CHROM.1>
-59.55323454,-60.56968475,-59.56497131,58.90492090,159.56351321,-137.71077660
8.37424119,7.08976326,2.98375355,0.38050036,0.35243292,-0.85938059

>  <Name>
ligand

>  <RI>
0

>  <Rbt.Current_Directory>
/home/itssahil/PROJECTS/Mol_Feturizer/New_Systems/rnas/3TD1

>  <Rbt.Executable>
rbdock ($Id: //depot/dev/client3/rdock/2013.1/src/exe/rbdock.cxx#4 $)

>  <Rbt.Library>
libRbt.so (2013.1, Build901 2013/11/27)

>  <Rbt.Parameter_File>
/export/apps/rDock/src/rDock_2013.1_src/data/scripts/dock_solv.prm

>  <Rbt.Receptor>
prm/blind_docking_20.prm

>  <SCORE>
42.8107

>  <SCORE.INTER>
29.3648

>  <SCORE.INTER.CONST>
1

>  <SCORE.INTER.POLAR>
0

>  <SCORE.INTER.ROT>
6

>  <SCORE.INTER.SOLV>
30.1816

>  <SCORE.INTER.VDW>
1.91602

>  <SCORE.INTER.norm>
0.863671

>  <SCORE.INTRA>
8.34134

>  <SCORE.INTRA.DIHEDRAL>
-11.9227

>  <SCORE.INTRA.DIHEDRAL.0>
19.5869

>  <SCORE.INTRA.POLAR>
0

>  <SCORE.INTRA.POLAR.0>
0

>  <SCORE.INTRA.REPUL>
0

>  <SCORE.INTRA.REPUL.0>
0

>  <SCORE.INTRA.SOLV>
3.73548

>  <SCORE.INTRA.SOLV.lig_0>
-70.101

>  <SCORE.INTRA.VDW>
12.4349

>  <SCORE.INTRA.VDW.0>
-3.39718

>  <SCORE.INTRA.norm>
0.245334

>  <SCORE.RESTR>
5.10459

>  <SCORE.RESTR.CAVITY>
5.10459

>  <SCORE.RESTR.norm>
0.150135

>  <SCORE.SYSTEM>
0

>  <SCORE.SYSTEM.CONST>
0

>  <SCORE.SYSTEM.DIHEDRAL>
0

>  <SCORE.SYSTEM.SOLV>
0

>  <SCORE.SYSTEM.norm>
0

>  <SCORE.heavy>
34

>  <SCORE.norm>
1.25914

>  <RMSD>
9.626

$$$$
ligand
 OpenBabel11021811483D
libRbt.so/2013.1/901 2013/11/27
 34 36  0  0  0  0  0  0  0  0999 V2000
   11.9033    8.5583    1.9249 C   0  0  2  0  0  0  0  0  0  0  0  0
   10.9105    9.5865    1.7844 O   0  0  0  0  0  0  0  0  0  0  0  0
    6.7258    9.3802    2.6252 C   0  0  2  0  0  0  0  0  0  0  0  0
    5.3083    9.0472    2.5350 N   0  0  0  0  0  0  0  0  0  0  0  0
    6.7105    6.1379    4.1899 C   0  0  2  0  0  0  0  0  0  0  0  0
   13.2801    9.1456    1.4494 C   0  0  2  0  0  0  0  0  0  0  0  0
   13.6749   10.3026    2.2678 N   0  0  0  0  0  0  0  0  0  0  0  0
    7.1493    9.9988    1.2513 C   0  0  0  0  0  0  0  0  0  0  0  0
    5.2123    6.2288    4.6528 C   0  0  2  0  0  0  0  0  0  0  0  0
    4.4714    7.0156    3.7347 O   0  0  0  0  0  0  0  0  0  0  0  0
   13.1728    9.5628   -0.0335 C   0  0  1  0  0  0  0  0  0  0  0  0
   14.4319   10.0940   -0.4776 O   0  0  0  0  0  0  0  0  0  0  0  0
    8.6654   10.3779    1.3551 C   0  0  2  0  0  0  0  0  0  0  0  0
    9.1279   10.9641    0.0807 N   0  0  0  0  0  0  0  0  0  0  0  0
    5.1680    6.8547    6.1004 C   0  0  1  0  0  0  0  0  0  0  0  0
    3.7592    6.9775    6.5815 N   0  0  0  0  0  0  0  0  0  0  0  0
   12.7482    8.3317   -0.8687 C   0  0  2  0  0  0  0  0  0  0  0  0
   12.6336    8.7078   -2.2521 O   0  0  0  0  0  0  0  0  0  0  0  0
    9.5284    9.1311    1.6767 C   0  0  2  0  0  0  0  0  0  0  0  0
    5.9990    5.9491    7.0724 C   0  0  1  0  0  0  0  0  0  0  0  0
    5.4191    4.6484    7.1270 O   0  0  0  0  0  0  0  0  0  0  0  0
   11.3736    7.7776   -0.3321 C   0  0  2  0  0  0  0  0  0  0  0  0
   11.5000    7.4144    1.0928 O   0  0  0  0  0  0  0  0  0  0  0  0
    9.0460    8.5022    3.0078 C   0  0  2  0  0  0  0  0  0  0  0  0
    9.8397    7.3501    3.2729 O   0  0  0  0  0  0  0  0  0  0  0  0
    7.4592    5.8434    6.5300 C   0  0  0  0  0  0  0  0  0  0  0  0
    7.4692    5.3173    5.1439 O   0  0  0  0  0  0  0  0  0  0  0  0
   10.9084    6.5233   -1.1171 C   0  0  2  0  0  0  0  0  0  0  0  0
    9.5917    6.1668   -0.7045 O   0  0  0  0  0  0  0  0  0  0  0  0
    7.5642    8.0688    2.9186 C   0  0  1  0  0  0  0  0  0  0  0  0
    7.2108    7.5042    4.2033 O   0  0  0  0  0  0  0  0  0  0  0  0
   11.8193    5.3339   -0.8615 C   0  0  0  0  0  0  0  0  0  0  0  0
    6.0232    6.5039    8.4913 C   0  0  0  0  0  0  0  0  0  0  0  0
    3.1159    5.6542    6.4717 C   0  0  0  0  0  0  0  0  0  0  0  0
  1  2  1  6  0  0  0
  1  6  1  0  0  0  0
  1 23  1  0  0  0  0
  3  4  1  6  0  0  0
  3  8  1  0  0  0  0
  3 30  1  0  0  0  0
  5  9  1  0  0  0  0
  5 27  1  0  0  0  0
  5 31  1  1  0  0  0
  6  7  1  1  0  0  0
  6 11  1  0  0  0  0
  8 13  1  0  0  0  0
  9 10  1  6  0  0  0
  9 15  1  0  0  0  0
 11 12  1  6  0  0  0
 11 17  1  0  0  0  0
 13 14  1  6  0  0  0
 13 19  1  0  0  0  0
 15 16  1  1  0  0  0
 15 20  1  0  0  0  0
 16 34  1  0  0  0  0
 17 18  1  6  0  0  0
 17 22  1  0  0  0  0
 19  2  1  1  0  0  0
 19 24  1  0  0  0  0
 20 21  1  1  0  0  0
 20 26  1  0  0  0  0
 20 33  1  0  0  0  0
 22 23  1  1  0  0  0
 22 28  1  0  0  0  0
 24 25  1  6  0  0  0
 24 30  1  0  0  0  0
 26 27  1  0  0  0  0
 28 29  1  1  0  0  0
 28 32  1  0  0  0  0
 30 31  1  1  0  0  0
M  END
>  <CHROM.1>
157.42778248,-172.94635464,53.90766321,-172.83610279,121.32064028,-114.07445933
8.79637359,7.75986359,2.67272070,-0.69204042,-0.33418953,2.32512134

>  <Name>
ligand

>  <RI>
0

>  <Rbt.Current_Directory>
/home/itssahil/PROJECTS/Mol_Feturizer/New_Systems/rnas/3TD1

>  <Rbt.Executable>
rbdock ($Id: //depot/dev/client3/rdock/2013.1/src/exe/rbdock.cxx#4 $)

>  <Rbt.Library>
libRbt.so (2013.1, Build901 2013/11/27)

>  <Rbt.Parameter_File>
/export/apps/rDock/src/rDock_2013.1_src/data/scripts/dock_solv.prm

>  <Rbt.Receptor>
prm/blind_docking_40.prm

>  <SCORE>
47.2702

>  <SCORE.INTER>
29.6574

>  <SCORE.INTER.CONST>
1

>  <SCORE.INTER.POLAR>
0

>  <SCORE.INTER.ROT>
6

>  <SCORE.INTER.SOLV>
30.1957

>  <SCORE.INTER.VDW>
2.10636

>  <SCORE.INTER.norm>
0.872276

>  <SCORE.INTRA>
5.99817

>  <SCORE.INTRA.DIHEDRAL>
-2.72324

>  <SCORE.INTRA.DIHEDRAL.0>
19.5869

>  <SCORE.INTRA.POLAR>
0

>  <SCORE.INTRA.POLAR.0>
0

>  <SCORE.INTRA.REPUL>
0

>  <SCORE.INTRA.REPUL.0>
0

>  <SCORE.INTRA.SOLV>
-0.530192

>  <SCORE.INTRA.SOLV.lig_0>
-70.101

>  <SCORE.INTRA.VDW>
7.62489

>  <SCORE.INTRA.VDW.0>
-3.39718

>  <SCORE.INTRA.norm>
0.176417

>  <SCORE.RESTR>
11.6147

>  <SCORE.RESTR.CAVITY>
11.6147

>  <SCORE.RESTR.norm>
0.341607

>  <SCORE.SYSTEM>
0

>  <SCORE.SYSTEM.CONST>
0

>  <SCORE.SYSTEM.DIHEDRAL>
0

>  <SCORE.SYSTEM.SOLV>
0

>  <SCORE.SYSTEM.norm>
0

>  <SCORE.heavy>
34

>  <SCORE.norm>
1.3903

>  <RMSD>
9.631

$$$$
ligand
 OpenBabel11021811483D
libRbt.so/2013.1/901 2013/11/27
 34 36  0  0  0  0  0  0  0  0999 V2000
    7.7063    7.0464    1.4772 C   0  0  2  0  0  0  0  0  0  0  0  0
    7.7373    6.1044    2.5608 O   0  0  0  0  0  0  0  0  0  0  0  0
    6.7028    6.0607    6.7068 C   0  0  2  0  0  0  0  0  0  0  0  0
    6.4386    6.4942    8.0744 N   0  0  0  0  0  0  0  0  0  0  0  0
    3.5420    7.0594    6.9709 C   0  0  2  0  0  0  0  0  0  0  0  0
    8.0288    6.2701    0.1505 C   0  0  2  0  0  0  0  0  0  0  0  0
    7.0321    5.2187   -0.1051 N   0  0  0  0  0  0  0  0  0  0  0  0
    8.1459    6.5390    6.3350 C   0  0  0  0  0  0  0  0  0  0  0  0
    2.9769    6.0577    8.0407 C   0  0  2  0  0  0  0  0  0  0  0  0
    4.0480    5.4247    8.7210 O   0  0  0  0  0  0  0  0  0  0  0  0
    9.4372    5.6454    0.2536 C   0  0  1  0  0  0  0  0  0  0  0  0
    9.7421    4.9399   -0.9605 O   0  0  0  0  0  0  0  0  0  0  0  0
    8.4394    6.0538    4.8750 C   0  0  2  0  0  0  0  0  0  0  0  0
    9.7913    6.4821    4.4624 N   0  0  0  0  0  0  0  0  0  0  0  0
    2.0654    4.9981    7.3086 C   0  0  1  0  0  0  0  0  0  0  0  0
    1.5143    4.0097    8.2836 N   0  0  0  0  0  0  0  0  0  0  0  0
   10.4627    6.7701    0.5311 C   0  0  2  0  0  0  0  0  0  0  0  0
   11.7793    6.2015    0.6405 O   0  0  0  0  0  0  0  0  0  0  0  0
    7.4030    6.6337    3.8788 C   0  0  2  0  0  0  0  0  0  0  0  0
    0.9011    5.7481    6.5755 C   0  0  1  0  0  0  0  0  0  0  0  0
    0.1040    6.4432    7.5308 O   0  0  0  0  0  0  0  0  0  0  0  0
   10.0749    7.5227    1.8607 C   0  0  2  0  0  0  0  0  0  0  0  0
    8.7150    8.0837    1.7421 O   0  0  0  0  0  0  0  0  0  0  0  0
    5.9794    6.1982    4.3071 C   0  0  2  0  0  0  0  0  0  0  0  0
    5.0446    6.7568    3.3897 O   0  0  0  0  0  0  0  0  0  0  0  0
    1.5203    6.7724    5.5731 C   0  0  0  0  0  0  0  0  0  0  0  0
    2.4258    7.7139    6.2746 O   0  0  0  0  0  0  0  0  0  0  0  0
   11.0561    8.6814    2.1779 C   0  0  2  0  0  0  0  0  0  0  0  0
   11.2353    9.4833    1.0133 O   0  0  0  0  0  0  0  0  0  0  0  0
    5.6403    6.7085    5.7270 C   0  0  1  0  0  0  0  0  0  0  0  0
    4.3034    6.2474    6.0339 O   0  0  0  0  0  0  0  0  0  0  0  0
   12.4185    8.1598    2.6037 C   0  0  0  0  0  0  0  0  0  0  0  0
   -0.0125    4.7891    5.8221 C   0  0  0  0  0  0  0  0  0  0  0  0
    2.4778    2.8996    8.4114 C   0  0  0  0  0  0  0  0  0  0  0  0
  1  2  1  1  0  0  0
  1  6  1  0  0  0  0
  1 23  1  0  0  0  0
  3  4  1  1  0  0  0
  3  8  1  0  0  0  0
  3 30  1  0  0  0  0
  5  9  1  0  0  0  0
  5 27  1  0  0  0  0
  5 31  1  6  0  0  0
  6  7  1  1  0  0  0
  6 11  1  0  0  0  0
  8 13  1  0  0  0  0
  9 10  1  6  0  0  0
  9 15  1  0  0  0  0
 11 12  1  6  0  0  0
 11 17  1  0  0  0  0
 13 14  1  6  0  0  0
 13 19  1  0  0  0  0
 15 16  1  1  0  0  0
 15 20  1  0  0  0  0
 16 34  1  0  0  0  0
 17 18  1  1  0  0  0
 17 22  1  0  0  0  0
 19  2  1  6  0  0  0
 19 24  1  0  0  0  0
 20 21  1  1  0  0  0
 20 26  1  0  0  0  0
 20 33  1  0  0  0  0
 22 23  1  6  0  0  0
 22 28  1  0  0  0  0
 24 25  1  6  0  0  0
 24 30  1  0  0  0  0
 26 27  1  0  0  0  0
 28 29  1  6  0  0  0
 28 32  1  0  0  0  0
 30 31  1  1  0  0  0
M  END
>  <CHROM.1>
-177.48621402,-135.85716972,-88.49364493,48.83207057,91.54198533,-130.45798526
6.31892969,6.36523741,4.31665396,0.61497819,-0.25698009,-1.67767906

>  <Name>
ligand

>  <RI>
0

>  <Rbt.Current_Directory>
/home/itssahil/PROJECTS/Mol_Feturizer/New_Systems/rnas/3TD1

>  <Rbt.Executable>
rbdock ($Id: //depot/dev/client3/rdock/2013.1/src/exe/rbdock.cxx#4 $)

>  <Rbt.Library>
libRbt.so (2013.1, Build901 2013/11/27)

>  <Rbt.Parameter_File>
/export/apps/rDock/src/rDock_2013.1_src/data/scripts/dock_solv.prm

>  <Rbt.Receptor>
prm/blind_docking_20.prm

>  <SCORE>
8.81585

>  <SCORE.INTER>
-1.92396

>  <SCORE.INTER.CONST>
1

>  <SCORE.INTER.POLAR>
0

>  <SCORE.INTER.ROT>
6

>  <SCORE.INTER.SOLV>
19.4212

>  <SCORE.INTER.VDW>
-15.3564

>  <SCORE.INTER.norm>
-0.0565869

>  <SCORE.INTRA>
0.60787

>  <SCORE.INTRA.DIHEDRAL>
-1.98337

>  <SCORE.INTRA.DIHEDRAL.0>
19.5869

>  <SCORE.INTRA.POLAR>
0

>  <SCORE.INTRA.POLAR.0>
0

>  <SCORE.INTRA.REPUL>
0

>  <SCORE.INTRA.REPUL.0>
0

>  <SCORE.INTRA.SOLV>
2.16386

>  <SCORE.INTRA.SOLV.lig_0>
-70.101

>  <SCORE.INTRA.VDW>
0.517625

>  <SCORE.INTRA.VDW.0>
-3.39718

>  <SCORE.INTRA.norm>
0.0178785

>  <SCORE.RESTR>
10.1319

>  <SCORE.RESTR.CAVITY>
10.1319

>  <SCORE.RESTR.norm>
0.297998

>  <SCORE.SYSTEM>
0

>  <SCORE.SYSTEM.CONST>
0

>  <SCORE.SYSTEM.DIHEDRAL>
0

>  <SCORE.SYSTEM.SOLV>
0

>  <SCORE.SYSTEM.norm>
0

>  <SCORE.heavy>
34

>  <SCORE.norm>
0.25929

>  <RMSD>
9.635

$$$$
ligand
 OpenBabel11021811483D
libRbt.so/2013.1/901 2013/11/27
 34 36  0  0  0  0  0  0  0  0999 V2000
    8.8019    6.6228    2.0022 C   0  0  2  0  0  0  0  0  0  0  0  0
    7.5040    6.2729    2.5077 O   0  0  0  0  0  0  0  0  0  0  0  0
    6.5425    5.7883    6.6432 C   0  0  2  0  0  0  0  0  0  0  0  0
    6.3326    6.0671    8.0596 N   0  0  0  0  0  0  0  0  0  0  0  0
    3.4075    7.0513    6.9892 C   0  0  2  0  0  0  0  0  0  0  0  0
    8.9037    8.1898    1.9708 C   0  0  2  0  0  0  0  0  0  0  0  0
    8.7492    8.7589    3.3186 N   0  0  0  0  0  0  0  0  0  0  0  0
    8.0080    6.2133    6.2949 C   0  0  0  0  0  0  0  0  0  0  0  0
    2.8652    6.0806    8.0987 C   0  0  2  0  0  0  0  0  0  0  0  0
    3.9505    5.4674    8.7746 O   0  0  0  0  0  0  0  0  0  0  0  0
    7.8136    8.7539    1.0339 C   0  0  1  0  0  0  0  0  0  0  0  0
    7.9060   10.1873    0.9943 O   0  0  0  0  0  0  0  0  0  0  0  0
    8.2418    5.8928    4.7798 C   0  0  2  0  0  0  0  0  0  0  0  0
    9.6123    6.2793    4.3873 N   0  0  0  0  0  0  0  0  0  0  0  0
    1.9394    5.0005    7.4163 C   0  0  1  0  0  0  0  0  0  0  0  0
    1.4092    4.0404    8.4304 N   0  0  0  0  0  0  0  0  0  0  0  0
    7.9936    8.1330   -0.3717 C   0  0  2  0  0  0  0  0  0  0  0  0
    6.9776    8.6415   -1.2536 O   0  0  0  0  0  0  0  0  0  0  0  0
    7.2299    6.6572    3.8884 C   0  0  2  0  0  0  0  0  0  0  0  0
    0.7597    5.7291    6.6862 C   0  0  1  0  0  0  0  0  0  0  0  0
   -0.0178    6.4513    7.6375 O   0  0  0  0  0  0  0  0  0  0  0  0
    7.9015    6.5626   -0.2715 C   0  0  2  0  0  0  0  0  0  0  0  0
    8.9361    6.0565    0.6513 O   0  0  0  0  0  0  0  0  0  0  0  0
    5.7877    6.2663    4.2974 C   0  0  2  0  0  0  0  0  0  0  0  0
    4.8770    6.9932    3.4790 O   0  0  0  0  0  0  0  0  0  0  0  0
    1.3574    6.7243    5.6423 C   0  0  0  0  0  0  0  0  0  0  0  0
    2.2767    7.6855    6.2976 O   0  0  0  0  0  0  0  0  0  0  0  0
    8.1008    5.8815   -1.6508 C   0  0  2  0  0  0  0  0  0  0  0  0
    7.7018    4.5158   -1.5674 O   0  0  0  0  0  0  0  0  0  0  0  0
    5.5093    6.6196    5.7770 C   0  0  1  0  0  0  0  0  0  0  0  0
    4.1498    6.2127    6.0602 O   0  0  0  0  0  0  0  0  0  0  0  0
    9.5556    5.9203   -2.0886 C   0  0  0  0  0  0  0  0  0  0  0  0
   -0.1687    4.7489    5.9798 C   0  0  0  0  0  0  0  0  0  0  0  0
    2.3353    2.8946    8.5112 C   0  0  0  0  0  0  0  0  0  0  0  0
  1  2  1  6  0  0  0
  1  6  1  0  0  0  0
  1 23  1  0  0  0  0
  3  4  1  1  0  0  0
  3  8  1  0  0  0  0
  3 30  1  0  0  0  0
  5  9  1  0  0  0  0
  5 27  1  0  0  0  0
  5 31  1  6  0  0  0
  6  7  1  1  0  0  0
  6 11  1  0  0  0  0
  8 13  1  0  0  0  0
  9 10  1  6  0  0  0
  9 15  1  0  0  0  0
 11 12  1  6  0  0  0
 11 17  1  0  0  0  0
 13 14  1  6  0  0  0
 13 19  1  0  0  0  0
 15 16  1  1  0  0  0
 15 20  1  0  0  0  0
 16 34  1  0  0  0  0
 17 18  1  6  0  0  0
 17 22  1  0  0  0  0
 19  2  1  6  0  0  0
 19 24  1  0  0  0  0
 20 21  1  1  0  0  0
 20 26  1  0  0  0  0
 20 33  1  0  0  0  0
 22 23  1  1  0  0  0
 22 28  1  0  0  0  0
 24 25  1  6  0  0  0
 24 30  1  0  0  0  0
 26 27  1  0  0  0  0
 28 29  1  1  0  0  0
 28 32  1  0  0  0  0
 30 31  1  1  0  0  0
M  END
>  <CHROM.1>
-64.56620503,-62.61890524,-91.83950174,-166.45498183,98.77365073,-126.74800674
5.65870751,6.45231686,4.07316641,-0.86834822,0.10520025,1.69760658

>  <Name>
ligand

>  <RI>
0

>  <Rbt.Current_Directory>
/home/itssahil/PROJECTS/Mol_Feturizer/New_Systems/rnas/3TD1

>  <Rbt.Executable>
rbdock ($Id: //depot/dev/client3/rdock/2013.1/src/exe/rbdock.cxx#4 $)

>  <Rbt.Library>
libRbt.so (2013.1, Build901 2013/11/27)

>  <Rbt.Parameter_File>
/export/apps/rDock/src/rDock_2013.1_src/data/scripts/dock_solv.prm

>  <Rbt.Receptor>
prm/blind_docking_20.prm

>  <SCORE>
12.4414

>  <SCORE.INTER>
-5.82405

>  <SCORE.INTER.CONST>
1

>  <SCORE.INTER.POLAR>
0

>  <SCORE.INTER.ROT>
6

>  <SCORE.INTER.SOLV>
16.123

>  <SCORE.INTER.VDW>
-16.857

>  <SCORE.INTER.norm>
-0.171296

>  <SCORE.INTRA>
3.17451

>  <SCORE.INTRA.DIHEDRAL>
-5.98507

>  <SCORE.INTRA.DIHEDRAL.0>
19.5869

>  <SCORE.INTRA.POLAR>
0

>  <SCORE.INTRA.POLAR.0>
0

>  <SCORE.INTRA.REPUL>
0

>  <SCORE.INTRA.REPUL.0>
0

>  <SCORE.INTRA.SOLV>
4.29964

>  <SCORE.INTRA.SOLV.lig_0>
-70.101

>  <SCORE.INTRA.VDW>
4.01723

>  <SCORE.INTRA.VDW.0>
-3.39718

>  <SCORE.INTRA.norm>
0.0933679

>  <SCORE.RESTR>
15.091

>  <SCORE.RESTR.CAVITY>
15.091

>  <SCORE.RESTR.norm>
0.443853

>  <SCORE.SYSTEM>
0

>  <SCORE.SYSTEM.CONST>
0

>  <SCORE.SYSTEM.DIHEDRAL>
0

>  <SCORE.SYSTEM.SOLV>
0

>  <SCORE.SYSTEM.norm>
0

>  <SCORE.heavy>
34

>  <SCORE.norm>
0.365925

>  <RMSD>
9.640

$$$$
ligand
 OpenBabel11021811483D
libRbt.so/2013.1/901 2013/11/27
 34 36  0  0  0  0  0  0  0  0999 V2000
    8.5129    8.0711    1.9561 C   0  0  2  0  0  0  0  0  0  0  0  0
    7.6647    6.9892    2.3717 O   0  0  0  0  0  0  0  0  0  0  0  0
    6.3283    5.3980    6.1059 C   0  0  2  0  0  0  0  0  0  0  0  0
    6.0078    5.2702    7.5233 N   0  0  0  0  0  0  0  0  0  0  0  0
    3.1090    7.0827    6.1213 C   0  0  2  0  0  0  0  0  0  0  0  0
    8.3302    8.2631    0.4081 C   0  0  2  0  0  0  0  0  0  0  0  0
    6.9366    8.5968    0.0752 N   0  0  0  0  0  0  0  0  0  0  0  0
    7.8348    5.8096    6.0022 C   0  0  0  0  0  0  0  0  0  0  0  0
    3.1857    6.8055    7.6654 C   0  0  2  0  0  0  0  0  0  0  0  0
    4.5060    7.0320    8.1305 O   0  0  0  0  0  0  0  0  0  0  0  0
    8.7488    6.9675   -0.3204 C   0  0  1  0  0  0  0  0  0  0  0  0
    8.5917    7.1389   -1.7384 O   0  0  0  0  0  0  0  0  0  0  0  0
    8.1860    5.9243    4.4802 C   0  0  2  0  0  0  0  0  0  0  0  0
    9.6002    6.3179    4.3163 N   0  0  0  0  0  0  0  0  0  0  0  0
    2.7378    5.3167    7.9342 C   0  0  1  0  0  0  0  0  0  0  0  0
    2.8084    4.9972    9.3917 N   0  0  0  0  0  0  0  0  0  0  0  0
   10.2128    6.6355    0.0539 C   0  0  2  0  0  0  0  0  0  0  0  0
   10.6138    5.4239   -0.6094 O   0  0  0  0  0  0  0  0  0  0  0  0
    7.2878    6.9767    3.7814 C   0  0  2  0  0  0  0  0  0  0  0  0
    1.2764    5.1211    7.4034 C   0  0  1  0  0  0  0  0  0  0  0  0
    0.3922    5.9904    8.1059 O   0  0  0  0  0  0  0  0  0  0  0  0
   10.3353    6.4748    1.6172 C   0  0  2  0  0  0  0  0  0  0  0  0
    9.9021    7.7174    2.2854 O   0  0  0  0  0  0  0  0  0  0  0  0
    5.8006    6.5788    3.9546 C   0  0  2  0  0  0  0  0  0  0  0  0
    4.9952    7.5678    3.3216 O   0  0  0  0  0  0  0  0  0  0  0  0
    1.2471    5.4704    5.8820 C   0  0  0  0  0  0  0  0  0  0  0  0
    1.7371    6.8503    5.6492 O   0  0  0  0  0  0  0  0  0  0  0  0
   11.7907    6.1655    2.0555 C   0  0  2  0  0  0  0  0  0  0  0  0
   12.6738    7.1234    1.4778 O   0  0  0  0  0  0  0  0  0  0  0  0
    5.4095    6.5085    5.4491 C   0  0  1  0  0  0  0  0  0  0  0  0
    4.0149    6.1260    5.5036 O   0  0  0  0  0  0  0  0  0  0  0  0
   12.2309    4.7846    1.5983 C   0  0  0  0  0  0  0  0  0  0  0  0
    0.7799    3.6949    7.6066 C   0  0  0  0  0  0  0  0  0  0  0  0
    3.5166    3.7125    9.5497 C   0  0  0  0  0  0  0  0  0  0  0  0
  1  2  1  6  0  0  0
  1  6  1  0  0  0  0
  1 23  1  0  0  0  0
  3  4  1  1  0  0  0
  3  8  1  0  0  0  0
  3 30  1  0  0  0  0
  5  9  1  0  0  0  0
  5 27  1  0  0  0  0
  5 31  1  6  0  0  0
  6  7  1  1  0  0  0
  6 11  1  0  0  0  0
  8 13  1  0  0  0  0
  9 10  1  6  0  0  0
  9 15  1  0  0  0  0
 11 12  1  6  0  0  0
 11 17  1  0  0  0  0
 13 14  1  1  0  0  0
 13 19  1  0  0  0  0
 15 16  1  1  0  0  0
 15 20  1  0  0  0  0
 16 34  1  0  0  0  0
 17 18  1  6  0  0  0
 17 22  1  0  0  0  0
 19  2  1  6  0  0  0
 19 24  1  0  0  0  0
 20 21  1  1  0  0  0
 20 26  1  0  0  0  0
 20 33  1  0  0  0  0
 22 23  1  1  0  0  0
 22 28  1  0  0  0  0
 24 25  1  6  0  0  0
 24 30  1  0  0  0  0
 26 27  1  0  0  0  0
 28 29  1  6  0  0  0
 28 32  1  0  0  0  0
 30 31  1  6  0  0  0
M  END
>  <CHROM.1>
-157.16187781,-101.52714817,-131.85251741,51.32305831,125.61535266,-84.47055451
6.39008310,6.32121320,4.25137660,0.71338879,0.15617964,-1.20856567

>  <Name>
ligand

>  <RI>
0

>  <Rbt.Current_Directory>
/home/itssahil/PROJECTS/Mol_Feturizer/New_Systems/rnas/3TD1

>  <Rbt.Executable>
rbdock ($Id: //depot/dev/client3/rdock/2013.1/src/exe/rbdock.cxx#4 $)

>  <Rbt.Library>
libRbt.so (2013.1, Build901 2013/11/27)

>  <Rbt.Parameter_File>
/export/apps/rDock/src/rDock_2013.1_src/data/scripts/dock_solv.prm

>  <Rbt.Receptor>
prm/blind_docking_40.prm

>  <SCORE>
27.3596

>  <SCORE.INTER>
14.5273

>  <SCORE.INTER.CONST>
1

>  <SCORE.INTER.POLAR>
0

>  <SCORE.INTER.ROT>
6

>  <SCORE.INTER.SOLV>
18.4578

>  <SCORE.INTER.VDW>
-4.06773

>  <SCORE.INTER.norm>
0.427274

>  <SCORE.INTRA>
4.31111

>  <SCORE.INTRA.DIHEDRAL>
-0.735448

>  <SCORE.INTRA.DIHEDRAL.0>
19.5869

>  <SCORE.INTRA.POLAR>
0

>  <SCORE.INTRA.POLAR.0>
0

>  <SCORE.INTRA.REPUL>
0

>  <SCORE.INTRA.REPUL.0>
0

>  <SCORE.INTRA.SOLV>
4.91914

>  <SCORE.INTRA.SOLV.lig_0>
-70.101

>  <SCORE.INTRA.VDW>
2.21927

>  <SCORE.INTRA.VDW.0>
-3.39718

>  <SCORE.INTRA.norm>
0.126797

>  <SCORE.RESTR>
8.52114

>  <SCORE.RESTR.CAVITY>
8.52114

>  <SCORE.RESTR.norm>
0.250622

>  <SCORE.SYSTEM>
0

>  <SCORE.SYSTEM.CONST>
0

>  <SCORE.SYSTEM.DIHEDRAL>
0

>  <SCORE.SYSTEM.SOLV>
0

>  <SCORE.SYSTEM.norm>
0

>  <SCORE.heavy>
34

>  <SCORE.norm>
0.804693

>  <RMSD>
9.658

$$$$
ligand
 OpenBabel11021811483D
libRbt.so/2013.1/901 2013/11/27
 34 36  0  0  0  0  0  0  0  0999 V2000
    7.5092    7.2649    2.2377 C   0  0  2  0  0  0  0  0  0  0  0  0
    7.7631    6.3785    3.3387 O   0  0  0  0  0  0  0  0  0  0  0  0
    5.4093    5.4744    6.7890 C   0  0  2  0  0  0  0  0  0  0  0  0
    4.6847    5.6113    8.0476 N   0  0  0  0  0  0  0  0  0  0  0  0
    2.3075    6.8673    5.4383 C   0  0  2  0  0  0  0  0  0  0  0  0
    7.7963    6.4806    0.9077 C   0  0  2  0  0  0  0  0  0  0  0  0
    6.9194    5.3059    0.7841 N   0  0  0  0  0  0  0  0  0  0  0  0
    6.8701    5.9806    7.0327 C   0  0  0  0  0  0  0  0  0  0  0  0
    2.1592    7.2819    6.9460 C   0  0  2  0  0  0  0  0  0  0  0  0
    3.3700    7.8567    7.4089 O   0  0  0  0  0  0  0  0  0  0  0  0
    9.2753    6.0371    0.8852 C   0  0  1  0  0  0  0  0  0  0  0  0
    9.5471    5.3254   -0.3331 O   0  0  0  0  0  0  0  0  0  0  0  0
    7.6553    5.8123    5.6880 C   0  0  2  0  0  0  0  0  0  0  0  0
    9.0462    6.2811    5.8531 N   0  0  0  0  0  0  0  0  0  0  0  0
    1.7816    6.0015    7.7871 C   0  0  1  0  0  0  0  0  0  0  0  0
    1.6440    6.3407    9.2353 N   0  0  0  0  0  0  0  0  0  0  0  0
   10.1736    7.2888    1.0256 C   0  0  2  0  0  0  0  0  0  0  0  0
   11.5554    6.8900    1.0170 O   0  0  0  0  0  0  0  0  0  0  0  0
    6.9846    6.6216    4.5488 C   0  0  2  0  0  0  0  0  0  0  0  0
    0.4401    5.4078    7.2363 C   0  0  1  0  0  0  0  0  0  0  0  0
   -0.6036    6.3669    7.3845 O   0  0  0  0  0  0  0  0  0  0  0  0
    9.8252    8.0419    2.3658 C   0  0  2  0  0  0  0  0  0  0  0  0
    8.4006    8.4275    2.3697 O   0  0  0  0  0  0  0  0  0  0  0  0
    5.5213    6.1444    4.3725 C   0  0  2  0  0  0  0  0  0  0  0  0
    4.9209    6.9131    3.3351 O   0  0  0  0  0  0  0  0  0  0  0  0
    0.6264    5.0739    5.7226 C   0  0  0  0  0  0  0  0  0  0  0  0
    1.0474    6.2774    4.9659 O   0  0  0  0  0  0  0  0  0  0  0  0
   10.6794    9.3236    2.5490 C   0  0  2  0  0  0  0  0  0  0  0  0
   10.6152   10.1101    1.3622 O   0  0  0  0  0  0  0  0  0  0  0  0
    4.7053    6.3472    5.6703 C   0  0  1  0  0  0  0  0  0  0  0  0
    3.3653    5.8686    5.4063 O   0  0  0  0  0  0  0  0  0  0  0  0
   12.1383    8.9902    2.8137 C   0  0  0  0  0  0  0  0  0  0  0  0
    0.0206    4.1494    7.9862 C   0  0  0  0  0  0  0  0  0  0  0  0
    2.9952    6.5341    9.7955 C   0  0  0  0  0  0  0  0  0  0  0  0
  1  2  1  1  0  0  0
  1  6  1  0  0  0  0
  1 23  1  0  0  0  0
  3  4  1  1  0  0  0
  3  8  1  0  0  0  0
  3 30  1  0  0  0  0
  5  9  1  0  0  0  0
  5 27  1  0  0  0  0
  5 31  1  1  0  0  0
  6  7  1  1  0  0  0
  6 11  1  0  0  0  0
  8 13  1  0  0  0  0
  9 10  1  1  0  0  0
  9 15  1  0  0  0  0
 11 12  1  6  0  0  0
 11 17  1  0  0  0  0
 13 14  1  1  0  0  0
 13 19  1  0  0  0  0
 15 16  1  1  0  0  0
 15 20  1  0  0  0  0
 16 34  1  0  0  0  0
 17 18  1  1  0  0  0
 17 22  1  0  0  0  0
 19  2  1  6  0  0  0
 19 24  1  0  0  0  0
 20 21  1  1  0  0  0
 20 26  1  0  0  0  0
 20 33  1  0  0  0  0
 22 23  1  6  0  0  0
 22 28  1  0  0  0  0
 24 25  1  6  0  0  0
 24 30  1  0  0  0  0
 26 27  1  0  0  0  0
 28 29  1  6  0  0  0
 28 32  1  0  0  0  0
 30 31  1  6  0  0  0
M  END
>  <CHROM.1>
-150.99702051,-166.06627164,-74.70091358,50.30225415,129.03800971,-70.04012749
5.80225726,6.63707431,4.62381796,0.55110585,-0.29202828,-1.74415718

>  <Name>
ligand

>  <RI>
0

>  <Rbt.Current_Directory>
/home/itssahil/PROJECTS/Mol_Feturizer/New_Systems/rnas/3TD1

>  <Rbt.Executable>
rbdock ($Id: //depot/dev/client3/rdock/2013.1/src/exe/rbdock.cxx#4 $)

>  <Rbt.Library>
libRbt.so (2013.1, Build901 2013/11/27)

>  <Rbt.Parameter_File>
/export/apps/rDock/src/rDock_2013.1_src/data/scripts/dock_solv.prm

>  <Rbt.Receptor>
prm/blind_docking_40.prm

>  <SCORE>
27.2457

>  <SCORE.INTER>
15.6823

>  <SCORE.INTER.CONST>
1

>  <SCORE.INTER.POLAR>
0

>  <SCORE.INTER.ROT>
6

>  <SCORE.INTER.SOLV>
23.0402

>  <SCORE.INTER.VDW>
-4.82524

>  <SCORE.INTER.norm>
0.461243

>  <SCORE.INTRA>
3.89684

>  <SCORE.INTRA.DIHEDRAL>
-7.49849

>  <SCORE.INTRA.DIHEDRAL.0>
19.5869

>  <SCORE.INTRA.POLAR>
0

>  <SCORE.INTRA.POLAR.0>
0

>  <SCORE.INTRA.REPUL>
0

>  <SCORE.INTRA.REPUL.0>
0

>  <SCORE.INTRA.SOLV>
3.1379

>  <SCORE.INTRA.SOLV.lig_0>
-70.101

>  <SCORE.INTRA.VDW>
6.07713

>  <SCORE.INTRA.VDW.0>
-3.39718

>  <SCORE.INTRA.norm>
0.114613

>  <SCORE.RESTR>
7.6666

>  <SCORE.RESTR.CAVITY>
7.6666

>  <SCORE.RESTR.norm>
0.225488

>  <SCORE.SYSTEM>
0

>  <SCORE.SYSTEM.CONST>
0

>  <SCORE.SYSTEM.DIHEDRAL>
0

>  <SCORE.SYSTEM.SOLV>
0

>  <SCORE.SYSTEM.norm>
0

>  <SCORE.heavy>
34

>  <SCORE.norm>
0.801344

>  <RMSD>
9.680

$$$$
ligand
 OpenBabel11021811483D
libRbt.so/2013.1/901 2013/11/27
 34 36  0  0  0  0  0  0  0  0999 V2000
   11.6629    9.2949    1.5577 C   0  0  2  0  0  0  0  0  0  0  0  0
   10.9926    9.0945    0.3034 O   0  0  0  0  0  0  0  0  0  0  0  0
    7.0786    9.9462    1.7925 C   0  0  2  0  0  0  0  0  0  0  0  0
    5.6290   10.0814    1.8833 N   0  0  0  0  0  0  0  0  0  0  0  0
    6.8777    6.2568    2.7111 C   0  0  2  0  0  0  0  0  0  0  0  0
   13.0453    9.9802    1.2645 C   0  0  2  0  0  0  0  0  0  0  0  0
   12.8629   11.2847    0.6094 N   0  0  0  0  0  0  0  0  0  0  0  0
    7.5416   10.7215    0.5141 C   0  0  0  0  0  0  0  0  0  0  0  0
    5.7070    5.8814    3.6887 C   0  0  2  0  0  0  0  0  0  0  0  0
    4.5257    6.5694    3.3122 O   0  0  0  0  0  0  0  0  0  0  0  0
   13.8939    9.0547    0.3658 C   0  0  1  0  0  0  0  0  0  0  0  0
   15.1639    9.6723    0.1000 O   0  0  0  0  0  0  0  0  0  0  0  0
    9.1005   10.5964    0.4285 C   0  0  2  0  0  0  0  0  0  0  0  0
    9.5994   11.3062   -0.7668 N   0  0  0  0  0  0  0  0  0  0  0  0
    6.1372    6.2570    5.1595 C   0  0  1  0  0  0  0  0  0  0  0  0
    5.0481    5.9330    6.1291 N   0  0  0  0  0  0  0  0  0  0  0  0
   14.0622    7.6893    1.0736 C   0  0  2  0  0  0  0  0  0  0  0  0
   14.8424    6.8121    0.2428 O   0  0  0  0  0  0  0  0  0  0  0  0
    9.5342    9.1104    0.3475 C   0  0  2  0  0  0  0  0  0  0  0  0
    7.4433    5.4716    5.5243 C   0  0  1  0  0  0  0  0  0  0  0  0
    7.1880    4.0704    5.4745 O   0  0  0  0  0  0  0  0  0  0  0  0
   12.6440    7.0630    1.3578 C   0  0  2  0  0  0  0  0  0  0  0  0
   11.8474    7.9817    2.1942 O   0  0  0  0  0  0  0  0  0  0  0  0
    9.0083    8.3532    1.5925 C   0  0  2  0  0  0  0  0  0  0  0  0
    9.4023    6.9890    1.4873 O   0  0  0  0  0  0  0  0  0  0  0  0
    8.5505    5.8344    4.4851 C   0  0  0  0  0  0  0  0  0  0  0  0
    8.0958    5.5360    3.1057 O   0  0  0  0  0  0  0  0  0  0  0  0
   12.7489    5.7004    2.0915 C   0  0  2  0  0  0  0  0  0  0  0  0
   13.7699    4.9124    1.4849 O   0  0  0  0  0  0  0  0  0  0  0  0
    7.4653    8.4146    1.6757 C   0  0  1  0  0  0  0  0  0  0  0  0
    7.0769    7.6897    2.8665 O   0  0  0  0  0  0  0  0  0  0  0  0
   11.4460    4.9218    2.0141 C   0  0  0  0  0  0  0  0  0  0  0  0
    7.9364    5.8015    6.9278 C   0  0  0  0  0  0  0  0  0  0  0  0
    5.0004    7.0017    7.1453 C   0  0  0  0  0  0  0  0  0  0  0  0
  1  2  1  6  0  0  0
  1  6  1  0  0  0  0
  1 23  1  0  0  0  0
  3  4  1  6  0  0  0
  3  8  1  0  0  0  0
  3 30  1  0  0  0  0
  5  9  1  0  0  0  0
  5 27  1  0  0  0  0
  5 31  1  1  0  0  0
  6  7  1  6  0  0  0
  6 11  1  0  0  0  0
  8 13  1  0  0  0  0
  9 10  1  6  0  0  0
  9 15  1  0  0  0  0
 11 12  1  1  0  0  0
 11 17  1  0  0  0  0
 13 14  1  6  0  0  0
 13 19  1  0  0  0  0
 15 16  1  1  0  0  0
 15 20  1  0  0  0  0
 16 34  1  0  0  0  0
 17 18  1  6  0  0  0
 17 22  1  0  0  0  0
 19  2  1  1  0  0  0
 19 24  1  0  0  0  0
 20 21  1  6  0  0  0
 20 26  1  0  0  0  0
 20 33  1  0  0  0  0
 22 23  1  1  0  0  0
 22 28  1  0  0  0  0
 24 25  1  6  0  0  0
 24 30  1  0  0  0  0
 26 27  1  0  0  0  0
 28 29  1  6  0  0  0
 28 32  1  0  0  0  0
 30 31  1  1  0  0  0
M  END
>  <CHROM.1>
-150.67698234,78.13397776,-141.45981210,-44.31032533,156.55986762,-145.56250615
9.51793921,7.63939394,2.36704737,0.53326401,0.28588282,-0.61903846

>  <Name>
ligand

>  <RI>
0

>  <Rbt.Current_Directory>
/home/itssahil/PROJECTS/Mol_Feturizer/New_Systems/rnas/3TD1

>  <Rbt.Executable>
rbdock ($Id: //depot/dev/client3/rdock/2013.1/src/exe/rbdock.cxx#4 $)

>  <Rbt.Library>
libRbt.so (2013.1, Build901 2013/11/27)

>  <Rbt.Parameter_File>
/export/apps/rDock/src/rDock_2013.1_src/data/scripts/dock_solv.prm

>  <Rbt.Receptor>
prm/blind_docking_40.prm

>  <SCORE>
23.5418

>  <SCORE.INTER>
14.9738

>  <SCORE.INTER.CONST>
1

>  <SCORE.INTER.POLAR>
0

>  <SCORE.INTER.ROT>
6

>  <SCORE.INTER.SOLV>
30.6017

>  <SCORE.INTER.VDW>
-7.81802

>  <SCORE.INTER.norm>
0.440406

>  <SCORE.INTRA>
-1.26005

>  <SCORE.INTRA.DIHEDRAL>
-6.03925

>  <SCORE.INTRA.DIHEDRAL.0>
19.5869

>  <SCORE.INTRA.POLAR>
0

>  <SCORE.INTRA.POLAR.0>
0

>  <SCORE.INTRA.REPUL>
0

>  <SCORE.INTRA.REPUL.0>
0

>  <SCORE.INTRA.SOLV>
-0.680576

>  <SCORE.INTRA.SOLV.lig_0>
-70.101

>  <SCORE.INTRA.VDW>
2.09987

>  <SCORE.INTRA.VDW.0>
-3.39718

>  <SCORE.INTRA.norm>
-0.0370603

>  <SCORE.RESTR>
9.82807

>  <SCORE.RESTR.CAVITY>
9.82807

>  <SCORE.RESTR.norm>
0.289061

>  <SCORE.SYSTEM>
0

>  <SCORE.SYSTEM.CONST>
0

>  <SCORE.SYSTEM.DIHEDRAL>
0

>  <SCORE.SYSTEM.SOLV>
0

>  <SCORE.SYSTEM.norm>
0

>  <SCORE.heavy>
34

>  <SCORE.norm>
0.692407

>  <RMSD>
9.684

$$$$
ligand
 OpenBabel11021811483D
libRbt.so/2013.1/901 2013/11/27
 34 36  0  0  0  0  0  0  0  0999 V2000
    8.6737    7.6815    2.7635 C   0  0  2  0  0  0  0  0  0  0  0  0
    7.6590    6.7082    3.0560 O   0  0  0  0  0  0  0  0  0  0  0  0
    5.6897    5.4025    6.6168 C   0  0  2  0  0  0  0  0  0  0  0  0
    5.1270    5.3839    7.9625 N   0  0  0  0  0  0  0  0  0  0  0  0
    2.5212    6.9918    6.0556 C   0  0  2  0  0  0  0  0  0  0  0  0
    8.1904    8.5314    1.5344 C   0  0  2  0  0  0  0  0  0  0  0  0
    6.9323    9.2321    1.8352 N   0  0  0  0  0  0  0  0  0  0  0  0
    7.1920    5.8229    6.7437 C   0  0  0  0  0  0  0  0  0  0  0  0
    2.5545    6.8689    7.6212 C   0  0  2  0  0  0  0  0  0  0  0  0
    3.8351    7.2374    8.1061 O   0  0  0  0  0  0  0  0  0  0  0  0
    7.9966    7.6030    0.3158 C   0  0  1  0  0  0  0  0  0  0  0  0
    7.5619    8.3756   -0.8150 O   0  0  0  0  0  0  0  0  0  0  0  0
    7.8031    5.8207    5.3016 C   0  0  2  0  0  0  0  0  0  0  0  0
    9.2249    6.2173    5.3549 N   0  0  0  0  0  0  0  0  0  0  0  0
    2.2041    5.3827    8.0187 C   0  0  1  0  0  0  0  0  0  0  0  0
    2.2380    5.2091    9.5019 N   0  0  0  0  0  0  0  0  0  0  0  0
    9.3300    6.8732    0.0277 C   0  0  2  0  0  0  0  0  0  0  0  0
    9.1619    5.9958   -1.0995 O   0  0  0  0  0  0  0  0  0  0  0  0
    7.0422    6.8031    4.3750 C   0  0  2  0  0  0  0  0  0  0  0  0
    0.7835    5.0279    7.4605 C   0  0  1  0  0  0  0  0  0  0  0  0
   -0.1888    5.8907    8.0447 O   0  0  0  0  0  0  0  0  0  0  0  0
    9.7714    6.0562    1.3014 C   0  0  2  0  0  0  0  0  0  0  0  0
    9.9208    6.9653    2.4544 O   0  0  0  0  0  0  0  0  0  0  0  0
    5.5469    6.4021    4.3186 C   0  0  2  0  0  0  0  0  0  0  0  0
    4.8658    7.3277    3.4779 O   0  0  0  0  0  0  0  0  0  0  0  0
    0.7912    5.2283    5.9122 C   0  0  0  0  0  0  0  0  0  0  0  0
    1.1899    6.6129    5.5626 O   0  0  0  0  0  0  0  0  0  0  0  0
   11.1194    5.3215    1.0800 C   0  0  2  0  0  0  0  0  0  0  0  0
   11.3395    4.4025    2.1469 O   0  0  0  0  0  0  0  0  0  0  0  0
    4.9013    6.4459    5.7232 C   0  0  1  0  0  0  0  0  0  0  0  0
    3.5178    6.0520    5.5651 O   0  0  0  0  0  0  0  0  0  0  0  0
   12.2874    6.2934    1.0483 C   0  0  0  0  0  0  0  0  0  0  0  0
    0.3828    3.5941    7.7851 C   0  0  0  0  0  0  0  0  0  0  0  0
    3.0043    3.9857    9.8069 C   0  0  0  0  0  0  0  0  0  0  0  0
  1  2  1  6  0  0  0
  1  6  1  0  0  0  0
  1 23  1  0  0  0  0
  3  4  1  1  0  0  0
  3  8  1  0  0  0  0
  3 30  1  0  0  0  0
  5  9  1  0  0  0  0
  5 27  1  0  0  0  0
  5 31  1  6  0  0  0
  6  7  1  1  0  0  0
  6 11  1  0  0  0  0
  8 13  1  0  0  0  0
  9 10  1  6  0  0  0
  9 15  1  0  0  0  0
 11 12  1  6  0  0  0
 11 17  1  0  0  0  0
 13 14  1  1  0  0  0
 13 19  1  0  0  0  0
 15 16  1  1  0  0  0
 15 20  1  0  0  0  0
 16 34  1  0  0  0  0
 17 18  1  6  0  0  0
 17 22  1  0  0  0  0
 19  2  1  6  0  0  0
 19 24  1  0  0  0  0
 20 21  1  1  0  0  0
 20 26  1  0  0  0  0
 20 33  1  0  0  0  0
 22 23  1  1  0  0  0
 22 28  1  0  0  0  0
 24 25  1  6  0  0  0
 24 30  1  0  0  0  0
 26 27  1  0  0  0  0
 28 29  1  1  0  0  0
 28 32  1  0  0  0  0
 30 31  1  6  0  0  0
M  END
>  <CHROM.1>
-118.41637545,-95.10576992,-133.09009264,-168.77801829,119.93211007,-74.70937667
5.88170120,6.28382451,4.53695607,0.69309155,0.19536644,-1.15968663

>  <Name>
ligand

>  <RI>
0

>  <Rbt.Current_Directory>
/home/itssahil/PROJECTS/Mol_Feturizer/New_Systems/rnas/3TD1

>  <Rbt.Executable>
rbdock ($Id: //depot/dev/client3/rdock/2013.1/src/exe/rbdock.cxx#4 $)

>  <Rbt.Library>
libRbt.so (2013.1, Build901 2013/11/27)

>  <Rbt.Parameter_File>
/export/apps/rDock/src/rDock_2013.1_src/data/scripts/dock_solv.prm

>  <Rbt.Receptor>
prm/blind_docking_40.prm

>  <SCORE>
22.0333

>  <SCORE.INTER>
6.96031

>  <SCORE.INTER.CONST>
1

>  <SCORE.INTER.POLAR>
0

>  <SCORE.INTER.ROT>
6

>  <SCORE.INTER.SOLV>
20.2648

>  <SCORE.INTER.VDW>
-9.71473

>  <SCORE.INTER.norm>
0.204715

>  <SCORE.INTRA>
6.61898

>  <SCORE.INTRA.DIHEDRAL>
1.85339

>  <SCORE.INTRA.DIHEDRAL.0>
19.5869

>  <SCORE.INTRA.POLAR>
0

>  <SCORE.INTRA.POLAR.0>
0

>  <SCORE.INTRA.REPUL>
0

>  <SCORE.INTRA.REPUL.0>
0

>  <SCORE.INTRA.SOLV>
4.27424

>  <SCORE.INTRA.SOLV.lig_0>
-70.101

>  <SCORE.INTRA.VDW>
3.55517

>  <SCORE.INTRA.VDW.0>
-3.39718

>  <SCORE.INTRA.norm>
0.194676

>  <SCORE.RESTR>
8.45405

>  <SCORE.RESTR.CAVITY>
8.45405

>  <SCORE.RESTR.norm>
0.248649

>  <SCORE.SYSTEM>
0

>  <SCORE.SYSTEM.CONST>
0

>  <SCORE.SYSTEM.DIHEDRAL>
0

>  <SCORE.SYSTEM.SOLV>
0

>  <SCORE.SYSTEM.norm>
0

>  <SCORE.heavy>
34

>  <SCORE.norm>
0.648039

>  <RMSD>
9.685

$$$$
ligand
 OpenBabel11021811483D
libRbt.so/2013.1/901 2013/11/27
 34 36  0  0  0  0  0  0  0  0999 V2000
    8.7566    7.8109    2.7437 C   0  0  2  0  0  0  0  0  0  0  0  0
    7.8709    6.7335    3.0859 O   0  0  0  0  0  0  0  0  0  0  0  0
    5.9097    5.3509    6.6220 C   0  0  2  0  0  0  0  0  0  0  0  0
    5.3592    5.2994    7.9719 N   0  0  0  0  0  0  0  0  0  0  0  0
    2.7666    7.0394    6.1010 C   0  0  2  0  0  0  0  0  0  0  0  0
    8.1473    8.5659    1.5087 C   0  0  2  0  0  0  0  0  0  0  0  0
    6.8230    9.1221    1.8269 N   0  0  0  0  0  0  0  0  0  0  0  0
    7.4210    5.7383    6.7476 C   0  0  0  0  0  0  0  0  0  0  0  0
    2.6773    6.8068    7.6518 C   0  0  2  0  0  0  0  0  0  0  0  0
    3.9376    7.0602    8.2503 O   0  0  0  0  0  0  0  0  0  0  0  0
    8.0348    7.5896    0.3176 C   0  0  1  0  0  0  0  0  0  0  0  0
    7.4851    8.2761   -0.8187 O   0  0  0  0  0  0  0  0  0  0  0  0
    8.0186    5.7711    5.3003 C   0  0  2  0  0  0  0  0  0  0  0  0
    9.4482    6.1387    5.3522 N   0  0  0  0  0  0  0  0  0  0  0  0
    2.2139    5.3215    7.9139 C   0  0  1  0  0  0  0  0  0  0  0  0
    2.1283    5.0440    9.3792 N   0  0  0  0  0  0  0  0  0  0  0  0
    9.4375    7.0136    0.0106 C   0  0  2  0  0  0  0  0  0  0  0  0
    9.3468    6.0933   -1.0910 O   0  0  0  0  0  0  0  0  0  0  0  0
    7.2683    6.7974    4.4133 C   0  0  2  0  0  0  0  0  0  0  0  0
    0.8203    5.0955    7.2339 C   0  0  1  0  0  0  0  0  0  0  0  0
   -0.1414    5.9749    7.8108 O   0  0  0  0  0  0  0  0  0  0  0  0
   10.0025    6.2876    1.2906 C   0  0  2  0  0  0  0  0  0  0  0  0
   10.0715    7.2378    2.4177 O   0  0  0  0  0  0  0  0  0  0  0  0
    5.7650    6.4269    4.3587 C   0  0  2  0  0  0  0  0  0  0  0  0
    5.0942    7.3920    3.5551 O   0  0  0  0  0  0  0  0  0  0  0  0
    0.9536    5.4014    5.7087 C   0  0  0  0  0  0  0  0  0  0  0  0
    1.4557    6.7793    5.4902 O   0  0  0  0  0  0  0  0  0  0  0  0
   11.4219    5.7102    1.0500 C   0  0  2  0  0  0  0  0  0  0  0  0
   11.4914    5.1526   -0.2598 O   0  0  0  0  0  0  0  0  0  0  0  0
    5.1334    6.4375    5.7703 C   0  0  1  0  0  0  0  0  0  0  0  0
    3.7412    6.0753    5.6132 O   0  0  0  0  0  0  0  0  0  0  0  0
   11.7553    4.6123    2.0466 C   0  0  0  0  0  0  0  0  0  0  0  0
    0.3152    3.6705    7.4237 C   0  0  0  0  0  0  0  0  0  0  0  0
    3.1805    4.0703    9.7277 C   0  0  0  0  0  0  0  0  0  0  0  0
  1  2  1  6  0  0  0
  1  6  1  0  0  0  0
  1 23  1  0  0  0  0
  3  4  1  1  0  0  0
  3  8  1  0  0  0  0
  3 30  1  0  0  0  0
  5  9  1  0  0  0  0
  5 27  1  0  0  0  0
  5 31  1  6  0  0  0
  6  7  1  1  0  0  0
  6 11  1  0  0  0  0
  8 13  1  0  0  0  0
  9 10  1  1  0  0  0
  9 15  1  0  0  0  0
 11 12  1  6  0  0  0
 11 17  1  0  0  0  0
 13 14  1  1  0  0  0
 13 19  1  0  0  0  0
 15 16  1  1  0  0  0
 15 20  1  0  0  0  0
 16 34  1  0  0  0  0
 17 18  1  6  0  0  0
 17 22  1  0  0  0  0
 19  2  1  6  0  0  0
 19 24  1  0  0  0  0
 20 21  1  1  0  0  0
 20 26  1  0  0  0  0
 20 33  1  0  0  0  0
 22 23  1  1  0  0  0
 22 28  1  0  0  0  0
 24 25  1  6  0  0  0
 24 30  1  0  0  0  0
 26 27  1  0  0  0  0
 28 29  1  6  0  0  0
 28 32  1  0  0  0  0
 30 31  1  6  0  0  0
M  END
>  <CHROM.1>
-117.80080130,-103.90322463,-112.50835550,-39.71464133,122.03531492,-80.99218114
5.99644444,6.28810648,4.45831163,0.70031290,0.19391198,-1.17906280

>  <Name>
ligand

>  <RI>
0

>  <Rbt.Current_Directory>
/home/itssahil/PROJECTS/Mol_Feturizer/New_Systems/rnas/3TD1

>  <Rbt.Executable>
rbdock ($Id: //depot/dev/client3/rdock/2013.1/src/exe/rbdock.cxx#4 $)

>  <Rbt.Library>
libRbt.so (2013.1, Build901 2013/11/27)

>  <Rbt.Parameter_File>
/export/apps/rDock/src/rDock_2013.1_src/data/scripts/dock_solv.prm

>  <Rbt.Receptor>
prm/blind_docking_40.prm

>  <SCORE>
22.8639

>  <SCORE.INTER>
6.19235

>  <SCORE.INTER.CONST>
1

>  <SCORE.INTER.POLAR>
0

>  <SCORE.INTER.ROT>
6

>  <SCORE.INTER.SOLV>
19.684

>  <SCORE.INTER.VDW>
-10.0331

>  <SCORE.INTER.norm>
0.182128

>  <SCORE.INTRA>
7.26954

>  <SCORE.INTRA.DIHEDRAL>
5.23676

>  <SCORE.INTRA.DIHEDRAL.0>
19.5869

>  <SCORE.INTRA.POLAR>
0

>  <SCORE.INTRA.POLAR.0>
0

>  <SCORE.INTRA.REPUL>
0

>  <SCORE.INTRA.REPUL.0>
0

>  <SCORE.INTRA.SOLV>
4.62528

>  <SCORE.INTRA.SOLV.lig_0>
-70.101

>  <SCORE.INTRA.VDW>
2.33852

>  <SCORE.INTRA.VDW.0>
-3.39718

>  <SCORE.INTRA.norm>
0.21381

>  <SCORE.RESTR>
9.40204

>  <SCORE.RESTR.CAVITY>
9.40204

>  <SCORE.RESTR.norm>
0.276531

>  <SCORE.SYSTEM>
0

>  <SCORE.SYSTEM.CONST>
0

>  <SCORE.SYSTEM.DIHEDRAL>
0

>  <SCORE.SYSTEM.SOLV>
0

>  <SCORE.SYSTEM.norm>
0

>  <SCORE.heavy>
34

>  <SCORE.norm>
0.672468

>  <RMSD>
9.688

$$$$
ligand
 OpenBabel11021811483D
libRbt.so/2013.1/901 2013/11/27
 34 36  0  0  0  0  0  0  0  0999 V2000
   11.2778    6.0147    0.7445 C   0  0  2  0  0  0  0  0  0  0  0  0
   10.8302    6.8978    1.7849 O   0  0  0  0  0  0  0  0  0  0  0  0
    7.3554    9.2185    2.6803 C   0  0  2  0  0  0  0  0  0  0  0  0
    6.0349    9.8310    2.5847 N   0  0  0  0  0  0  0  0  0  0  0  0
    5.9594    5.9669    4.1287 C   0  0  2  0  0  0  0  0  0  0  0  0
   12.2193    4.9384    1.3940 C   0  0  2  0  0  0  0  0  0  0  0  0
   11.5040    4.1513    2.4104 N   0  0  0  0  0  0  0  0  0  0  0  0
    8.1297    9.5684    1.3659 C   0  0  0  0  0  0  0  0  0  0  0  0
    4.4908    6.1517    4.6543 C   0  0  2  0  0  0  0  0  0  0  0  0
    3.7453    6.9340    3.7361 O   0  0  0  0  0  0  0  0  0  0  0  0
   13.4352    5.6427    2.0342 C   0  0  1  0  0  0  0  0  0  0  0  0
   14.3052    4.6628    2.6237 O   0  0  0  0  0  0  0  0  0  0  0  0
    9.5558    8.9307    1.4777 C   0  0  2  0  0  0  0  0  0  0  0  0
   10.3366    9.2225    0.2584 N   0  0  0  0  0  0  0  0  0  0  0  0
    4.5450    6.8408    6.0727 C   0  0  1  0  0  0  0  0  0  0  0  0
    3.1680    7.0538    6.6111 N   0  0  0  0  0  0  0  0  0  0  0  0
   14.1626    6.4689    0.9470 C   0  0  2  0  0  0  0  0  0  0  0  0
   15.2924    7.1400    1.5314 O   0  0  0  0  0  0  0  0  0  0  0  0
    9.4638    7.3941    1.6593 C   0  0  2  0  0  0  0  0  0  0  0  0
    5.3773    5.9377    7.0460 C   0  0  1  0  0  0  0  0  0  0  0  0
    4.7395    4.6710    7.1857 O   0  0  0  0  0  0  0  0  0  0  0  0
   13.1631    7.5148    0.3210 C   0  0  2  0  0  0  0  0  0  0  0  0
   11.9997    6.8143   -0.2570 O   0  0  0  0  0  0  0  0  0  0  0  0
    8.6386    7.0757    2.9311 C   0  0  2  0  0  0  0  0  0  0  0  0
    8.5521    5.6610    3.0671 O   0  0  0  0  0  0  0  0  0  0  0  0
    6.8034    5.7367    6.4434 C   0  0  0  0  0  0  0  0  0  0  0  0
    6.7227    5.1516    5.0834 O   0  0  0  0  0  0  0  0  0  0  0  0
   13.8314    8.3576   -0.7966 C   0  0  2  0  0  0  0  0  0  0  0  0
   13.0086    9.4812   -1.0996 O   0  0  0  0  0  0  0  0  0  0  0  0
    7.2059    7.6485    2.8279 C   0  0  1  0  0  0  0  0  0  0  0  0
    6.5240    7.3061    4.0575 O   0  0  0  0  0  0  0  0  0  0  0  0
   14.0139    7.5512   -2.0717 C   0  0  0  0  0  0  0  0  0  0  0  0
    5.4950    6.5512    8.4358 C   0  0  0  0  0  0  0  0  0  0  0  0
    2.4084    5.7995    6.4477 C   0  0  0  0  0  0  0  0  0  0  0  0
  1  2  1  1  0  0  0
  1  6  1  0  0  0  0
  1 23  1  0  0  0  0
  3  4  1  6  0  0  0
  3  8  1  0  0  0  0
  3 30  1  0  0  0  0
  5  9  1  0  0  0  0
  5 27  1  0  0  0  0
  5 31  1  1  0  0  0
  6  7  1  1  0  0  0
  6 11  1  0  0  0  0
  8 13  1  0  0  0  0
  9 10  1  6  0  0  0
  9 15  1  0  0  0  0
 11 12  1  6  0  0  0
 11 17  1  0  0  0  0
 13 14  1  6  0  0  0
 13 19  1  0  0  0  0
 15 16  1  1  0  0  0
 15 20  1  0  0  0  0
 16 34  1  0  0  0  0
 17 18  1  1  0  0  0
 17 22  1  0  0  0  0
 19  2  1  1  0  0  0
 19 24  1  0  0  0  0
 20 21  1  1  0  0  0
 20 26  1  0  0  0  0
 20 33  1  0  0  0  0
 22 23  1  6  0  0  0
 22 28  1  0  0  0  0
 24 25  1  6  0  0  0
 24 30  1  0  0  0  0
 26 27  1  0  0  0  0
 28 29  1  6  0  0  0
 28 32  1  0  0  0  0
 30 31  1  1  0  0  0
M  END
>  <CHROM.1>
-144.35552685,-116.11117084,47.51839460,-166.13605513,161.68806628,-131.96043811
8.95919082,6.87243421,2.89778734,-0.44759479,-0.38439188,2.37037692

>  <Name>
ligand

>  <RI>
0

>  <Rbt.Current_Directory>
/home/itssahil/PROJECTS/Mol_Feturizer/New_Systems/rnas/3TD1

>  <Rbt.Executable>
rbdock ($Id: //depot/dev/client3/rdock/2013.1/src/exe/rbdock.cxx#4 $)

>  <Rbt.Library>
libRbt.so (2013.1, Build901 2013/11/27)

>  <Rbt.Parameter_File>
/export/apps/rDock/src/rDock_2013.1_src/data/scripts/dock_solv.prm

>  <Rbt.Receptor>
prm/blind_docking_100.prm

>  <SCORE>
38.8579

>  <SCORE.INTER>
21.5464

>  <SCORE.INTER.CONST>
1

>  <SCORE.INTER.POLAR>
0

>  <SCORE.INTER.ROT>
6

>  <SCORE.INTER.SOLV>
29.5934

>  <SCORE.INTER.VDW>
-3.10023

>  <SCORE.INTER.norm>
0.633716

>  <SCORE.INTRA>
6.58216

>  <SCORE.INTRA.DIHEDRAL>
1.076

>  <SCORE.INTRA.DIHEDRAL.0>
19.5869

>  <SCORE.INTRA.POLAR>
0

>  <SCORE.INTRA.POLAR.0>
0

>  <SCORE.INTRA.REPUL>
0

>  <SCORE.INTRA.REPUL.0>
0

>  <SCORE.INTRA.SOLV>
0.915431

>  <SCORE.INTRA.SOLV.lig_0>
-70.101

>  <SCORE.INTRA.VDW>
5.58644

>  <SCORE.INTRA.VDW.0>
-3.39718

>  <SCORE.INTRA.norm>
0.193593

>  <SCORE.RESTR>
10.7294

>  <SCORE.RESTR.CAVITY>
10.7294

>  <SCORE.RESTR.norm>
0.315571

>  <SCORE.SYSTEM>
0

>  <SCORE.SYSTEM.CONST>
0

>  <SCORE.SYSTEM.DIHEDRAL>
0

>  <SCORE.SYSTEM.SOLV>
0

>  <SCORE.SYSTEM.norm>
0

>  <SCORE.heavy>
34

>  <SCORE.norm>
1.14288

>  <RMSD>
9.689

$$$$
ligand
 OpenBabel11021811483D
libRbt.so/2013.1/901 2013/11/27
 34 36  0  0  0  0  0  0  0  0999 V2000
   11.3885    8.4773    0.7047 C   0  0  2  0  0  0  0  0  0  0  0  0
   10.6352    8.4041    1.9253 O   0  0  0  0  0  0  0  0  0  0  0  0
    6.5633    9.5498    2.5325 C   0  0  2  0  0  0  0  0  0  0  0  0
    5.1147    9.6470    2.3912 N   0  0  0  0  0  0  0  0  0  0  0  0
    6.5064    6.4189    4.7567 C   0  0  2  0  0  0  0  0  0  0  0  0
   10.8100    7.4056   -0.2870 C   0  0  2  0  0  0  0  0  0  0  0  0
    9.3938    7.6686   -0.5860 N   0  0  0  0  0  0  0  0  0  0  0  0
    7.1916    9.8580    1.1325 C   0  0  0  0  0  0  0  0  0  0  0  0
    5.2111    5.7114    4.2192 C   0  0  2  0  0  0  0  0  0  0  0  0
    5.1916    5.7543    2.8020 O   0  0  0  0  0  0  0  0  0  0  0  0
   10.9640    5.9999    0.3332 C   0  0  1  0  0  0  0  0  0  0  0  0
   10.4437    5.0132   -0.5727 O   0  0  0  0  0  0  0  0  0  0  0  0
    8.7479    9.7767    1.2886 C   0  0  2  0  0  0  0  0  0  0  0  0
    9.4008   10.0534   -0.0070 N   0  0  0  0  0  0  0  0  0  0  0  0
    3.9494    6.4393    4.8257 C   0  0  1  0  0  0  0  0  0  0  0  0
    2.6873    5.8119    4.3310 N   0  0  0  0  0  0  0  0  0  0  0  0
   12.4591    5.7535    0.6455 C   0  0  2  0  0  0  0  0  0  0  0  0
   12.6170    4.4508    1.2342 O   0  0  0  0  0  0  0  0  0  0  0  0
    9.1836    8.3728    1.7806 C   0  0  2  0  0  0  0  0  0  0  0  0
    4.0200    6.3626    6.3892 C   0  0  1  0  0  0  0  0  0  0  0  0
    3.9942    4.9990    6.8026 O   0  0  0  0  0  0  0  0  0  0  0  0
   12.9850    6.8694    1.6266 C   0  0  2  0  0  0  0  0  0  0  0  0
   12.7987    8.2013    1.0187 O   0  0  0  0  0  0  0  0  0  0  0  0
    8.4973    8.0676    3.1356 C   0  0  2  0  0  0  0  0  0  0  0  0
    8.8972    6.7680    3.5581 O   0  0  0  0  0  0  0  0  0  0  0  0
    5.3537    7.0226    6.8616 C   0  0  0  0  0  0  0  0  0  0  0  0
    6.5206    6.3655    6.2250 O   0  0  0  0  0  0  0  0  0  0  0  0
   14.4898    6.6885    1.9565 C   0  0  2  0  0  0  0  0  0  0  0  0
   15.2434    6.6839    0.7469 O   0  0  0  0  0  0  0  0  0  0  0  0
    6.9569    8.0889    3.0012 C   0  0  1  0  0  0  0  0  0  0  0  0
    6.4142    7.8011    4.3115 O   0  0  0  0  0  0  0  0  0  0  0  0
   14.7504    5.3763    2.6776 C   0  0  0  0  0  0  0  0  0  0  0  0
    2.8423    7.0679    7.0505 C   0  0  0  0  0  0  0  0  0  0  0  0
    1.7000    6.8827    4.0952 C   0  0  0  0  0  0  0  0  0  0  0  0
  1  2  1  1  0  0  0
  1  6  1  0  0  0  0
  1 23  1  0  0  0  0
  3  4  1  6  0  0  0
  3  8  1  0  0  0  0
  3 30  1  0  0  0  0
  5  9  1  0  0  0  0
  5 27  1  0  0  0  0
  5 31  1  1  0  0  0
  6  7  1  1  0  0  0
  6 11  1  0  0  0  0
  8 13  1  0  0  0  0
  9 10  1  6  0  0  0
  9 15  1  0  0  0  0
 11 12  1  6  0  0  0
 11 17  1  0  0  0  0
 13 14  1  6  0  0  0
 13 19  1  0  0  0  0
 15 16  1  6  0  0  0
 15 20  1  0  0  0  0
 16 34  1  0  0  0  0
 17 18  1  1  0  0  0
 17 22  1  0  0  0  0
 19  2  1  1  0  0  0
 19 24  1  0  0  0  0
 20 21  1  1  0  0  0
 20 26  1  0  0  0  0
 20 33  1  0  0  0  0
 22 23  1  6  0  0  0
 22 28  1  0  0  0  0
 24 25  1  6  0  0  0
 24 30  1  0  0  0  0
 26 27  1  0  0  0  0
 28 29  1  6  0  0  0
 28 32  1  0  0  0  0
 30 31  1  1  0  0  0
M  END
>  <CHROM.1>
-47.35695937,-69.82841083,-141.75264278,56.84134401,169.75255158,-87.95667014
8.37014184,7.13318347,2.74833057,0.33486620,0.32597814,-0.79479962

>  <Name>
ligand

>  <RI>
0

>  <Rbt.Current_Directory>
/home/itssahil/PROJECTS/Mol_Feturizer/New_Systems/rnas/3TD1

>  <Rbt.Executable>
rbdock ($Id: //depot/dev/client3/rdock/2013.1/src/exe/rbdock.cxx#4 $)

>  <Rbt.Library>
libRbt.so (2013.1, Build901 2013/11/27)

>  <Rbt.Parameter_File>
/export/apps/rDock/src/rDock_2013.1_src/data/scripts/dock_solv.prm

>  <Rbt.Receptor>
prm/blind_docking_20.prm

>  <SCORE>
39.4909

>  <SCORE.INTER>
30.6939

>  <SCORE.INTER.CONST>
1

>  <SCORE.INTER.POLAR>
0

>  <SCORE.INTER.ROT>
6

>  <SCORE.INTER.SOLV>
31.45

>  <SCORE.INTER.VDW>
2.37929

>  <SCORE.INTER.norm>
0.902763

>  <SCORE.INTRA>
4.12657

>  <SCORE.INTRA.DIHEDRAL>
-13.6991

>  <SCORE.INTRA.DIHEDRAL.0>
19.5869

>  <SCORE.INTRA.POLAR>
0

>  <SCORE.INTRA.POLAR.0>
0

>  <SCORE.INTRA.REPUL>
0

>  <SCORE.INTRA.REPUL.0>
0

>  <SCORE.INTRA.SOLV>
4.46063

>  <SCORE.INTRA.SOLV.lig_0>
-70.101

>  <SCORE.INTRA.VDW>
8.74579

>  <SCORE.INTRA.VDW.0>
-3.39718

>  <SCORE.INTRA.norm>
0.12137

>  <SCORE.RESTR>
4.67039

>  <SCORE.RESTR.CAVITY>
4.67039

>  <SCORE.RESTR.norm>
0.137364

>  <SCORE.SYSTEM>
0

>  <SCORE.SYSTEM.CONST>
0

>  <SCORE.SYSTEM.DIHEDRAL>
0

>  <SCORE.SYSTEM.SOLV>
0

>  <SCORE.SYSTEM.norm>
0

>  <SCORE.heavy>
34

>  <SCORE.norm>
1.1615

>  <RMSD>
9.711

$$$$
ligand
 OpenBabel11021811483D
libRbt.so/2013.1/901 2013/11/27
 34 36  0  0  0  0  0  0  0  0999 V2000
    8.6581    7.6648    2.8002 C   0  0  2  0  0  0  0  0  0  0  0  0
    7.6352    6.6978    3.0849 O   0  0  0  0  0  0  0  0  0  0  0  0
    5.5926    5.4673    6.6311 C   0  0  2  0  0  0  0  0  0  0  0  0
    4.9929    5.4804    7.9608 N   0  0  0  0  0  0  0  0  0  0  0  0
    2.4109    6.9746    5.9295 C   0  0  2  0  0  0  0  0  0  0  0  0
    8.1207    8.6228    1.6777 C   0  0  2  0  0  0  0  0  0  0  0  0
    6.9081    9.3295    2.1186 N   0  0  0  0  0  0  0  0  0  0  0  0
    7.0824    5.9219    6.7853 C   0  0  0  0  0  0  0  0  0  0  0  0
    2.3950    6.8984    7.4983 C   0  0  2  0  0  0  0  0  0  0  0  0
    3.6526    7.3039    8.0130 O   0  0  0  0  0  0  0  0  0  0  0  0
    7.8170    7.8006    0.4065 C   0  0  1  0  0  0  0  0  0  0  0  0
    7.3321    8.6725   -0.6277 O   0  0  0  0  0  0  0  0  0  0  0  0
    7.7336    5.8858    5.3614 C   0  0  2  0  0  0  0  0  0  0  0  0
    9.1454    6.3126    5.4405 N   0  0  0  0  0  0  0  0  0  0  0  0
    2.0570    5.4185    7.9287 C   0  0  1  0  0  0  0  0  0  0  0  0
    2.0452    5.2892    9.4168 N   0  0  0  0  0  0  0  0  0  0  0  0
    9.1046    7.0619   -0.0294 C   0  0  2  0  0  0  0  0  0  0  0  0
    8.8342    6.2824   -1.2075 O   0  0  0  0  0  0  0  0  0  0  0  0
    6.9800    6.8224    4.3828 C   0  0  2  0  0  0  0  0  0  0  0  0
    0.6616    5.0220    7.3359 C   0  0  1  0  0  0  0  0  0  0  0  0
   -0.3438    5.8841    7.8623 O   0  0  0  0  0  0  0  0  0  0  0  0
    9.6043    6.1342    1.1430 C   0  0  2  0  0  0  0  0  0  0  0  0
    9.8587    6.9437    2.3505 O   0  0  0  0  0  0  0  0  0  0  0  0
    5.4949    6.3897    4.2985 C   0  0  2  0  0  0  0  0  0  0  0  0
    4.8199    7.2739    3.4098 O   0  0  0  0  0  0  0  0  0  0  0  0
    0.7167    5.1768    5.7834 C   0  0  0  0  0  0  0  0  0  0  0  0
    1.1031    6.5575    5.4053 O   0  0  0  0  0  0  0  0  0  0  0  0
   10.9108    5.3849    0.7721 C   0  0  2  0  0  0  0  0  0  0  0  0
   11.3548    4.6231    1.8918 O   0  0  0  0  0  0  0  0  0  0  0  0
    4.8096    6.4654    5.6828 C   0  0  1  0  0  0  0  0  0  0  0  0
    3.4389    6.0387    5.4998 O   0  0  0  0  0  0  0  0  0  0  0  0
   12.0205    6.3509    0.3909 C   0  0  0  0  0  0  0  0  0  0  0  0
    0.2750    3.5914    7.6903 C   0  0  0  0  0  0  0  0  0  0  0  0
    3.0133    4.2430    9.7978 C   0  0  0  0  0  0  0  0  0  0  0  0
  1  2  1  6  0  0  0
  1  6  1  0  0  0  0
  1 23  1  0  0  0  0
  3  4  1  1  0  0  0
  3  8  1  0  0  0  0
  3 30  1  0  0  0  0
  5  9  1  0  0  0  0
  5 27  1  0  0  0  0
  5 31  1  6  0  0  0
  6  7  1  1  0  0  0
  6 11  1  0  0  0  0
  8 13  1  0  0  0  0
  9 10  1  6  0  0  0
  9 15  1  0  0  0  0
 11 12  1  6  0  0  0
 11 17  1  0  0  0  0
 13 14  1  1  0  0  0
 13 19  1  0  0  0  0
 15 16  1  1  0  0  0
 15 20  1  0  0  0  0
 16 34  1  0  0  0  0
 17 18  1  6  0  0  0
 17 22  1  0  0  0  0
 19  2  1  6  0  0  0
 19 24  1  0  0  0  0
 20 21  1  1  0  0  0
 20 26  1  0  0  0  0
 20 33  1  0  0  0  0
 22 23  1  1  0  0  0
 22 28  1  0  0  0  0
 24 25  1  6  0  0  0
 24 30  1  0  0  0  0
 26 27  1  0  0  0  0
 28 29  1  1  0  0  0
 28 32  1  0  0  0  0
 30 31  1  6  0  0  0
M  END
>  <CHROM.1>
-110.15631691,-93.85968885,-123.01523205,176.75288272,120.05296877,-75.08748521
5.76595213,6.35067536,4.47343475,-0.70161843,-0.17000495,1.95991584

>  <Name>
ligand

>  <RI>
0

>  <Rbt.Current_Directory>
/home/itssahil/PROJECTS/Mol_Feturizer/New_Systems/rnas/3TD1

>  <Rbt.Executable>
rbdock ($Id: //depot/dev/client3/rdock/2013.1/src/exe/rbdock.cxx#4 $)

>  <Rbt.Library>
libRbt.so (2013.1, Build901 2013/11/27)

>  <Rbt.Parameter_File>
/export/apps/rDock/src/rDock_2013.1_src/data/scripts/dock_solv.prm

>  <Rbt.Receptor>
prm/blind_docking_40.prm

>  <SCORE>
21.0357

>  <SCORE.INTER>
6.54811

>  <SCORE.INTER.CONST>
1

>  <SCORE.INTER.POLAR>
0

>  <SCORE.INTER.ROT>
6

>  <SCORE.INTER.SOLV>
20.4698

>  <SCORE.INTER.VDW>
-10.0579

>  <SCORE.INTER.norm>
0.192592

>  <SCORE.INTRA>
6.29244

>  <SCORE.INTRA.DIHEDRAL>
0.921119

>  <SCORE.INTRA.DIHEDRAL.0>
19.5869

>  <SCORE.INTRA.POLAR>
0

>  <SCORE.INTRA.POLAR.0>
0

>  <SCORE.INTRA.REPUL>
0

>  <SCORE.INTRA.REPUL.0>
0

>  <SCORE.INTRA.SOLV>
4.365

>  <SCORE.INTRA.SOLV.lig_0>
-70.101

>  <SCORE.INTRA.VDW>
3.64938

>  <SCORE.INTRA.VDW.0>
-3.39718

>  <SCORE.INTRA.norm>
0.185072

>  <SCORE.RESTR>
8.19511

>  <SCORE.RESTR.CAVITY>
8.19511

>  <SCORE.RESTR.norm>
0.241033

>  <SCORE.SYSTEM>
0

>  <SCORE.SYSTEM.CONST>
0

>  <SCORE.SYSTEM.DIHEDRAL>
0

>  <SCORE.SYSTEM.SOLV>
0

>  <SCORE.SYSTEM.norm>
0

>  <SCORE.heavy>
34

>  <SCORE.norm>
0.618696

>  <RMSD>
9.736

$$$$
ligand
 OpenBabel11021811483D
libRbt.so/2013.1/901 2013/11/27
 34 36  0  0  0  0  0  0  0  0999 V2000
   11.2681    6.2450    0.5662 C   0  0  2  0  0  0  0  0  0  0  0  0
   10.8475    7.0963    1.6436 O   0  0  0  0  0  0  0  0  0  0  0  0
    7.3152    9.1958    2.8169 C   0  0  2  0  0  0  0  0  0  0  0  0
    5.9568    9.7276    2.8252 N   0  0  0  0  0  0  0  0  0  0  0  0
    6.5432    5.7985    4.4511 C   0  0  2  0  0  0  0  0  0  0  0  0
   12.1330    5.0840    1.1750 C   0  0  2  0  0  0  0  0  0  0  0  0
   11.3523    4.2868    2.1336 N   0  0  0  0  0  0  0  0  0  0  0  0
    7.9678    9.6006    1.4531 C   0  0  0  0  0  0  0  0  0  0  0  0
    4.9936    5.5417    4.4616 C   0  0  2  0  0  0  0  0  0  0  0  0
    4.4383    5.8947    3.2055 O   0  0  0  0  0  0  0  0  0  0  0  0
   13.3718    5.6831    1.8755 C   0  0  1  0  0  0  0  0  0  0  0  0
   14.1722    4.6254    2.4282 O   0  0  0  0  0  0  0  0  0  0  0  0
    9.4340    9.0500    1.4530 C   0  0  2  0  0  0  0  0  0  0  0  0
   10.1036    9.3964    0.1828 N   0  0  0  0  0  0  0  0  0  0  0  0
    4.3489    6.3904    5.6250 C   0  0  1  0  0  0  0  0  0  0  0  0
    2.8688    6.1927    5.6674 N   0  0  0  0  0  0  0  0  0  0  0  0
   14.1685    6.5224    0.8486 C   0  0  2  0  0  0  0  0  0  0  0  0
   15.3208    7.0962    1.4900 O   0  0  0  0  0  0  0  0  0  0  0  0
    9.4482    7.5095    1.6241 C   0  0  2  0  0  0  0  0  0  0  0  0
    4.9954    5.9618    6.9865 C   0  0  1  0  0  0  0  0  0  0  0  0
    4.7246    4.5842    7.2316 O   0  0  0  0  0  0  0  0  0  0  0  0
   13.2435    7.6551    0.2605 C   0  0  2  0  0  0  0  0  0  0  0  0
   12.0559    7.0536   -0.3767 O   0  0  0  0  0  0  0  0  0  0  0  0
    8.7400    7.1334    2.9496 C   0  0  2  0  0  0  0  0  0  0  0  0
    8.7489    5.7152    3.0761 O   0  0  0  0  0  0  0  0  0  0  0  0
    6.5389    6.1788    6.8963 C   0  0  0  0  0  0  0  0  0  0  0  0
    7.1105    5.4256    5.7542 O   0  0  0  0  0  0  0  0  0  0  0  0
   13.9828    8.5159   -0.7970 C   0  0  2  0  0  0  0  0  0  0  0  0
   15.0982    9.1609   -0.1879 O   0  0  0  0  0  0  0  0  0  0  0  0
    7.2717    7.6188    2.9580 C   0  0  1  0  0  0  0  0  0  0  0  0
    6.7044    7.2277    4.2306 O   0  0  0  0  0  0  0  0  0  0  0  0
   13.0771    9.5903   -1.3759 C   0  0  0  0  0  0  0  0  0  0  0  0
    4.4384    6.7579    8.1603 C   0  0  0  0  0  0  0  0  0  0  0  0
    2.2604    7.3856    6.2868 C   0  0  0  0  0  0  0  0  0  0  0  0
  1  2  1  1  0  0  0
  1  6  1  0  0  0  0
  1 23  1  0  0  0  0
  3  4  1  6  0  0  0
  3  8  1  0  0  0  0
  3 30  1  0  0  0  0
  5  9  1  0  0  0  0
  5 27  1  0  0  0  0
  5 31  1  1  0  0  0
  6  7  1  1  0  0  0
  6 11  1  0  0  0  0
  8 13  1  0  0  0  0
  9 10  1  6  0  0  0
  9 15  1  0  0  0  0
 11 12  1  6  0  0  0
 11 17  1  0  0  0  0
 13 14  1  6  0  0  0
 13 19  1  0  0  0  0
 15 16  1  1  0  0  0
 15 20  1  0  0  0  0
 16 34  1  0  0  0  0
 17 18  1  1  0  0  0
 17 22  1  0  0  0  0
 19  2  1  1  0  0  0
 19 24  1  0  0  0  0
 20 21  1  1  0  0  0
 20 26  1  0  0  0  0
 20 33  1  0  0  0  0
 22 23  1  6  0  0  0
 22 28  1  0  0  0  0
 24 25  1  6  0  0  0
 24 30  1  0  0  0  0
 26 27  1  0  0  0  0
 28 29  1  1  0  0  0
 28 32  1  0  0  0  0
 30 31  1  1  0  0  0
M  END
>  <CHROM.1>
-135.26684899,-116.31728572,-154.56308041,-61.46536027,176.79034551,-111.53737006
8.99035224,6.95324810,2.89358509,-0.42379142,-0.37897802,2.44829286

>  <Name>
ligand

>  <RI>
0

>  <Rbt.Current_Directory>
/home/itssahil/PROJECTS/Mol_Feturizer/New_Systems/rnas/3TD1

>  <Rbt.Executable>
rbdock ($Id: //depot/dev/client3/rdock/2013.1/src/exe/rbdock.cxx#4 $)

>  <Rbt.Library>
libRbt.so (2013.1, Build901 2013/11/27)

>  <Rbt.Parameter_File>
/export/apps/rDock/src/rDock_2013.1_src/data/scripts/dock_solv.prm

>  <Rbt.Receptor>
prm/blind_docking_100.prm

>  <SCORE>
49.2265

>  <SCORE.INTER>
34.8608

>  <SCORE.INTER.CONST>
1

>  <SCORE.INTER.POLAR>
0

>  <SCORE.INTER.ROT>
6

>  <SCORE.INTER.SOLV>
31.2561

>  <SCORE.INTER.VDW>
5.22183

>  <SCORE.INTER.norm>
1.02532

>  <SCORE.INTRA>
4.72358

>  <SCORE.INTRA.DIHEDRAL>
1.06911

>  <SCORE.INTRA.DIHEDRAL.0>
19.5869

>  <SCORE.INTRA.POLAR>
0

>  <SCORE.INTRA.POLAR.0>
0

>  <SCORE.INTRA.REPUL>
0

>  <SCORE.INTRA.REPUL.0>
0

>  <SCORE.INTRA.SOLV>
0.360326

>  <SCORE.INTRA.SOLV.lig_0>
-70.101

>  <SCORE.INTRA.VDW>
4.00886

>  <SCORE.INTRA.VDW.0>
-3.39718

>  <SCORE.INTRA.norm>
0.138929

>  <SCORE.RESTR>
9.64208

>  <SCORE.RESTR.CAVITY>
9.64208

>  <SCORE.RESTR.norm>
0.283591

>  <SCORE.SYSTEM>
0

>  <SCORE.SYSTEM.CONST>
0

>  <SCORE.SYSTEM.DIHEDRAL>
0

>  <SCORE.SYSTEM.SOLV>
0

>  <SCORE.SYSTEM.norm>
0

>  <SCORE.heavy>
34

>  <SCORE.norm>
1.44784

>  <RMSD>
9.757

$$$$
ligand
 OpenBabel11021811483D
libRbt.so/2013.1/901 2013/11/27
 34 36  0  0  0  0  0  0  0  0999 V2000
    6.7219    6.8443    7.2069 C   0  0  2  0  0  0  0  0  0  0  0  0
    6.5862    5.4265    7.3910 O   0  0  0  0  0  0  0  0  0  0  0  0
    3.1279    3.1600    8.4703 C   0  0  2  0  0  0  0  0  0  0  0  0
    2.0179    2.6049    9.2369 N   0  0  0  0  0  0  0  0  0  0  0  0
    0.4488    4.7064    8.1317 C   0  0  2  0  0  0  0  0  0  0  0  0
    7.7279    7.0858    6.0253 C   0  0  2  0  0  0  0  0  0  0  0  0
    7.2318    6.4895    4.7753 N   0  0  0  0  0  0  0  0  0  0  0  0
    4.4373    2.8991    9.2871 C   0  0  0  0  0  0  0  0  0  0  0  0
   -0.6403    4.8337    7.0071 C   0  0  2  0  0  0  0  0  0  0  0  0
   -0.4092    3.8621    6.0004 O   0  0  0  0  0  0  0  0  0  0  0  0
    9.0995    6.4772    6.3897 C   0  0  1  0  0  0  0  0  0  0  0  0
   10.0275    6.7015    5.3159 O   0  0  0  0  0  0  0  0  0  0  0  0
    5.6323    3.4741    8.4539 C   0  0  2  0  0  0  0  0  0  0  0  0
    6.9017    3.2627    9.1789 N   0  0  0  0  0  0  0  0  0  0  0  0
   -0.5819    6.2931    6.4102 C   0  0  1  0  0  0  0  0  0  0  0  0
   -1.5913    6.4611    5.3220 N   0  0  0  0  0  0  0  0  0  0  0  0
    9.5929    7.1142    7.7105 C   0  0  2  0  0  0  0  0  0  0  0  0
   10.8659    6.5488    8.0687 O   0  0  0  0  0  0  0  0  0  0  0  0
    5.4488    4.9914    8.1948 C   0  0  2  0  0  0  0  0  0  0  0  0
   -0.8435    7.3245    7.5606 C   0  0  1  0  0  0  0  0  0  0  0  0
   -2.1434    7.1133    8.1054 O   0  0  0  0  0  0  0  0  0  0  0  0
    8.5344    6.8558    8.8496 C   0  0  2  0  0  0  0  0  0  0  0  0
    7.2288    7.4233    8.4605 O   0  0  0  0  0  0  0  0  0  0  0  0
    4.1152    5.2263    7.4423 C   0  0  2  0  0  0  0  0  0  0  0  0
    3.9595    6.6259    7.2320 O   0  0  0  0  0  0  0  0  0  0  0  0
    0.2275    7.1102    8.6761 C   0  0  0  0  0  0  0  0  0  0  0  0
    0.1987    5.7133    9.1722 O   0  0  0  0  0  0  0  0  0  0  0  0
    8.9642    7.4955   10.1957 C   0  0  2  0  0  0  0  0  0  0  0  0
   10.2888    7.0792   10.5173 O   0  0  0  0  0  0  0  0  0  0  0  0
    2.9096    4.7153    8.2651 C   0  0  1  0  0  0  0  0  0  0  0  0
    1.7219    4.9729    7.4795 O   0  0  0  0  0  0  0  0  0  0  0  0
    8.0494    7.0724   11.3332 C   0  0  0  0  0  0  0  0  0  0  0  0
   -0.7791    8.7637    7.0643 C   0  0  0  0  0  0  0  0  0  0  0  0
   -0.8920    6.3777    4.0255 C   0  0  0  0  0  0  0  0  0  0  0  0
  1  2  1  1  0  0  0
  1  6  1  0  0  0  0
  1 23  1  0  0  0  0
  3  4  1  1  0  0  0
  3  8  1  0  0  0  0
  3 30  1  0  0  0  0
  5  9  1  0  0  0  0
  5 27  1  0  0  0  0
  5 31  1  6  0  0  0
  6  7  1  6  0  0  0
  6 11  1  0  0  0  0
  8 13  1  0  0  0  0
  9 10  1  6  0  0  0
  9 15  1  0  0  0  0
 11 12  1  6  0  0  0
 11 17  1  0  0  0  0
 13 14  1  1  0  0  0
 13 19  1  0  0  0  0
 15 16  1  6  0  0  0
 15 20  1  0  0  0  0
 16 34  1  0  0  0  0
 17 18  1  1  0  0  0
 17 22  1  0  0  0  0
 19  2  1  6  0  0  0
 19 24  1  0  0  0  0
 20 21  1  1  0  0  0
 20 26  1  0  0  0  0
 20 33  1  0  0  0  0
 22 23  1  6  0  0  0
 22 28  1  0  0  0  0
 24 25  1  1  0  0  0
 24 30  1  0  0  0  0
 26 27  1  0  0  0  0
 28 29  1  1  0  0  0
 28 32  1  0  0  0  0
 30 31  1  6  0  0  0
M  END
>  <CHROM.1>
-164.63397534,-170.83711362,-102.12348708,-52.09143583,70.78357206,-170.85786184
4.24850899,5.87731327,7.73384067,-0.04912839,-0.12677114,-0.87174498

>  <Name>
ligand

>  <RI>
0

>  <Rbt.Current_Directory>
/home/itssahil/PROJECTS/Mol_Feturizer/New_Systems/rnas/3TD1

>  <Rbt.Executable>
rbdock ($Id: //depot/dev/client3/rdock/2013.1/src/exe/rbdock.cxx#4 $)

>  <Rbt.Library>
libRbt.so (2013.1, Build901 2013/11/27)

>  <Rbt.Parameter_File>
/export/apps/rDock/src/rDock_2013.1_src/data/scripts/dock_solv.prm

>  <Rbt.Receptor>
prm/pocket_docking_8.prm

>  <SCORE>
-14.7312

>  <SCORE.INTER>
-6.74633

>  <SCORE.INTER.CONST>
1

>  <SCORE.INTER.POLAR>
0

>  <SCORE.INTER.ROT>
6

>  <SCORE.INTER.SOLV>
11.7729

>  <SCORE.INTER.VDW>
-16.0219

>  <SCORE.INTER.norm>
-0.198422

>  <SCORE.INTRA>
-7.98486

>  <SCORE.INTRA.DIHEDRAL>
-15.8588

>  <SCORE.INTRA.DIHEDRAL.0>
19.5869

>  <SCORE.INTRA.POLAR>
0

>  <SCORE.INTRA.POLAR.0>
0

>  <SCORE.INTRA.REPUL>
0

>  <SCORE.INTRA.REPUL.0>
0

>  <SCORE.INTRA.SOLV>
-1.50006

>  <SCORE.INTRA.SOLV.lig_0>
-70.101

>  <SCORE.INTRA.VDW>
0.694548

>  <SCORE.INTRA.VDW.0>
-3.39718

>  <SCORE.INTRA.norm>
-0.234849

>  <SCORE.RESTR>
0

>  <SCORE.RESTR.CAVITY>
0

>  <SCORE.RESTR.norm>
0

>  <SCORE.SYSTEM>
0

>  <SCORE.SYSTEM.CONST>
0

>  <SCORE.SYSTEM.DIHEDRAL>
0

>  <SCORE.SYSTEM.SOLV>
0

>  <SCORE.SYSTEM.norm>
0

>  <SCORE.heavy>
34

>  <SCORE.norm>
-0.43327

>  <RMSD>
9.801

$$$$
ligand
 OpenBabel11021811483D
libRbt.so/2013.1/901 2013/11/27
 34 36  0  0  0  0  0  0  0  0999 V2000
    8.7363   11.7146    0.6425 C   0  0  2  0  0  0  0  0  0  0  0  0
    8.3156   10.6046   -0.1659 O   0  0  0  0  0  0  0  0  0  0  0  0
    8.7452    7.7428    2.9785 C   0  0  2  0  0  0  0  0  0  0  0  0
    8.6423    6.5145    3.7588 N   0  0  0  0  0  0  0  0  0  0  0  0
   11.8899    7.0732    0.8810 C   0  0  2  0  0  0  0  0  0  0  0  0
    8.6651   13.0117   -0.2401 C   0  0  2  0  0  0  0  0  0  0  0  0
    7.2933   13.2592   -0.7104 N   0  0  0  0  0  0  0  0  0  0  0  0
    7.2902    8.1850    2.6080 C   0  0  0  0  0  0  0  0  0  0  0  0
   12.3460    5.5765    0.7423 C   0  0  2  0  0  0  0  0  0  0  0  0
   11.2290    4.7591    0.4341 O   0  0  0  0  0  0  0  0  0  0  0  0
    9.6156   12.8608   -1.4476 C   0  0  1  0  0  0  0  0  0  0  0  0
    9.5614   14.0478   -2.2556 O   0  0  0  0  0  0  0  0  0  0  0  0
    7.3985    9.5162    1.7900 C   0  0  2  0  0  0  0  0  0  0  0  0
    6.0514    9.9831    1.4042 N   0  0  0  0  0  0  0  0  0  0  0  0
   13.0212    5.1267    2.0955 C   0  0  1  0  0  0  0  0  0  0  0  0
   13.4599    3.7008    2.0203 N   0  0  0  0  0  0  0  0  0  0  0  0
   11.0470   12.5928   -0.9253 C   0  0  2  0  0  0  0  0  0  0  0  0
   11.9427   12.4392   -2.0401 O   0  0  0  0  0  0  0  0  0  0  0  0
    8.2455    9.3122    0.5080 C   0  0  2  0  0  0  0  0  0  0  0  0
   14.2462    6.0593    2.3878 C   0  0  1  0  0  0  0  0  0  0  0  0
   15.2056    5.9301    1.3419 O   0  0  0  0  0  0  0  0  0  0  0  0
   11.0494   11.2935   -0.0329 C   0  0  2  0  0  0  0  0  0  0  0  0
   10.1119   11.4571    1.0952 O   0  0  0  0  0  0  0  0  0  0  0  0
    9.6589    8.8135    0.9001 C   0  0  2  0  0  0  0  0  0  0  0  0
   10.4115    8.6160   -0.2924 O   0  0  0  0  0  0  0  0  0  0  0  0
   13.7448    7.5364    2.4521 C   0  0  0  0  0  0  0  0  0  0  0  0
   13.0539    7.9130    1.1954 O   0  0  0  0  0  0  0  0  0  0  0  0
   12.4574   10.9878    0.5416 C   0  0  2  0  0  0  0  0  0  0  0  0
   13.1033   12.2097    0.8894 O   0  0  0  0  0  0  0  0  0  0  0  0
    9.5876    7.4714    1.6649 C   0  0  1  0  0  0  0  0  0  0  0  0
   10.9473    7.0969    1.9893 O   0  0  0  0  0  0  0  0  0  0  0  0
   13.3304   10.2666   -0.4719 C   0  0  0  0  0  0  0  0  0  0  0  0
   14.9390    5.7007    3.6967 C   0  0  0  0  0  0  0  0  0  0  0  0
   12.6210    2.9097    2.9409 C   0  0  0  0  0  0  0  0  0  0  0  0
  1  2  1  6  0  0  0
  1  6  1  0  0  0  0
  1 23  1  0  0  0  0
  3  4  1  1  0  0  0
  3  8  1  0  0  0  0
  3 30  1  0  0  0  0
  5  9  1  0  0  0  0
  5 27  1  0  0  0  0
  5 31  1  1  0  0  0
  6  7  1  6  0  0  0
  6 11  1  0  0  0  0
  8 13  1  0  0  0  0
  9 10  1  1  0  0  0
  9 15  1  0  0  0  0
 11 12  1  1  0  0  0
 11 17  1  0  0  0  0
 13 14  1  6  0  0  0
 13 19  1  0  0  0  0
 15 16  1  6  0  0  0
 15 20  1  0  0  0  0
 16 34  1  0  0  0  0
 17 18  1  6  0  0  0
 17 22  1  0  0  0  0
 19  2  1  1  0  0  0
 19 24  1  0  0  0  0
 20 21  1  6  0  0  0
 20 26  1  0  0  0  0
 20 33  1  0  0  0  0
 22 23  1  1  0  0  0
 22 28  1  0  0  0  0
 24 25  1  6  0  0  0
 24 30  1  0  0  0  0
 26 27  1  0  0  0  0
 28 29  1  6  0  0  0
 28 32  1  0  0  0  0
 30 31  1  1  0  0  0
M  END
>  <CHROM.1>
-176.79172066,51.49750489,-112.06025095,37.69457604,-168.49142964,-116.09648743
10.86805186,8.89349437,0.92986648,2.05016367,0.15687347,-0.44415433

>  <Name>
ligand

>  <RI>
0

>  <Rbt.Current_Directory>
/home/itssahil/PROJECTS/Mol_Feturizer/New_Systems/rnas/3TD1

>  <Rbt.Executable>
rbdock ($Id: //depot/dev/client3/rdock/2013.1/src/exe/rbdock.cxx#4 $)

>  <Rbt.Library>
libRbt.so (2013.1, Build901 2013/11/27)

>  <Rbt.Parameter_File>
/export/apps/rDock/src/rDock_2013.1_src/data/scripts/dock_solv.prm

>  <Rbt.Receptor>
prm/blind_docking_20.prm

>  <SCORE>
11.8812

>  <SCORE.INTER>
3.45509

>  <SCORE.INTER.CONST>
1

>  <SCORE.INTER.POLAR>
0

>  <SCORE.INTER.ROT>
6

>  <SCORE.INTER.SOLV>
25.7119

>  <SCORE.INTER.VDW>
-13.8673

>  <SCORE.INTER.norm>
0.10162

>  <SCORE.INTRA>
0.276572

>  <SCORE.INTRA.DIHEDRAL>
-8.61665

>  <SCORE.INTRA.DIHEDRAL.0>
19.5869

>  <SCORE.INTRA.POLAR>
0

>  <SCORE.INTRA.POLAR.0>
0

>  <SCORE.INTRA.REPUL>
0

>  <SCORE.INTRA.REPUL.0>
0

>  <SCORE.INTRA.SOLV>
-1.50267

>  <SCORE.INTRA.SOLV.lig_0>
-70.101

>  <SCORE.INTRA.VDW>
5.33623

>  <SCORE.INTRA.VDW.0>
-3.39718

>  <SCORE.INTRA.norm>
0.00813448

>  <SCORE.RESTR>
8.14958

>  <SCORE.RESTR.CAVITY>
8.14958

>  <SCORE.RESTR.norm>
0.239694

>  <SCORE.SYSTEM>
0

>  <SCORE.SYSTEM.CONST>
0

>  <SCORE.SYSTEM.DIHEDRAL>
0

>  <SCORE.SYSTEM.SOLV>
0

>  <SCORE.SYSTEM.norm>
0

>  <SCORE.heavy>
34

>  <SCORE.norm>
0.349448

>  <RMSD>
9.811

$$$$
ligand
 OpenBabel11021811483D
libRbt.so/2013.1/901 2013/11/27
 34 36  0  0  0  0  0  0  0  0999 V2000
    7.2324    2.0890   10.2283 C   0  0  2  0  0  0  0  0  0  0  0  0
    7.1286    3.5192   10.3083 O   0  0  0  0  0  0  0  0  0  0  0  0
    3.6853    5.9237    9.5183 C   0  0  2  0  0  0  0  0  0  0  0  0
    2.6245    6.6379    8.8163 N   0  0  0  0  0  0  0  0  0  0  0  0
    1.4645    3.0261    9.0279 C   0  0  2  0  0  0  0  0  0  0  0  0
    8.4555    1.6419   11.1062 C   0  0  2  0  0  0  0  0  0  0  0  0
    8.2679    2.0268   12.5136 N   0  0  0  0  0  0  0  0  0  0  0  0
    5.0493    6.4114    8.9255 C   0  0  0  0  0  0  0  0  0  0  0  0
    0.6028    3.9896    8.1356 C   0  0  2  0  0  0  0  0  0  0  0  0
    1.4526    4.7839    7.3246 O   0  0  0  0  0  0  0  0  0  0  0  0
    9.7447    2.2865   10.5523 C   0  0  1  0  0  0  0  0  0  0  0  0
   10.8694    1.8752   11.3464 O   0  0  0  0  0  0  0  0  0  0  0  0
    6.1896    5.6623    9.6945 C   0  0  2  0  0  0  0  0  0  0  0  0
    7.5078    6.0778    9.1735 N   0  0  0  0  0  0  0  0  0  0  0  0
   -0.2858    4.8907    9.0778 C   0  0  1  0  0  0  0  0  0  0  0  0
   -1.1156    5.8390    8.2755 N   0  0  0  0  0  0  0  0  0  0  0  0
    9.9124    1.8733    9.0709 C   0  0  2  0  0  0  0  0  0  0  0  0
   11.1047    2.4756    8.5377 O   0  0  0  0  0  0  0  0  0  0  0  0
    6.0489    4.1267    9.5372 C   0  0  2  0  0  0  0  0  0  0  0  0
   -1.2033    3.9663    9.9492 C   0  0  1  0  0  0  0  0  0  0  0  0
   -2.0671    3.2140    9.1012 O   0  0  0  0  0  0  0  0  0  0  0  0
    8.6481    2.3308    8.2481 C   0  0  2  0  0  0  0  0  0  0  0  0
    7.4306    1.7216    8.8179 O   0  0  0  0  0  0  0  0  0  0  0  0
    4.6654    3.6802   10.0725 C   0  0  2  0  0  0  0  0  0  0  0  0
    4.5516    2.2713    9.9011 O   0  0  0  0  0  0  0  0  0  0  0  0
   -0.2979    2.9902   10.7645 C   0  0  0  0  0  0  0  0  0  0  0  0
    0.5761    2.2041    9.8609 O   0  0  0  0  0  0  0  0  0  0  0  0
    8.7483    1.9198    6.7558 C   0  0  2  0  0  0  0  0  0  0  0  0
    9.8264    2.6214    6.1419 O   0  0  0  0  0  0  0  0  0  0  0  0
    3.5164    4.3646    9.2960 C   0  0  1  0  0  0  0  0  0  0  0  0
    2.2761    3.8904    9.8714 O   0  0  0  0  0  0  0  0  0  0  0  0
    7.4755    2.2563    5.9965 C   0  0  0  0  0  0  0  0  0  0  0  0
   -2.0782    4.7666   10.9063 C   0  0  0  0  0  0  0  0  0  0  0  0
   -0.6042    7.2047    8.4997 C   0  0  0  0  0  0  0  0  0  0  0  0
  1  2  1  6  0  0  0
  1  6  1  0  0  0  0
  1 23  1  0  0  0  0
  3  4  1  6  0  0  0
  3  8  1  0  0  0  0
  3 30  1  0  0  0  0
  5  9  1  0  0  0  0
  5 27  1  0  0  0  0
  5 31  1  1  0  0  0
  6  7  1  1  0  0  0
  6 11  1  0  0  0  0
  8 13  1  0  0  0  0
  9 10  1  1  0  0  0
  9 15  1  0  0  0  0
 11 12  1  1  0  0  0
 11 17  1  0  0  0  0
 13 14  1  6  0  0  0
 13 19  1  0  0  0  0
 15 16  1  6  0  0  0
 15 20  1  0  0  0  0
 16 34  1  0  0  0  0
 17 18  1  6  0  0  0
 17 22  1  0  0  0  0
 19  2  1  1  0  0  0
 19 24  1  0  0  0  0
 20 21  1  6  0  0  0
 20 26  1  0  0  0  0
 20 33  1  0  0  0  0
 22 23  1  1  0  0  0
 22 28  1  0  0  0  0
 24 25  1  6  0  0  0
 24 30  1  0  0  0  0
 26 27  1  0  0  0  0
 28 29  1  6  0  0  0
 28 32  1  0  0  0  0
 30 31  1  1  0  0  0
M  END
>  <CHROM.1>
179.31093806,-176.20996139,-110.64052657,-65.45896333,132.63102486,-84.92004940
4.63408449,3.64311243,9.25990758,0.13830815,-0.17664645,2.27864238

>  <Name>
ligand

>  <RI>
0

>  <Rbt.Current_Directory>
/home/itssahil/PROJECTS/Mol_Feturizer/New_Systems/rnas/3TD1

>  <Rbt.Executable>
rbdock ($Id: //depot/dev/client3/rdock/2013.1/src/exe/rbdock.cxx#4 $)

>  <Rbt.Library>
libRbt.so (2013.1, Build901 2013/11/27)

>  <Rbt.Parameter_File>
/export/apps/rDock/src/rDock_2013.1_src/data/scripts/dock_solv.prm

>  <Rbt.Receptor>
prm/pocket_docking_7.prm

>  <SCORE>
-14.6562

>  <SCORE.INTER>
-10.6548

>  <SCORE.INTER.CONST>
1

>  <SCORE.INTER.POLAR>
0

>  <SCORE.INTER.ROT>
6

>  <SCORE.INTER.SOLV>
15.0012

>  <SCORE.INTER.VDW>
-19.7036

>  <SCORE.INTER.norm>
-0.313377

>  <SCORE.INTRA>
-4.00136

>  <SCORE.INTRA.DIHEDRAL>
-9.21799

>  <SCORE.INTRA.DIHEDRAL.0>
19.5869

>  <SCORE.INTRA.POLAR>
0

>  <SCORE.INTRA.POLAR.0>
0

>  <SCORE.INTRA.REPUL>
0

>  <SCORE.INTRA.REPUL.0>
0

>  <SCORE.INTRA.SOLV>
0.542631

>  <SCORE.INTRA.SOLV.lig_0>
-70.101

>  <SCORE.INTRA.VDW>
0.336325

>  <SCORE.INTRA.VDW.0>
-3.39718

>  <SCORE.INTRA.norm>
-0.117687

>  <SCORE.RESTR>
0

>  <SCORE.RESTR.CAVITY>
0

>  <SCORE.RESTR.norm>
0

>  <SCORE.SYSTEM>
0

>  <SCORE.SYSTEM.CONST>
0

>  <SCORE.SYSTEM.DIHEDRAL>
0

>  <SCORE.SYSTEM.SOLV>
0

>  <SCORE.SYSTEM.norm>
0

>  <SCORE.heavy>
34

>  <SCORE.norm>
-0.431064

>  <RMSD>
9.817

$$$$
ligand
 OpenBabel11021811483D
libRbt.so/2013.1/901 2013/11/27
 34 36  0  0  0  0  0  0  0  0999 V2000
    0.7118    0.0687    6.2678 C   0  0  2  0  0  0  0  0  0  0  0  0
    0.1006   -0.0786    7.5590 O   0  0  0  0  0  0  0  0  0  0  0  0
    0.1953    3.9608    8.9504 C   0  0  2  0  0  0  0  0  0  0  0  0
    0.2849    5.1234    9.8269 N   0  0  0  0  0  0  0  0  0  0  0  0
    2.7458    5.3612    8.9391 C   0  0  2  0  0  0  0  0  0  0  0  0
   -0.2045    1.0050    5.4017 C   0  0  2  0  0  0  0  0  0  0  0  0
   -0.3393    2.3340    6.0181 N   0  0  0  0  0  0  0  0  0  0  0  0
   -0.9366    3.0374    9.5123 C   0  0  0  0  0  0  0  0  0  0  0  0
    2.2112    6.3246    7.8197 C   0  0  2  0  0  0  0  0  0  0  0  0
    0.8495    6.0376    7.5470 O   0  0  0  0  0  0  0  0  0  0  0  0
   -1.5963    0.3548    5.2447 C   0  0  1  0  0  0  0  0  0  0  0  0
   -2.4377    1.2029    4.4463 O   0  0  0  0  0  0  0  0  0  0  0  0
   -1.0494    1.8002    8.5586 C   0  0  2  0  0  0  0  0  0  0  0  0
   -2.1022    0.8840    9.0420 N   0  0  0  0  0  0  0  0  0  0  0  0
    3.0988    6.1401    6.5283 C   0  0  1  0  0  0  0  0  0  0  0  0
    2.6197    7.0261    5.4252 N   0  0  0  0  0  0  0  0  0  0  0  0
   -1.4246   -1.0427    4.6036 C   0  0  2  0  0  0  0  0  0  0  0  0
   -2.7130   -1.6657    4.4608 O   0  0  0  0  0  0  0  0  0  0  0  0
    0.2937    1.0293    8.4888 C   0  0  2  0  0  0  0  0  0  0  0  0
    4.5891    6.4691    6.8837 C   0  0  1  0  0  0  0  0  0  0  0  0
    4.6909    7.8255    7.3092 O   0  0  0  0  0  0  0  0  0  0  0  0
   -0.4818   -1.9262    5.5064 C   0  0  2  0  0  0  0  0  0  0  0  0
    0.8291   -1.2660    5.6608 O   0  0  0  0  0  0  0  0  0  0  0  0
    1.4082    1.9834    7.9912 C   0  0  2  0  0  0  0  0  0  0  0  0
    2.6338    1.2597    7.9527 O   0  0  0  0  0  0  0  0  0  0  0  0
    5.0459    5.5267    8.0415 C   0  0  0  0  0  0  0  0  0  0  0  0
    4.1552    5.6687    9.2183 O   0  0  0  0  0  0  0  0  0  0  0  0
   -0.2516   -3.3348    4.8991 C   0  0  2  0  0  0  0  0  0  0  0  0
   -1.5099   -3.9613    4.6637 O   0  0  0  0  0  0  0  0  0  0  0  0
    1.5791    3.1903    8.9429 C   0  0  1  0  0  0  0  0  0  0  0  0
    2.6303    4.0180    8.3914 O   0  0  0  0  0  0  0  0  0  0  0  0
    0.5483   -4.2241    5.8366 C   0  0  0  0  0  0  0  0  0  0  0  0
    5.5157    6.2898    5.6874 C   0  0  0  0  0  0  0  0  0  0  0  0
    1.6881    6.2526    4.5822 C   0  0  0  0  0  0  0  0  0  0  0  0
  1  2  1  1  0  0  0
  1  6  1  0  0  0  0
  1 23  1  0  0  0  0
  3  4  1  1  0  0  0
  3  8  1  0  0  0  0
  3 30  1  0  0  0  0
  5  9  1  0  0  0  0
  5 27  1  0  0  0  0
  5 31  1  6  0  0  0
  6  7  1  1  0  0  0
  6 11  1  0  0  0  0
  8 13  1  0  0  0  0
  9 10  1  6  0  0  0
  9 15  1  0  0  0  0
 11 12  1  6  0  0  0
 11 17  1  0  0  0  0
 13 14  1  1  0  0  0
 13 19  1  0  0  0  0
 15 16  1  6  0  0  0
 15 20  1  0  0  0  0
 16 34  1  0  0  0  0
 17 18  1  1  0  0  0
 17 22  1  0  0  0  0
 19  2  1  6  0  0  0
 19 24  1  0  0  0  0
 20 21  1  1  0  0  0
 20 26  1  0  0  0  0
 20 33  1  0  0  0  0
 22 23  1  6  0  0  0
 22 28  1  0  0  0  0
 24 25  1  1  0  0  0
 24 30  1  0  0  0  0
 26 27  1  0  0  0  0
 28 29  1  1  0  0  0
 28 32  1  0  0  0  0
 30 31  1  6  0  0  0
M  END
>  <CHROM.1>
-79.24791164,105.54387584,-94.03867760,-55.09638684,49.86165227,-107.20729394
0.98800060,2.41417695,6.92649544,-2.32802546,0.81979757,0.84898588

>  <Name>
ligand

>  <RI>
0

>  <Rbt.Current_Directory>
/home/itssahil/PROJECTS/Mol_Feturizer/New_Systems/rnas/3TD1

>  <Rbt.Executable>
rbdock ($Id: //depot/dev/client3/rdock/2013.1/src/exe/rbdock.cxx#4 $)

>  <Rbt.Library>
libRbt.so (2013.1, Build901 2013/11/27)

>  <Rbt.Parameter_File>
/export/apps/rDock/src/rDock_2013.1_src/data/scripts/dock_solv.prm

>  <Rbt.Receptor>
prm/blind_docking_80.prm

>  <SCORE>
18.7032

>  <SCORE.INTER>
-2.26929

>  <SCORE.INTER.CONST>
1

>  <SCORE.INTER.POLAR>
0

>  <SCORE.INTER.ROT>
6

>  <SCORE.INTER.SOLV>
18.072

>  <SCORE.INTER.VDW>
-15.1368

>  <SCORE.INTER.norm>
-0.0667438

>  <SCORE.INTRA>
8.55137

>  <SCORE.INTRA.DIHEDRAL>
-3.91364

>  <SCORE.INTRA.DIHEDRAL.0>
19.5869

>  <SCORE.INTRA.POLAR>
0

>  <SCORE.INTRA.POLAR.0>
0

>  <SCORE.INTRA.REPUL>
0.0161403

>  <SCORE.INTRA.REPUL.0>
0

>  <SCORE.INTRA.SOLV>
6.25252

>  <SCORE.INTRA.SOLV.lig_0>
-70.101

>  <SCORE.INTRA.VDW>
7.30123

>  <SCORE.INTRA.VDW.0>
-3.39718

>  <SCORE.INTRA.norm>
0.251511

>  <SCORE.RESTR>
12.4211

>  <SCORE.RESTR.CAVITY>
12.4211

>  <SCORE.RESTR.norm>
0.365328

>  <SCORE.SYSTEM>
0

>  <SCORE.SYSTEM.CONST>
0

>  <SCORE.SYSTEM.DIHEDRAL>
0

>  <SCORE.SYSTEM.SOLV>
0

>  <SCORE.SYSTEM.norm>
0

>  <SCORE.heavy>
34

>  <SCORE.norm>
0.550095

>  <RMSD>
9.820

$$$$
ligand
 OpenBabel11021811483D
libRbt.so/2013.1/901 2013/11/27
 34 36  0  0  0  0  0  0  0  0999 V2000
   11.0602    6.3272    0.4993 C   0  0  2  0  0  0  0  0  0  0  0  0
   10.6327    7.0930    1.6366 O   0  0  0  0  0  0  0  0  0  0  0  0
    7.1477    9.2624    2.8241 C   0  0  2  0  0  0  0  0  0  0  0  0
    5.7975    9.8145    2.8421 N   0  0  0  0  0  0  0  0  0  0  0  0
    6.4275    5.8999    4.5532 C   0  0  2  0  0  0  0  0  0  0  0  0
   12.1370    5.2936    0.9879 C   0  0  2  0  0  0  0  0  0  0  0  0
   11.5762    4.3781    1.9938 N   0  0  0  0  0  0  0  0  0  0  0  0
    7.7881    9.6371    1.4460 C   0  0  0  0  0  0  0  0  0  0  0  0
    4.8937    5.5638    4.5114 C   0  0  2  0  0  0  0  0  0  0  0  0
    4.3766    5.8329    3.2187 O   0  0  0  0  0  0  0  0  0  0  0  0
   13.3420    6.0539    1.5830 C   0  0  1  0  0  0  0  0  0  0  0  0
   14.3350    5.1140    2.0251 O   0  0  0  0  0  0  0  0  0  0  0  0
    9.2459    9.0647    1.4351 C   0  0  2  0  0  0  0  0  0  0  0  0
    9.9037    9.3822    0.1513 N   0  0  0  0  0  0  0  0  0  0  0  0
    4.1573    6.4274    5.6074 C   0  0  1  0  0  0  0  0  0  0  0  0
    2.6886    6.1552    5.5977 N   0  0  0  0  0  0  0  0  0  0  0  0
   13.9057    7.0143    0.5090 C   0  0  2  0  0  0  0  0  0  0  0  0
   15.0233    7.7381    1.0528 O   0  0  0  0  0  0  0  0  0  0  0  0
    9.2395    7.5268    1.6290 C   0  0  2  0  0  0  0  0  0  0  0  0
    4.7647    6.0921    7.0125 C   0  0  1  0  0  0  0  0  0  0  0  0
    4.5526    4.7143    7.3085 O   0  0  0  0  0  0  0  0  0  0  0  0
   12.7758    8.0110    0.0459 C   0  0  2  0  0  0  0  0  0  0  0  0
   11.6279    7.2547   -0.4912 O   0  0  0  0  0  0  0  0  0  0  0  0
    8.5433    7.1810    2.9691 C   0  0  2  0  0  0  0  0  0  0  0  0
    8.5329    5.7648    3.1166 O   0  0  0  0  0  0  0  0  0  0  0  0
    6.2978    6.3848    6.9763 C   0  0  0  0  0  0  0  0  0  0  0  0
    6.9555    5.6137    5.8941 O   0  0  0  0  0  0  0  0  0  0  0  0
   13.2769    8.9849   -1.0525 C   0  0  2  0  0  0  0  0  0  0  0  0
   14.1092    8.2786   -1.9688 O   0  0  0  0  0  0  0  0  0  0  0  0
    7.0826    7.6884    2.9893 C   0  0  1  0  0  0  0  0  0  0  0  0
    6.5265    7.3247    4.2748 O   0  0  0  0  0  0  0  0  0  0  0  0
   14.0901   10.1243   -0.4609 C   0  0  0  0  0  0  0  0  0  0  0  0
    4.1180    6.9082    8.1250 C   0  0  0  0  0  0  0  0  0  0  0  0
    2.1276    6.6888    4.3417 C   0  0  0  0  0  0  0  0  0  0  0  0
  1  2  1  1  0  0  0
  1  6  1  0  0  0  0
  1 23  1  0  0  0  0
  3  4  1  6  0  0  0
  3  8  1  0  0  0  0
  3 30  1  0  0  0  0
  5  9  1  0  0  0  0
  5 27  1  0  0  0  0
  5 31  1  1  0  0  0
  6  7  1  1  0  0  0
  6 11  1  0  0  0  0
  8 13  1  0  0  0  0
  9 10  1  6  0  0  0
  9 15  1  0  0  0  0
 11 12  1  6  0  0  0
 11 17  1  0  0  0  0
 13 14  1  6  0  0  0
 13 19  1  0  0  0  0
 15 16  1  1  0  0  0
 15 20  1  0  0  0  0
 16 34  1  0  0  0  0
 17 18  1  1  0  0  0
 17 22  1  0  0  0  0
 19  2  1  1  0  0  0
 19 24  1  0  0  0  0
 20 21  1  1  0  0  0
 20 26  1  0  0  0  0
 20 33  1  0  0  0  0
 22 23  1  6  0  0  0
 22 28  1  0  0  0  0
 24 25  1  6  0  0  0
 24 30  1  0  0  0  0
 26 27  1  0  0  0  0
 28 29  1  6  0  0  0
 28 32  1  0  0  0  0
 30 31  1  1  0  0  0
M  END
>  <CHROM.1>
-146.94906484,-110.48562137,-68.38286506,40.27598044,-179.36727392,-109.31807006
8.81479569,7.05832642,2.74466982,-0.45948549,-0.36129579,2.41530450

>  <Name>
ligand

>  <RI>
0

>  <Rbt.Current_Directory>
/home/itssahil/PROJECTS/Mol_Feturizer/New_Systems/rnas/3TD1

>  <Rbt.Executable>
rbdock ($Id: //depot/dev/client3/rdock/2013.1/src/exe/rbdock.cxx#4 $)

>  <Rbt.Library>
libRbt.so (2013.1, Build901 2013/11/27)

>  <Rbt.Parameter_File>
/export/apps/rDock/src/rDock_2013.1_src/data/scripts/dock_solv.prm

>  <Rbt.Receptor>
prm/blind_docking_100.prm

>  <SCORE>
50.686

>  <SCORE.INTER>
36.7701

>  <SCORE.INTER.CONST>
1

>  <SCORE.INTER.POLAR>
0

>  <SCORE.INTER.ROT>
6

>  <SCORE.INTER.SOLV>
30.5714

>  <SCORE.INTER.VDW>
6.72294

>  <SCORE.INTER.norm>
1.08147

>  <SCORE.INTRA>
4.49197

>  <SCORE.INTRA.DIHEDRAL>
-0.596369

>  <SCORE.INTRA.DIHEDRAL.0>
19.5869

>  <SCORE.INTRA.POLAR>
0

>  <SCORE.INTRA.POLAR.0>
0

>  <SCORE.INTRA.REPUL>
0

>  <SCORE.INTRA.REPUL.0>
0

>  <SCORE.INTRA.SOLV>
0.295743

>  <SCORE.INTRA.SOLV.lig_0>
-70.101

>  <SCORE.INTRA.VDW>
4.64229

>  <SCORE.INTRA.VDW.0>
-3.39718

>  <SCORE.INTRA.norm>
0.132117

>  <SCORE.RESTR>
9.42396

>  <SCORE.RESTR.CAVITY>
9.42396

>  <SCORE.RESTR.norm>
0.277175

>  <SCORE.SYSTEM>
0

>  <SCORE.SYSTEM.CONST>
0

>  <SCORE.SYSTEM.DIHEDRAL>
0

>  <SCORE.SYSTEM.SOLV>
0

>  <SCORE.SYSTEM.norm>
0

>  <SCORE.heavy>
34

>  <SCORE.norm>
1.49077

>  <RMSD>
9.840

$$$$
ligand
 OpenBabel11021811483D
libRbt.so/2013.1/901 2013/11/27
 34 36  0  0  0  0  0  0  0  0999 V2000
    8.6724   11.7333    0.5865 C   0  0  2  0  0  0  0  0  0  0  0  0
    8.2656   10.6222   -0.2275 O   0  0  0  0  0  0  0  0  0  0  0  0
    8.9049    7.7234    2.8466 C   0  0  2  0  0  0  0  0  0  0  0  0
    8.8658    6.4814    3.6108 N   0  0  0  0  0  0  0  0  0  0  0  0
   11.8997    6.8956    0.5750 C   0  0  2  0  0  0  0  0  0  0  0  0
    8.6185   13.0289   -0.2995 C   0  0  2  0  0  0  0  0  0  0  0  0
    7.2558   13.2767   -0.7953 N   0  0  0  0  0  0  0  0  0  0  0  0
    7.4248    8.1379    2.5514 C   0  0  0  0  0  0  0  0  0  0  0  0
   12.1906    5.3521    0.5779 C   0  0  2  0  0  0  0  0  0  0  0  0
   10.9743    4.6325    0.4612 O   0  0  0  0  0  0  0  0  0  0  0  0
    9.5908   12.8750   -1.4892 C   0  0  1  0  0  0  0  0  0  0  0  0
    9.5524   14.0606   -2.3002 O   0  0  0  0  0  0  0  0  0  0  0  0
    7.4653    9.4835    1.7510 C   0  0  2  0  0  0  0  0  0  0  0  0
    6.0916    9.9253    1.4357 N   0  0  0  0  0  0  0  0  0  0  0  0
   12.9419    4.9822    1.9151 C   0  0  1  0  0  0  0  0  0  0  0  0
   13.2284    3.5174    1.9740 N   0  0  0  0  0  0  0  0  0  0  0  0
   11.0122   12.6068   -0.9404 C   0  0  2  0  0  0  0  0  0  0  0  0
   11.9279   12.4505   -2.0384 O   0  0  0  0  0  0  0  0  0  0  0  0
    8.2558    9.3185    0.4278 C   0  0  2  0  0  0  0  0  0  0  0  0
   14.2750    5.8021    1.9936 C   0  0  1  0  0  0  0  0  0  0  0  0
   15.1147    5.4555    0.8955 O   0  0  0  0  0  0  0  0  0  0  0  0
   10.9972   11.3091   -0.0458 C   0  0  2  0  0  0  0  0  0  0  0  0
   10.0394   11.4755    1.0647 O   0  0  0  0  0  0  0  0  0  0  0  0
    9.6966    8.8462    0.7457 C   0  0  2  0  0  0  0  0  0  0  0  0
   10.3968    8.6841   -0.4834 O   0  0  0  0  0  0  0  0  0  0  0  0
   13.9304    7.3232    1.9230 C   0  0  0  0  0  0  0  0  0  0  0  0
   13.1653    7.6330    0.6913 O   0  0  0  0  0  0  0  0  0  0  0  0
   12.3942   11.0033    0.5549 C   0  0  2  0  0  0  0  0  0  0  0  0
   13.2546   10.5141   -0.4705 O   0  0  0  0  0  0  0  0  0  0  0  0
    9.6908    7.4913    1.4911 C   0  0  1  0  0  0  0  0  0  0  0  0
   11.0721    7.1430    1.7459 O   0  0  0  0  0  0  0  0  0  0  0  0
   12.3151    9.9478    1.6455 C   0  0  0  0  0  0  0  0  0  0  0  0
   15.0485    5.5155    3.2748 C   0  0  0  0  0  0  0  0  0  0  0  0
   12.4766    2.9442    3.1068 C   0  0  0  0  0  0  0  0  0  0  0  0
  1  2  1  6  0  0  0
  1  6  1  0  0  0  0
  1 23  1  0  0  0  0
  3  4  1  1  0  0  0
  3  8  1  0  0  0  0
  3 30  1  0  0  0  0
  5  9  1  0  0  0  0
  5 27  1  0  0  0  0
  5 31  1  1  0  0  0
  6  7  1  6  0  0  0
  6 11  1  0  0  0  0
  8 13  1  0  0  0  0
  9 10  1  1  0  0  0
  9 15  1  0  0  0  0
 11 12  1  1  0  0  0
 11 17  1  0  0  0  0
 13 14  1  6  0  0  0
 13 19  1  0  0  0  0
 15 16  1  6  0  0  0
 15 20  1  0  0  0  0
 16 34  1  0  0  0  0
 17 18  1  6  0  0  0
 17 22  1  0  0  0  0
 19  2  1  1  0  0  0
 19 24  1  0  0  0  0
 20 21  1  6  0  0  0
 20 26  1  0  0  0  0
 20 33  1  0  0  0  0
 22 23  1  1  0  0  0
 22 28  1  0  0  0  0
 24 25  1  6  0  0  0
 24 30  1  0  0  0  0
 26 27  1  0  0  0  0
 28 29  1  6  0  0  0
 28 32  1  0  0  0  0
 30 31  1  1  0  0  0
M  END
>  <CHROM.1>
179.83835693,50.24900122,-115.90897281,-72.99758355,179.62848682,-109.89285344
10.83772841,8.76602817,0.82162959,2.06773003,0.21288435,-0.45145752

>  <Name>
ligand

>  <RI>
0

>  <Rbt.Current_Directory>
/home/itssahil/PROJECTS/Mol_Feturizer/New_Systems/rnas/3TD1

>  <Rbt.Executable>
rbdock ($Id: //depot/dev/client3/rdock/2013.1/src/exe/rbdock.cxx#4 $)

>  <Rbt.Library>
libRbt.so (2013.1, Build901 2013/11/27)

>  <Rbt.Parameter_File>
/export/apps/rDock/src/rDock_2013.1_src/data/scripts/dock_solv.prm

>  <Rbt.Receptor>
prm/blind_docking_20.prm

>  <SCORE>
19.8921

>  <SCORE.INTER>
9.88916

>  <SCORE.INTER.CONST>
1

>  <SCORE.INTER.POLAR>
0

>  <SCORE.INTER.ROT>
6

>  <SCORE.INTER.SOLV>
25.7864

>  <SCORE.INTER.VDW>
-9.60268

>  <SCORE.INTER.norm>
0.290858

>  <SCORE.INTRA>
1.76133

>  <SCORE.INTRA.DIHEDRAL>
-10.5941

>  <SCORE.INTRA.DIHEDRAL.0>
19.5869

>  <SCORE.INTRA.POLAR>
0

>  <SCORE.INTRA.POLAR.0>
0

>  <SCORE.INTRA.REPUL>
0

>  <SCORE.INTRA.REPUL.0>
0

>  <SCORE.INTRA.SOLV>
-1.1514

>  <SCORE.INTRA.SOLV.lig_0>
-70.101

>  <SCORE.INTRA.VDW>
7.63408

>  <SCORE.INTRA.VDW.0>
-3.39718

>  <SCORE.INTRA.norm>
0.0518039

>  <SCORE.RESTR>
8.24158

>  <SCORE.RESTR.CAVITY>
8.24158

>  <SCORE.RESTR.norm>
0.242399

>  <SCORE.SYSTEM>
0

>  <SCORE.SYSTEM.CONST>
0

>  <SCORE.SYSTEM.DIHEDRAL>
0

>  <SCORE.SYSTEM.SOLV>
0

>  <SCORE.SYSTEM.norm>
0

>  <SCORE.heavy>
34

>  <SCORE.norm>
0.585061

>  <RMSD>
9.841

$$$$
ligand
 OpenBabel11021811483D
libRbt.so/2013.1/901 2013/11/27
 34 36  0  0  0  0  0  0  0  0999 V2000
   11.2026    8.5063    2.2517 C   0  0  2  0  0  0  0  0  0  0  0  0
   10.4303    7.7806    1.2824 O   0  0  0  0  0  0  0  0  0  0  0  0
    6.6966    9.4933    2.4603 C   0  0  2  0  0  0  0  0  0  0  0  0
    5.2710    9.7935    2.5344 N   0  0  0  0  0  0  0  0  0  0  0  0
    6.6773    6.4304    4.7890 C   0  0  2  0  0  0  0  0  0  0  0  0
   12.0584    9.5776    1.4860 C   0  0  2  0  0  0  0  0  0  0  0  0
   11.1979   10.5238    0.7590 N   0  0  0  0  0  0  0  0  0  0  0  0
    7.1420    9.7022    0.9745 C   0  0  0  0  0  0  0  0  0  0  0  0
    5.3890    5.6927    4.2760 C   0  0  2  0  0  0  0  0  0  0  0  0
    5.3749    5.6776    2.8581 O   0  0  0  0  0  0  0  0  0  0  0  0
   13.0062    8.8635    0.4981 C   0  0  1  0  0  0  0  0  0  0  0  0
   13.7983    9.8378   -0.2005 O   0  0  0  0  0  0  0  0  0  0  0  0
    8.6774    9.4027    0.8985 C   0  0  2  0  0  0  0  0  0  0  0  0
    9.1583    9.5776   -0.4870 N   0  0  0  0  0  0  0  0  0  0  0  0
    4.1200    6.4358    4.8475 C   0  0  1  0  0  0  0  0  0  0  0  0
    2.8641    5.7801    4.3741 N   0  0  0  0  0  0  0  0  0  0  0  0
   13.8919    7.8697    1.2865 C   0  0  2  0  0  0  0  0  0  0  0  0
   14.7736    7.1884    0.3772 O   0  0  0  0  0  0  0  0  0  0  0  0
    8.9834    7.9539    1.3571 C   0  0  2  0  0  0  0  0  0  0  0  0
    4.1848    6.4234    6.4132 C   0  0  1  0  0  0  0  0  0  0  0  0
    4.1666    5.0776    6.8817 O   0  0  0  0  0  0  0  0  0  0  0  0
   12.9774    6.8353    2.0471 C   0  0  2  0  0  0  0  0  0  0  0  0
   12.0647    7.5488    2.9614 O   0  0  0  0  0  0  0  0  0  0  0  0
    8.4749    7.7559    2.8070 C   0  0  2  0  0  0  0  0  0  0  0  0
    8.7498    6.4151    3.1994 O   0  0  0  0  0  0  0  0  0  0  0  0
    5.5121    7.1113    6.8632 C   0  0  0  0  0  0  0  0  0  0  0  0
    6.6859    6.4370    6.2583 O   0  0  0  0  0  0  0  0  0  0  0  0
   13.8118    5.8259    2.8782 C   0  0  2  0  0  0  0  0  0  0  0  0
   14.7384    6.5361    3.6957 O   0  0  0  0  0  0  0  0  0  0  0  0
    6.9499    7.9940    2.9036 C   0  0  1  0  0  0  0  0  0  0  0  0
    6.5775    7.7927    4.2875 O   0  0  0  0  0  0  0  0  0  0  0  0
   14.6002    4.8825    1.9848 C   0  0  0  0  0  0  0  0  0  0  0  0
    2.9997    7.1469    7.0407 C   0  0  0  0  0  0  0  0  0  0  0  0
    1.8379    6.8242    4.1906 C   0  0  0  0  0  0  0  0  0  0  0  0
  1  2  1  6  0  0  0
  1  6  1  0  0  0  0
  1 23  1  0  0  0  0
  3  4  1  6  0  0  0
  3  8  1  0  0  0  0
  3 30  1  0  0  0  0
  5  9  1  0  0  0  0
  5 27  1  0  0  0  0
  5 31  1  6  0  0  0
  6  7  1  6  0  0  0
  6 11  1  0  0  0  0
  8 13  1  0  0  0  0
  9 10  1  6  0  0  0
  9 15  1  0  0  0  0
 11 12  1  1  0  0  0
 11 17  1  0  0  0  0
 13 14  1  6  0  0  0
 13 19  1  0  0  0  0
 15 16  1  1  0  0  0
 15 20  1  0  0  0  0
 16 34  1  0  0  0  0
 17 18  1  6  0  0  0
 17 22  1  0  0  0  0
 19  2  1  1  0  0  0
 19 24  1  0  0  0  0
 20 21  1  1  0  0  0
 20 26  1  0  0  0  0
 20 33  1  0  0  0  0
 22 23  1  1  0  0  0
 22 28  1  0  0  0  0
 24 25  1  6  0  0  0
 24 30  1  0  0  0  0
 26 27  1  0  0  0  0
 28 29  1  1  0  0  0
 28 32  1  0  0  0  0
 30 31  1  1  0  0  0
M  END
>  <CHROM.1>
-114.08651173,69.97069653,-146.05070596,50.89524625,175.92227150,-79.61063392
8.70239129,7.51900800,2.98834196,0.37646069,0.19231747,-0.81178975

>  <Name>
ligand

>  <RI>
0

>  <Rbt.Current_Directory>
/home/itssahil/PROJECTS/Mol_Feturizer/New_Systems/rnas/3TD1

>  <Rbt.Executable>
rbdock ($Id: //depot/dev/client3/rdock/2013.1/src/exe/rbdock.cxx#4 $)

>  <Rbt.Library>
libRbt.so (2013.1, Build901 2013/11/27)

>  <Rbt.Parameter_File>
/export/apps/rDock/src/rDock_2013.1_src/data/scripts/dock_solv.prm

>  <Rbt.Receptor>
prm/blind_docking_100.prm

>  <SCORE>
40.8599

>  <SCORE.INTER>
29.8475

>  <SCORE.INTER.CONST>
1

>  <SCORE.INTER.POLAR>
0

>  <SCORE.INTER.ROT>
6

>  <SCORE.INTER.SOLV>
30.8373

>  <SCORE.INTER.VDW>
2.01923

>  <SCORE.INTER.norm>
0.877868

>  <SCORE.INTRA>
1.7811

>  <SCORE.INTRA.DIHEDRAL>
-9.17919

>  <SCORE.INTRA.DIHEDRAL.0>
19.5869

>  <SCORE.INTRA.POLAR>
0

>  <SCORE.INTRA.POLAR.0>
0

>  <SCORE.INTRA.REPUL>
0

>  <SCORE.INTRA.REPUL.0>
0

>  <SCORE.INTRA.SOLV>
2.33953

>  <SCORE.INTRA.SOLV.lig_0>
-70.101

>  <SCORE.INTRA.VDW>
5.20092

>  <SCORE.INTRA.VDW.0>
-3.39718

>  <SCORE.INTRA.norm>
0.0523851

>  <SCORE.RESTR>
9.23132

>  <SCORE.RESTR.CAVITY>
9.23132

>  <SCORE.RESTR.norm>
0.271509

>  <SCORE.SYSTEM>
0

>  <SCORE.SYSTEM.CONST>
0

>  <SCORE.SYSTEM.DIHEDRAL>
0

>  <SCORE.SYSTEM.SOLV>
0

>  <SCORE.SYSTEM.norm>
0

>  <SCORE.heavy>
34

>  <SCORE.norm>
1.20176

>  <RMSD>
9.851

$$$$
ligand
 OpenBabel11021811483D
libRbt.so/2013.1/901 2013/11/27
 34 36  0  0  0  0  0  0  0  0999 V2000
   11.0437    6.4675    0.4166 C   0  0  2  0  0  0  0  0  0  0  0  0
   10.5840    7.1896    1.5697 O   0  0  0  0  0  0  0  0  0  0  0  0
    7.0385    9.3382    2.6067 C   0  0  2  0  0  0  0  0  0  0  0  0
    5.6585    9.8107    2.6224 N   0  0  0  0  0  0  0  0  0  0  0  0
    6.6496    6.2925    4.9275 C   0  0  2  0  0  0  0  0  0  0  0  0
   12.0239    5.3430    0.9079 C   0  0  2  0  0  0  0  0  0  0  0  0
   11.3445    4.4059    1.8159 N   0  0  0  0  0  0  0  0  0  0  0  0
    7.5730    9.5035    1.1449 C   0  0  0  0  0  0  0  0  0  0  0  0
    5.3597    5.5981    4.3607 C   0  0  2  0  0  0  0  0  0  0  0  0
    5.4153    5.5613    2.9442 O   0  0  0  0  0  0  0  0  0  0  0  0
   13.2269    5.9919    1.6262 C   0  0  1  0  0  0  0  0  0  0  0  0
   14.1322    4.9687    2.0715 O   0  0  0  0  0  0  0  0  0  0  0  0
    9.0620    9.0182    1.1322 C   0  0  2  0  0  0  0  0  0  0  0  0
    9.6229    9.1445   -0.2283 N   0  0  0  0  0  0  0  0  0  0  0  0
    4.0948    6.3997    4.8576 C   0  0  1  0  0  0  0  0  0  0  0  0
    2.8386    5.7866    4.3309 N   0  0  0  0  0  0  0  0  0  0  0  0
   13.9165    6.9776    0.6533 C   0  0  2  0  0  0  0  0  0  0  0  0
   15.0338    7.5984    1.3126 O   0  0  0  0  0  0  0  0  0  0  0  0
    9.1672    7.5389    1.5833 C   0  0  2  0  0  0  0  0  0  0  0  0
    4.0814    6.4094    6.4245 C   0  0  1  0  0  0  0  0  0  0  0  0
    3.9859    5.0729    6.9100 O   0  0  0  0  0  0  0  0  0  0  0  0
   12.8795    8.0671    0.1817 C   0  0  2  0  0  0  0  0  0  0  0  0
   11.7296    7.4153   -0.4749 O   0  0  0  0  0  0  0  0  0  0  0  0
    8.5732    7.3925    3.0066 C   0  0  2  0  0  0  0  0  0  0  0  0
    8.6639    6.0247    3.3918 O   0  0  0  0  0  0  0  0  0  0  0  0
    5.4113    7.0514    6.9310 C   0  0  0  0  0  0  0  0  0  0  0  0
    6.5856    6.3219    6.3951 O   0  0  0  0  0  0  0  0  0  0  0  0
   13.5091    9.0715   -0.8186 C   0  0  2  0  0  0  0  0  0  0  0  0
   14.6351    9.7013   -0.2129 O   0  0  0  0  0  0  0  0  0  0  0  0
    7.0861    7.8154    3.0396 C   0  0  1  0  0  0  0  0  0  0  0  0
    6.6296    7.6495    4.4028 O   0  0  0  0  0  0  0  0  0  0  0  0
   12.5222   10.1561   -1.2178 C   0  0  0  0  0  0  0  0  0  0  0  0
    2.8967    7.1889    6.9818 C   0  0  0  0  0  0  0  0  0  0  0  0
    1.8379    6.8572    4.1597 C   0  0  0  0  0  0  0  0  0  0  0  0
  1  2  1  1  0  0  0
  1  6  1  0  0  0  0
  1 23  1  0  0  0  0
  3  4  1  6  0  0  0
  3  8  1  0  0  0  0
  3 30  1  0  0  0  0
  5  9  1  0  0  0  0
  5 27  1  0  0  0  0
  5 31  1  6  0  0  0
  6  7  1  1  0  0  0
  6 11  1  0  0  0  0
  8 13  1  0  0  0  0
  9 10  1  6  0  0  0
  9 15  1  0  0  0  0
 11 12  1  6  0  0  0
 11 17  1  0  0  0  0
 13 14  1  6  0  0  0
 13 19  1  0  0  0  0
 15 16  1  1  0  0  0
 15 20  1  0  0  0  0
 16 34  1  0  0  0  0
 17 18  1  1  0  0  0
 17 22  1  0  0  0  0
 19  2  1  1  0  0  0
 19 24  1  0  0  0  0
 20 21  1  1  0  0  0
 20 26  1  0  0  0  0
 20 33  1  0  0  0  0
 22 23  1  6  0  0  0
 22 28  1  0  0  0  0
 24 25  1  6  0  0  0
 24 30  1  0  0  0  0
 26 27  1  0  0  0  0
 28 29  1  1  0  0  0
 28 32  1  0  0  0  0
 30 31  1  1  0  0  0
M  END
>  <CHROM.1>
-138.38111769,-99.37526181,-149.46006582,-57.83076242,-178.91666052,-79.99596603
8.69014676,7.19886512,2.65384988,-0.40691076,-0.34027559,2.45673907

>  <Name>
ligand

>  <RI>
0

>  <Rbt.Current_Directory>
/home/itssahil/PROJECTS/Mol_Feturizer/New_Systems/rnas/3TD1

>  <Rbt.Executable>
rbdock ($Id: //depot/dev/client3/rdock/2013.1/src/exe/rbdock.cxx#4 $)

>  <Rbt.Library>
libRbt.so (2013.1, Build901 2013/11/27)

>  <Rbt.Parameter_File>
/export/apps/rDock/src/rDock_2013.1_src/data/scripts/dock_solv.prm

>  <Rbt.Receptor>
prm/blind_docking_100.prm

>  <SCORE>
40.3936

>  <SCORE.INTER>
29.7238

>  <SCORE.INTER.CONST>
1

>  <SCORE.INTER.POLAR>
0

>  <SCORE.INTER.ROT>
6

>  <SCORE.INTER.SOLV>
32.5163

>  <SCORE.INTER.VDW>
1.37714

>  <SCORE.INTER.norm>
0.874231

>  <SCORE.INTRA>
1.18141

>  <SCORE.INTRA.DIHEDRAL>
-6.12657

>  <SCORE.INTRA.DIHEDRAL.0>
19.5869

>  <SCORE.INTRA.POLAR>
0

>  <SCORE.INTRA.POLAR.0>
0

>  <SCORE.INTRA.REPUL>
0

>  <SCORE.INTRA.REPUL.0>
0

>  <SCORE.INTRA.SOLV>
0.926322

>  <SCORE.INTRA.SOLV.lig_0>
-70.101

>  <SCORE.INTRA.VDW>
3.78154

>  <SCORE.INTRA.VDW.0>
-3.39718

>  <SCORE.INTRA.norm>
0.0347474

>  <SCORE.RESTR>
9.48829

>  <SCORE.RESTR.CAVITY>
9.48829

>  <SCORE.RESTR.norm>
0.279067

>  <SCORE.SYSTEM>
0

>  <SCORE.SYSTEM.CONST>
0

>  <SCORE.SYSTEM.DIHEDRAL>
0

>  <SCORE.SYSTEM.SOLV>
0

>  <SCORE.SYSTEM.norm>
0

>  <SCORE.heavy>
34

>  <SCORE.norm>
1.18805

>  <RMSD>
9.854

$$$$
ligand
 OpenBabel11021811483D
libRbt.so/2013.1/901 2013/11/27
 34 36  0  0  0  0  0  0  0  0999 V2000
    6.8823    1.5835    6.4077 C   0  0  2  0  0  0  0  0  0  0  0  0
    6.8778    2.2500    7.6798 O   0  0  0  0  0  0  0  0  0  0  0  0
    4.2038    4.8838    9.7230 C   0  0  2  0  0  0  0  0  0  0  0  0
    3.2646    5.9652    9.9994 N   0  0  0  0  0  0  0  0  0  0  0  0
    1.4139    2.6285    8.4316 C   0  0  2  0  0  0  0  0  0  0  0  0
    8.0246    0.5058    6.4291 C   0  0  2  0  0  0  0  0  0  0  0  0
    7.7948   -0.4905    7.4868 N   0  0  0  0  0  0  0  0  0  0  0  0
    5.4717    5.5223    9.0639 C   0  0  0  0  0  0  0  0  0  0  0  0
    0.5407    3.8281    7.9162 C   0  0  2  0  0  0  0  0  0  0  0  0
    1.3568    4.7518    7.2152 O   0  0  0  0  0  0  0  0  0  0  0  0
    9.3830    1.2054    6.6521 C   0  0  1  0  0  0  0  0  0  0  0  0
   10.4339    0.2255    6.6648 O   0  0  0  0  0  0  0  0  0  0  0  0
    6.4902    4.3649    8.7881 C   0  0  2  0  0  0  0  0  0  0  0  0
    7.7114    4.9061    8.1577 N   0  0  0  0  0  0  0  0  0  0  0  0
   -0.1565    4.5138    9.1544 C   0  0  1  0  0  0  0  0  0  0  0  0
   -0.9892    5.6746    8.7177 N   0  0  0  0  0  0  0  0  0  0  0  0
    9.5946    2.2523    5.5328 C   0  0  2  0  0  0  0  0  0  0  0  0
   10.8524    2.9204    5.7335 O   0  0  0  0  0  0  0  0  0  0  0  0
    5.8737    3.2948    7.8514 C   0  0  2  0  0  0  0  0  0  0  0  0
   -1.0438    3.4529    9.8911 C   0  0  1  0  0  0  0  0  0  0  0  0
   -2.0582    2.9819    9.0079 O   0  0  0  0  0  0  0  0  0  0  0  0
    8.4094    3.2913    5.5500 C   0  0  2  0  0  0  0  0  0  0  0  0
    7.1241    2.5905    5.3631 O   0  0  0  0  0  0  0  0  0  0  0  0
    4.5862    2.7260    8.4987 C   0  0  2  0  0  0  0  0  0  0  0  0
    4.0284    1.7601    7.6137 O   0  0  0  0  0  0  0  0  0  0  0  0
   -0.1371    2.2579   10.3238 C   0  0  0  0  0  0  0  0  0  0  0  0
    0.5597    1.6746    9.1522 O   0  0  0  0  0  0  0  0  0  0  0  0
    8.5544    4.3542    4.4296 C   0  0  2  0  0  0  0  0  0  0  0  0
    9.8035    5.0257    4.5717 O   0  0  0  0  0  0  0  0  0  0  0  0
    3.5390    3.8390    8.7355 C   0  0  1  0  0  0  0  0  0  0  0  0
    2.3856    3.2118    9.3442 O   0  0  0  0  0  0  0  0  0  0  0  0
    7.4500    5.3958    4.5006 C   0  0  0  0  0  0  0  0  0  0  0  0
   -1.7341    4.0367   11.1177 C   0  0  0  0  0  0  0  0  0  0  0  0
   -0.1634    6.8943    8.8032 C   0  0  0  0  0  0  0  0  0  0  0  0
  1  2  1  1  0  0  0
  1  6  1  0  0  0  0
  1 23  1  0  0  0  0
  3  4  1  6  0  0  0
  3  8  1  0  0  0  0
  3 30  1  0  0  0  0
  5  9  1  0  0  0  0
  5 27  1  0  0  0  0
  5 31  1  1  0  0  0
  6  7  1  1  0  0  0
  6 11  1  0  0  0  0
  8 13  1  0  0  0  0
  9 10  1  1  0  0  0
  9 15  1  0  0  0  0
 11 12  1  6  0  0  0
 11 17  1  0  0  0  0
 13 14  1  6  0  0  0
 13 19  1  0  0  0  0
 15 16  1  6  0  0  0
 15 20  1  0  0  0  0
 16 34  1  0  0  0  0
 17 18  1  1  0  0  0
 17 22  1  0  0  0  0
 19  2  1  1  0  0  0
 19 24  1  0  0  0  0
 20 21  1  6  0  0  0
 20 26  1  0  0  0  0
 20 33  1  0  0  0  0
 22 23  1  6  0  0  0
 22 28  1  0  0  0  0
 24 25  1  6  0  0  0
 24 30  1  0  0  0  0
 26 27  1  0  0  0  0
 28 29  1  1  0  0  0
 28 32  1  0  0  0  0
 30 31  1  1  0  0  0
M  END
>  <CHROM.1>
-179.94462627,-147.68897152,-92.98645688,-57.37455079,158.17043316,-80.28241621
4.59919920,3.35618080,7.76076975,0.08693989,-0.37165730,2.97223619

>  <Name>
ligand

>  <RI>
0

>  <Rbt.Current_Directory>
/home/itssahil/PROJECTS/Mol_Feturizer/New_Systems/rnas/3TD1

>  <Rbt.Executable>
rbdock ($Id: //depot/dev/client3/rdock/2013.1/src/exe/rbdock.cxx#4 $)

>  <Rbt.Library>
libRbt.so (2013.1, Build901 2013/11/27)

>  <Rbt.Parameter_File>
/export/apps/rDock/src/rDock_2013.1_src/data/scripts/dock_solv.prm

>  <Rbt.Receptor>
prm/pocket_docking_8.prm

>  <SCORE>
-17.8993

>  <SCORE.INTER>
-12.9526

>  <SCORE.INTER.CONST>
1

>  <SCORE.INTER.POLAR>
0

>  <SCORE.INTER.ROT>
6

>  <SCORE.INTER.SOLV>
21.7996

>  <SCORE.INTER.VDW>
-23.5016

>  <SCORE.INTER.norm>
-0.380958

>  <SCORE.INTRA>
-4.94669

>  <SCORE.INTRA.DIHEDRAL>
-10.8445

>  <SCORE.INTRA.DIHEDRAL.0>
19.5869

>  <SCORE.INTRA.POLAR>
0

>  <SCORE.INTRA.POLAR.0>
0

>  <SCORE.INTRA.REPUL>
0

>  <SCORE.INTRA.REPUL.0>
0

>  <SCORE.INTRA.SOLV>
1.27254

>  <SCORE.INTRA.SOLV.lig_0>
-70.101

>  <SCORE.INTRA.VDW>
-0.16072

>  <SCORE.INTRA.VDW.0>
-3.39718

>  <SCORE.INTRA.norm>
-0.145491

>  <SCORE.RESTR>
0

>  <SCORE.RESTR.CAVITY>
0

>  <SCORE.RESTR.norm>
0

>  <SCORE.SYSTEM>
0

>  <SCORE.SYSTEM.CONST>
0

>  <SCORE.SYSTEM.DIHEDRAL>
0

>  <SCORE.SYSTEM.SOLV>
0

>  <SCORE.SYSTEM.norm>
0

>  <SCORE.heavy>
34

>  <SCORE.norm>
-0.526449

>  <RMSD>
9.877

$$$$
ligand
 OpenBabel11021811483D
libRbt.so/2013.1/901 2013/11/27
 34 36  0  0  0  0  0  0  0  0999 V2000
    9.3435   10.5031    1.8853 C   0  0  2  0  0  0  0  0  0  0  0  0
    8.4686    9.4991    1.3477 O   0  0  0  0  0  0  0  0  0  0  0  0
    6.8850    5.7349    2.6066 C   0  0  2  0  0  0  0  0  0  0  0  0
    6.7412    4.4428    3.2684 N   0  0  0  0  0  0  0  0  0  0  0  0
    4.8949    5.6908    4.5082 C   0  0  2  0  0  0  0  0  0  0  0  0
    9.8783   11.3704    0.6902 C   0  0  2  0  0  0  0  0  0  0  0  0
    8.7739   12.0335   -0.0204 N   0  0  0  0  0  0  0  0  0  0  0  0
    8.2457    5.7155    1.8334 C   0  0  0  0  0  0  0  0  0  0  0  0
    3.4163    6.0843    4.8634 C   0  0  2  0  0  0  0  0  0  0  0  0
    2.8579    6.8565    3.8133 O   0  0  0  0  0  0  0  0  0  0  0  0
   10.6638   10.4673   -0.2853 C   0  0  1  0  0  0  0  0  0  0  0  0
   11.1629   11.2562   -1.3776 O   0  0  0  0  0  0  0  0  0  0  0  0
    8.3901    7.0937    1.1036 C   0  0  2  0  0  0  0  0  0  0  0  0
    9.6640    7.1393    0.3575 N   0  0  0  0  0  0  0  0  0  0  0  0
    3.4201    6.8905    6.2196 C   0  0  1  0  0  0  0  0  0  0  0  0
    2.0342    7.3030    6.5945 N   0  0  0  0  0  0  0  0  0  0  0  0
   11.8116    9.7766    0.4888 C   0  0  2  0  0  0  0  0  0  0  0  0
   12.5464    8.9227   -0.4054 O   0  0  0  0  0  0  0  0  0  0  0  0
    8.3605    8.2649    2.1186 C   0  0  2  0  0  0  0  0  0  0  0  0
    4.0449    5.9943    7.3430 C   0  0  1  0  0  0  0  0  0  0  0  0
    3.2506    4.8240    7.5179 O   0  0  0  0  0  0  0  0  0  0  0  0
   11.2145    8.9401    1.6840 C   0  0  2  0  0  0  0  0  0  0  0  0
   10.4469    9.8245    2.5822 O   0  0  0  0  0  0  0  0  0  0  0  0
    7.0317    8.2219    2.9139 C   0  0  2  0  0  0  0  0  0  0  0  0
    7.0351    9.2938    3.8510 O   0  0  0  0  0  0  0  0  0  0  0  0
    5.4868    5.5823    6.9085 C   0  0  0  0  0  0  0  0  0  0  0  0
    5.4636    4.8872    5.5991 O   0  0  0  0  0  0  0  0  0  0  0  0
   12.3239    8.2432    2.5145 C   0  0  2  0  0  0  0  0  0  0  0  0
   13.4598    9.0996    2.6017 O   0  0  0  0  0  0  0  0  0  0  0  0
    6.8849    6.8915    3.6887 C   0  0  1  0  0  0  0  0  0  0  0  0
    5.6191    6.9471    4.3880 O   0  0  0  0  0  0  0  0  0  0  0  0
   12.7668    6.9388    1.8727 C   0  0  0  0  0  0  0  0  0  0  0  0
    4.1051    6.7160    8.6836 C   0  0  0  0  0  0  0  0  0  0  0  0
    1.1442    6.1380    6.4288 C   0  0  0  0  0  0  0  0  0  0  0  0
  1  2  1  6  0  0  0
  1  6  1  0  0  0  0
  1 23  1  0  0  0  0
  3  4  1  1  0  0  0
  3  8  1  0  0  0  0
  3 30  1  0  0  0  0
  5  9  1  0  0  0  0
  5 27  1  0  0  0  0
  5 31  1  1  0  0  0
  6  7  1  6  0  0  0
  6 11  1  0  0  0  0
  8 13  1  0  0  0  0
  9 10  1  6  0  0  0
  9 15  1  0  0  0  0
 11 12  1  6  0  0  0
 11 17  1  0  0  0  0
 13 14  1  1  0  0  0
 13 19  1  0  0  0  0
 15 16  1  1  0  0  0
 15 20  1  0  0  0  0
 16 34  1  0  0  0  0
 17 18  1  6  0  0  0
 17 22  1  0  0  0  0
 19  2  1  6  0  0  0
 19 24  1  0  0  0  0
 20 21  1  1  0  0  0
 20 26  1  0  0  0  0
 20 33  1  0  0  0  0
 22 23  1  1  0  0  0
 22 28  1  0  0  0  0
 24 25  1  1  0  0  0
 24 30  1  0  0  0  0
 26 27  1  0  0  0  0
 28 29  1  6  0  0  0
 28 32  1  0  0  0  0
 30 31  1  6  0  0  0
M  END
>  <CHROM.1>
152.61242721,-137.49954607,46.37186215,36.99322802,29.00734652,-162.27911488
7.58930831,7.75678275,3.19240583,0.64081880,0.33163551,-0.58592941

>  <Name>
ligand

>  <RI>
0

>  <Rbt.Current_Directory>
/home/itssahil/PROJECTS/Mol_Feturizer/New_Systems/rnas/3TD1

>  <Rbt.Executable>
rbdock ($Id: //depot/dev/client3/rdock/2013.1/src/exe/rbdock.cxx#4 $)

>  <Rbt.Library>
libRbt.so (2013.1, Build901 2013/11/27)

>  <Rbt.Parameter_File>
/export/apps/rDock/src/rDock_2013.1_src/data/scripts/dock_solv.prm

>  <Rbt.Receptor>
prm/blind_docking_40.prm

>  <SCORE>
65.5376

>  <SCORE.INTER>
51.1778

>  <SCORE.INTER.CONST>
1

>  <SCORE.INTER.POLAR>
0

>  <SCORE.INTER.ROT>
6

>  <SCORE.INTER.SOLV>
26.4173

>  <SCORE.INTER.VDW>
17.7127

>  <SCORE.INTER.norm>
1.50523

>  <SCORE.INTRA>
9.66881

>  <SCORE.INTRA.DIHEDRAL>
-3.58984

>  <SCORE.INTRA.DIHEDRAL.0>
19.5869

>  <SCORE.INTRA.POLAR>
0

>  <SCORE.INTRA.POLAR.0>
0

>  <SCORE.INTRA.REPUL>
0

>  <SCORE.INTRA.REPUL.0>
0

>  <SCORE.INTRA.SOLV>
3.89849

>  <SCORE.INTRA.SOLV.lig_0>
-70.101

>  <SCORE.INTRA.VDW>
9.51449

>  <SCORE.INTRA.VDW.0>
-3.39718

>  <SCORE.INTRA.norm>
0.284377

>  <SCORE.RESTR>
4.69103

>  <SCORE.RESTR.CAVITY>
4.69103

>  <SCORE.RESTR.norm>
0.137972

>  <SCORE.SYSTEM>
0

>  <SCORE.SYSTEM.CONST>
0

>  <SCORE.SYSTEM.DIHEDRAL>
0

>  <SCORE.SYSTEM.SOLV>
0

>  <SCORE.SYSTEM.norm>
0

>  <SCORE.heavy>
34

>  <SCORE.norm>
1.92758

>  <RMSD>
9.885

$$$$
ligand
 OpenBabel11021811483D
libRbt.so/2013.1/901 2013/11/27
 34 36  0  0  0  0  0  0  0  0999 V2000
    9.3265   10.5077    1.8710 C   0  0  2  0  0  0  0  0  0  0  0  0
    8.4701    9.4861    1.3366 O   0  0  0  0  0  0  0  0  0  0  0  0
    6.9129    5.7236    2.6328 C   0  0  2  0  0  0  0  0  0  0  0  0
    6.7769    4.4384    3.3095 N   0  0  0  0  0  0  0  0  0  0  0  0
    4.9046    5.6881    4.5085 C   0  0  2  0  0  0  0  0  0  0  0  0
    9.8267   11.3952    0.6758 C   0  0  2  0  0  0  0  0  0  0  0  0
    8.6987   12.0357   -0.0183 N   0  0  0  0  0  0  0  0  0  0  0  0
    8.2779    5.7069    1.8671 C   0  0  0  0  0  0  0  0  0  0  0  0
    3.4250    6.0782    4.8633 C   0  0  2  0  0  0  0  0  0  0  0  0
    2.8663    6.8525    3.8150 O   0  0  0  0  0  0  0  0  0  0  0  0
   10.6229   10.5175   -0.3142 C   0  0  1  0  0  0  0  0  0  0  0  0
   11.0905   11.3251   -1.4068 O   0  0  0  0  0  0  0  0  0  0  0  0
    8.4141    7.0774    1.1213 C   0  0  2  0  0  0  0  0  0  0  0  0
    9.6916    7.1252    0.3816 N   0  0  0  0  0  0  0  0  0  0  0  0
    3.4262    6.8805    6.2219 C   0  0  1  0  0  0  0  0  0  0  0  0
    2.0393    7.2896    6.5967 N   0  0  0  0  0  0  0  0  0  0  0  0
   11.7956    9.8501    0.4427 C   0  0  2  0  0  0  0  0  0  0  0  0
   12.5409    9.0199   -0.4650 O   0  0  0  0  0  0  0  0  0  0  0  0
    8.3688    8.2604    2.1219 C   0  0  2  0  0  0  0  0  0  0  0  0
    4.0514    5.9820    7.3433 C   0  0  1  0  0  0  0  0  0  0  0  0
    3.2589    4.8099    7.5140 O   0  0  0  0  0  0  0  0  0  0  0  0
   11.2324    8.9919    1.6389 C   0  0  2  0  0  0  0  0  0  0  0  0
   10.4537    9.8518    2.5513 O   0  0  0  0  0  0  0  0  0  0  0  0
    7.0361    8.2153    2.9105 C   0  0  2  0  0  0  0  0  0  0  0  0
    7.0250    9.2986    3.8346 O   0  0  0  0  0  0  0  0  0  0  0  0
    5.4944    5.5738    6.9090 C   0  0  0  0  0  0  0  0  0  0  0  0
    5.4736    4.8824    5.5975 O   0  0  0  0  0  0  0  0  0  0  0  0
   12.3675    8.3170    2.4526 C   0  0  2  0  0  0  0  0  0  0  0  0
   13.4514    9.2302    2.6022 O   0  0  0  0  0  0  0  0  0  0  0  0
    6.8968    6.8932    3.7007 C   0  0  1  0  0  0  0  0  0  0  0  0
    5.6268    6.9460    4.3925 O   0  0  0  0  0  0  0  0  0  0  0  0
   12.8933    7.0739    1.7541 C   0  0  0  0  0  0  0  0  0  0  0  0
    4.1092    6.7000    8.6860 C   0  0  0  0  0  0  0  0  0  0  0  0
    1.1593    6.1122    6.4689 C   0  0  0  0  0  0  0  0  0  0  0  0
  1  2  1  6  0  0  0
  1  6  1  0  0  0  0
  1 23  1  0  0  0  0
  3  4  1  1  0  0  0
  3  8  1  0  0  0  0
  3 30  1  0  0  0  0
  5  9  1  0  0  0  0
  5 27  1  0  0  0  0
  5 31  1  1  0  0  0
  6  7  1  6  0  0  0
  6 11  1  0  0  0  0
  8 13  1  0  0  0  0
  9 10  1  6  0  0  0
  9 15  1  0  0  0  0
 11 12  1  6  0  0  0
 11 17  1  0  0  0  0
 13 14  1  1  0  0  0
 13 19  1  0  0  0  0
 15 16  1  1  0  0  0
 15 20  1  0  0  0  0
 16 34  1  0  0  0  0
 17 18  1  6  0  0  0
 17 22  1  0  0  0  0
 19  2  1  6  0  0  0
 19 24  1  0  0  0  0
 20 21  1  1  0  0  0
 20 26  1  0  0  0  0
 20 33  1  0  0  0  0
 22 23  1  1  0  0  0
 22 28  1  0  0  0  0
 24 25  1  1  0  0  0
 24 30  1  0  0  0  0
 26 27  1  0  0  0  0
 28 29  1  6  0  0  0
 28 32  1  0  0  0  0
 30 31  1  6  0  0  0
M  END
>  <CHROM.1>
154.41966037,-137.89167526,48.18321910,40.49068324,28.21079335,-162.60747200
7.59418199,7.77367925,3.18410678,0.64668783,0.33154719,-0.58518549

>  <Name>
ligand

>  <RI>
0

>  <Rbt.Current_Directory>
/home/itssahil/PROJECTS/Mol_Feturizer/New_Systems/rnas/3TD1

>  <Rbt.Executable>
rbdock ($Id: //depot/dev/client3/rdock/2013.1/src/exe/rbdock.cxx#4 $)

>  <Rbt.Library>
libRbt.so (2013.1, Build901 2013/11/27)

>  <Rbt.Parameter_File>
/export/apps/rDock/src/rDock_2013.1_src/data/scripts/dock_solv.prm

>  <Rbt.Receptor>
prm/blind_docking_40.prm

>  <SCORE>
65.0336

>  <SCORE.INTER>
50.8963

>  <SCORE.INTER.CONST>
1

>  <SCORE.INTER.POLAR>
0

>  <SCORE.INTER.ROT>
6

>  <SCORE.INTER.SOLV>
26.4638

>  <SCORE.INTER.VDW>
17.5096

>  <SCORE.INTER.norm>
1.49695

>  <SCORE.INTRA>
9.31998

>  <SCORE.INTRA.DIHEDRAL>
-4.3609

>  <SCORE.INTRA.DIHEDRAL.0>
19.5869

>  <SCORE.INTRA.POLAR>
0

>  <SCORE.INTRA.POLAR.0>
0

>  <SCORE.INTRA.REPUL>
0

>  <SCORE.INTRA.REPUL.0>
0

>  <SCORE.INTRA.SOLV>
3.81459

>  <SCORE.INTRA.SOLV.lig_0>
-70.101

>  <SCORE.INTRA.VDW>
9.59314

>  <SCORE.INTRA.VDW.0>
-3.39718

>  <SCORE.INTRA.norm>
0.274117

>  <SCORE.RESTR>
4.81738

>  <SCORE.RESTR.CAVITY>
4.81738

>  <SCORE.RESTR.norm>
0.141688

>  <SCORE.SYSTEM>
0

>  <SCORE.SYSTEM.CONST>
0

>  <SCORE.SYSTEM.DIHEDRAL>
0

>  <SCORE.SYSTEM.SOLV>
0

>  <SCORE.SYSTEM.norm>
0

>  <SCORE.heavy>
34

>  <SCORE.norm>
1.91275

>  <RMSD>
9.903

$$$$
ligand
 OpenBabel11021811483D
libRbt.so/2013.1/901 2013/11/27
 34 36  0  0  0  0  0  0  0  0999 V2000
   11.2802    8.2581    2.1506 C   0  0  2  0  0  0  0  0  0  0  0  0
   10.4515    7.5665    1.2032 O   0  0  0  0  0  0  0  0  0  0  0  0
    6.8195    9.4090    2.4978 C   0  0  2  0  0  0  0  0  0  0  0  0
    5.4077    9.7545    2.6213 N   0  0  0  0  0  0  0  0  0  0  0  0
    6.7809    6.3738    4.8617 C   0  0  2  0  0  0  0  0  0  0  0  0
   11.9317    9.4859    1.4194 C   0  0  2  0  0  0  0  0  0  0  0  0
   10.9042   10.4132    0.9206 N   0  0  0  0  0  0  0  0  0  0  0  0
    7.2147    9.5864    0.9938 C   0  0  0  0  0  0  0  0  0  0  0  0
    5.4989    5.6519    4.3118 C   0  0  2  0  0  0  0  0  0  0  0  0
    5.5296    5.6289    2.8943 O   0  0  0  0  0  0  0  0  0  0  0  0
   12.7981    8.9805    0.2454 C   0  0  1  0  0  0  0  0  0  0  0  0
   13.4038   10.0987   -0.4236 O   0  0  0  0  0  0  0  0  0  0  0  0
    8.7362    9.2381    0.8643 C   0  0  2  0  0  0  0  0  0  0  0  0
    9.1696    9.3815   -0.5404 N   0  0  0  0  0  0  0  0  0  0  0  0
    4.2234    6.4169    4.8387 C   0  0  1  0  0  0  0  0  0  0  0  0
    2.9737    5.7767    4.3290 N   0  0  0  0  0  0  0  0  0  0  0  0
   13.8625    8.0020    0.7959 C   0  0  2  0  0  0  0  0  0  0  0  0
   14.6712    7.5141   -0.2887 O   0  0  0  0  0  0  0  0  0  0  0  0
    9.0145    7.7859    1.3298 C   0  0  2  0  0  0  0  0  0  0  0  0
    4.2383    6.4126    6.4056 C   0  0  1  0  0  0  0  0  0  0  0  0
    4.1853    5.0700    6.8805 O   0  0  0  0  0  0  0  0  0  0  0  0
   13.1492    6.8055    1.5337 C   0  0  2  0  0  0  0  0  0  0  0  0
   12.3078    7.3216    2.6308 O   0  0  0  0  0  0  0  0  0  0  0  0
    8.5552    7.6210    2.8001 C   0  0  2  0  0  0  0  0  0  0  0  0
    8.8033    6.2769    3.1992 O   0  0  0  0  0  0  0  0  0  0  0  0
    5.5606    7.0837    6.8940 C   0  0  0  0  0  0  0  0  0  0  0  0
    6.7429    6.3888    6.3305 O   0  0  0  0  0  0  0  0  0  0  0  0
   14.1701    5.8019    2.1307 C   0  0  2  0  0  0  0  0  0  0  0  0
   15.2180    5.5760    1.1916 O   0  0  0  0  0  0  0  0  0  0  0  0
    7.0431    7.9078    2.9506 C   0  0  1  0  0  0  0  0  0  0  0  0
    6.7172    7.7345    4.3499 O   0  0  0  0  0  0  0  0  0  0  0  0
   13.5215    4.4632    2.4423 C   0  0  0  0  0  0  0  0  0  0  0  0
    3.0446    7.1569    6.9912 C   0  0  0  0  0  0  0  0  0  0  0  0
    1.9284    6.8137    4.2340 C   0  0  0  0  0  0  0  0  0  0  0  0
  1  2  1  6  0  0  0
  1  6  1  0  0  0  0
  1 23  1  0  0  0  0
  3  4  1  6  0  0  0
  3  8  1  0  0  0  0
  3 30  1  0  0  0  0
  5  9  1  0  0  0  0
  5 27  1  0  0  0  0
  5 31  1  6  0  0  0
  6  7  1  6  0  0  0
  6 11  1  0  0  0  0
  8 13  1  0  0  0  0
  9 10  1  6  0  0  0
  9 15  1  0  0  0  0
 11 12  1  1  0  0  0
 11 17  1  0  0  0  0
 13 14  1  6  0  0  0
 13 19  1  0  0  0  0
 15 16  1  1  0  0  0
 15 20  1  0  0  0  0
 16 34  1  0  0  0  0
 17 18  1  6  0  0  0
 17 22  1  0  0  0  0
 19  2  1  1  0  0  0
 19 24  1  0  0  0  0
 20 21  1  1  0  0  0
 20 26  1  0  0  0  0
 20 33  1  0  0  0  0
 22 23  1  1  0  0  0
 22 28  1  0  0  0  0
 24 25  1  6  0  0  0
 24 30  1  0  0  0  0
 26 27  1  0  0  0  0
 28 29  1  6  0  0  0
 28 32  1  0  0  0  0
 30 31  1  1  0  0  0
M  END
>  <CHROM.1>
-103.25228841,71.17283954,-151.56284321,-42.48175922,175.33012561,-75.27663729
8.72454159,7.43028551,2.83237774,0.38500048,0.27845588,-0.72092681

>  <Name>
ligand

>  <RI>
0

>  <Rbt.Current_Directory>
/home/itssahil/PROJECTS/Mol_Feturizer/New_Systems/rnas/3TD1

>  <Rbt.Executable>
rbdock ($Id: //depot/dev/client3/rdock/2013.1/src/exe/rbdock.cxx#4 $)

>  <Rbt.Library>
libRbt.so (2013.1, Build901 2013/11/27)

>  <Rbt.Parameter_File>
/export/apps/rDock/src/rDock_2013.1_src/data/scripts/dock_solv.prm

>  <Rbt.Receptor>
prm/blind_docking_100.prm

>  <SCORE>
38.9304

>  <SCORE.INTER>
26.3131

>  <SCORE.INTER.CONST>
1

>  <SCORE.INTER.POLAR>
0

>  <SCORE.INTER.ROT>
6

>  <SCORE.INTER.SOLV>
30.32

>  <SCORE.INTER.VDW>
-0.164599

>  <SCORE.INTER.norm>
0.773915

>  <SCORE.INTRA>
4.95588

>  <SCORE.INTRA.DIHEDRAL>
-10.1974

>  <SCORE.INTRA.DIHEDRAL.0>
19.5869

>  <SCORE.INTRA.POLAR>
0

>  <SCORE.INTRA.POLAR.0>
0

>  <SCORE.INTRA.REPUL>
0

>  <SCORE.INTRA.REPUL.0>
0

>  <SCORE.INTRA.SOLV>
3.30838

>  <SCORE.INTRA.SOLV.lig_0>
-70.101

>  <SCORE.INTRA.VDW>
8.40041

>  <SCORE.INTRA.VDW.0>
-3.39718

>  <SCORE.INTRA.norm>
0.145761

>  <SCORE.RESTR>
7.66136

>  <SCORE.RESTR.CAVITY>
7.66136

>  <SCORE.RESTR.norm>
0.225334

>  <SCORE.SYSTEM>
0

>  <SCORE.SYSTEM.CONST>
0

>  <SCORE.SYSTEM.DIHEDRAL>
0

>  <SCORE.SYSTEM.SOLV>
0

>  <SCORE.SYSTEM.norm>
0

>  <SCORE.heavy>
34

>  <SCORE.norm>
1.14501

>  <RMSD>
9.906

$$$$
ligand
 OpenBabel11021811483D
libRbt.so/2013.1/901 2013/11/27
 34 36  0  0  0  0  0  0  0  0999 V2000
   10.9471    7.6388    0.0201 C   0  0  2  0  0  0  0  0  0  0  0  0
   10.3832    7.7995    1.3312 O   0  0  0  0  0  0  0  0  0  0  0  0
    6.6365    9.5201    2.4551 C   0  0  2  0  0  0  0  0  0  0  0  0
    5.2101    9.8207    2.5111 N   0  0  0  0  0  0  0  0  0  0  0  0
    6.6076    6.4763    4.8094 C   0  0  2  0  0  0  0  0  0  0  0  0
   11.6193    6.2211   -0.0481 C   0  0  2  0  0  0  0  0  0  0  0  0
   10.6323    5.1540    0.1788 N   0  0  0  0  0  0  0  0  0  0  0  0
    7.0987    9.7189    0.9730 C   0  0  0  0  0  0  0  0  0  0  0  0
    5.3394    5.7145    4.2816 C   0  0  2  0  0  0  0  0  0  0  0  0
    5.3504    5.6852    2.8639 O   0  0  0  0  0  0  0  0  0  0  0  0
   12.7392    6.1351    1.0116 C   0  0  1  0  0  0  0  0  0  0  0  0
   13.3641    4.8426    0.9494 O   0  0  0  0  0  0  0  0  0  0  0  0
    8.6348    9.4189    0.9165 C   0  0  2  0  0  0  0  0  0  0  0  0
    9.1314    9.5844   -0.4647 N   0  0  0  0  0  0  0  0  0  0  0  0
    4.0498    6.4445    4.8233 C   0  0  1  0  0  0  0  0  0  0  0  0
    2.8122    5.7656    4.3349 N   0  0  0  0  0  0  0  0  0  0  0  0
   13.7567    7.2720    0.7554 C   0  0  2  0  0  0  0  0  0  0  0  0
   14.8013    7.2113    1.7422 O   0  0  0  0  0  0  0  0  0  0  0  0
    8.9355    7.9733    1.3883 C   0  0  2  0  0  0  0  0  0  0  0  0
    4.0873    6.4486    6.3899 C   0  0  1  0  0  0  0  0  0  0  0  0
    4.0806    5.1074    6.8717 O   0  0  0  0  0  0  0  0  0  0  0  0
   13.0202    8.6643    0.8169 C   0  0  2  0  0  0  0  0  0  0  0  0
   11.9388    8.7054   -0.1866 O   0  0  0  0  0  0  0  0  0  0  0  0
    8.4107    7.7851    2.8337 C   0  0  2  0  0  0  0  0  0  0  0  0
    8.6811    6.4470    3.2383 O   0  0  0  0  0  0  0  0  0  0  0  0
    5.3963    7.1605    6.8559 C   0  0  0  0  0  0  0  0  0  0  0  0
    6.5903    6.4976    6.2785 O   0  0  0  0  0  0  0  0  0  0  0  0
   13.9883    9.8445    0.5414 C   0  0  2  0  0  0  0  0  0  0  0  0
   13.4154   11.0529    1.0341 O   0  0  0  0  0  0  0  0  0  0  0  0
    6.8847    8.0238    2.9115 C   0  0  1  0  0  0  0  0  0  0  0  0
    6.4967    7.8319    4.2923 O   0  0  0  0  0  0  0  0  0  0  0  0
   14.2477   10.0195   -0.9458 C   0  0  0  0  0  0  0  0  0  0  0  0
    2.8809    7.1607    6.9894 C   0  0  0  0  0  0  0  0  0  0  0  0
    1.8433    6.8032    3.9331 C   0  0  0  0  0  0  0  0  0  0  0  0
  1  2  1  1  0  0  0
  1  6  1  0  0  0  0
  1 23  1  0  0  0  0
  3  4  1  6  0  0  0
  3  8  1  0  0  0  0
  3 30  1  0  0  0  0
  5  9  1  0  0  0  0
  5 27  1  0  0  0  0
  5 31  1  6  0  0  0
  6  7  1  1  0  0  0
  6 11  1  0  0  0  0
  8 13  1  0  0  0  0
  9 10  1  6  0  0  0
  9 15  1  0  0  0  0
 11 12  1  6  0  0  0
 11 17  1  0  0  0  0
 13 14  1  6  0  0  0
 13 19  1  0  0  0  0
 15 16  1  1  0  0  0
 15 20  1  0  0  0  0
 16 34  1  0  0  0  0
 17 18  1  1  0  0  0
 17 22  1  0  0  0  0
 19  2  1  1  0  0  0
 19 24  1  0  0  0  0
 20 21  1  1  0  0  0
 20 26  1  0  0  0  0
 20 33  1  0  0  0  0
 22 23  1  6  0  0  0
 22 28  1  0  0  0  0
 24 25  1  6  0  0  0
 24 30  1  0  0  0  0
 26 27  1  0  0  0  0
 28 29  1  6  0  0  0
 28 32  1  0  0  0  0
 30 31  1  1  0  0  0
M  END
>  <CHROM.1>
-117.78355061,-74.80840197,-137.77194061,-160.76508821,176.70493476,-79.34557573
8.54942290,7.51496725,2.56758084,0.39893878,0.35067963,-0.57177327

>  <Name>
ligand

>  <RI>
0

>  <Rbt.Current_Directory>
/home/itssahil/PROJECTS/Mol_Feturizer/New_Systems/rnas/3TD1

>  <Rbt.Executable>
rbdock ($Id: //depot/dev/client3/rdock/2013.1/src/exe/rbdock.cxx#4 $)

>  <Rbt.Library>
libRbt.so (2013.1, Build901 2013/11/27)

>  <Rbt.Parameter_File>
/export/apps/rDock/src/rDock_2013.1_src/data/scripts/dock_solv.prm

>  <Rbt.Receptor>
prm/blind_docking_40.prm

>  <SCORE>
36.8845

>  <SCORE.INTER>
32.3821

>  <SCORE.INTER.CONST>
1

>  <SCORE.INTER.POLAR>
0

>  <SCORE.INTER.ROT>
6

>  <SCORE.INTER.SOLV>
35.1169

>  <SCORE.INTER.VDW>
2.28244

>  <SCORE.INTER.norm>
0.952415

>  <SCORE.INTRA>
-0.36552

>  <SCORE.INTRA.DIHEDRAL>
-7.33925

>  <SCORE.INTRA.DIHEDRAL.0>
19.5869

>  <SCORE.INTRA.POLAR>
0

>  <SCORE.INTRA.POLAR.0>
0

>  <SCORE.INTRA.REPUL>
0

>  <SCORE.INTRA.REPUL.0>
0

>  <SCORE.INTRA.SOLV>
-0.662747

>  <SCORE.INTRA.SOLV.lig_0>
-70.101

>  <SCORE.INTRA.VDW>
3.63548

>  <SCORE.INTRA.VDW.0>
-3.39718

>  <SCORE.INTRA.norm>
-0.0107506

>  <SCORE.RESTR>
4.8679

>  <SCORE.RESTR.CAVITY>
4.8679

>  <SCORE.RESTR.norm>
0.143174

>  <SCORE.SYSTEM>
0

>  <SCORE.SYSTEM.CONST>
0

>  <SCORE.SYSTEM.DIHEDRAL>
0

>  <SCORE.SYSTEM.SOLV>
0

>  <SCORE.SYSTEM.norm>
0

>  <SCORE.heavy>
34

>  <SCORE.norm>
1.08484

>  <RMSD>
9.932

$$$$
ligand
 OpenBabel11021811483D
libRbt.so/2013.1/901 2013/11/27
 34 36  0  0  0  0  0  0  0  0999 V2000
   12.8662    2.7120    2.7358 C   0  0  2  0  0  0  0  0  0  0  0  0
   13.7176    3.8538    2.9198 O   0  0  0  0  0  0  0  0  0  0  0  0
   13.2718    7.8078    1.3616 C   0  0  2  0  0  0  0  0  0  0  0  0
   13.2228    8.9373    0.4396 N   0  0  0  0  0  0  0  0  0  0  0  0
   10.8040    8.7500    1.7081 C   0  0  2  0  0  0  0  0  0  0  0  0
   12.5436    2.1144    4.1519 C   0  0  2  0  0  0  0  0  0  0  0  0
   11.8458    3.0965    4.9962 N   0  0  0  0  0  0  0  0  0  0  0  0
   14.6704    7.1261    1.1922 C   0  0  0  0  0  0  0  0  0  0  0  0
    9.5139    8.8631    2.5969 C   0  0  2  0  0  0  0  0  0  0  0  0
    9.5939    7.9516    3.6803 O   0  0  0  0  0  0  0  0  0  0  0  0
   13.8582    1.6758    4.8329 C   0  0  1  0  0  0  0  0  0  0  0  0
   13.5696    1.1205    6.1264 O   0  0  0  0  0  0  0  0  0  0  0  0
   14.7329    5.9274    2.1983 C   0  0  2  0  0  0  0  0  0  0  0  0
   16.0332    5.2367    2.0811 N   0  0  0  0  0  0  0  0  0  0  0  0
    8.2528    8.5645    1.6970 C   0  0  1  0  0  0  0  0  0  0  0  0
    6.9969    8.6442    2.5018 N   0  0  0  0  0  0  0  0  0  0  0  0
   14.5748    0.6517    3.9211 C   0  0  2  0  0  0  0  0  0  0  0  0
   15.8077    0.2416    4.5379 O   0  0  0  0  0  0  0  0  0  0  0  0
   13.5971    4.9098    1.9201 C   0  0  2  0  0  0  0  0  0  0  0  0
    8.2119    9.5971    0.5191 C   0  0  1  0  0  0  0  0  0  0  0  0
    8.0876   10.9163    1.0439 O   0  0  0  0  0  0  0  0  0  0  0  0
   14.8527    1.3020    2.5123 C   0  0  2  0  0  0  0  0  0  0  0  0
   13.5819    1.7360    1.8999 O   0  0  0  0  0  0  0  0  0  0  0  0
   12.2277    5.6256    2.0313 C   0  0  2  0  0  0  0  0  0  0  0  0
   11.2023    4.6773    1.7543 O   0  0  0  0  0  0  0  0  0  0  0  0
    9.5423    9.4841   -0.2901 C   0  0  0  0  0  0  0  0  0  0  0  0
   10.7146    9.7009    0.5914 O   0  0  0  0  0  0  0  0  0  0  0  0
   15.5490    0.3105    1.5438 C   0  0  2  0  0  0  0  0  0  0  0  0
   15.5170    0.8387    0.2204 O   0  0  0  0  0  0  0  0  0  0  0  0
   12.1157    6.7832    1.0120 C   0  0  1  0  0  0  0  0  0  0  0  0
   10.8139    7.3869    1.1992 O   0  0  0  0  0  0  0  0  0  0  0  0
   14.8508   -1.0393    1.5281 C   0  0  0  0  0  0  0  0  0  0  0  0
    7.0295    9.3571   -0.4116 C   0  0  0  0  0  0  0  0  0  0  0  0
    6.9148    7.4407    3.3514 C   0  0  0  0  0  0  0  0  0  0  0  0
  1  2  1  1  0  0  0
  1  6  1  0  0  0  0
  1 23  1  0  0  0  0
  3  4  1  6  0  0  0
  3  8  1  0  0  0  0
  3 30  1  0  0  0  0
  5  9  1  0  0  0  0
  5 27  1  0  0  0  0
  5 31  1  6  0  0  0
  6  7  1  1  0  0  0
  6 11  1  0  0  0  0
  8 13  1  0  0  0  0
  9 10  1  1  0  0  0
  9 15  1  0  0  0  0
 11 12  1  1  0  0  0
 11 17  1  0  0  0  0
 13 14  1  6  0  0  0
 13 19  1  0  0  0  0
 15 16  1  1  0  0  0
 15 20  1  0  0  0  0
 16 34  1  0  0  0  0
 17 18  1  1  0  0  0
 17 22  1  0  0  0  0
 19  2  1  1  0  0  0
 19 24  1  0  0  0  0
 20 21  1  1  0  0  0
 20 26  1  0  0  0  0
 20 33  1  0  0  0  0
 22 23  1  6  0  0  0
 22 28  1  0  0  0  0
 24 25  1  6  0  0  0
 24 30  1  0  0  0  0
 26 27  1  0  0  0  0
 28 29  1  6  0  0  0
 28 32  1  0  0  0  0
 30 31  1  1  0  0  0
M  END
>  <CHROM.1>
-150.06738403,-172.06882559,-74.26863840,167.63863697,-2.43865800,-146.77921305
12.06687292,5.34100181,2.18325303,0.88344096,-0.44654978,2.57990807

>  <Name>
ligand

>  <RI>
0

>  <Rbt.Current_Directory>
/home/itssahil/PROJECTS/Mol_Feturizer/New_Systems/rnas/3TD1

>  <Rbt.Executable>
rbdock ($Id: //depot/dev/client3/rdock/2013.1/src/exe/rbdock.cxx#4 $)

>  <Rbt.Library>
libRbt.so (2013.1, Build901 2013/11/27)

>  <Rbt.Parameter_File>
/export/apps/rDock/src/rDock_2013.1_src/data/scripts/dock_solv.prm

>  <Rbt.Receptor>
prm/blind_docking_20.prm

>  <SCORE>
3.56367

>  <SCORE.INTER>
-6.27001

>  <SCORE.INTER.CONST>
1

>  <SCORE.INTER.POLAR>
0

>  <SCORE.INTER.ROT>
6

>  <SCORE.INTER.SOLV>
24.6335

>  <SCORE.INTER.VDW>
-19.9912

>  <SCORE.INTER.norm>
-0.184412

>  <SCORE.INTRA>
4.51884

>  <SCORE.INTRA.DIHEDRAL>
-3.67353

>  <SCORE.INTRA.DIHEDRAL.0>
19.5869

>  <SCORE.INTRA.POLAR>
0

>  <SCORE.INTRA.POLAR.0>
0

>  <SCORE.INTRA.REPUL>
0

>  <SCORE.INTRA.REPUL.0>
0

>  <SCORE.INTRA.SOLV>
-0.204131

>  <SCORE.INTRA.SOLV.lig_0>
-70.101

>  <SCORE.INTRA.VDW>
6.45767

>  <SCORE.INTRA.VDW.0>
-3.39718

>  <SCORE.INTRA.norm>
0.132907

>  <SCORE.RESTR>
5.31485

>  <SCORE.RESTR.CAVITY>
5.31485

>  <SCORE.RESTR.norm>
0.156319

>  <SCORE.SYSTEM>
0

>  <SCORE.SYSTEM.CONST>
0

>  <SCORE.SYSTEM.DIHEDRAL>
0

>  <SCORE.SYSTEM.SOLV>
0

>  <SCORE.SYSTEM.norm>
0

>  <SCORE.heavy>
34

>  <SCORE.norm>
0.104814

>  <RMSD>
9.937

$$$$
ligand
 OpenBabel11021811483D
libRbt.so/2013.1/901 2013/11/27
 34 36  0  0  0  0  0  0  0  0999 V2000
   12.7778    6.4982    0.7713 C   0  0  2  0  0  0  0  0  0  0  0  0
   13.1843    6.2794    2.1313 O   0  0  0  0  0  0  0  0  0  0  0  0
   13.2860    2.6977    4.4601 C   0  0  2  0  0  0  0  0  0  0  0  0
   12.8669    1.5049    5.1879 N   0  0  0  0  0  0  0  0  0  0  0  0
   15.1744    1.5071    2.5022 C   0  0  2  0  0  0  0  0  0  0  0  0
   13.2270    7.9452    0.3579 C   0  0  2  0  0  0  0  0  0  0  0  0
   14.6879    8.0934    0.4470 N   0  0  0  0  0  0  0  0  0  0  0  0
   12.4845    3.9083    5.0448 C   0  0  0  0  0  0  0  0  0  0  0  0
   15.7587    0.3740    1.5847 C   0  0  2  0  0  0  0  0  0  0  0  0
   15.4058    0.6186    0.2332 O   0  0  0  0  0  0  0  0  0  0  0  0
   12.5370    8.9765    1.2770 C   0  0  1  0  0  0  0  0  0  0  0  0
   12.9375   10.3037    0.8991 O   0  0  0  0  0  0  0  0  0  0  0  0
   12.9507    5.1929    4.2799 C   0  0  2  0  0  0  0  0  0  0  0  0
   12.2220    6.3741    4.7851 N   0  0  0  0  0  0  0  0  0  0  0  0
   15.1937   -1.0150    2.0755 C   0  0  1  0  0  0  0  0  0  0  0  0
   15.7091   -2.1277    1.2226 N   0  0  0  0  0  0  0  0  0  0  0  0
   11.0045    8.7926    1.1709 C   0  0  2  0  0  0  0  0  0  0  0  0
   10.3478    9.7403    2.0307 O   0  0  0  0  0  0  0  0  0  0  0  0
   12.6921    5.0568    2.7576 C   0  0  2  0  0  0  0  0  0  0  0  0
   15.6113   -1.2351    3.5698 C   0  0  1  0  0  0  0  0  0  0  0  0
   17.0326   -1.2674    3.6692 O   0  0  0  0  0  0  0  0  0  0  0  0
   10.6194    7.3194    1.5782 C   0  0  2  0  0  0  0  0  0  0  0  0
   11.3153    6.3576    0.7014 O   0  0  0  0  0  0  0  0  0  0  0  0
   13.4447    3.8149    2.2178 C   0  0  2  0  0  0  0  0  0  0  0  0
   13.1780    3.6997    0.8239 O   0  0  0  0  0  0  0  0  0  0  0  0
   15.0587   -0.0496    4.4222 C   0  0  0  0  0  0  0  0  0  0  0  0
   15.5488    1.2483    3.8992 O   0  0  0  0  0  0  0  0  0  0  0  0
    9.0930    7.0676    1.4664 C   0  0  2  0  0  0  0  0  0  0  0  0
    8.7822    5.7878    2.0112 O   0  0  0  0  0  0  0  0  0  0  0  0
   12.9673    2.5217    2.9186 C   0  0  1  0  0  0  0  0  0  0  0  0
   13.7291    1.4287    2.3533 O   0  0  0  0  0  0  0  0  0  0  0  0
    8.6273    7.0884    0.0199 C   0  0  0  0  0  0  0  0  0  0  0  0
   15.0796   -2.5508    4.1247 C   0  0  0  0  0  0  0  0  0  0  0  0
   14.5536   -2.8622    0.6727 C   0  0  0  0  0  0  0  0  0  0  0  0
  1  2  1  1  0  0  0
  1  6  1  0  0  0  0
  1 23  1  0  0  0  0
  3  4  1  1  0  0  0
  3  8  1  0  0  0  0
  3 30  1  0  0  0  0
  5  9  1  0  0  0  0
  5 27  1  0  0  0  0
  5 31  1  1  0  0  0
  6  7  1  1  0  0  0
  6 11  1  0  0  0  0
  8 13  1  0  0  0  0
  9 10  1  6  0  0  0
  9 15  1  0  0  0  0
 11 12  1  6  0  0  0
 11 17  1  0  0  0  0
 13 14  1  1  0  0  0
 13 19  1  0  0  0  0
 15 16  1  6  0  0  0
 15 20  1  0  0  0  0
 16 34  1  0  0  0  0
 17 18  1  1  0  0  0
 17 22  1  0  0  0  0
 19  2  1  6  0  0  0
 19 24  1  0  0  0  0
 20 21  1  1  0  0  0
 20 26  1  0  0  0  0
 20 33  1  0  0  0  0
 22 23  1  6  0  0  0
 22 28  1  0  0  0  0
 24 25  1  6  0  0  0
 24 30  1  0  0  0  0
 26 27  1  0  0  0  0
 28 29  1  6  0  0  0
 28 32  1  0  0  0  0
 30 31  1  6  0  0  0
M  END
>  <CHROM.1>
171.78932442,-166.50486572,-123.61672815,-172.37152240,-56.37442865,-169.52374234
13.20171587,3.79462277,2.26326542,-2.27267302,-0.88975681,2.40480056

>  <Name>
ligand

>  <RI>
0

>  <Rbt.Current_Directory>
/home/itssahil/PROJECTS/Mol_Feturizer/New_Systems/rnas/3TD1

>  <Rbt.Executable>
rbdock ($Id: //depot/dev/client3/rdock/2013.1/src/exe/rbdock.cxx#4 $)

>  <Rbt.Library>
libRbt.so (2013.1, Build901 2013/11/27)

>  <Rbt.Parameter_File>
/export/apps/rDock/src/rDock_2013.1_src/data/scripts/dock_solv.prm

>  <Rbt.Receptor>
prm/blind_docking_20.prm

>  <SCORE>
0.766639

>  <SCORE.INTER>
-2.80582

>  <SCORE.INTER.CONST>
1

>  <SCORE.INTER.POLAR>
0

>  <SCORE.INTER.ROT>
6

>  <SCORE.INTER.SOLV>
18.7276

>  <SCORE.INTER.VDW>
-15.7131

>  <SCORE.INTER.norm>
-0.0825242

>  <SCORE.INTRA>
-5.97564

>  <SCORE.INTRA.DIHEDRAL>
-16.3256

>  <SCORE.INTRA.DIHEDRAL.0>
19.5869

>  <SCORE.INTRA.POLAR>
0

>  <SCORE.INTRA.POLAR.0>
0

>  <SCORE.INTRA.REPUL>
0

>  <SCORE.INTRA.REPUL.0>
0

>  <SCORE.INTRA.SOLV>
-0.542641

>  <SCORE.INTRA.SOLV.lig_0>
-70.101

>  <SCORE.INTRA.VDW>
2.45849

>  <SCORE.INTRA.VDW.0>
-3.39718

>  <SCORE.INTRA.norm>
-0.175754

>  <SCORE.RESTR>
9.5481

>  <SCORE.RESTR.CAVITY>
9.5481

>  <SCORE.RESTR.norm>
0.280826

>  <SCORE.SYSTEM>
0

>  <SCORE.SYSTEM.CONST>
0

>  <SCORE.SYSTEM.DIHEDRAL>
0

>  <SCORE.SYSTEM.SOLV>
0

>  <SCORE.SYSTEM.norm>
0

>  <SCORE.heavy>
34

>  <SCORE.norm>
0.0225482

>  <RMSD>
9.941

$$$$
ligand
 OpenBabel11021811483D
libRbt.so/2013.1/901 2013/11/27
 34 36  0  0  0  0  0  0  0  0999 V2000
   10.7741    7.4422   -0.1563 C   0  0  2  0  0  0  0  0  0  0  0  0
   10.2876    7.7401    1.1617 O   0  0  0  0  0  0  0  0  0  0  0  0
    6.6279    9.5284    2.4540 C   0  0  2  0  0  0  0  0  0  0  0  0
    5.2115    9.8570    2.5727 N   0  0  0  0  0  0  0  0  0  0  0  0
    6.6436    6.4729    4.7934 C   0  0  2  0  0  0  0  0  0  0  0  0
   11.6363    6.1323   -0.0703 C   0  0  2  0  0  0  0  0  0  0  0  0
   10.8312    4.9972    0.4071 N   0  0  0  0  0  0  0  0  0  0  0  0
    7.0301    9.7267    0.9545 C   0  0  0  0  0  0  0  0  0  0  0  0
    5.3659    5.7204    4.2755 C   0  0  2  0  0  0  0  0  0  0  0  0
    5.3599    5.7009    2.8576 O   0  0  0  0  0  0  0  0  0  0  0  0
   12.8293    6.3675    0.8814 C   0  0  1  0  0  0  0  0  0  0  0  0
   13.6272    5.1749    0.9587 O   0  0  0  0  0  0  0  0  0  0  0  0
    8.5561    9.3965    0.8306 C   0  0  2  0  0  0  0  0  0  0  0  0
    8.9963    9.5601   -0.5698 N   0  0  0  0  0  0  0  0  0  0  0  0
    4.0861    6.4524    4.8375 C   0  0  1  0  0  0  0  0  0  0  0  0
    2.8397    5.7824    4.3591 N   0  0  0  0  0  0  0  0  0  0  0  0
   13.6523    7.5701    0.3618 C   0  0  2  0  0  0  0  0  0  0  0  0
   14.7623    7.8082    1.2449 O   0  0  0  0  0  0  0  0  0  0  0  0
    8.8475    7.9424    1.2818 C   0  0  2  0  0  0  0  0  0  0  0  0
    4.1422    6.4455    6.4035 C   0  0  1  0  0  0  0  0  0  0  0  0
    4.1350    5.1010    6.8761 O   0  0  0  0  0  0  0  0  0  0  0  0
   12.7299    8.8456    0.2790 C   0  0  2  0  0  0  0  0  0  0  0  0
   11.5852    8.5807   -0.6141 O   0  0  0  0  0  0  0  0  0  0  0  0
    8.3813    7.7562    2.7474 C   0  0  2  0  0  0  0  0  0  0  0  0
    8.6417    6.4106    3.1332 O   0  0  0  0  0  0  0  0  0  0  0  0
    5.4598    7.1483    6.8588 C   0  0  0  0  0  0  0  0  0  0  0  0
    6.6438    6.4841    6.2627 O   0  0  0  0  0  0  0  0  0  0  0  0
   13.4965   10.0809   -0.2616 C   0  0  2  0  0  0  0  0  0  0  0  0
   14.5670   10.3996    0.6237 O   0  0  0  0  0  0  0  0  0  0  0  0
    6.8652    8.0248    2.8918 C   0  0  1  0  0  0  0  0  0  0  0  0
    6.5328    7.8325    4.2871 O   0  0  0  0  0  0  0  0  0  0  0  0
   12.5931   11.2987   -0.3644 C   0  0  0  0  0  0  0  0  0  0  0  0
    2.9462    7.1588    7.0221 C   0  0  0  0  0  0  0  0  0  0  0  0
    1.8617    6.8271    3.9999 C   0  0  0  0  0  0  0  0  0  0  0  0
  1  2  1  1  0  0  0
  1  6  1  0  0  0  0
  1 23  1  0  0  0  0
  3  4  1  6  0  0  0
  3  8  1  0  0  0  0
  3 30  1  0  0  0  0
  5  9  1  0  0  0  0
  5 27  1  0  0  0  0
  5 31  1  6  0  0  0
  6  7  1  1  0  0  0
  6 11  1  0  0  0  0
  8 13  1  0  0  0  0
  9 10  1  6  0  0  0
  9 15  1  0  0  0  0
 11 12  1  6  0  0  0
 11 17  1  0  0  0  0
 13 14  1  6  0  0  0
 13 19  1  0  0  0  0
 15 16  1  1  0  0  0
 15 20  1  0  0  0  0
 16 34  1  0  0  0  0
 17 18  1  1  0  0  0
 17 22  1  0  0  0  0
 19  2  1  1  0  0  0
 19 24  1  0  0  0  0
 20 21  1  1  0  0  0
 20 26  1  0  0  0  0
 20 33  1  0  0  0  0
 22 23  1  6  0  0  0
 22 28  1  0  0  0  0
 24 25  1  6  0  0  0
 24 30  1  0  0  0  0
 26 27  1  0  0  0  0
 28 29  1  1  0  0  0
 28 32  1  0  0  0  0
 30 31  1  1  0  0  0
M  END
>  <CHROM.1>
-127.25886101,-80.84600988,-138.81699499,-61.63829079,176.94907831,-77.47522839
8.50988186,7.56939133,2.47712901,0.43146108,0.35958991,-0.58497917

>  <Name>
ligand

>  <RI>
0

>  <Rbt.Current_Directory>
/home/itssahil/PROJECTS/Mol_Feturizer/New_Systems/rnas/3TD1

>  <Rbt.Executable>
rbdock ($Id: //depot/dev/client3/rdock/2013.1/src/exe/rbdock.cxx#4 $)

>  <Rbt.Library>
libRbt.so (2013.1, Build901 2013/11/27)

>  <Rbt.Parameter_File>
/export/apps/rDock/src/rDock_2013.1_src/data/scripts/dock_solv.prm

>  <Rbt.Receptor>
prm/blind_docking_40.prm

>  <SCORE>
39.8467

>  <SCORE.INTER>
36.4535

>  <SCORE.INTER.CONST>
1

>  <SCORE.INTER.POLAR>
0

>  <SCORE.INTER.ROT>
6

>  <SCORE.INTER.SOLV>
34.8335

>  <SCORE.INTER.VDW>
5.0912

>  <SCORE.INTER.norm>
1.07216

>  <SCORE.INTRA>
-1.3657

>  <SCORE.INTRA.DIHEDRAL>
-8.247

>  <SCORE.INTRA.DIHEDRAL.0>
19.5869

>  <SCORE.INTRA.POLAR>
0

>  <SCORE.INTRA.POLAR.0>
0

>  <SCORE.INTRA.REPUL>
0

>  <SCORE.INTRA.REPUL.0>
0

>  <SCORE.INTRA.SOLV>
0.245125

>  <SCORE.INTRA.SOLV.lig_0>
-70.101

>  <SCORE.INTRA.VDW>
2.63524

>  <SCORE.INTRA.VDW.0>
-3.39718

>  <SCORE.INTRA.norm>
-0.0401675

>  <SCORE.RESTR>
4.75889

>  <SCORE.RESTR.CAVITY>
4.75889

>  <SCORE.RESTR.norm>
0.139967

>  <SCORE.SYSTEM>
0

>  <SCORE.SYSTEM.CONST>
0

>  <SCORE.SYSTEM.DIHEDRAL>
0

>  <SCORE.SYSTEM.SOLV>
0

>  <SCORE.SYSTEM.norm>
0

>  <SCORE.heavy>
34

>  <SCORE.norm>
1.17196

>  <RMSD>
9.967

$$$$
ligand
 OpenBabel11021811483D
libRbt.so/2013.1/901 2013/11/27
 34 36  0  0  0  0  0  0  0  0999 V2000
    8.6525    7.6812    2.9390 C   0  0  2  0  0  0  0  0  0  0  0  0
    7.6314    6.7076    3.2074 O   0  0  0  0  0  0  0  0  0  0  0  0
    5.4833    5.5568    6.7178 C   0  0  2  0  0  0  0  0  0  0  0  0
    4.8236    5.6062    8.0180 N   0  0  0  0  0  0  0  0  0  0  0  0
    2.2797    6.9233    5.6954 C   0  0  2  0  0  0  0  0  0  0  0  0
    8.1505    8.6002    1.7686 C   0  0  2  0  0  0  0  0  0  0  0  0
    6.9108    9.3010    2.1380 N   0  0  0  0  0  0  0  0  0  0  0  0
    6.9438    6.0843    6.9140 C   0  0  0  0  0  0  0  0  0  0  0  0
    1.9574    6.8389    7.2304 C   0  0  2  0  0  0  0  0  0  0  0  0
    3.0950    7.2258    7.9834 O   0  0  0  0  0  0  0  0  0  0  0  0
    7.9121    7.7391    0.5092 C   0  0  1  0  0  0  0  0  0  0  0  0
    7.4600    8.5751   -0.5685 O   0  0  0  0  0  0  0  0  0  0  0  0
    7.6602    6.0098    5.5233 C   0  0  2  0  0  0  0  0  0  0  0  0
    9.0475    6.5026    5.6427 N   0  0  0  0  0  0  0  0  0  0  0  0
    1.5254    5.3611    7.5753 C   0  0  1  0  0  0  0  0  0  0  0  0
    1.2223    5.2239    9.0315 N   0  0  0  0  0  0  0  0  0  0  0  0
    9.2268    7.0076    0.1488 C   0  0  2  0  0  0  0  0  0  0  0  0
    9.0172    6.1922   -1.0173 O   0  0  0  0  0  0  0  0  0  0  0  0
    6.9130    6.8643    4.4678 C   0  0  2  0  0  0  0  0  0  0  0  0
    0.2680    4.9853    6.7189 C   0  0  1  0  0  0  0  0  0  0  0  0
   -0.8110    5.8570    7.0459 O   0  0  0  0  0  0  0  0  0  0  0  0
    9.6886    6.1197    1.3667 C   0  0  2  0  0  0  0  0  0  0  0  0
    9.8807    6.9656    2.5608 O   0  0  0  0  0  0  0  0  0  0  0  0
    5.4530    6.3620    4.3405 C   0  0  2  0  0  0  0  0  0  0  0  0
    4.7822    7.1720    3.3806 O   0  0  0  0  0  0  0  0  0  0  0  0
    0.6264    5.1477    5.2081 C   0  0  0  0  0  0  0  0  0  0  0  0
    1.0945    6.5254    4.9233 O   0  0  0  0  0  0  0  0  0  0  0  0
   11.0196    5.3797    1.0723 C   0  0  2  0  0  0  0  0  0  0  0  0
   11.3516    4.5430    2.1773 O   0  0  0  0  0  0  0  0  0  0  0  0
    4.7026    6.4727    5.6881 C   0  0  1  0  0  0  0  0  0  0  0  0
    3.3611    5.9769    5.4670 O   0  0  0  0  0  0  0  0  0  0  0  0
   12.1662    6.3543    0.8595 C   0  0  0  0  0  0  0  0  0  0  0  0
   -0.1964    3.5577    6.9801 C   0  0  0  0  0  0  0  0  0  0  0  0
    0.3670    6.3566    9.4346 C   0  0  0  0  0  0  0  0  0  0  0  0
  1  2  1  6  0  0  0
  1  6  1  0  0  0  0
  1 23  1  0  0  0  0
  3  4  1  1  0  0  0
  3  8  1  0  0  0  0
  3 30  1  0  0  0  0
  5  9  1  0  0  0  0
  5 27  1  0  0  0  0
  5 31  1  1  0  0  0
  6  7  1  1  0  0  0
  6 11  1  0  0  0  0
  8 13  1  0  0  0  0
  9 10  1  1  0  0  0
  9 15  1  0  0  0  0
 11 12  1  6  0  0  0
 11 17  1  0  0  0  0
 13 14  1  1  0  0  0
 13 19  1  0  0  0  0
 15 16  1  1  0  0  0
 15 20  1  0  0  0  0
 16 34  1  0  0  0  0
 17 18  1  6  0  0  0
 17 22  1  0  0  0  0
 19  2  1  6  0  0  0
 19 24  1  0  0  0  0
 20 21  1  1  0  0  0
 20 26  1  0  0  0  0
 20 33  1  0  0  0  0
 22 23  1  1  0  0  0
 22 28  1  0  0  0  0
 24 25  1  6  0  0  0
 24 30  1  0  0  0  0
 26 27  1  0  0  0  0
 28 29  1  1  0  0  0
 28 32  1  0  0  0  0
 30 31  1  6  0  0  0
M  END
>  <CHROM.1>
-109.69840703,-92.02025056,46.45033320,-177.07011857,125.14238383,-85.97906974
5.56969979,6.40505415,4.42104510,-0.62183359,-0.08043845,1.85451911

>  <Name>
ligand

>  <RI>
0

>  <Rbt.Current_Directory>
/home/itssahil/PROJECTS/Mol_Feturizer/New_Systems/rnas/3TD1

>  <Rbt.Executable>
rbdock ($Id: //depot/dev/client3/rdock/2013.1/src/exe/rbdock.cxx#4 $)

>  <Rbt.Library>
libRbt.so (2013.1, Build901 2013/11/27)

>  <Rbt.Parameter_File>
/export/apps/rDock/src/rDock_2013.1_src/data/scripts/dock_solv.prm

>  <Rbt.Receptor>
prm/blind_docking_40.prm

>  <SCORE>
23.2242

>  <SCORE.INTER>
4.6845

>  <SCORE.INTER.CONST>
1

>  <SCORE.INTER.POLAR>
0

>  <SCORE.INTER.ROT>
6

>  <SCORE.INTER.SOLV>
19.972

>  <SCORE.INTER.VDW>
-11.1343

>  <SCORE.INTER.norm>
0.13778

>  <SCORE.INTRA>
8.8312

>  <SCORE.INTRA.DIHEDRAL>
1.13475

>  <SCORE.INTRA.DIHEDRAL.0>
19.5869

>  <SCORE.INTRA.POLAR>
0

>  <SCORE.INTRA.POLAR.0>
0

>  <SCORE.INTRA.REPUL>
0

>  <SCORE.INTRA.REPUL.0>
0

>  <SCORE.INTRA.SOLV>
2.7682

>  <SCORE.INTRA.SOLV.lig_0>
-70.101

>  <SCORE.INTRA.VDW>
6.87972

>  <SCORE.INTRA.VDW.0>
-3.39718

>  <SCORE.INTRA.norm>
0.259741

>  <SCORE.RESTR>
9.70848

>  <SCORE.RESTR.CAVITY>
9.70848

>  <SCORE.RESTR.norm>
0.285543

>  <SCORE.SYSTEM>
0

>  <SCORE.SYSTEM.CONST>
0

>  <SCORE.SYSTEM.DIHEDRAL>
0

>  <SCORE.SYSTEM.SOLV>
0

>  <SCORE.SYSTEM.norm>
0

>  <SCORE.heavy>
34

>  <SCORE.norm>
0.683064

>  <RMSD>
9.973

$$$$
ligand
 OpenBabel11021811483D
libRbt.so/2013.1/901 2013/11/27
 34 36  0  0  0  0  0  0  0  0999 V2000
    0.5489    1.1328    8.0299 C   0  0  2  0  0  0  0  0  0  0  0  0
    1.8712    1.4544    7.5711 O   0  0  0  0  0  0  0  0  0  0  0  0
    2.3146    5.0987    9.7584 C   0  0  2  0  0  0  0  0  0  0  0  0
    2.7959    6.4060   10.1912 N   0  0  0  0  0  0  0  0  0  0  0  0
    0.6998    7.4581    7.9436 C   0  0  2  0  0  0  0  0  0  0  0  0
    0.3660   -0.4238    7.9292 C   0  0  2  0  0  0  0  0  0  0  0  0
    1.3456   -1.1290    8.7702 N   0  0  0  0  0  0  0  0  0  0  0  0
    3.5489    4.1374    9.7130 C   0  0  0  0  0  0  0  0  0  0  0  0
   -0.5455    7.8299    7.0615 C   0  0  2  0  0  0  0  0  0  0  0  0
   -1.7299    7.7344    7.8354 O   0  0  0  0  0  0  0  0  0  0  0  0
    0.5245   -0.8627    6.4572 C   0  0  1  0  0  0  0  0  0  0  0  0
    0.3505   -2.2855    6.3565 O   0  0  0  0  0  0  0  0  0  0  0  0
    3.0295    2.7276    9.2708 C   0  0  2  0  0  0  0  0  0  0  0  0
    4.1545    1.7730    9.2029 N   0  0  0  0  0  0  0  0  0  0  0  0
   -0.5972    6.8533    5.8234 C   0  0  1  0  0  0  0  0  0  0  0  0
   -1.7768    7.1563    4.9585 N   0  0  0  0  0  0  0  0  0  0  0  0
   -0.5097   -0.1005    5.5953 C   0  0  2  0  0  0  0  0  0  0  0  0
   -0.3668   -0.4913    4.2185 O   0  0  0  0  0  0  0  0  0  0  0  0
    2.3469    2.7987    7.8809 C   0  0  2  0  0  0  0  0  0  0  0  0
    0.7309    6.9985    5.0045 C   0  0  1  0  0  0  0  0  0  0  0  0
    0.8499    8.3333    4.5195 O   0  0  0  0  0  0  0  0  0  0  0  0
   -0.2881    1.4521    5.7536 C   0  0  2  0  0  0  0  0  0  0  0  0
   -0.4178    1.8359    7.1728 O   0  0  0  0  0  0  0  0  0  0  0  0
    1.1699    3.8044    7.9375 C   0  0  2  0  0  0  0  0  0  0  0  0
    0.5708    3.8667    6.6473 O   0  0  0  0  0  0  0  0  0  0  0  0
    1.9350    6.6794    5.9457 C   0  0  0  0  0  0  0  0  0  0  0  0
    1.9222    7.5644    7.1353 O   0  0  0  0  0  0  0  0  0  0  0  0
   -1.3159    2.2710    4.9296 C   0  0  2  0  0  0  0  0  0  0  0  0
   -0.7231    3.5005    4.5193 O   0  0  0  0  0  0  0  0  0  0  0  0
    1.6602    5.2201    8.3211 C   0  0  1  0  0  0  0  0  0  0  0  0
    0.4945    6.0770    8.3531 O   0  0  0  0  0  0  0  0  0  0  0  0
   -2.5555    2.5963    5.7463 C   0  0  0  0  0  0  0  0  0  0  0  0
    0.7660    6.0650    3.8007 C   0  0  0  0  0  0  0  0  0  0  0  0
   -2.3373    5.8793    4.4766 C   0  0  0  0  0  0  0  0  0  0  0  0
  1  2  1  6  0  0  0
  1  6  1  0  0  0  0
  1 23  1  0  0  0  0
  3  4  1  6  0  0  0
  3  8  1  0  0  0  0
  3 30  1  0  0  0  0
  5  9  1  0  0  0  0
  5 27  1  0  0  0  0
  5 31  1  6  0  0  0
  6  7  1  1  0  0  0
  6 11  1  0  0  0  0
  8 13  1  0  0  0  0
  9 10  1  1  0  0  0
  9 15  1  0  0  0  0
 11 12  1  1  0  0  0
 11 17  1  0  0  0  0
 13 14  1  6  0  0  0
 13 19  1  0  0  0  0
 15 16  1  6  0  0  0
 15 20  1  0  0  0  0
 16 34  1  0  0  0  0
 17 18  1  6  0  0  0
 17 22  1  0  0  0  0
 19  2  1  1  0  0  0
 19 24  1  0  0  0  0
 20 21  1  6  0  0  0
 20 26  1  0  0  0  0
 20 33  1  0  0  0  0
 22 23  1  1  0  0  0
 22 28  1  0  0  0  0
 24 25  1  6  0  0  0
 24 30  1  0  0  0  0
 26 27  1  0  0  0  0
 28 29  1  1  0  0  0
 28 32  1  0  0  0  0
 30 31  1  1  0  0  0
M  END
>  <CHROM.1>
-165.95657561,88.71766419,-141.33918330,-149.65675221,97.64824403,138.50054771
0.58441075,3.81427891,6.86868325,-1.50768204,-0.85305606,-0.01170802

>  <Name>
ligand

>  <RI>
0

>  <Rbt.Current_Directory>
/home/itssahil/PROJECTS/Mol_Feturizer/New_Systems/rnas/3TD1

>  <Rbt.Executable>
rbdock ($Id: //depot/dev/client3/rdock/2013.1/src/exe/rbdock.cxx#4 $)

>  <Rbt.Library>
libRbt.so (2013.1, Build901 2013/11/27)

>  <Rbt.Parameter_File>
/export/apps/rDock/src/rDock_2013.1_src/data/scripts/dock_solv.prm

>  <Rbt.Receptor>
prm/blind_docking_80.prm

>  <SCORE>
26.3651

>  <SCORE.INTER>
7.19409

>  <SCORE.INTER.CONST>
1

>  <SCORE.INTER.POLAR>
0

>  <SCORE.INTER.ROT>
6

>  <SCORE.INTER.SOLV>
29.2274

>  <SCORE.INTER.VDW>
-12.5464

>  <SCORE.INTER.norm>
0.211591

>  <SCORE.INTRA>
8.12054

>  <SCORE.INTRA.DIHEDRAL>
-1.05354

>  <SCORE.INTRA.DIHEDRAL.0>
19.5869

>  <SCORE.INTRA.POLAR>
0

>  <SCORE.INTRA.POLAR.0>
0

>  <SCORE.INTRA.REPUL>
0

>  <SCORE.INTRA.REPUL.0>
0

>  <SCORE.INTRA.SOLV>
0.363962

>  <SCORE.INTRA.SOLV.lig_0>
-70.101

>  <SCORE.INTRA.VDW>
8.46533

>  <SCORE.INTRA.VDW.0>
-3.39718

>  <SCORE.INTRA.norm>
0.238839

>  <SCORE.RESTR>
11.0505

>  <SCORE.RESTR.CAVITY>
11.0505

>  <SCORE.RESTR.norm>
0.325015

>  <SCORE.SYSTEM>
0

>  <SCORE.SYSTEM.CONST>
0

>  <SCORE.SYSTEM.DIHEDRAL>
0

>  <SCORE.SYSTEM.SOLV>
0

>  <SCORE.SYSTEM.norm>
0

>  <SCORE.heavy>
34

>  <SCORE.norm>
0.775445

>  <RMSD>
9.981

$$$$
ligand
 OpenBabel11021811483D
libRbt.so/2013.1/901 2013/11/27
 34 36  0  0  0  0  0  0  0  0999 V2000
   12.9727    2.6548    2.7692 C   0  0  2  0  0  0  0  0  0  0  0  0
   13.8095    3.8074    2.9534 O   0  0  0  0  0  0  0  0  0  0  0  0
   13.2573    7.6094    1.0822 C   0  0  2  0  0  0  0  0  0  0  0  0
   13.2727    8.6848    0.0966 N   0  0  0  0  0  0  0  0  0  0  0  0
   10.1502    6.8394    1.6844 C   0  0  2  0  0  0  0  0  0  0  0  0
   12.6968    2.0253    4.1813 C   0  0  2  0  0  0  0  0  0  0  0  0
   12.0047    2.9792    5.0618 N   0  0  0  0  0  0  0  0  0  0  0  0
   14.7275    7.0953    1.2367 C   0  0  0  0  0  0  0  0  0  0  0  0
    8.6601    7.0350    1.2276 C   0  0  2  0  0  0  0  0  0  0  0  0
    8.2770    5.9750    0.3671 O   0  0  0  0  0  0  0  0  0  0  0  0
   14.0356    1.5965    4.8200 C   0  0  1  0  0  0  0  0  0  0  0  0
   13.7898    1.0122    6.1095 O   0  0  0  0  0  0  0  0  0  0  0  0
   14.7157    5.9564    2.3117 C   0  0  2  0  0  0  0  0  0  0  0  0
   16.0806    5.4239    2.4985 N   0  0  0  0  0  0  0  0  0  0  0  0
    8.5337    8.4294    0.5002 C   0  0  1  0  0  0  0  0  0  0  0  0
    7.1340    8.6571    0.0310 N   0  0  0  0  0  0  0  0  0  0  0  0
   14.7455    0.6022    3.8707 C   0  0  2  0  0  0  0  0  0  0  0  0
   16.0004    0.2018    4.4480 O   0  0  0  0  0  0  0  0  0  0  0  0
   13.7792    4.7981    1.8826 C   0  0  2  0  0  0  0  0  0  0  0  0
    8.9673    9.5623    1.4924 C   0  0  1  0  0  0  0  0  0  0  0  0
    8.1001    9.5649    2.6233 O   0  0  0  0  0  0  0  0  0  0  0  0
   14.9760    1.2835    2.4681 C   0  0  2  0  0  0  0  0  0  0  0  0
   13.6829    1.7071    1.8967 O   0  0  0  0  0  0  0  0  0  0  0  0
   12.3455    5.3469    1.6747 C   0  0  2  0  0  0  0  0  0  0  0  0
   11.5086    4.2708    1.2639 O   0  0  0  0  0  0  0  0  0  0  0  0
   10.4300    9.2824    1.9610 C   0  0  0  0  0  0  0  0  0  0  0  0
   10.5368    7.9389    2.5791 O   0  0  0  0  0  0  0  0  0  0  0  0
   15.6635    0.3226    1.4633 C   0  0  2  0  0  0  0  0  0  0  0  0
   15.5440    0.8502    0.1447 O   0  0  0  0  0  0  0  0  0  0  0  0
   12.3164    6.4385    0.5797 C   0  0  1  0  0  0  0  0  0  0  0  0
   10.9453    6.8876    0.4668 O   0  0  0  0  0  0  0  0  0  0  0  0
   15.0218   -1.0550    1.4783 C   0  0  0  0  0  0  0  0  0  0  0  0
    8.8946   10.9428    0.8516 C   0  0  0  0  0  0  0  0  0  0  0  0
    7.1897    9.3346   -1.2786 C   0  0  0  0  0  0  0  0  0  0  0  0
  1  2  1  1  0  0  0
  1  6  1  0  0  0  0
  1 23  1  0  0  0  0
  3  4  1  6  0  0  0
  3  8  1  0  0  0  0
  3 30  1  0  0  0  0
  5  9  1  0  0  0  0
  5 27  1  0  0  0  0
  5 31  1  6  0  0  0
  6  7  1  1  0  0  0
  6 11  1  0  0  0  0
  8 13  1  0  0  0  0
  9 10  1  6  0  0  0
  9 15  1  0  0  0  0
 11 12  1  1  0  0  0
 11 17  1  0  0  0  0
 13 14  1  6  0  0  0
 13 19  1  0  0  0  0
 15 16  1  1  0  0  0
 15 20  1  0  0  0  0
 16 34  1  0  0  0  0
 17 18  1  1  0  0  0
 17 22  1  0  0  0  0
 19  2  1  1  0  0  0
 19 24  1  0  0  0  0
 20 21  1  1  0  0  0
 20 26  1  0  0  0  0
 20 33  1  0  0  0  0
 22 23  1  6  0  0  0
 22 28  1  0  0  0  0
 24 25  1  6  0  0  0
 24 30  1  0  0  0  0
 26 27  1  0  0  0  0
 28 29  1  6  0  0  0
 28 32  1  0  0  0  0
 30 31  1  1  0  0  0
M  END
>  <CHROM.1>
-158.07771345,178.45248238,-142.11548789,165.43887261,-84.88101979,-166.72176953
12.18505484,5.09449830,1.96331512,0.92975621,-0.22983199,2.68446598

>  <Name>
ligand

>  <RI>
0

>  <Rbt.Current_Directory>
/home/itssahil/PROJECTS/Mol_Feturizer/New_Systems/rnas/3TD1

>  <Rbt.Executable>
rbdock ($Id: //depot/dev/client3/rdock/2013.1/src/exe/rbdock.cxx#4 $)

>  <Rbt.Library>
libRbt.so (2013.1, Build901 2013/11/27)

>  <Rbt.Parameter_File>
/export/apps/rDock/src/rDock_2013.1_src/data/scripts/dock_solv.prm

>  <Rbt.Receptor>
prm/blind_docking_20.prm

>  <SCORE>
-0.0654019

>  <SCORE.INTER>
-3.05085

>  <SCORE.INTER.CONST>
1

>  <SCORE.INTER.POLAR>
0

>  <SCORE.INTER.ROT>
6

>  <SCORE.INTER.SOLV>
24.5968

>  <SCORE.INTER.VDW>
-17.8328

>  <SCORE.INTER.norm>
-0.0897309

>  <SCORE.INTRA>
-1.60108

>  <SCORE.INTRA.DIHEDRAL>
-12.3658

>  <SCORE.INTRA.DIHEDRAL.0>
19.5869

>  <SCORE.INTRA.POLAR>
0

>  <SCORE.INTRA.POLAR.0>
0

>  <SCORE.INTRA.REPUL>
0

>  <SCORE.INTRA.REPUL.0>
0

>  <SCORE.INTRA.SOLV>
-1.9313

>  <SCORE.INTRA.SOLV.lig_0>
-70.101

>  <SCORE.INTRA.VDW>
5.54747

>  <SCORE.INTRA.VDW.0>
-3.39718

>  <SCORE.INTRA.norm>
-0.0470907

>  <SCORE.RESTR>
4.58653

>  <SCORE.RESTR.CAVITY>
4.58653

>  <SCORE.RESTR.norm>
0.134898

>  <SCORE.SYSTEM>
0

>  <SCORE.SYSTEM.CONST>
0

>  <SCORE.SYSTEM.DIHEDRAL>
0

>  <SCORE.SYSTEM.SOLV>
0

>  <SCORE.SYSTEM.norm>
0

>  <SCORE.heavy>
34

>  <SCORE.norm>
-0.00192358

>  <RMSD>
10.042

$$$$
ligand
 OpenBabel11021811483D
libRbt.so/2013.1/901 2013/11/27
 34 36  0  0  0  0  0  0  0  0999 V2000
    5.9764    6.1954    4.2984 C   0  0  2  0  0  0  0  0  0  0  0  0
    6.3199    6.8475    5.5310 O   0  0  0  0  0  0  0  0  0  0  0  0
    3.6279    5.5912    8.6029 C   0  0  2  0  0  0  0  0  0  0  0  0
    2.6311    5.6151    9.6678 N   0  0  0  0  0  0  0  0  0  0  0  0
    0.5570    5.6079    7.0015 C   0  0  2  0  0  0  0  0  0  0  0  0
    7.1005    5.1476    3.9746 C   0  0  2  0  0  0  0  0  0  0  0  0
    7.2032    4.1340    5.0360 N   0  0  0  0  0  0  0  0  0  0  0  0
    4.7771    6.5702    9.0158 C   0  0  0  0  0  0  0  0  0  0  0  0
   -0.1768    4.4700    7.7975 C   0  0  2  0  0  0  0  0  0  0  0  0
    0.4327    4.2998    9.0665 O   0  0  0  0  0  0  0  0  0  0  0  0
    8.4506    5.8797    3.8145 C   0  0  1  0  0  0  0  0  0  0  0  0
    9.4827    4.9274    3.5102 O   0  0  0  0  0  0  0  0  0  0  0  0
    5.8588    6.5276    7.8840 C   0  0  2  0  0  0  0  0  0  0  0  0
    6.9721    7.4402    8.2145 N   0  0  0  0  0  0  0  0  0  0  0  0
   -0.1094    3.1388    6.9533 C   0  0  1  0  0  0  0  0  0  0  0  0
   -0.7819    2.0181    7.6767 N   0  0  0  0  0  0  0  0  0  0  0  0
    8.3119    6.9440    2.7003 C   0  0  2  0  0  0  0  0  0  0  0  0
    9.5599    7.6423    2.5469 O   0  0  0  0  0  0  0  0  0  0  0  0
    5.2525    6.9484    6.5209 C   0  0  2  0  0  0  0  0  0  0  0  0
   -0.7949    3.3809    5.5652 C   0  0  1  0  0  0  0  0  0  0  0  0
   -2.1652    3.7199    5.7614 O   0  0  0  0  0  0  0  0  0  0  0  0
    7.1583    7.9517    3.0726 C   0  0  2  0  0  0  0  0  0  0  0  0
    5.8886    7.2198    3.2465 O   0  0  0  0  0  0  0  0  0  0  0  0
    4.0771    6.0030    6.1678 C   0  0  2  0  0  0  0  0  0  0  0  0
    3.5251    6.4193    4.9231 O   0  0  0  0  0  0  0  0  0  0  0  0
   -0.0664    4.5608    4.8478 C   0  0  0  0  0  0  0  0  0  0  0  0
   -0.0838    5.7806    5.6905 O   0  0  0  0  0  0  0  0  0  0  0  0
    6.9551    9.0303    1.9766 C   0  0  2  0  0  0  0  0  0  0  0  0
    8.1075    9.8666    1.9146 O   0  0  0  0  0  0  0  0  0  0  0  0
    2.9671    6.0629    7.2429 C   0  0  1  0  0  0  0  0  0  0  0  0
    1.9263    5.1473    6.8274 O   0  0  0  0  0  0  0  0  0  0  0  0
    5.7516    9.9095    2.2736 C   0  0  0  0  0  0  0  0  0  0  0  0
   -0.7481    2.1417    4.6798 C   0  0  0  0  0  0  0  0  0  0  0  0
    0.2513    1.0514    8.0948 C   0  0  0  0  0  0  0  0  0  0  0  0
  1  2  1  1  0  0  0
  1  6  1  0  0  0  0
  1 23  1  0  0  0  0
  3  4  1  1  0  0  0
  3  8  1  0  0  0  0
  3 30  1  0  0  0  0
  5  9  1  0  0  0  0
  5 27  1  0  0  0  0
  5 31  1  6  0  0  0
  6  7  1  1  0  0  0
  6 11  1  0  0  0  0
  8 13  1  0  0  0  0
  9 10  1  1  0  0  0
  9 15  1  0  0  0  0
 11 12  1  6  0  0  0
 11 17  1  0  0  0  0
 13 14  1  1  0  0  0
 13 19  1  0  0  0  0
 15 16  1  1  0  0  0
 15 20  1  0  0  0  0
 16 34  1  0  0  0  0
 17 18  1  1  0  0  0
 17 22  1  0  0  0  0
 19  2  1  6  0  0  0
 19 24  1  0  0  0  0
 20 21  1  1  0  0  0
 20 26  1  0  0  0  0
 20 33  1  0  0  0  0
 22 23  1  6  0  0  0
 22 28  1  0  0  0  0
 24 25  1  6  0  0  0
 24 30  1  0  0  0  0
 26 27  1  0  0  0  0
 28 29  1  1  0  0  0
 28 32  1  0  0  0  0
 30 31  1  6  0  0  0
M  END
>  <CHROM.1>
-132.19764057,133.99872591,-111.12275112,-66.33161078,105.63820938,-127.78912064
3.94493929,5.72081910,5.61774409,0.47185334,-0.37259662,-1.38525501

>  <Name>
ligand

>  <RI>
0

>  <Rbt.Current_Directory>
/home/itssahil/PROJECTS/Mol_Feturizer/New_Systems/rnas/3TD1

>  <Rbt.Executable>
rbdock ($Id: //depot/dev/client3/rdock/2013.1/src/exe/rbdock.cxx#4 $)

>  <Rbt.Library>
libRbt.so (2013.1, Build901 2013/11/27)

>  <Rbt.Parameter_File>
/export/apps/rDock/src/rDock_2013.1_src/data/scripts/dock_solv.prm

>  <Rbt.Receptor>
prm/blind_docking_80.prm

>  <SCORE>
26.6012

>  <SCORE.INTER>
3.94046

>  <SCORE.INTER.CONST>
1

>  <SCORE.INTER.POLAR>
0

>  <SCORE.INTER.ROT>
6

>  <SCORE.INTER.SOLV>
23.954

>  <SCORE.INTER.VDW>
-12.9577

>  <SCORE.INTER.norm>
0.115896

>  <SCORE.INTRA>
7.35761

>  <SCORE.INTRA.DIHEDRAL>
7.54246

>  <SCORE.INTRA.DIHEDRAL.0>
19.5869

>  <SCORE.INTRA.POLAR>
0

>  <SCORE.INTRA.POLAR.0>
0

>  <SCORE.INTRA.REPUL>
0

>  <SCORE.INTRA.REPUL.0>
0

>  <SCORE.INTRA.SOLV>
-0.531221

>  <SCORE.INTRA.SOLV.lig_0>
-70.101

>  <SCORE.INTRA.VDW>
3.85199

>  <SCORE.INTRA.VDW.0>
-3.39718

>  <SCORE.INTRA.norm>
0.2164

>  <SCORE.RESTR>
15.3032

>  <SCORE.RESTR.CAVITY>
15.3032

>  <SCORE.RESTR.norm>
0.450093

>  <SCORE.SYSTEM>
0

>  <SCORE.SYSTEM.CONST>
0

>  <SCORE.SYSTEM.DIHEDRAL>
0

>  <SCORE.SYSTEM.SOLV>
0

>  <SCORE.SYSTEM.norm>
0

>  <SCORE.heavy>
34

>  <SCORE.norm>
0.78239

>  <RMSD>
10.053

$$$$
ligand
 OpenBabel11021811483D
libRbt.so/2013.1/901 2013/11/27
 34 36  0  0  0  0  0  0  0  0999 V2000
   12.8107    2.7517    2.8517 C   0  0  2  0  0  0  0  0  0  0  0  0
   13.6406    3.9113    3.0217 O   0  0  0  0  0  0  0  0  0  0  0  0
   13.3335    7.7121    1.0925 C   0  0  2  0  0  0  0  0  0  0  0  0
   13.3766    8.7593    0.0778 N   0  0  0  0  0  0  0  0  0  0  0  0
   10.5235    7.9551    1.8989 C   0  0  2  0  0  0  0  0  0  0  0  0
   12.6724    2.0456    4.2477 C   0  0  2  0  0  0  0  0  0  0  0  0
   12.0452    2.9384    5.2345 N   0  0  0  0  0  0  0  0  0  0  0  0
   14.7486    7.0449    1.1367 C   0  0  0  0  0  0  0  0  0  0  0  0
    8.9873    8.2430    1.7432 C   0  0  2  0  0  0  0  0  0  0  0  0
    8.2729    7.0202    1.6708 O   0  0  0  0  0  0  0  0  0  0  0  0
   14.0700    1.6142    4.7427 C   0  0  1  0  0  0  0  0  0  0  0  0
   13.9500    0.9600    6.0164 O   0  0  0  0  0  0  0  0  0  0  0  0
   14.7102    5.9361    2.2420 C   0  0  2  0  0  0  0  0  0  0  0  0
   16.0219    5.2626    2.3279 N   0  0  0  0  0  0  0  0  0  0  0  0
    8.7647    9.1073    0.4421 C   0  0  1  0  0  0  0  0  0  0  0  0
    7.3131    9.3959    0.2398 N   0  0  0  0  0  0  0  0  0  0  0  0
   14.7094    0.6849    3.6838 C   0  0  2  0  0  0  0  0  0  0  0  0
   16.0175    0.2831    4.1265 O   0  0  0  0  0  0  0  0  0  0  0  0
   13.6220    4.8776    1.9284 C   0  0  2  0  0  0  0  0  0  0  0  0
    9.5730   10.4433    0.5740 C   0  0  1  0  0  0  0  0  0  0  0  0
    9.0932   11.1838    1.6931 O   0  0  0  0  0  0  0  0  0  0  0  0
   14.8024    1.4413    2.3039 C   0  0  2  0  0  0  0  0  0  0  0  0
   13.4564    1.8651    1.8716 O   0  0  0  0  0  0  0  0  0  0  0  0
   12.2420    5.5742    1.8270 C   0  0  2  0  0  0  0  0  0  0  0  0
   11.2628    4.5870    1.5207 O   0  0  0  0  0  0  0  0  0  0  0  0
   11.0797   10.0958    0.7893 C   0  0  0  0  0  0  0  0  0  0  0  0
   11.2549    9.2270    1.9779 O   0  0  0  0  0  0  0  0  0  0  0  0
   15.4140    0.5476    1.1935 C   0  0  2  0  0  0  0  0  0  0  0  0
   14.6860   -0.6750    1.1138 O   0  0  0  0  0  0  0  0  0  0  0  0
   12.2331    6.6401    0.7066 C   0  0  1  0  0  0  0  0  0  0  0  0
   10.9129    7.2328    0.6973 O   0  0  0  0  0  0  0  0  0  0  0  0
   16.8674    0.2112    1.4836 C   0  0  0  0  0  0  0  0  0  0  0  0
    9.4265   11.3249   -0.6602 C   0  0  0  0  0  0  0  0  0  0  0  0
    7.0011    9.2171   -1.1912 C   0  0  0  0  0  0  0  0  0  0  0  0
  1  2  1  1  0  0  0
  1  6  1  0  0  0  0
  1 23  1  0  0  0  0
  3  4  1  6  0  0  0
  3  8  1  0  0  0  0
  3 30  1  0  0  0  0
  5  9  1  0  0  0  0
  5 27  1  0  0  0  0
  5 31  1  6  0  0  0
  6  7  1  1  0  0  0
  6 11  1  0  0  0  0
  8 13  1  0  0  0  0
  9 10  1  6  0  0  0
  9 15  1  0  0  0  0
 11 12  1  1  0  0  0
 11 17  1  0  0  0  0
 13 14  1  6  0  0  0
 13 19  1  0  0  0  0
 15 16  1  1  0  0  0
 15 20  1  0  0  0  0
 16 34  1  0  0  0  0
 17 18  1  1  0  0  0
 17 22  1  0  0  0  0
 19  2  1  1  0  0  0
 19 24  1  0  0  0  0
 20 21  1  1  0  0  0
 20 26  1  0  0  0  0
 20 33  1  0  0  0  0
 22 23  1  6  0  0  0
 22 28  1  0  0  0  0
 24 25  1  6  0  0  0
 24 30  1  0  0  0  0
 26 27  1  0  0  0  0
 28 29  1  1  0  0  0
 28 32  1  0  0  0  0
 30 31  1  1  0  0  0
M  END
>  <CHROM.1>
-165.39946862,-172.94416910,-137.25842433,53.75746084,-52.51676869,-169.22363210
12.30824758,5.42857758,1.90386891,1.00487030,-0.21863708,2.71065886

>  <Name>
ligand

>  <RI>
0

>  <Rbt.Current_Directory>
/home/itssahil/PROJECTS/Mol_Feturizer/New_Systems/rnas/3TD1

>  <Rbt.Executable>
rbdock ($Id: //depot/dev/client3/rdock/2013.1/src/exe/rbdock.cxx#4 $)

>  <Rbt.Library>
libRbt.so (2013.1, Build901 2013/11/27)

>  <Rbt.Parameter_File>
/export/apps/rDock/src/rDock_2013.1_src/data/scripts/dock_solv.prm

>  <Rbt.Receptor>
prm/blind_docking_20.prm

>  <SCORE>
-5.97097

>  <SCORE.INTER>
-6.85438

>  <SCORE.INTER.CONST>
1

>  <SCORE.INTER.POLAR>
0

>  <SCORE.INTER.ROT>
6

>  <SCORE.INTER.SOLV>
23.3567

>  <SCORE.INTER.VDW>
-19.9551

>  <SCORE.INTER.norm>
-0.201599

>  <SCORE.INTRA>
-4.12939

>  <SCORE.INTRA.DIHEDRAL>
-16.3361

>  <SCORE.INTRA.DIHEDRAL.0>
19.5869

>  <SCORE.INTRA.POLAR>
0

>  <SCORE.INTRA.POLAR.0>
0

>  <SCORE.INTRA.REPUL>
0

>  <SCORE.INTRA.REPUL.0>
0

>  <SCORE.INTRA.SOLV>
-0.270195

>  <SCORE.INTRA.SOLV.lig_0>
-70.101

>  <SCORE.INTRA.VDW>
4.17375

>  <SCORE.INTRA.VDW.0>
-3.39718

>  <SCORE.INTRA.norm>
-0.121453

>  <SCORE.RESTR>
5.0128

>  <SCORE.RESTR.CAVITY>
5.0128

>  <SCORE.RESTR.norm>
0.147435

>  <SCORE.SYSTEM>
0

>  <SCORE.SYSTEM.CONST>
0

>  <SCORE.SYSTEM.DIHEDRAL>
0

>  <SCORE.SYSTEM.SOLV>
0

>  <SCORE.SYSTEM.norm>
0

>  <SCORE.heavy>
34

>  <SCORE.norm>
-0.175617

>  <RMSD>
10.088

$$$$
ligand
 OpenBabel11021811483D
libRbt.so/2013.1/901 2013/11/27
 34 36  0  0  0  0  0  0  0  0999 V2000
   -0.2112    1.9743    8.1862 C   0  0  2  0  0  0  0  0  0  0  0  0
    1.1717    1.9451    8.5727 O   0  0  0  0  0  0  0  0  0  0  0  0
    3.2767    5.6556    8.3223 C   0  0  2  0  0  0  0  0  0  0  0  0
    4.1712    6.7141    7.8666 N   0  0  0  0  0  0  0  0  0  0  0  0
    1.7156    7.5634    6.0971 C   0  0  2  0  0  0  0  0  0  0  0  0
   -1.0385    1.2206    9.2880 C   0  0  2  0  0  0  0  0  0  0  0  0
   -0.8973    1.8747   10.5982 N   0  0  0  0  0  0  0  0  0  0  0  0
    4.1343    4.3567    8.4865 C   0  0  0  0  0  0  0  0  0  0  0  0
    0.4111    8.3398    5.6940 C   0  0  2  0  0  0  0  0  0  0  0  0
   -0.1043    9.0325    6.8189 O   0  0  0  0  0  0  0  0  0  0  0  0
   -0.5563   -0.2436    9.3769 C   0  0  1  0  0  0  0  0  0  0  0  0
   -1.3148   -0.9415   10.3781 O   0  0  0  0  0  0  0  0  0  0  0  0
    3.1794    3.2256    8.9979 C   0  0  2  0  0  0  0  0  0  0  0  0
    3.9328    1.9666    9.1673 N   0  0  0  0  0  0  0  0  0  0  0  0
   -0.6405    7.3046    5.1354 C   0  0  1  0  0  0  0  0  0  0  0  0
   -1.9092    7.9932    4.7513 N   0  0  0  0  0  0  0  0  0  0  0  0
   -0.7072   -0.9038    7.9858 C   0  0  2  0  0  0  0  0  0  0  0  0
   -0.2514   -2.2664    8.0504 O   0  0  0  0  0  0  0  0  0  0  0  0
    2.0187    2.9856    7.9989 C   0  0  2  0  0  0  0  0  0  0  0  0
   -0.0227    6.5693    3.8971 C   0  0  1  0  0  0  0  0  0  0  0  0
    0.2633    7.5172    2.8720 O   0  0  0  0  0  0  0  0  0  0  0  0
    0.1275   -0.0928    6.9226 C   0  0  2  0  0  0  0  0  0  0  0  0
   -0.3369    1.3074    6.8811 O   0  0  0  0  0  0  0  0  0  0  0  0
    1.2262    4.3027    7.8062 C   0  0  2  0  0  0  0  0  0  0  0  0
    0.1784    4.0631    6.8723 O   0  0  0  0  0  0  0  0  0  0  0  0
    1.3008    5.8702    4.3409 C   0  0  0  0  0  0  0  0  0  0  0  0
    2.2450    6.8529    4.9250 O   0  0  0  0  0  0  0  0  0  0  0  0
   -0.0063   -0.6949    5.4995 C   0  0  2  0  0  0  0  0  0  0  0  0
   -1.3760   -0.6820    5.1058 O   0  0  0  0  0  0  0  0  0  0  0  0
    2.1325    5.4262    7.2513 C   0  0  1  0  0  0  0  0  0  0  0  0
    1.3066    6.6066    7.1142 O   0  0  0  0  0  0  0  0  0  0  0  0
    0.4827   -2.1331    5.4525 C   0  0  0  0  0  0  0  0  0  0  0  0
   -0.9744    5.5318    3.3142 C   0  0  0  0  0  0  0  0  0  0  0  0
   -2.9996    7.4530    5.5857 C   0  0  0  0  0  0  0  0  0  0  0  0
  1  2  1  1  0  0  0
  1  6  1  0  0  0  0
  1 23  1  0  0  0  0
  3  4  1  6  0  0  0
  3  8  1  0  0  0  0
  3 30  1  0  0  0  0
  5  9  1  0  0  0  0
  5 27  1  0  0  0  0
  5 31  1  1  0  0  0
  6  7  1  1  0  0  0
  6 11  1  0  0  0  0
  8 13  1  0  0  0  0
  9 10  1  1  0  0  0
  9 15  1  0  0  0  0
 11 12  1  1  0  0  0
 11 17  1  0  0  0  0
 13 14  1  6  0  0  0
 13 19  1  0  0  0  0
 15 16  1  6  0  0  0
 15 20  1  0  0  0  0
 16 34  1  0  0  0  0
 17 18  1  1  0  0  0
 17 22  1  0  0  0  0
 19  2  1  1  0  0  0
 19 24  1  0  0  0  0
 20 21  1  6  0  0  0
 20 26  1  0  0  0  0
 20 33  1  0  0  0  0
 22 23  1  6  0  0  0
 22 28  1  0  0  0  0
 24 25  1  6  0  0  0
 24 30  1  0  0  0  0
 26 27  1  0  0  0  0
 28 29  1  1  0  0  0
 28 32  1  0  0  0  0
 30 31  1  1  0  0  0
M  END
>  <CHROM.1>
-157.27403846,152.62781844,-118.33006607,59.63307504,91.08911511,154.87317768
0.55526172,3.68171716,6.90612651,1.67371500,0.74131888,2.74407062

>  <Name>
ligand

>  <RI>
0

>  <Rbt.Current_Directory>
/home/itssahil/PROJECTS/Mol_Feturizer/New_Systems/rnas/3TD1

>  <Rbt.Executable>
rbdock ($Id: //depot/dev/client3/rdock/2013.1/src/exe/rbdock.cxx#4 $)

>  <Rbt.Library>
libRbt.so (2013.1, Build901 2013/11/27)

>  <Rbt.Parameter_File>
/export/apps/rDock/src/rDock_2013.1_src/data/scripts/dock_solv.prm

>  <Rbt.Receptor>
prm/blind_docking_80.prm

>  <SCORE>
10.9908

>  <SCORE.INTER>
-3.25039

>  <SCORE.INTER.CONST>
1

>  <SCORE.INTER.POLAR>
0

>  <SCORE.INTER.ROT>
6

>  <SCORE.INTER.SOLV>
19.4659

>  <SCORE.INTER.VDW>
-16.2556

>  <SCORE.INTER.norm>
-0.0955996

>  <SCORE.INTRA>
1.38461

>  <SCORE.INTRA.DIHEDRAL>
-6.51916

>  <SCORE.INTRA.DIHEDRAL.0>
19.5869

>  <SCORE.INTRA.POLAR>
0

>  <SCORE.INTRA.POLAR.0>
0

>  <SCORE.INTRA.REPUL>
0

>  <SCORE.INTRA.REPUL.0>
0

>  <SCORE.INTRA.SOLV>
-2.06994

>  <SCORE.INTRA.SOLV.lig_0>
-70.101

>  <SCORE.INTRA.VDW>
5.67916

>  <SCORE.INTRA.VDW.0>
-3.39718

>  <SCORE.INTRA.norm>
0.0407239

>  <SCORE.RESTR>
12.8565

>  <SCORE.RESTR.CAVITY>
12.8565

>  <SCORE.RESTR.norm>
0.378133

>  <SCORE.SYSTEM>
0

>  <SCORE.SYSTEM.CONST>
0

>  <SCORE.SYSTEM.DIHEDRAL>
0

>  <SCORE.SYSTEM.SOLV>
0

>  <SCORE.SYSTEM.norm>
0

>  <SCORE.heavy>
34

>  <SCORE.norm>
0.323258

>  <RMSD>
10.152

$$$$
ligand
 OpenBabel11021811483D
libRbt.so/2013.1/901 2013/11/27
 34 36  0  0  0  0  0  0  0  0999 V2000
   12.4364    5.2847    0.5910 C   0  0  2  0  0  0  0  0  0  0  0  0
   12.7706    5.1882    1.9844 O   0  0  0  0  0  0  0  0  0  0  0  0
   13.1686    2.0155    4.8194 C   0  0  2  0  0  0  0  0  0  0  0  0
   12.9327    0.7825    5.5624 N   0  0  0  0  0  0  0  0  0  0  0  0
   14.6958   -0.5158    3.3048 C   0  0  2  0  0  0  0  0  0  0  0  0
   12.8960    6.6965    0.0789 C   0  0  2  0  0  0  0  0  0  0  0  0
   14.3488    6.8699    0.2323 N   0  0  0  0  0  0  0  0  0  0  0  0
   11.8420    2.8451    4.8564 C   0  0  0  0  0  0  0  0  0  0  0  0
   16.1471   -1.0436    3.5917 C   0  0  2  0  0  0  0  0  0  0  0  0
   16.5921   -0.5687    4.8516 O   0  0  0  0  0  0  0  0  0  0  0  0
   12.1495    7.7941    0.8679 C   0  0  1  0  0  0  0  0  0  0  0  0
   12.5595    9.0889    0.3988 O   0  0  0  0  0  0  0  0  0  0  0  0
   12.1015    4.1796    4.0788 C   0  0  2  0  0  0  0  0  0  0  0  0
   10.8781    5.0073    4.0734 N   0  0  0  0  0  0  0  0  0  0  0  0
   17.1004   -0.5554    2.4332 C   0  0  1  0  0  0  0  0  0  0  0  0
   18.5006   -1.0196    2.6682 N   0  0  0  0  0  0  0  0  0  0  0  0
   10.6264    7.5830    0.6968 C   0  0  2  0  0  0  0  0  0  0  0  0
    9.9169    8.5926    1.4357 O   0  0  0  0  0  0  0  0  0  0  0  0
   12.5219    3.8955    2.6141 C   0  0  2  0  0  0  0  0  0  0  0  0
   16.5653   -1.1066    1.0673 C   0  0  1  0  0  0  0  0  0  0  0  0
   16.5775   -2.5315    1.0891 O   0  0  0  0  0  0  0  0  0  0  0  0
   10.2313    6.1453    1.2085 C   0  0  2  0  0  0  0  0  0  0  0  0
   10.9809    5.1206    0.4559 O   0  0  0  0  0  0  0  0  0  0  0  0
   13.7999    3.0199    2.6072 C   0  0  2  0  0  0  0  0  0  0  0  0
   14.1561    2.7570    1.2539 O   0  0  0  0  0  0  0  0  0  0  0  0
   15.1013   -0.6034    0.8652 C   0  0  0  0  0  0  0  0  0  0  0  0
   14.2413   -1.0164    2.0002 O   0  0  0  0  0  0  0  0  0  0  0  0
    8.7152    5.8660    1.0379 C   0  0  2  0  0  0  0  0  0  0  0  0
    8.2553    6.4661   -0.1703 O   0  0  0  0  0  0  0  0  0  0  0  0
   13.5589    1.6707    3.3235 C   0  0  1  0  0  0  0  0  0  0  0  0
   14.8038    0.9349    3.2691 O   0  0  0  0  0  0  0  0  0  0  0  0
    7.9071    6.4449    2.1874 C   0  0  0  0  0  0  0  0  0  0  0  0
   17.4242   -0.6554   -0.1077 C   0  0  0  0  0  0  0  0  0  0  0  0
   19.1868   -0.0152    3.5033 C   0  0  0  0  0  0  0  0  0  0  0  0
  1  2  1  1  0  0  0
  1  6  1  0  0  0  0
  1 23  1  0  0  0  0
  3  4  1  1  0  0  0
  3  8  1  0  0  0  0
  3 30  1  0  0  0  0
  5  9  1  0  0  0  0
  5 27  1  0  0  0  0
  5 31  1  6  0  0  0
  6  7  1  1  0  0  0
  6 11  1  0  0  0  0
  8 13  1  0  0  0  0
  9 10  1  1  0  0  0
  9 15  1  0  0  0  0
 11 12  1  6  0  0  0
 11 17  1  0  0  0  0
 13 14  1  6  0  0  0
 13 19  1  0  0  0  0
 15 16  1  1  0  0  0
 15 20  1  0  0  0  0
 16 34  1  0  0  0  0
 17 18  1  1  0  0  0
 17 22  1  0  0  0  0
 19  2  1  1  0  0  0
 19 24  1  0  0  0  0
 20 21  1  1  0  0  0
 20 26  1  0  0  0  0
 20 33  1  0  0  0  0
 22 23  1  6  0  0  0
 22 28  1  0  0  0  0
 24 25  1  6  0  0  0
 24 30  1  0  0  0  0
 26 27  1  0  0  0  0
 28 29  1  6  0  0  0
 28 32  1  0  0  0  0
 30 31  1  1  0  0  0
M  END
>  <CHROM.1>
-174.96228846,-146.08993837,-87.73023903,36.56132889,91.17633252,-166.35911969
13.40097757,3.08188015,2.11929215,-2.38586597,-0.57868186,2.42614902

>  <Name>
ligand

>  <RI>
0

>  <Rbt.Current_Directory>
/home/itssahil/PROJECTS/Mol_Feturizer/New_Systems/rnas/3TD1

>  <Rbt.Executable>
rbdock ($Id: //depot/dev/client3/rdock/2013.1/src/exe/rbdock.cxx#4 $)

>  <Rbt.Library>
libRbt.so (2013.1, Build901 2013/11/27)

>  <Rbt.Parameter_File>
/export/apps/rDock/src/rDock_2013.1_src/data/scripts/dock_solv.prm

>  <Rbt.Receptor>
prm/blind_docking_20.prm

>  <SCORE>
-0.23557

>  <SCORE.INTER>
-5.61134

>  <SCORE.INTER.CONST>
1

>  <SCORE.INTER.POLAR>
0

>  <SCORE.INTER.ROT>
6

>  <SCORE.INTER.SOLV>
16.9228

>  <SCORE.INTER.VDW>
-16.9818

>  <SCORE.INTER.norm>
-0.165039

>  <SCORE.INTRA>
-4.13559

>  <SCORE.INTRA.DIHEDRAL>
-8.11962

>  <SCORE.INTRA.DIHEDRAL.0>
19.5869

>  <SCORE.INTRA.POLAR>
0

>  <SCORE.INTRA.POLAR.0>
0

>  <SCORE.INTRA.REPUL>
0

>  <SCORE.INTRA.REPUL.0>
0

>  <SCORE.INTRA.SOLV>
0.178331

>  <SCORE.INTRA.SOLV.lig_0>
-70.101

>  <SCORE.INTRA.VDW>
-0.164944

>  <SCORE.INTRA.VDW.0>
-3.39718

>  <SCORE.INTRA.norm>
-0.121635

>  <SCORE.RESTR>
9.51136

>  <SCORE.RESTR.CAVITY>
9.51136

>  <SCORE.RESTR.norm>
0.279746

>  <SCORE.SYSTEM>
0

>  <SCORE.SYSTEM.CONST>
0

>  <SCORE.SYSTEM.DIHEDRAL>
0

>  <SCORE.SYSTEM.SOLV>
0

>  <SCORE.SYSTEM.norm>
0

>  <SCORE.heavy>
34

>  <SCORE.norm>
-0.00692854

>  <RMSD>
10.174

$$$$
ligand
 OpenBabel11021811483D
libRbt.so/2013.1/901 2013/11/27
 34 36  0  0  0  0  0  0  0  0999 V2000
   -1.0669   -1.0321    6.9655 C   0  0  2  0  0  0  0  0  0  0  0  0
    0.3051   -0.8197    7.3330 O   0  0  0  0  0  0  0  0  0  0  0  0
   -0.3741    2.5691    9.8463 C   0  0  2  0  0  0  0  0  0  0  0  0
   -0.2683    3.5252   10.9430 N   0  0  0  0  0  0  0  0  0  0  0  0
    1.5048    4.9754    9.2608 C   0  0  2  0  0  0  0  0  0  0  0  0
   -1.1360   -2.3245    6.0758 C   0  0  2  0  0  0  0  0  0  0  0  0
   -0.6535   -3.5028    6.8127 N   0  0  0  0  0  0  0  0  0  0  0  0
   -0.5942    1.1544   10.4786 C   0  0  0  0  0  0  0  0  0  0  0  0
    1.3305    6.2848    8.4110 C   0  0  2  0  0  0  0  0  0  0  0  0
   -0.0198    6.4149    7.9979 O   0  0  0  0  0  0  0  0  0  0  0  0
   -0.2854   -2.1154    4.8041 C   0  0  1  0  0  0  0  0  0  0  0  0
   -0.3505   -3.2916    3.9813 O   0  0  0  0  0  0  0  0  0  0  0  0
   -0.7312    0.1305    9.3014 C   0  0  2  0  0  0  0  0  0  0  0  0
   -0.9357   -1.2307    9.8369 N   0  0  0  0  0  0  0  0  0  0  0  0
    2.2991    6.2126    7.1675 C   0  0  1  0  0  0  0  0  0  0  0  0
    2.1595    7.4318    6.3158 N   0  0  0  0  0  0  0  0  0  0  0  0
   -0.8076   -0.8669    4.0543 C   0  0  2  0  0  0  0  0  0  0  0  0
   -0.0174   -0.6529    2.8718 O   0  0  0  0  0  0  0  0  0  0  0  0
    0.5383    0.1347    8.4120 C   0  0  2  0  0  0  0  0  0  0  0  0
    3.7736    6.0702    7.6784 C   0  0  1  0  0  0  0  0  0  0  0  0
    4.1231    7.2132    8.4546 O   0  0  0  0  0  0  0  0  0  0  0  0
   -0.7317    0.3896    5.0031 C   0  0  2  0  0  0  0  0  0  0  0  0
   -1.5303    0.1487    6.2207 O   0  0  0  0  0  0  0  0  0  0  0  0
    0.7681    1.5605    7.8515 C   0  0  2  0  0  0  0  0  0  0  0  0
    1.9476    1.5442    7.0541 O   0  0  0  0  0  0  0  0  0  0  0  0
    3.8727    4.7901    8.5665 C   0  0  0  0  0  0  0  0  0  0  0  0
    2.9051    4.8514    9.6883 O   0  0  0  0  0  0  0  0  0  0  0  0
   -1.2678    1.6706    4.3121 C   0  0  2  0  0  0  0  0  0  0  0  0
   -1.3126    2.7362    5.2575 O   0  0  0  0  0  0  0  0  0  0  0  0
    0.9596    2.5871    8.9921 C   0  0  1  0  0  0  0  0  0  0  0  0
    1.1592    3.8782    8.3698 O   0  0  0  0  0  0  0  0  0  0  0  0
   -2.6718    1.4663    3.7673 C   0  0  0  0  0  0  0  0  0  0  0  0
    4.7700    5.9699    6.5299 C   0  0  0  0  0  0  0  0  0  0  0  0
    1.2314    7.1210    5.2118 C   0  0  0  0  0  0  0  0  0  0  0  0
  1  2  1  6  0  0  0
  1  6  1  0  0  0  0
  1 23  1  0  0  0  0
  3  4  1  1  0  0  0
  3  8  1  0  0  0  0
  3 30  1  0  0  0  0
  5  9  1  0  0  0  0
  5 27  1  0  0  0  0
  5 31  1  6  0  0  0
  6  7  1  1  0  0  0
  6 11  1  0  0  0  0
  8 13  1  0  0  0  0
  9 10  1  6  0  0  0
  9 15  1  0  0  0  0
 11 12  1  6  0  0  0
 11 17  1  0  0  0  0
 13 14  1  1  0  0  0
 13 19  1  0  0  0  0
 15 16  1  1  0  0  0
 15 20  1  0  0  0  0
 16 34  1  0  0  0  0
 17 18  1  6  0  0  0
 17 22  1  0  0  0  0
 19  2  1  6  0  0  0
 19 24  1  0  0  0  0
 20 21  1  1  0  0  0
 20 26  1  0  0  0  0
 20 33  1  0  0  0  0
 22 23  1  1  0  0  0
 22 28  1  0  0  0  0
 24 25  1  6  0  0  0
 24 30  1  0  0  0  0
 26 27  1  0  0  0  0
 28 29  1  1  0  0  0
 28 32  1  0  0  0  0
 30 31  1  6  0  0  0
M  END
>  <CHROM.1>
-165.80778383,27.30293352,-96.59957073,173.67450162,70.46408516,-167.03046892
0.56668287,2.22843293,7.13812614,3.05625247,-1.16538054,-1.35961051

>  <Name>
ligand

>  <RI>
0

>  <Rbt.Current_Directory>
/home/itssahil/PROJECTS/Mol_Feturizer/New_Systems/rnas/3TD1

>  <Rbt.Executable>
rbdock ($Id: //depot/dev/client3/rdock/2013.1/src/exe/rbdock.cxx#4 $)

>  <Rbt.Library>
libRbt.so (2013.1, Build901 2013/11/27)

>  <Rbt.Parameter_File>
/export/apps/rDock/src/rDock_2013.1_src/data/scripts/dock_solv.prm

>  <Rbt.Receptor>
prm/blind_docking_80.prm

>  <SCORE>
15.0059

>  <SCORE.INTER>
3.50777

>  <SCORE.INTER.CONST>
1

>  <SCORE.INTER.POLAR>
0

>  <SCORE.INTER.ROT>
6

>  <SCORE.INTER.SOLV>
18.8779

>  <SCORE.INTER.VDW>
-11.5541

>  <SCORE.INTER.norm>
0.10317

>  <SCORE.INTRA>
-2.20499

>  <SCORE.INTRA.DIHEDRAL>
-12.2012

>  <SCORE.INTRA.DIHEDRAL.0>
19.5869

>  <SCORE.INTRA.POLAR>
0

>  <SCORE.INTRA.POLAR.0>
0

>  <SCORE.INTRA.REPUL>
0.092304

>  <SCORE.INTRA.REPUL.0>
0

>  <SCORE.INTRA.SOLV>
0.0683797

>  <SCORE.INTRA.SOLV.lig_0>
-70.101

>  <SCORE.INTRA.VDW>
3.39989

>  <SCORE.INTRA.VDW.0>
-3.39718

>  <SCORE.INTRA.norm>
-0.0648527

>  <SCORE.RESTR>
13.7031

>  <SCORE.RESTR.CAVITY>
13.7031

>  <SCORE.RESTR.norm>
0.403034

>  <SCORE.SYSTEM>
0

>  <SCORE.SYSTEM.CONST>
0

>  <SCORE.SYSTEM.DIHEDRAL>
0

>  <SCORE.SYSTEM.SOLV>
0

>  <SCORE.SYSTEM.norm>
0

>  <SCORE.heavy>
34

>  <SCORE.norm>
0.44135

>  <RMSD>
10.227

$$$$
ligand
 OpenBabel11021811483D
libRbt.so/2013.1/901 2013/11/27
 34 36  0  0  0  0  0  0  0  0999 V2000
   13.1603    2.7237    2.5427 C   0  0  2  0  0  0  0  0  0  0  0  0
   14.0450    3.8352    2.7537 O   0  0  0  0  0  0  0  0  0  0  0  0
   13.4909    7.8651    1.4443 C   0  0  2  0  0  0  0  0  0  0  0  0
   13.4197    9.0498    0.5962 N   0  0  0  0  0  0  0  0  0  0  0  0
   10.2695    7.6144    0.0013 C   0  0  2  0  0  0  0  0  0  0  0  0
   12.7636    2.1462    3.9483 C   0  0  2  0  0  0  0  0  0  0  0  0
   12.0706    3.1576    4.7615 N   0  0  0  0  0  0  0  0  0  0  0  0
   14.9154    7.2431    1.2607 C   0  0  0  0  0  0  0  0  0  0  0  0
    9.0164    8.4386    0.4677 C   0  0  2  0  0  0  0  0  0  0  0  0
    9.4325    9.6764    1.0205 O   0  0  0  0  0  0  0  0  0  0  0  0
   14.0351    1.6644    4.6801 C   0  0  1  0  0  0  0  0  0  0  0  0
   13.6784    1.1273    5.9643 O   0  0  0  0  0  0  0  0  0  0  0  0
   15.0007    5.9843    2.1886 C   0  0  2  0  0  0  0  0  0  0  0  0
   16.3263    5.3468    2.0545 N   0  0  0  0  0  0  0  0  0  0  0  0
    8.2163    7.5854    1.5267 C   0  0  1  0  0  0  0  0  0  0  0  0
    7.0195    8.3342    2.0150 N   0  0  0  0  0  0  0  0  0  0  0  0
   14.7477    0.6101    3.8003 C   0  0  2  0  0  0  0  0  0  0  0  0
   15.9410    0.1593    4.4648 O   0  0  0  0  0  0  0  0  0  0  0  0
   13.9065    4.9494    1.8218 C   0  0  2  0  0  0  0  0  0  0  0  0
    7.7810    6.2326    0.8664 C   0  0  1  0  0  0  0  0  0  0  0  0
    6.9225    6.4953   -0.2404 O   0  0  0  0  0  0  0  0  0  0  0  0
   15.1014    1.2419    2.4002 C   0  0  2  0  0  0  0  0  0  0  0  0
   13.8710    1.7179    1.7385 O   0  0  0  0  0  0  0  0  0  0  0  0
   12.5111    5.6100    1.9502 C   0  0  2  0  0  0  0  0  0  0  0  0
   11.5248    4.6479    1.5912 O   0  0  0  0  0  0  0  0  0  0  0  0
    9.0586    5.4874    0.3664 C   0  0  0  0  0  0  0  0  0  0  0  0
    9.8288    6.3362   -0.5742 O   0  0  0  0  0  0  0  0  0  0  0  0
   15.7971    0.2205    1.4628 C   0  0  2  0  0  0  0  0  0  0  0  0
   15.7765    0.7133    0.1257 O   0  0  0  0  0  0  0  0  0  0  0  0
   12.3780    6.8270    1.0054 C   0  0  1  0  0  0  0  0  0  0  0  0
   11.0526    7.3732    1.2037 O   0  0  0  0  0  0  0  0  0  0  0  0
   15.0904   -1.1248    1.4789 C   0  0  0  0  0  0  0  0  0  0  0  0
    7.0203    5.3398    1.8390 C   0  0  0  0  0  0  0  0  0  0  0  0
    7.1133    8.4494    3.4829 C   0  0  0  0  0  0  0  0  0  0  0  0
  1  2  1  1  0  0  0
  1  6  1  0  0  0  0
  1 23  1  0  0  0  0
  3  4  1  6  0  0  0
  3  8  1  0  0  0  0
  3 30  1  0  0  0  0
  5  9  1  0  0  0  0
  5 27  1  0  0  0  0
  5 31  1  1  0  0  0
  6  7  1  1  0  0  0
  6 11  1  0  0  0  0
  8 13  1  0  0  0  0
  9 10  1  1  0  0  0
  9 15  1  0  0  0  0
 11 12  1  1  0  0  0
 11 17  1  0  0  0  0
 13 14  1  6  0  0  0
 13 19  1  0  0  0  0
 15 16  1  6  0  0  0
 15 20  1  0  0  0  0
 16 34  1  0  0  0  0
 17 18  1  1  0  0  0
 17 22  1  0  0  0  0
 19  2  1  1  0  0  0
 19 24  1  0  0  0  0
 20 21  1  6  0  0  0
 20 26  1  0  0  0  0
 20 33  1  0  0  0  0
 22 23  1  6  0  0  0
 22 28  1  0  0  0  0
 24 25  1  6  0  0  0
 24 30  1  0  0  0  0
 26 27  1  0  0  0  0
 28 29  1  6  0  0  0
 28 32  1  0  0  0  0
 30 31  1  1  0  0  0
M  END
>  <CHROM.1>
-144.16651295,-176.93156588,-122.88746425,164.86513880,113.96816694,-169.74758247
12.11030760,4.77022541,1.93803644,0.82338447,-0.09614223,2.77503578

>  <Name>
ligand

>  <RI>
0

>  <Rbt.Current_Directory>
/home/itssahil/PROJECTS/Mol_Feturizer/New_Systems/rnas/3TD1

>  <Rbt.Executable>
rbdock ($Id: //depot/dev/client3/rdock/2013.1/src/exe/rbdock.cxx#4 $)

>  <Rbt.Library>
libRbt.so (2013.1, Build901 2013/11/27)

>  <Rbt.Parameter_File>
/export/apps/rDock/src/rDock_2013.1_src/data/scripts/dock_solv.prm

>  <Rbt.Receptor>
prm/blind_docking_20.prm

>  <SCORE>
8.89276

>  <SCORE.INTER>
7.13543

>  <SCORE.INTER.CONST>
1

>  <SCORE.INTER.POLAR>
0

>  <SCORE.INTER.ROT>
6

>  <SCORE.INTER.SOLV>
27.0747

>  <SCORE.INTER.VDW>
-11.868

>  <SCORE.INTER.norm>
0.209866

>  <SCORE.INTRA>
-1.88032

>  <SCORE.INTRA.DIHEDRAL>
-5.38113

>  <SCORE.INTRA.DIHEDRAL.0>
19.5869

>  <SCORE.INTRA.POLAR>
0

>  <SCORE.INTRA.POLAR.0>
0

>  <SCORE.INTRA.REPUL>
0

>  <SCORE.INTRA.REPUL.0>
0

>  <SCORE.INTRA.SOLV>
-2.01606

>  <SCORE.INTRA.SOLV.lig_0>
-70.101

>  <SCORE.INTRA.VDW>
1.81827

>  <SCORE.INTRA.VDW.0>
-3.39718

>  <SCORE.INTRA.norm>
-0.0553036

>  <SCORE.RESTR>
3.63766

>  <SCORE.RESTR.CAVITY>
3.63766

>  <SCORE.RESTR.norm>
0.10699

>  <SCORE.SYSTEM>
0

>  <SCORE.SYSTEM.CONST>
0

>  <SCORE.SYSTEM.DIHEDRAL>
0

>  <SCORE.SYSTEM.SOLV>
0

>  <SCORE.SYSTEM.norm>
0

>  <SCORE.heavy>
34

>  <SCORE.norm>
0.261552

>  <RMSD>
10.236

$$$$
ligand
 OpenBabel11021811483D
libRbt.so/2013.1/901 2013/11/27
 34 36  0  0  0  0  0  0  0  0999 V2000
   13.1594    2.6017    2.6387 C   0  0  2  0  0  0  0  0  0  0  0  0
   14.0384    3.7266    2.7950 O   0  0  0  0  0  0  0  0  0  0  0  0
   13.1623    7.7084    1.5147 C   0  0  2  0  0  0  0  0  0  0  0  0
   13.0096    8.8937    0.6782 N   0  0  0  0  0  0  0  0  0  0  0  0
    9.9438    6.9264    0.0107 C   0  0  2  0  0  0  0  0  0  0  0  0
   12.8728    2.0086    4.0644 C   0  0  2  0  0  0  0  0  0  0  0  0
   12.2226    3.0029    4.9322 N   0  0  0  0  0  0  0  0  0  0  0  0
   14.6417    7.2193    1.3675 C   0  0  0  0  0  0  0  0  0  0  0  0
    9.7620    8.4077   -0.4792 C   0  0  2  0  0  0  0  0  0  0  0  0
   11.0218    8.9581   -0.8269 O   0  0  0  0  0  0  0  0  0  0  0  0
   14.2007    1.5438    4.7009 C   0  0  1  0  0  0  0  0  0  0  0  0
   13.9448    0.9926    6.0029 O   0  0  0  0  0  0  0  0  0  0  0  0
   14.8129    5.9604    2.2834 C   0  0  2  0  0  0  0  0  0  0  0  0
   16.1938    5.4462    2.1825 N   0  0  0  0  0  0  0  0  0  0  0  0
    9.0783    9.2405    0.6733 C   0  0  1  0  0  0  0  0  0  0  0  0
    8.8970   10.6650    0.2616 N   0  0  0  0  0  0  0  0  0  0  0  0
   14.8665    0.5073    3.7650 C   0  0  2  0  0  0  0  0  0  0  0  0
   16.1111    0.0726    4.3400 O   0  0  0  0  0  0  0  0  0  0  0  0
   13.8275    4.8368    1.8718 C   0  0  2  0  0  0  0  0  0  0  0  0
    7.6939    8.5921    1.0176 C   0  0  1  0  0  0  0  0  0  0  0  0
    6.8485    8.6330   -0.1290 O   0  0  0  0  0  0  0  0  0  0  0  0
   15.1097    1.1539    2.3481 C   0  0  2  0  0  0  0  0  0  0  0  0
   13.8279    1.6131    1.7787 O   0  0  0  0  0  0  0  0  0  0  0  0
   12.3751    5.3678    1.9652 C   0  0  2  0  0  0  0  0  0  0  0  0
   11.4903    4.3262    1.5657 O   0  0  0  0  0  0  0  0  0  0  0  0
    7.9289    7.1064    1.4359 C   0  0  0  0  0  0  0  0  0  0  0  0
    8.6336    6.3629    0.3641 O   0  0  0  0  0  0  0  0  0  0  0  0
   15.7540    0.1504    1.3562 C   0  0  2  0  0  0  0  0  0  0  0  0
   15.7684    0.7185    0.0492 O   0  0  0  0  0  0  0  0  0  0  0  0
   12.1607    6.5810    1.0305 C   0  0  1  0  0  0  0  0  0  0  0  0
   10.7863    7.0034    1.1946 O   0  0  0  0  0  0  0  0  0  0  0  0
   14.9745   -1.1527    1.2938 C   0  0  0  0  0  0  0  0  0  0  0  0
    6.9805    9.3301    2.1438 C   0  0  0  0  0  0  0  0  0  0  0  0
   10.1940   11.3548    0.3989 C   0  0  0  0  0  0  0  0  0  0  0  0
  1  2  1  1  0  0  0
  1  6  1  0  0  0  0
  1 23  1  0  0  0  0
  3  4  1  6  0  0  0
  3  8  1  0  0  0  0
  3 30  1  0  0  0  0
  5  9  1  0  0  0  0
  5 27  1  0  0  0  0
  5 31  1  1  0  0  0
  6  7  1  1  0  0  0
  6 11  1  0  0  0  0
  8 13  1  0  0  0  0
  9 10  1  1  0  0  0
  9 15  1  0  0  0  0
 11 12  1  1  0  0  0
 11 17  1  0  0  0  0
 13 14  1  6  0  0  0
 13 19  1  0  0  0  0
 15 16  1  6  0  0  0
 15 20  1  0  0  0  0
 16 34  1  0  0  0  0
 17 18  1  1  0  0  0
 17 22  1  0  0  0  0
 19  2  1  1  0  0  0
 19 24  1  0  0  0  0
 20 21  1  6  0  0  0
 20 26  1  0  0  0  0
 20 33  1  0  0  0  0
 22 23  1  6  0  0  0
 22 28  1  0  0  0  0
 24 25  1  6  0  0  0
 24 30  1  0  0  0  0
 26 27  1  0  0  0  0
 28 29  1  6  0  0  0
 28 32  1  0  0  0  0
 30 31  1  1  0  0  0
M  END
>  <CHROM.1>
-144.95628657,176.30918868,-78.47690438,171.47095866,126.16172176,-105.44680892
12.23324605,5.14775822,1.77343476,0.95318857,-0.16853695,2.71778912

>  <Name>
ligand

>  <RI>
0

>  <Rbt.Current_Directory>
/home/itssahil/PROJECTS/Mol_Feturizer/New_Systems/rnas/3TD1

>  <Rbt.Executable>
rbdock ($Id: //depot/dev/client3/rdock/2013.1/src/exe/rbdock.cxx#4 $)

>  <Rbt.Library>
libRbt.so (2013.1, Build901 2013/11/27)

>  <Rbt.Parameter_File>
/export/apps/rDock/src/rDock_2013.1_src/data/scripts/dock_solv.prm

>  <Rbt.Receptor>
prm/blind_docking_20.prm

>  <SCORE>
6.16294

>  <SCORE.INTER>
-1.64001

>  <SCORE.INTER.CONST>
1

>  <SCORE.INTER.POLAR>
0

>  <SCORE.INTER.ROT>
6

>  <SCORE.INTER.SOLV>
23.8253

>  <SCORE.INTER.VDW>
-16.6351

>  <SCORE.INTER.norm>
-0.0482355

>  <SCORE.INTRA>
2.84072

>  <SCORE.INTRA.DIHEDRAL>
-1.29854

>  <SCORE.INTRA.DIHEDRAL.0>
19.5869

>  <SCORE.INTRA.POLAR>
0

>  <SCORE.INTRA.POLAR.0>
0

>  <SCORE.INTRA.REPUL>
0

>  <SCORE.INTRA.REPUL.0>
0

>  <SCORE.INTRA.SOLV>
0.25035

>  <SCORE.INTRA.SOLV.lig_0>
-70.101

>  <SCORE.INTRA.VDW>
3.36481

>  <SCORE.INTRA.VDW.0>
-3.39718

>  <SCORE.INTRA.norm>
0.0835505

>  <SCORE.RESTR>
4.96222

>  <SCORE.RESTR.CAVITY>
4.96222

>  <SCORE.RESTR.norm>
0.145948

>  <SCORE.SYSTEM>
0

>  <SCORE.SYSTEM.CONST>
0

>  <SCORE.SYSTEM.DIHEDRAL>
0

>  <SCORE.SYSTEM.SOLV>
0

>  <SCORE.SYSTEM.norm>
0

>  <SCORE.heavy>
34

>  <SCORE.norm>
0.181263

>  <RMSD>
10.242

$$$$
ligand
 OpenBabel11021811483D
libRbt.so/2013.1/901 2013/11/27
 34 36  0  0  0  0  0  0  0  0999 V2000
    6.7860    1.4985    6.4769 C   0  0  2  0  0  0  0  0  0  0  0  0
    6.7311    2.1887    7.7351 O   0  0  0  0  0  0  0  0  0  0  0  0
    3.8789    4.7537    9.6185 C   0  0  2  0  0  0  0  0  0  0  0  0
    2.9162    5.8259    9.8460 N   0  0  0  0  0  0  0  0  0  0  0  0
    0.8778    3.4047    8.3054 C   0  0  2  0  0  0  0  0  0  0  0  0
    7.9655    0.4635    6.5427 C   0  0  2  0  0  0  0  0  0  0  0  0
    7.7496   -0.5200    7.6153 N   0  0  0  0  0  0  0  0  0  0  0  0
    5.1991    5.4133    9.0973 C   0  0  0  0  0  0  0  0  0  0  0  0
   -0.2911    3.0678    9.2990 C   0  0  2  0  0  0  0  0  0  0  0  0
   -0.1950    3.8881   10.4517 O   0  0  0  0  0  0  0  0  0  0  0  0
    9.2930    1.2161    6.7790 C   0  0  1  0  0  0  0  0  0  0  0  0
   10.3779    0.2755    6.8324 O   0  0  0  0  0  0  0  0  0  0  0  0
    6.2410    4.2653    8.8749 C   0  0  2  0  0  0  0  0  0  0  0  0
    7.5123    4.8266    8.3747 N   0  0  0  0  0  0  0  0  0  0  0  0
   -0.2039    1.5397    9.6820 C   0  0  1  0  0  0  0  0  0  0  0  0
   -1.2884    1.1712   10.6409 N   0  0  0  0  0  0  0  0  0  0  0  0
    9.4902    2.2483    5.6436 C   0  0  2  0  0  0  0  0  0  0  0  0
   10.7187    2.9653    5.8562 O   0  0  0  0  0  0  0  0  0  0  0  0
    5.7132    3.2277    7.8513 C   0  0  2  0  0  0  0  0  0  0  0  0
   -0.3154    0.6804    8.3763 C   0  0  1  0  0  0  0  0  0  0  0  0
   -1.5759    0.9168    7.7546 O   0  0  0  0  0  0  0  0  0  0  0  0
    8.2683    3.2438    5.6162 C   0  0  2  0  0  0  0  0  0  0  0  0
    7.0132    2.4933    5.4175 O   0  0  0  0  0  0  0  0  0  0  0  0
    4.3744    2.6383    8.3614 C   0  0  2  0  0  0  0  0  0  0  0  0
    3.9002    1.7031    7.3981 O   0  0  0  0  0  0  0  0  0  0  0  0
    0.8301    1.1011    7.4026 C   0  0  0  0  0  0  0  0  0  0  0  0
    0.7675    2.5538    7.1125 O   0  0  0  0  0  0  0  0  0  0  0  0
    8.3984    4.2895    4.4780 C   0  0  2  0  0  0  0  0  0  0  0  0
    9.6584    4.9477    4.5803 O   0  0  0  0  0  0  0  0  0  0  0  0
    3.3075    3.7433    8.5408 C   0  0  1  0  0  0  0  0  0  0  0  0
    2.1058    3.0966    9.0225 O   0  0  0  0  0  0  0  0  0  0  0  0
    7.3084    5.3453    4.5613 C   0  0  0  0  0  0  0  0  0  0  0  0
   -0.2151   -0.8127    8.6635 C   0  0  0  0  0  0  0  0  0  0  0  0
   -0.7823    1.3745   12.0118 C   0  0  0  0  0  0  0  0  0  0  0  0
  1  2  1  1  0  0  0
  1  6  1  0  0  0  0
  1 23  1  0  0  0  0
  3  4  1  6  0  0  0
  3  8  1  0  0  0  0
  3 30  1  0  0  0  0
  5  9  1  0  0  0  0
  5 27  1  0  0  0  0
  5 31  1  1  0  0  0
  6  7  1  1  0  0  0
  6 11  1  0  0  0  0
  8 13  1  0  0  0  0
  9 10  1  1  0  0  0
  9 15  1  0  0  0  0
 11 12  1  6  0  0  0
 11 17  1  0  0  0  0
 13 14  1  6  0  0  0
 13 19  1  0  0  0  0
 15 16  1  1  0  0  0
 15 20  1  0  0  0  0
 16 34  1  0  0  0  0
 17 18  1  1  0  0  0
 17 22  1  0  0  0  0
 19  2  1  1  0  0  0
 19 24  1  0  0  0  0
 20 21  1  6  0  0  0
 20 26  1  0  0  0  0
 20 33  1  0  0  0  0
 22 23  1  6  0  0  0
 22 28  1  0  0  0  0
 24 25  1  6  0  0  0
 24 30  1  0  0  0  0
 26 27  1  0  0  0  0
 28 29  1  1  0  0  0
 28 32  1  0  0  0  0
 30 31  1  1  0  0  0
M  END
>  <CHROM.1>
178.25251790,-152.04091658,-89.99266991,-53.59405408,114.43177743,-158.72696397
4.48631375,2.61180549,7.77288539,-0.02884198,-0.36523708,-2.97078829

>  <Name>
ligand

>  <RI>
0

>  <Rbt.Current_Directory>
/home/itssahil/PROJECTS/Mol_Feturizer/New_Systems/rnas/3TD1

>  <Rbt.Executable>
rbdock ($Id: //depot/dev/client3/rdock/2013.1/src/exe/rbdock.cxx#4 $)

>  <Rbt.Library>
libRbt.so (2013.1, Build901 2013/11/27)

>  <Rbt.Parameter_File>
/export/apps/rDock/src/rDock_2013.1_src/data/scripts/dock_solv.prm

>  <Rbt.Receptor>
prm/pocket_docking_8.prm

>  <SCORE>
-15.3721

>  <SCORE.INTER>
-11.5286

>  <SCORE.INTER.CONST>
1

>  <SCORE.INTER.POLAR>
0

>  <SCORE.INTER.ROT>
6

>  <SCORE.INTER.SOLV>
22.1032

>  <SCORE.INTER.VDW>
-22.6535

>  <SCORE.INTER.norm>
-0.339077

>  <SCORE.INTRA>
-3.84344

>  <SCORE.INTRA.DIHEDRAL>
-6.58057

>  <SCORE.INTRA.DIHEDRAL.0>
19.5869

>  <SCORE.INTRA.POLAR>
0

>  <SCORE.INTRA.POLAR.0>
0

>  <SCORE.INTRA.REPUL>
0

>  <SCORE.INTRA.REPUL.0>
0

>  <SCORE.INTRA.SOLV>
-0.316929

>  <SCORE.INTRA.SOLV.lig_0>
-70.101

>  <SCORE.INTRA.VDW>
-0.39469

>  <SCORE.INTRA.VDW.0>
-3.39718

>  <SCORE.INTRA.norm>
-0.113042

>  <SCORE.RESTR>
0

>  <SCORE.RESTR.CAVITY>
0

>  <SCORE.RESTR.norm>
0

>  <SCORE.SYSTEM>
0

>  <SCORE.SYSTEM.CONST>
0

>  <SCORE.SYSTEM.DIHEDRAL>
0

>  <SCORE.SYSTEM.SOLV>
0

>  <SCORE.SYSTEM.norm>
0

>  <SCORE.heavy>
34

>  <SCORE.norm>
-0.45212

>  <RMSD>
10.282

$$$$
ligand
 OpenBabel11021811483D
libRbt.so/2013.1/901 2013/11/27
 34 36  0  0  0  0  0  0  0  0999 V2000
    6.8795    1.7395    6.6691 C   0  0  2  0  0  0  0  0  0  0  0  0
    6.7492    2.5085    7.8750 O   0  0  0  0  0  0  0  0  0  0  0  0
    3.5943    4.8702    9.5275 C   0  0  2  0  0  0  0  0  0  0  0  0
    2.5393    5.8671    9.6739 N   0  0  0  0  0  0  0  0  0  0  0  0
    0.7806    3.3152    8.0928 C   0  0  2  0  0  0  0  0  0  0  0  0
    8.1655    0.8475    6.7994 C   0  0  2  0  0  0  0  0  0  0  0  0
    8.0591   -0.0738    7.9414 N   0  0  0  0  0  0  0  0  0  0  0  0
    4.8901    5.6232    9.0762 C   0  0  0  0  0  0  0  0  0  0  0  0
   -0.4041    3.1180    9.1051 C   0  0  2  0  0  0  0  0  0  0  0  0
   -0.3033    4.0657   10.1551 O   0  0  0  0  0  0  0  0  0  0  0  0
    9.4023    1.7561    6.9705 C   0  0  1  0  0  0  0  0  0  0  0  0
   10.5840    0.9464    7.0825 O   0  0  0  0  0  0  0  0  0  0  0  0
    6.0293    4.5569    8.9413 C   0  0  2  0  0  0  0  0  0  0  0  0
    7.2826    5.2085    8.5100 N   0  0  0  0  0  0  0  0  0  0  0  0
   -0.3501    1.6439    9.6649 C   0  0  1  0  0  0  0  0  0  0  0  0
   -1.4506    1.4097   10.6474 N   0  0  0  0  0  0  0  0  0  0  0  0
    9.4848    2.7192    5.7625 C   0  0  2  0  0  0  0  0  0  0  0  0
   10.6271    3.5799    5.9134 O   0  0  0  0  0  0  0  0  0  0  0  0
    5.6488    3.4663    7.9076 C   0  0  2  0  0  0  0  0  0  0  0  0
   -0.4656    0.6399    8.4673 C   0  0  1  0  0  0  0  0  0  0  0  0
   -1.7152    0.8247    7.8075 O   0  0  0  0  0  0  0  0  0  0  0  0
    8.1609    3.5702    5.6737 C   0  0  2  0  0  0  0  0  0  0  0  0
    6.9958    2.6743    5.5393 O   0  0  0  0  0  0  0  0  0  0  0  0
    4.3299    2.7817    8.3452 C   0  0  2  0  0  0  0  0  0  0  0  0
    3.9911    1.7982    7.3728 O   0  0  0  0  0  0  0  0  0  0  0  0
    0.6971    0.9231    7.4647 C   0  0  0  0  0  0  0  0  0  0  0  0
    0.6654    2.3327    7.0062 O   0  0  0  0  0  0  0  0  0  0  0  0
    8.1752    4.5390    4.4625 C   0  0  2  0  0  0  0  0  0  0  0  0
    9.4163    5.2390    4.4296 O   0  0  0  0  0  0  0  0  0  0  0  0
    3.1718    3.8025    8.4365 C   0  0  1  0  0  0  0  0  0  0  0  0
    1.9955    3.0710    8.8554 O   0  0  0  0  0  0  0  0  0  0  0  0
    7.0587    5.5659    4.5546 C   0  0  0  0  0  0  0  0  0  0  0  0
   -0.3969   -0.8109    8.9281 C   0  0  0  0  0  0  0  0  0  0  0  0
   -0.9936    1.8708   11.9724 C   0  0  0  0  0  0  0  0  0  0  0  0
  1  2  1  1  0  0  0
  1  6  1  0  0  0  0
  1 23  1  0  0  0  0
  3  4  1  6  0  0  0
  3  8  1  0  0  0  0
  3 30  1  0  0  0  0
  5  9  1  0  0  0  0
  5 27  1  0  0  0  0
  5 31  1  1  0  0  0
  6  7  1  1  0  0  0
  6 11  1  0  0  0  0
  8 13  1  0  0  0  0
  9 10  1  1  0  0  0
  9 15  1  0  0  0  0
 11 12  1  6  0  0  0
 11 17  1  0  0  0  0
 13 14  1  6  0  0  0
 13 19  1  0  0  0  0
 15 16  1  1  0  0  0
 15 20  1  0  0  0  0
 16 34  1  0  0  0  0
 17 18  1  1  0  0  0
 17 22  1  0  0  0  0
 19  2  1  1  0  0  0
 19 24  1  0  0  0  0
 20 21  1  6  0  0  0
 20 26  1  0  0  0  0
 20 33  1  0  0  0  0
 22 23  1  6  0  0  0
 22 28  1  0  0  0  0
 24 25  1  6  0  0  0
 24 30  1  0  0  0  0
 26 27  1  0  0  0  0
 28 29  1  1  0  0  0
 28 32  1  0  0  0  0
 30 31  1  1  0  0  0
M  END
>  <CHROM.1>
176.34284276,-156.20197469,-85.22859635,-47.65818530,111.89320951,-149.41692004
4.39229364,2.81692252,7.79537836,-0.08421556,-0.34545847,-3.02811482

>  <Name>
ligand

>  <RI>
0

>  <Rbt.Current_Directory>
/home/itssahil/PROJECTS/Mol_Feturizer/New_Systems/rnas/3TD1

>  <Rbt.Executable>
rbdock ($Id: //depot/dev/client3/rdock/2013.1/src/exe/rbdock.cxx#4 $)

>  <Rbt.Library>
libRbt.so (2013.1, Build901 2013/11/27)

>  <Rbt.Parameter_File>
/export/apps/rDock/src/rDock_2013.1_src/data/scripts/dock_solv.prm

>  <Rbt.Receptor>
prm/pocket_docking_6.prm

>  <SCORE>
-13.9634

>  <SCORE.INTER>
-11.2402

>  <SCORE.INTER.CONST>
1

>  <SCORE.INTER.POLAR>
0

>  <SCORE.INTER.ROT>
6

>  <SCORE.INTER.SOLV>
18.094

>  <SCORE.INTER.VDW>
-21.1248

>  <SCORE.INTER.norm>
-0.330594

>  <SCORE.INTRA>
-2.77418

>  <SCORE.INTRA.DIHEDRAL>
-5.51634

>  <SCORE.INTRA.DIHEDRAL.0>
19.5869

>  <SCORE.INTRA.POLAR>
0

>  <SCORE.INTRA.POLAR.0>
0

>  <SCORE.INTRA.REPUL>
0

>  <SCORE.INTRA.REPUL.0>
0

>  <SCORE.INTRA.SOLV>
-0.286926

>  <SCORE.INTRA.SOLV.lig_0>
-70.101

>  <SCORE.INTRA.VDW>
0.127451

>  <SCORE.INTRA.VDW.0>
-3.39718

>  <SCORE.INTRA.norm>
-0.0815936

>  <SCORE.RESTR>
0.0509638

>  <SCORE.RESTR.CAVITY>
0.0509638

>  <SCORE.RESTR.norm>
0.00149894

>  <SCORE.SYSTEM>
0

>  <SCORE.SYSTEM.CONST>
0

>  <SCORE.SYSTEM.DIHEDRAL>
0

>  <SCORE.SYSTEM.SOLV>
0

>  <SCORE.SYSTEM.norm>
0

>  <SCORE.heavy>
34

>  <SCORE.norm>
-0.410689

>  <RMSD>
10.286

$$$$
ligand
 OpenBabel11021811483D
libRbt.so/2013.1/901 2013/11/27
 34 36  0  0  0  0  0  0  0  0999 V2000
   12.2837    5.3616    0.6001 C   0  0  2  0  0  0  0  0  0  0  0  0
   12.1916    5.2104    2.0253 O   0  0  0  0  0  0  0  0  0  0  0  0
   13.4254    1.9530    4.5009 C   0  0  2  0  0  0  0  0  0  0  0  0
   13.5007    0.6358    5.1233 N   0  0  0  0  0  0  0  0  0  0  0  0
   15.4481    0.7420    1.5130 C   0  0  2  0  0  0  0  0  0  0  0  0
   13.1994    6.6023    0.3023 C   0  0  2  0  0  0  0  0  0  0  0  0
   14.5516    6.4074    0.8479 N   0  0  0  0  0  0  0  0  0  0  0  0
   11.9597    2.4719    4.6800 C   0  0  0  0  0  0  0  0  0  0  0  0
   14.9096   -0.7270    1.6523 C   0  0  2  0  0  0  0  0  0  0  0  0
   13.5065   -0.7083    1.8565 O   0  0  0  0  0  0  0  0  0  0  0  0
   12.5618    7.8671    0.9172 C   0  0  1  0  0  0  0  0  0  0  0  0
   13.3908    9.0080    0.6416 O   0  0  0  0  0  0  0  0  0  0  0  0
   11.8839    3.8959    4.0325 C   0  0  2  0  0  0  0  0  0  0  0  0
   10.5167    4.4389    4.1647 N   0  0  0  0  0  0  0  0  0  0  0  0
   15.6488   -1.4236    2.8596 C   0  0  1  0  0  0  0  0  0  0  0  0
   15.1591   -2.8226    3.0445 N   0  0  0  0  0  0  0  0  0  0  0  0
   11.1397    8.0429    0.3339 C   0  0  2  0  0  0  0  0  0  0  0  0
   10.5285    9.2123    0.9061 O   0  0  0  0  0  0  0  0  0  0  0  0
   12.2598    3.8428    2.5296 C   0  0  2  0  0  0  0  0  0  0  0  0
   17.1914   -1.4178    2.5838 C   0  0  1  0  0  0  0  0  0  0  0  0
   17.4679   -2.1598    1.3989 O   0  0  0  0  0  0  0  0  0  0  0  0
   10.2778    6.7609    0.6472 C   0  0  2  0  0  0  0  0  0  0  0  0
   10.9263    5.5665    0.0719 O   0  0  0  0  0  0  0  0  0  0  0  0
   13.6896    3.2660    2.3779 C   0  0  2  0  0  0  0  0  0  0  0  0
   14.0055    3.2096    0.9907 O   0  0  0  0  0  0  0  0  0  0  0  0
   17.6585    0.0594    2.3916 C   0  0  0  0  0  0  0  0  0  0  0  0
   16.9012    0.7128    1.2970 O   0  0  0  0  0  0  0  0  0  0  0  0
    8.8451    6.8689    0.0627 C   0  0  2  0  0  0  0  0  0  0  0  0
    8.2076    8.0332    0.5817 O   0  0  0  0  0  0  0  0  0  0  0  0
   13.7826    1.8372    2.9622 C   0  0  1  0  0  0  0  0  0  0  0  0
   15.1478    1.3936    2.7789 O   0  0  0  0  0  0  0  0  0  0  0  0
    7.9971    5.6637    0.4343 C   0  0  0  0  0  0  0  0  0  0  0  0
   17.9786   -2.0554    3.7221 C   0  0  0  0  0  0  0  0  0  0  0  0
   14.9388   -3.0489    4.4858 C   0  0  0  0  0  0  0  0  0  0  0  0
  1  2  1  1  0  0  0
  1  6  1  0  0  0  0
  1 23  1  0  0  0  0
  3  4  1  6  0  0  0
  3  8  1  0  0  0  0
  3 30  1  0  0  0  0
  5  9  1  0  0  0  0
  5 27  1  0  0  0  0
  5 31  1  1  0  0  0
  6  7  1  1  0  0  0
  6 11  1  0  0  0  0
  8 13  1  0  0  0  0
  9 10  1  1  0  0  0
  9 15  1  0  0  0  0
 11 12  1  6  0  0  0
 11 17  1  0  0  0  0
 13 14  1  6  0  0  0
 13 19  1  0  0  0  0
 15 16  1  6  0  0  0
 15 20  1  0  0  0  0
 16 34  1  0  0  0  0
 17 18  1  1  0  0  0
 17 22  1  0  0  0  0
 19  2  1  1  0  0  0
 19 24  1  0  0  0  0
 20 21  1  6  0  0  0
 20 26  1  0  0  0  0
 20 33  1  0  0  0  0
 22 23  1  6  0  0  0
 22 28  1  0  0  0  0
 24 25  1  6  0  0  0
 24 30  1  0  0  0  0
 26 27  1  0  0  0  0
 28 29  1  1  0  0  0
 28 32  1  0  0  0  0
 30 31  1  1  0  0  0
M  END
>  <CHROM.1>
-138.81657639,-169.85818055,-135.57448469,-57.36230116,156.17670921,-78.79526848
13.32274757,3.09111658,2.01634162,-2.15986745,-0.34463475,2.68174069

>  <Name>
ligand

>  <RI>
0

>  <Rbt.Current_Directory>
/home/itssahil/PROJECTS/Mol_Feturizer/New_Systems/rnas/3TD1

>  <Rbt.Executable>
rbdock ($Id: //depot/dev/client3/rdock/2013.1/src/exe/rbdock.cxx#4 $)

>  <Rbt.Library>
libRbt.so (2013.1, Build901 2013/11/27)

>  <Rbt.Parameter_File>
/export/apps/rDock/src/rDock_2013.1_src/data/scripts/dock_solv.prm

>  <Rbt.Receptor>
prm/blind_docking_20.prm

>  <SCORE>
3.25494

>  <SCORE.INTER>
-3.47397

>  <SCORE.INTER.CONST>
1

>  <SCORE.INTER.POLAR>
0

>  <SCORE.INTER.ROT>
6

>  <SCORE.INTER.SOLV>
19.4491

>  <SCORE.INTER.VDW>
-16.399

>  <SCORE.INTER.norm>
-0.102175

>  <SCORE.INTRA>
-3.19972

>  <SCORE.INTRA.DIHEDRAL>
-8.36852

>  <SCORE.INTRA.DIHEDRAL.0>
19.5869

>  <SCORE.INTRA.POLAR>
0

>  <SCORE.INTRA.POLAR.0>
0

>  <SCORE.INTRA.REPUL>
0

>  <SCORE.INTRA.REPUL.0>
0

>  <SCORE.INTRA.SOLV>
0.0814764

>  <SCORE.INTRA.SOLV.lig_0>
-70.101

>  <SCORE.INTRA.VDW>
0.943803

>  <SCORE.INTRA.VDW.0>
-3.39718

>  <SCORE.INTRA.norm>
-0.0941094

>  <SCORE.RESTR>
9.92862

>  <SCORE.RESTR.CAVITY>
9.92862

>  <SCORE.RESTR.norm>
0.292018

>  <SCORE.SYSTEM>
0

>  <SCORE.SYSTEM.CONST>
0

>  <SCORE.SYSTEM.DIHEDRAL>
0

>  <SCORE.SYSTEM.SOLV>
0

>  <SCORE.SYSTEM.norm>
0

>  <SCORE.heavy>
34

>  <SCORE.norm>
0.0957335

>  <RMSD>
10.291

$$$$
ligand
 OpenBabel11021811483D
libRbt.so/2013.1/901 2013/11/27
 34 36  0  0  0  0  0  0  0  0999 V2000
   12.1323    5.0029    1.0878 C   0  0  2  0  0  0  0  0  0  0  0  0
   12.1424    4.7486    2.5013 O   0  0  0  0  0  0  0  0  0  0  0  0
   13.9474    1.4915    4.5977 C   0  0  2  0  0  0  0  0  0  0  0  0
   14.2137    0.1547    5.1175 N   0  0  0  0  0  0  0  0  0  0  0  0
   15.6914    0.5172    1.3897 C   0  0  2  0  0  0  0  0  0  0  0  0
   13.0911    6.2145    0.8063 C   0  0  2  0  0  0  0  0  0  0  0  0
   14.4683    5.9100    1.2246 N   0  0  0  0  0  0  0  0  0  0  0  0
   12.4723    1.8546    4.9745 C   0  0  0  0  0  0  0  0  0  0  0  0
   15.1690   -0.9475    1.6106 C   0  0  2  0  0  0  0  0  0  0  0  0
   13.7881   -0.9231    1.9321 O   0  0  0  0  0  0  0  0  0  0  0  0
   12.5759    7.4596    1.5603 C   0  0  1  0  0  0  0  0  0  0  0  0
   13.4445    8.5745    1.3007 O   0  0  0  0  0  0  0  0  0  0  0  0
   12.1929    3.2989    4.4371 C   0  0  2  0  0  0  0  0  0  0  0  0
   10.8075    3.6981    4.7579 N   0  0  0  0  0  0  0  0  0  0  0  0
   16.0087   -1.6141    2.7682 C   0  0  1  0  0  0  0  0  0  0  0  0
   15.5387   -3.0078    3.0286 N   0  0  0  0  0  0  0  0  0  0  0  0
   11.1252    7.7514    1.1089 C   0  0  2  0  0  0  0  0  0  0  0  0
   10.6275    8.9035    1.8114 O   0  0  0  0  0  0  0  0  0  0  0  0
   12.3923    3.3677    2.9014 C   0  0  2  0  0  0  0  0  0  0  0  0
   17.5225   -1.6160    2.3630 C   0  0  1  0  0  0  0  0  0  0  0  0
   17.6991   -2.3875    1.1778 O   0  0  0  0  0  0  0  0  0  0  0  0
   10.2187    6.4948    1.3985 C   0  0  2  0  0  0  0  0  0  0  0  0
   10.7519    5.3162    0.6880 O   0  0  0  0  0  0  0  0  0  0  0  0
   13.8403    2.9421    2.5519 C   0  0  2  0  0  0  0  0  0  0  0  0
   13.9943    2.9952    1.1374 O   0  0  0  0  0  0  0  0  0  0  0  0
   17.9692   -0.1442    2.0951 C   0  0  0  0  0  0  0  0  0  0  0  0
   17.1211    0.4819    1.0525 O   0  0  0  0  0  0  0  0  0  0  0  0
    8.7535    6.7198    0.9419 C   0  0  2  0  0  0  0  0  0  0  0  0
    7.9585    5.6028    1.3313 O   0  0  0  0  0  0  0  0  0  0  0  0
   14.1296    1.4983    3.0244 C   0  0  1  0  0  0  0  0  0  0  0  0
   15.4981    1.2004    2.6598 O   0  0  0  0  0  0  0  0  0  0  0  0
    8.6541    6.8639   -0.5678 C   0  0  0  0  0  0  0  0  0  0  0  0
   18.4041   -2.2252    3.4462 C   0  0  0  0  0  0  0  0  0  0  0  0
   15.0070   -3.0673    4.4037 C   0  0  0  0  0  0  0  0  0  0  0  0
  1  2  1  1  0  0  0
  1  6  1  0  0  0  0
  1 23  1  0  0  0  0
  3  4  1  6  0  0  0
  3  8  1  0  0  0  0
  3 30  1  0  0  0  0
  5  9  1  0  0  0  0
  5 27  1  0  0  0  0
  5 31  1  1  0  0  0
  6  7  1  1  0  0  0
  6 11  1  0  0  0  0
  8 13  1  0  0  0  0
  9 10  1  1  0  0  0
  9 15  1  0  0  0  0
 11 12  1  6  0  0  0
 11 17  1  0  0  0  0
 13 14  1  6  0  0  0
 13 19  1  0  0  0  0
 15 16  1  6  0  0  0
 15 20  1  0  0  0  0
 16 34  1  0  0  0  0
 17 18  1  1  0  0  0
 17 22  1  0  0  0  0
 19  2  1  1  0  0  0
 19 24  1  0  0  0  0
 20 21  1  6  0  0  0
 20 26  1  0  0  0  0
 20 33  1  0  0  0  0
 22 23  1  6  0  0  0
 22 28  1  0  0  0  0
 24 25  1  6  0  0  0
 24 30  1  0  0  0  0
 26 27  1  0  0  0  0
 28 29  1  6  0  0  0
 28 32  1  0  0  0  0
 30 31  1  1  0  0  0
M  END
>  <CHROM.1>
-129.11290713,-173.48493574,-116.61832012,-175.01984290,149.55545401,-71.23072854
13.50469697,2.74796514,2.22847853,-2.22687835,-0.39996651,2.67862816

>  <Name>
ligand

>  <RI>
0

>  <Rbt.Current_Directory>
/home/itssahil/PROJECTS/Mol_Feturizer/New_Systems/rnas/3TD1

>  <Rbt.Executable>
rbdock ($Id: //depot/dev/client3/rdock/2013.1/src/exe/rbdock.cxx#4 $)

>  <Rbt.Library>
libRbt.so (2013.1, Build901 2013/11/27)

>  <Rbt.Parameter_File>
/export/apps/rDock/src/rDock_2013.1_src/data/scripts/dock_solv.prm

>  <Rbt.Receptor>
prm/blind_docking_20.prm

>  <SCORE>
2.96973

>  <SCORE.INTER>
-5.29168

>  <SCORE.INTER.CONST>
1

>  <SCORE.INTER.POLAR>
0

>  <SCORE.INTER.ROT>
6

>  <SCORE.INTER.SOLV>
17.7746

>  <SCORE.INTER.VDW>
-17.0527

>  <SCORE.INTER.norm>
-0.155638

>  <SCORE.INTRA>
-1.80305

>  <SCORE.INTRA.DIHEDRAL>
-6.9911

>  <SCORE.INTRA.DIHEDRAL.0>
19.5869

>  <SCORE.INTRA.POLAR>
0

>  <SCORE.INTRA.POLAR.0>
0

>  <SCORE.INTRA.REPUL>
0

>  <SCORE.INTRA.REPUL.0>
0

>  <SCORE.INTRA.SOLV>
1.12375

>  <SCORE.INTRA.SOLV.lig_0>
-70.101

>  <SCORE.INTRA.VDW>
1.13062

>  <SCORE.INTRA.VDW.0>
-3.39718

>  <SCORE.INTRA.norm>
-0.053031

>  <SCORE.RESTR>
10.0645

>  <SCORE.RESTR.CAVITY>
10.0645

>  <SCORE.RESTR.norm>
0.296014

>  <SCORE.SYSTEM>
0

>  <SCORE.SYSTEM.CONST>
0

>  <SCORE.SYSTEM.DIHEDRAL>
0

>  <SCORE.SYSTEM.SOLV>
0

>  <SCORE.SYSTEM.norm>
0

>  <SCORE.heavy>
34

>  <SCORE.norm>
0.087345

>  <RMSD>
10.307

$$$$
ligand
 OpenBabel11021811483D
libRbt.so/2013.1/901 2013/11/27
 34 36  0  0  0  0  0  0  0  0999 V2000
   13.2540    2.5824    2.1892 C   0  0  2  0  0  0  0  0  0  0  0  0
   14.0237    3.7472    2.5260 O   0  0  0  0  0  0  0  0  0  0  0  0
   13.1298    7.8006    1.5098 C   0  0  2  0  0  0  0  0  0  0  0  0
   12.9802    9.0400    0.7551 N   0  0  0  0  0  0  0  0  0  0  0  0
    9.8938    6.8853   -0.0473 C   0  0  2  0  0  0  0  0  0  0  0  0
   12.5043    2.1056    3.4842 C   0  0  2  0  0  0  0  0  0  0  0  0
   11.5947    3.1477    3.9852 N   0  0  0  0  0  0  0  0  0  0  0  0
   14.6167    7.3363    1.3568 C   0  0  0  0  0  0  0  0  0  0  0  0
    9.6883    8.3014   -0.6951 C   0  0  2  0  0  0  0  0  0  0  0  0
   10.9342    8.8143   -1.1372 O   0  0  0  0  0  0  0  0  0  0  0  0
   13.5404    1.7454    4.5711 C   0  0  1  0  0  0  0  0  0  0  0  0
   12.8612    1.3006    5.7566 O   0  0  0  0  0  0  0  0  0  0  0  0
   14.7842    6.0182    2.1858 C   0  0  2  0  0  0  0  0  0  0  0  0
   16.1719    5.5248    2.0754 N   0  0  0  0  0  0  0  0  0  0  0  0
    9.0301    9.2557    0.3751 C   0  0  1  0  0  0  0  0  0  0  0  0
    8.8276   10.6241   -0.1886 N   0  0  0  0  0  0  0  0  0  0  0  0
   14.4879    0.6559    4.0155 C   0  0  2  0  0  0  0  0  0  0  0  0
   15.4662    0.3174    5.0139 O   0  0  0  0  0  0  0  0  0  0  0  0
   13.8181    4.9172    1.6786 C   0  0  2  0  0  0  0  0  0  0  0  0
    7.6602    8.6445    0.8283 C   0  0  1  0  0  0  0  0  0  0  0  0
    6.7837    8.5529   -0.2918 O   0  0  0  0  0  0  0  0  0  0  0  0
   15.1936    1.1852    2.7091 C   0  0  2  0  0  0  0  0  0  0  0  0
   14.1782    1.5473    1.7011 O   0  0  0  0  0  0  0  0  0  0  0  0
   12.3588    5.4272    1.7813 C   0  0  2  0  0  0  0  0  0  0  0  0
   11.4923    4.4081    1.2936 O   0  0  0  0  0  0  0  0  0  0  0  0
    7.9170    7.2162    1.4040 C   0  0  0  0  0  0  0  0  0  0  0  0
    8.5977    6.3598    0.4032 O   0  0  0  0  0  0  0  0  0  0  0  0
   16.1397    0.1230    2.0907 C   0  0  2  0  0  0  0  0  0  0  0  0
   17.4754    0.3685    2.5227 O   0  0  0  0  0  0  0  0  0  0  0  0
   12.1489    6.7008    0.9294 C   0  0  1  0  0  0  0  0  0  0  0  0
   10.7674    7.0982    1.0966 O   0  0  0  0  0  0  0  0  0  0  0  0
   16.1201    0.1733    0.5719 C   0  0  0  0  0  0  0  0  0  0  0  0
    6.9724    9.5015    1.8839 C   0  0  0  0  0  0  0  0  0  0  0  0
    9.1061   11.6083    0.8747 C   0  0  0  0  0  0  0  0  0  0  0  0
  1  2  1  1  0  0  0
  1  6  1  0  0  0  0
  1 23  1  0  0  0  0
  3  4  1  6  0  0  0
  3  8  1  0  0  0  0
  3 30  1  0  0  0  0
  5  9  1  0  0  0  0
  5 27  1  0  0  0  0
  5 31  1  1  0  0  0
  6  7  1  1  0  0  0
  6 11  1  0  0  0  0
  8 13  1  0  0  0  0
  9 10  1  1  0  0  0
  9 15  1  0  0  0  0
 11 12  1  1  0  0  0
 11 17  1  0  0  0  0
 13 14  1  6  0  0  0
 13 19  1  0  0  0  0
 15 16  1  6  0  0  0
 15 20  1  0  0  0  0
 16 34  1  0  0  0  0
 17 18  1  1  0  0  0
 17 22  1  0  0  0  0
 19  2  1  1  0  0  0
 19 24  1  0  0  0  0
 20 21  1  6  0  0  0
 20 26  1  0  0  0  0
 20 33  1  0  0  0  0
 22 23  1  6  0  0  0
 22 28  1  0  0  0  0
 24 25  1  6  0  0  0
 24 30  1  0  0  0  0
 26 27  1  0  0  0  0
 28 29  1  1  0  0  0
 28 32  1  0  0  0  0
 30 31  1  1  0  0  0
M  END
>  <CHROM.1>
-127.43831890,-177.65538464,-142.29109923,-96.68878571,136.07274817,-103.73781976
12.18480680,5.24227143,1.74231693,0.91705095,-0.17275549,2.67599426

>  <Name>
ligand

>  <RI>
0

>  <Rbt.Current_Directory>
/home/itssahil/PROJECTS/Mol_Feturizer/New_Systems/rnas/3TD1

>  <Rbt.Executable>
rbdock ($Id: //depot/dev/client3/rdock/2013.1/src/exe/rbdock.cxx#4 $)

>  <Rbt.Library>
libRbt.so (2013.1, Build901 2013/11/27)

>  <Rbt.Parameter_File>
/export/apps/rDock/src/rDock_2013.1_src/data/scripts/dock_solv.prm

>  <Rbt.Receptor>
prm/blind_docking_20.prm

>  <SCORE>
8.72205

>  <SCORE.INTER>
-1.62219

>  <SCORE.INTER.CONST>
1

>  <SCORE.INTER.POLAR>
0

>  <SCORE.INTER.ROT>
6

>  <SCORE.INTER.SOLV>
25.4231

>  <SCORE.INTER.VDW>
-17.1558

>  <SCORE.INTER.norm>
-0.0477113

>  <SCORE.INTRA>
4.97903

>  <SCORE.INTRA.DIHEDRAL>
3.74137

>  <SCORE.INTRA.DIHEDRAL.0>
19.5869

>  <SCORE.INTRA.POLAR>
0

>  <SCORE.INTRA.POLAR.0>
0

>  <SCORE.INTRA.REPUL>
0

>  <SCORE.INTRA.REPUL.0>
0

>  <SCORE.INTRA.SOLV>
0.100602

>  <SCORE.INTRA.SOLV.lig_0>
-70.101

>  <SCORE.INTRA.VDW>
3.05804

>  <SCORE.INTRA.VDW.0>
-3.39718

>  <SCORE.INTRA.norm>
0.146442

>  <SCORE.RESTR>
5.3652

>  <SCORE.RESTR.CAVITY>
5.3652

>  <SCORE.RESTR.norm>
0.1578

>  <SCORE.SYSTEM>
0

>  <SCORE.SYSTEM.CONST>
0

>  <SCORE.SYSTEM.DIHEDRAL>
0

>  <SCORE.SYSTEM.SOLV>
0

>  <SCORE.SYSTEM.norm>
0

>  <SCORE.heavy>
34

>  <SCORE.norm>
0.256531

>  <RMSD>
10.320

$$$$
ligand
 OpenBabel11021811483D
libRbt.so/2013.1/901 2013/11/27
 34 36  0  0  0  0  0  0  0  0999 V2000
   12.3500    5.3881    0.5702 C   0  0  2  0  0  0  0  0  0  0  0  0
   12.2202    5.2405    1.9929 O   0  0  0  0  0  0  0  0  0  0  0  0
   13.3912    1.9751    4.4883 C   0  0  2  0  0  0  0  0  0  0  0  0
   13.4447    0.6588    5.1149 N   0  0  0  0  0  0  0  0  0  0  0  0
   15.4307    0.7480    1.5146 C   0  0  2  0  0  0  0  0  0  0  0  0
   13.2636    6.6353    0.2936 C   0  0  2  0  0  0  0  0  0  0  0  0
   14.6019    6.4528    0.8766 N   0  0  0  0  0  0  0  0  0  0  0  0
   11.9305    2.5125    4.6526 C   0  0  0  0  0  0  0  0  0  0  0  0
   14.9047   -0.7264    1.6444 C   0  0  2  0  0  0  0  0  0  0  0  0
   13.5011   -0.7211    1.8459 O   0  0  0  0  0  0  0  0  0  0  0  0
   12.5995    7.8968    0.8867 C   0  0  1  0  0  0  0  0  0  0  0  0
   13.4266    9.0435    0.6302 O   0  0  0  0  0  0  0  0  0  0  0  0
   11.8781    3.9355    4.0007 C   0  0  2  0  0  0  0  0  0  0  0  0
   10.5165    4.4956    4.1190 N   0  0  0  0  0  0  0  0  0  0  0  0
   15.6476   -1.4233    2.8494 C   0  0  1  0  0  0  0  0  0  0  0  0
   15.1697   -2.8276    3.0253 N   0  0  0  0  0  0  0  0  0  0  0  0
   11.1925    8.0594    0.2642 C   0  0  2  0  0  0  0  0  0  0  0  0
   10.5566    9.2256    0.8156 O   0  0  0  0  0  0  0  0  0  0  0  0
   12.2669    3.8736    2.5014 C   0  0  2  0  0  0  0  0  0  0  0  0
   17.1906   -1.4026    2.5768 C   0  0  1  0  0  0  0  0  0  0  0  0
   17.4759   -2.1354    1.3883 O   0  0  0  0  0  0  0  0  0  0  0  0
   10.3325    6.7714    0.5580 C   0  0  2  0  0  0  0  0  0  0  0  0
   11.0060    5.5806    0.0044 O   0  0  0  0  0  0  0  0  0  0  0  0
   13.6908    3.2789    2.3643 C   0  0  2  0  0  0  0  0  0  0  0  0
   14.0185    3.2147    0.9801 O   0  0  0  0  0  0  0  0  0  0  0  0
   17.6452    0.0798    2.3938 C   0  0  0  0  0  0  0  0  0  0  0  0
   16.8844    0.7327    1.3014 O   0  0  0  0  0  0  0  0  0  0  0  0
    8.9155    6.8663   -0.0659 C   0  0  2  0  0  0  0  0  0  0  0  0
    8.2573    8.0304    0.4268 O   0  0  0  0  0  0  0  0  0  0  0  0
   13.7609    1.8507    2.9532 C   0  0  1  0  0  0  0  0  0  0  0  0
   15.1222    1.3898    2.7835 O   0  0  0  0  0  0  0  0  0  0  0  0
    8.0651    5.6586    0.2917 C   0  0  0  0  0  0  0  0  0  0  0  0
   17.9811   -2.0396    3.7131 C   0  0  0  0  0  0  0  0  0  0  0  0
   14.9639   -3.0690    4.4663 C   0  0  0  0  0  0  0  0  0  0  0  0
  1  2  1  1  0  0  0
  1  6  1  0  0  0  0
  1 23  1  0  0  0  0
  3  4  1  6  0  0  0
  3  8  1  0  0  0  0
  3 30  1  0  0  0  0
  5  9  1  0  0  0  0
  5 27  1  0  0  0  0
  5 31  1  1  0  0  0
  6  7  1  1  0  0  0
  6 11  1  0  0  0  0
  8 13  1  0  0  0  0
  9 10  1  1  0  0  0
  9 15  1  0  0  0  0
 11 12  1  6  0  0  0
 11 17  1  0  0  0  0
 13 14  1  6  0  0  0
 13 19  1  0  0  0  0
 15 16  1  6  0  0  0
 15 20  1  0  0  0  0
 16 34  1  0  0  0  0
 17 18  1  1  0  0  0
 17 22  1  0  0  0  0
 19  2  1  1  0  0  0
 19 24  1  0  0  0  0
 20 21  1  6  0  0  0
 20 26  1  0  0  0  0
 20 33  1  0  0  0  0
 22 23  1  6  0  0  0
 22 28  1  0  0  0  0
 24 25  1  6  0  0  0
 24 30  1  0  0  0  0
 26 27  1  0  0  0  0
 28 29  1  1  0  0  0
 28 32  1  0  0  0  0
 30 31  1  1  0  0  0
M  END
>  <CHROM.1>
-139.62790375,-170.88719636,-136.23853318,-57.08926419,157.01999264,-80.29701206
13.33829777,3.10696460,1.98365094,-2.15032308,-0.33564743,2.68427173

>  <Name>
ligand

>  <RI>
0

>  <Rbt.Current_Directory>
/home/itssahil/PROJECTS/Mol_Feturizer/New_Systems/rnas/3TD1

>  <Rbt.Executable>
rbdock ($Id: //depot/dev/client3/rdock/2013.1/src/exe/rbdock.cxx#4 $)

>  <Rbt.Library>
libRbt.so (2013.1, Build901 2013/11/27)

>  <Rbt.Parameter_File>
/export/apps/rDock/src/rDock_2013.1_src/data/scripts/dock_solv.prm

>  <Rbt.Receptor>
prm/blind_docking_20.prm

>  <SCORE>
3.52876

>  <SCORE.INTER>
-3.0058

>  <SCORE.INTER.CONST>
1

>  <SCORE.INTER.POLAR>
0

>  <SCORE.INTER.ROT>
6

>  <SCORE.INTER.SOLV>
19.5813

>  <SCORE.INTER.VDW>
-16.131

>  <SCORE.INTER.norm>
-0.0884058

>  <SCORE.INTRA>
-3.30609

>  <SCORE.INTRA.DIHEDRAL>
-8.5074

>  <SCORE.INTRA.DIHEDRAL.0>
19.5869

>  <SCORE.INTRA.POLAR>
0

>  <SCORE.INTRA.POLAR.0>
0

>  <SCORE.INTRA.REPUL>
0

>  <SCORE.INTRA.REPUL.0>
0

>  <SCORE.INTRA.SOLV>
-0.143852

>  <SCORE.INTRA.SOLV.lig_0>
-70.101

>  <SCORE.INTRA.VDW>
1.01954

>  <SCORE.INTRA.VDW.0>
-3.39718

>  <SCORE.INTRA.norm>
-0.0972378

>  <SCORE.RESTR>
9.84064

>  <SCORE.RESTR.CAVITY>
9.84064

>  <SCORE.RESTR.norm>
0.28943

>  <SCORE.SYSTEM>
0

>  <SCORE.SYSTEM.CONST>
0

>  <SCORE.SYSTEM.DIHEDRAL>
0

>  <SCORE.SYSTEM.SOLV>
0

>  <SCORE.SYSTEM.norm>
0

>  <SCORE.heavy>
34

>  <SCORE.norm>
0.103787

>  <RMSD>
10.320

$$$$
ligand
 OpenBabel11021811483D
libRbt.so/2013.1/901 2013/11/27
 34 36  0  0  0  0  0  0  0  0999 V2000
    7.3263    4.5208    9.9217 C   0  0  2  0  0  0  0  0  0  0  0  0
    5.9559    4.5892   10.3458 O   0  0  0  0  0  0  0  0  0  0  0  0
    2.3401    5.7112    8.3635 C   0  0  2  0  0  0  0  0  0  0  0  0
    1.3261    5.9016    7.3323 N   0  0  0  0  0  0  0  0  0  0  0  0
    0.1615    3.6017    8.2925 C   0  0  2  0  0  0  0  0  0  0  0  0
    7.6559    3.0223    9.5865 C   0  0  2  0  0  0  0  0  0  0  0  0
    6.7974    2.5194    8.5028 N   0  0  0  0  0  0  0  0  0  0  0  0
    3.6715    6.3396    7.8322 C   0  0  0  0  0  0  0  0  0  0  0  0
   -0.9980    2.9200    9.1036 C   0  0  2  0  0  0  0  0  0  0  0  0
   -1.2692    3.6678   10.2775 O   0  0  0  0  0  0  0  0  0  0  0  0
    7.4622    2.1609   10.8533 C   0  0  1  0  0  0  0  0  0  0  0  0
    7.7698    0.7892   10.5557 O   0  0  0  0  0  0  0  0  0  0  0  0
    4.7549    6.1563    8.9482 C   0  0  2  0  0  0  0  0  0  0  0  0
    6.0420    6.7266    8.5014 N   0  0  0  0  0  0  0  0  0  0  0  0
   -0.5663    1.4445    9.4587 C   0  0  1  0  0  0  0  0  0  0  0  0
   -1.6323    0.7557   10.2465 N   0  0  0  0  0  0  0  0  0  0  0  0
    8.3682    2.7162   11.9777 C   0  0  2  0  0  0  0  0  0  0  0  0
    8.1904    1.9297   13.1685 O   0  0  0  0  0  0  0  0  0  0  0  0
    4.9593    4.6564    9.2820 C   0  0  2  0  0  0  0  0  0  0  0  0
   -0.2799    0.6642    8.1303 C   0  0  1  0  0  0  0  0  0  0  0  0
   -1.4668    0.6083    7.3433 O   0  0  0  0  0  0  0  0  0  0  0  0
    8.0037    4.2248   12.2536 C   0  0  2  0  0  0  0  0  0  0  0  0
    8.1713    5.0161   11.0191 O   0  0  0  0  0  0  0  0  0  0  0  0
    3.6129    4.0448    9.7435 C   0  0  2  0  0  0  0  0  0  0  0  0
    3.8207    2.6649   10.0265 O   0  0  0  0  0  0  0  0  0  0  0  0
    0.8328    1.4198    7.3376 C   0  0  0  0  0  0  0  0  0  0  0  0
    0.4322    2.8232    7.0761 O   0  0  0  0  0  0  0  0  0  0  0  0
    8.8997    4.8448   13.3575 C   0  0  2  0  0  0  0  0  0  0  0  0
    8.7663    4.0876   14.5575 O   0  0  0  0  0  0  0  0  0  0  0  0
    2.5356    4.1640    8.6404 C   0  0  1  0  0  0  0  0  0  0  0  0
    1.3236    3.5746    9.1677 O   0  0  0  0  0  0  0  0  0  0  0  0
    8.5016    6.2798   13.6604 C   0  0  0  0  0  0  0  0  0  0  0  0
    0.1677   -0.7684    8.3933 C   0  0  0  0  0  0  0  0  0  0  0  0
   -1.3010    0.8786   11.6791 C   0  0  0  0  0  0  0  0  0  0  0  0
  1  2  1  1  0  0  0
  1  6  1  0  0  0  0
  1 23  1  0  0  0  0
  3  4  1  6  0  0  0
  3  8  1  0  0  0  0
  3 30  1  0  0  0  0
  5  9  1  0  0  0  0
  5 27  1  0  0  0  0
  5 31  1  1  0  0  0
  6  7  1  6  0  0  0
  6 11  1  0  0  0  0
  8 13  1  0  0  0  0
  9 10  1  1  0  0  0
  9 15  1  0  0  0  0
 11 12  1  6  0  0  0
 11 17  1  0  0  0  0
 13 14  1  6  0  0  0
 13 19  1  0  0  0  0
 15 16  1  6  0  0  0
 15 20  1  0  0  0  0
 16 34  1  0  0  0  0
 17 18  1  1  0  0  0
 17 22  1  0  0  0  0
 19  2  1  1  0  0  0
 19 24  1  0  0  0  0
 20 21  1  6  0  0  0
 20 26  1  0  0  0  0
 20 33  1  0  0  0  0
 22 23  1  6  0  0  0
 22 28  1  0  0  0  0
 24 25  1  6  0  0  0
 24 30  1  0  0  0  0
 26 27  1  0  0  0  0
 28 29  1  1  0  0  0
 28 32  1  0  0  0  0
 30 31  1  1  0  0  0
M  END
>  <CHROM.1>
-83.03312707,-88.69154271,-95.87598821,-57.98689463,62.99356560,-179.54209558
3.83316138,3.34490187,9.88377833,0.02816912,-0.41984010,-0.51245879

>  <Name>
ligand

>  <RI>
0

>  <Rbt.Current_Directory>
/home/itssahil/PROJECTS/Mol_Feturizer/New_Systems/rnas/3TD1

>  <Rbt.Executable>
rbdock ($Id: //depot/dev/client3/rdock/2013.1/src/exe/rbdock.cxx#4 $)

>  <Rbt.Library>
libRbt.so (2013.1, Build901 2013/11/27)

>  <Rbt.Parameter_File>
/export/apps/rDock/src/rDock_2013.1_src/data/scripts/dock_solv.prm

>  <Rbt.Receptor>
prm/pocket_docking_7.prm

>  <SCORE>
-16.6463

>  <SCORE.INTER>
-11.7143

>  <SCORE.INTER.CONST>
1

>  <SCORE.INTER.POLAR>
0

>  <SCORE.INTER.ROT>
6

>  <SCORE.INTER.SOLV>
14.5861

>  <SCORE.INTER.VDW>
-20.2715

>  <SCORE.INTER.norm>
-0.344537

>  <SCORE.INTRA>
-4.93201

>  <SCORE.INTRA.DIHEDRAL>
-13.0028

>  <SCORE.INTRA.DIHEDRAL.0>
19.5869

>  <SCORE.INTRA.POLAR>
0

>  <SCORE.INTRA.POLAR.0>
0

>  <SCORE.INTRA.REPUL>
0

>  <SCORE.INTRA.REPUL.0>
0

>  <SCORE.INTRA.SOLV>
1.33261

>  <SCORE.INTRA.SOLV.lig_0>
-70.101

>  <SCORE.INTRA.VDW>
0.903103

>  <SCORE.INTRA.VDW.0>
-3.39718

>  <SCORE.INTRA.norm>
-0.145059

>  <SCORE.RESTR>
0

>  <SCORE.RESTR.CAVITY>
0

>  <SCORE.RESTR.norm>
0

>  <SCORE.SYSTEM>
0

>  <SCORE.SYSTEM.CONST>
0

>  <SCORE.SYSTEM.DIHEDRAL>
0

>  <SCORE.SYSTEM.SOLV>
0

>  <SCORE.SYSTEM.norm>
0

>  <SCORE.heavy>
34

>  <SCORE.norm>
-0.489597

>  <RMSD>
10.339

$$$$
ligand
 OpenBabel11021811483D
libRbt.so/2013.1/901 2013/11/27
 34 36  0  0  0  0  0  0  0  0999 V2000
   10.9187    8.7625    2.0607 C   0  0  2  0  0  0  0  0  0  0  0  0
   10.7720    9.2272    0.7098 O   0  0  0  0  0  0  0  0  0  0  0  0
   10.2410   12.9528   -1.3149 C   0  0  2  0  0  0  0  0  0  0  0  0
    9.9474   14.3569   -1.5803 N   0  0  0  0  0  0  0  0  0  0  0  0
   13.4266   14.3900   -0.2965 C   0  0  2  0  0  0  0  0  0  0  0  0
   11.4856    7.2987    2.0110 C   0  0  2  0  0  0  0  0  0  0  0  0
   12.7993    7.2603    1.3499 N   0  0  0  0  0  0  0  0  0  0  0  0
    8.9871   12.3383   -0.6078 C   0  0  0  0  0  0  0  0  0  0  0  0
   12.7133   15.7509   -0.6225 C   0  0  2  0  0  0  0  0  0  0  0  0
   11.3723   15.7141   -0.1630 O   0  0  0  0  0  0  0  0  0  0  0  0
   10.4906    6.3907    1.2561 C   0  0  1  0  0  0  0  0  0  0  0  0
   10.9995    5.0476    1.2137 O   0  0  0  0  0  0  0  0  0  0  0  0
    9.2924   10.8251   -0.3433 C   0  0  2  0  0  0  0  0  0  0  0  0
    8.1431   10.1882    0.3312 N   0  0  0  0  0  0  0  0  0  0  0  0
   12.7721   15.9914   -2.1808 C   0  0  1  0  0  0  0  0  0  0  0  0
   12.0909   17.2698   -2.5455 N   0  0  0  0  0  0  0  0  0  0  0  0
    9.1175    6.4568    1.9661 C   0  0  2  0  0  0  0  0  0  0  0  0
    8.1764    5.6235    1.2672 O   0  0  0  0  0  0  0  0  0  0  0  0
   10.5510   10.6603    0.5464 C   0  0  2  0  0  0  0  0  0  0  0  0
   14.2716   16.0238   -2.6347 C   0  0  1  0  0  0  0  0  0  0  0  0
   14.9437   17.1013   -1.9879 O   0  0  0  0  0  0  0  0  0  0  0  0
    8.6122    7.9495    2.0017 C   0  0  2  0  0  0  0  0  0  0  0  0
    9.5962    8.7964    2.7037 O   0  0  0  0  0  0  0  0  0  0  0  0
   11.7620   11.3329   -0.1473 C   0  0  2  0  0  0  0  0  0  0  0  0
   12.9003   11.1851    0.6952 O   0  0  0  0  0  0  0  0  0  0  0  0
   14.9449   14.6747   -2.2298 C   0  0  0  0  0  0  0  0  0  0  0  0
   14.8162   14.4390   -0.7716 O   0  0  0  0  0  0  0  0  0  0  0  0
    7.2474    8.0819    2.7266 C   0  0  2  0  0  0  0  0  0  0  0  0
    6.7430    9.4033    2.5506 O   0  0  0  0  0  0  0  0  0  0  0  0
   11.5108   12.8418   -0.3747 C   0  0  1  0  0  0  0  0  0  0  0  0
   12.6878   13.3724   -1.0285 O   0  0  0  0  0  0  0  0  0  0  0  0
    7.3792    7.8240    4.2185 C   0  0  0  0  0  0  0  0  0  0  0  0
   14.4100   16.2293   -4.1382 C   0  0  0  0  0  0  0  0  0  0  0  0
   10.6478   16.9996   -2.6918 C   0  0  0  0  0  0  0  0  0  0  0  0
  1  2  1  6  0  0  0
  1  6  1  0  0  0  0
  1 23  1  0  0  0  0
  3  4  1  1  0  0  0
  3  8  1  0  0  0  0
  3 30  1  0  0  0  0
  5  9  1  0  0  0  0
  5 27  1  0  0  0  0
  5 31  1  6  0  0  0
  6  7  1  6  0  0  0
  6 11  1  0  0  0  0
  8 13  1  0  0  0  0
  9 10  1  6  0  0  0
  9 15  1  0  0  0  0
 11 12  1  1  0  0  0
 11 17  1  0  0  0  0
 13 14  1  1  0  0  0
 13 19  1  0  0  0  0
 15 16  1  1  0  0  0
 15 20  1  0  0  0  0
 16 34  1  0  0  0  0
 17 18  1  6  0  0  0
 17 22  1  0  0  0  0
 19  2  1  6  0  0  0
 19 24  1  0  0  0  0
 20 21  1  1  0  0  0
 20 26  1  0  0  0  0
 20 33  1  0  0  0  0
 22 23  1  1  0  0  0
 22 28  1  0  0  0  0
 24 25  1  1  0  0  0
 24 30  1  0  0  0  0
 26 27  1  0  0  0  0
 28 29  1  1  0  0  0
 28 32  1  0  0  0  0
 30 31  1  6  0  0  0
M  END
>  <CHROM.1>
-166.47072737,-128.00927008,-84.98325702,-171.12130198,126.51381702,-84.83908719
11.08590486,11.54855472,0.06818287,-1.98361440,0.20262330,-0.35507528

>  <Name>
ligand

>  <RI>
0

>  <Rbt.Current_Directory>
/home/itssahil/PROJECTS/Mol_Feturizer/New_Systems/rnas/3TD1

>  <Rbt.Executable>
rbdock ($Id: //depot/dev/client3/rdock/2013.1/src/exe/rbdock.cxx#4 $)

>  <Rbt.Library>
libRbt.so (2013.1, Build901 2013/11/27)

>  <Rbt.Parameter_File>
/export/apps/rDock/src/rDock_2013.1_src/data/scripts/dock_solv.prm

>  <Rbt.Receptor>
prm/blind_docking_40.prm

>  <SCORE>
11.5122

>  <SCORE.INTER>
-2.06185

>  <SCORE.INTER.CONST>
1

>  <SCORE.INTER.POLAR>
0

>  <SCORE.INTER.ROT>
6

>  <SCORE.INTER.SOLV>
16.6978

>  <SCORE.INTER.VDW>
-14.5405

>  <SCORE.INTER.norm>
-0.0606426

>  <SCORE.INTRA>
3.2005

>  <SCORE.INTRA.DIHEDRAL>
-1.50642

>  <SCORE.INTRA.DIHEDRAL.0>
19.5869

>  <SCORE.INTRA.POLAR>
0

>  <SCORE.INTRA.POLAR.0>
0

>  <SCORE.INTRA.REPUL>
0

>  <SCORE.INTRA.REPUL.0>
0

>  <SCORE.INTRA.SOLV>
4.93282

>  <SCORE.INTRA.SOLV.lig_0>
-70.101

>  <SCORE.INTRA.VDW>
1.4873

>  <SCORE.INTRA.VDW.0>
-3.39718

>  <SCORE.INTRA.norm>
0.0941323

>  <SCORE.RESTR>
10.3735

>  <SCORE.RESTR.CAVITY>
10.3735

>  <SCORE.RESTR.norm>
0.305104

>  <SCORE.SYSTEM>
0

>  <SCORE.SYSTEM.CONST>
0

>  <SCORE.SYSTEM.DIHEDRAL>
0

>  <SCORE.SYSTEM.SOLV>
0

>  <SCORE.SYSTEM.norm>
0

>  <SCORE.heavy>
34

>  <SCORE.norm>
0.338593

>  <RMSD>
10.362

$$$$
ligand
 OpenBabel11021811483D
libRbt.so/2013.1/901 2013/11/27
 34 36  0  0  0  0  0  0  0  0999 V2000
   12.7269    5.4604    0.6078 C   0  0  2  0  0  0  0  0  0  0  0  0
   12.6765    5.4041    2.0420 O   0  0  0  0  0  0  0  0  0  0  0  0
   13.1000    2.1244    4.7487 C   0  0  2  0  0  0  0  0  0  0  0  0
   12.8713    0.8630    5.4448 N   0  0  0  0  0  0  0  0  0  0  0  0
   14.6495   -0.3257    3.3830 C   0  0  2  0  0  0  0  0  0  0  0  0
   13.6160    6.6897    0.2019 C   0  0  2  0  0  0  0  0  0  0  0  0
   14.9855    6.5488    0.7205 N   0  0  0  0  0  0  0  0  0  0  0  0
   11.7723    2.9495    4.8273 C   0  0  0  0  0  0  0  0  0  0  0  0
   16.1206   -0.7857    3.6853 C   0  0  2  0  0  0  0  0  0  0  0  0
   16.5987   -0.1356    4.8513 O   0  0  0  0  0  0  0  0  0  0  0  0
   12.9775    7.9849    0.7489 C   0  0  1  0  0  0  0  0  0  0  0  0
   13.7820    9.1150    0.3742 O   0  0  0  0  0  0  0  0  0  0  0  0
   12.0240    4.3137    4.1003 C   0  0  2  0  0  0  0  0  0  0  0  0
   10.7993    5.1386    4.1358 N   0  0  0  0  0  0  0  0  0  0  0  0
   17.0229   -0.4455    2.4365 C   0  0  1  0  0  0  0  0  0  0  0  0
   18.4399   -0.8505    2.6806 N   0  0  0  0  0  0  0  0  0  0  0  0
   11.5374    8.1032    0.1959 C   0  0  2  0  0  0  0  0  0  0  0  0
   10.9254    9.3007    0.7059 O   0  0  0  0  0  0  0  0  0  0  0  0
   12.4344    4.0875    2.6228 C   0  0  2  0  0  0  0  0  0  0  0  0
   16.4528   -1.1872    1.1793 C   0  0  1  0  0  0  0  0  0  0  0  0
   16.4957   -2.5953    1.3947 O   0  0  0  0  0  0  0  0  0  0  0  0
   10.7031    6.8344    0.6186 C   0  0  2  0  0  0  0  0  0  0  0  0
   11.3526    5.6123    0.1060 O   0  0  0  0  0  0  0  0  0  0  0  0
   13.7137    3.2152    2.5728 C   0  0  2  0  0  0  0  0  0  0  0  0
   14.0606    3.0058    1.2078 O   0  0  0  0  0  0  0  0  0  0  0  0
   14.9724   -0.7402    0.9649 C   0  0  0  0  0  0  0  0  0  0  0  0
   14.1609   -1.0076    2.1767 O   0  0  0  0  0  0  0  0  0  0  0  0
    9.2534    6.8850    0.0693 C   0  0  2  0  0  0  0  0  0  0  0  0
    8.6093    8.0666    0.5386 O   0  0  0  0  0  0  0  0  0  0  0  0
   13.4800    1.8388    3.2378 C   0  0  1  0  0  0  0  0  0  0  0  0
   14.7257    1.1079    3.1459 O   0  0  0  0  0  0  0  0  0  0  0  0
    8.4377    5.6893    0.5328 C   0  0  0  0  0  0  0  0  0  0  0  0
   17.2609   -0.8875   -0.0773 C   0  0  0  0  0  0  0  0  0  0  0  0
   19.0857    0.1952    3.4968 C   0  0  0  0  0  0  0  0  0  0  0  0
  1  2  1  1  0  0  0
  1  6  1  0  0  0  0
  1 23  1  0  0  0  0
  3  4  1  1  0  0  0
  3  8  1  0  0  0  0
  3 30  1  0  0  0  0
  5  9  1  0  0  0  0
  5 27  1  0  0  0  0
  5 31  1  6  0  0  0
  6  7  1  1  0  0  0
  6 11  1  0  0  0  0
  8 13  1  0  0  0  0
  9 10  1  1  0  0  0
  9 15  1  0  0  0  0
 11 12  1  6  0  0  0
 11 17  1  0  0  0  0
 13 14  1  6  0  0  0
 13 19  1  0  0  0  0
 15 16  1  1  0  0  0
 15 20  1  0  0  0  0
 16 34  1  0  0  0  0
 17 18  1  1  0  0  0
 17 22  1  0  0  0  0
 19  2  1  1  0  0  0
 19 24  1  0  0  0  0
 20 21  1  1  0  0  0
 20 26  1  0  0  0  0
 20 33  1  0  0  0  0
 22 23  1  6  0  0  0
 22 28  1  0  0  0  0
 24 25  1  6  0  0  0
 24 30  1  0  0  0  0
 26 27  1  0  0  0  0
 28 29  1  1  0  0  0
 28 32  1  0  0  0  0
 30 31  1  1  0  0  0
M  END
>  <CHROM.1>
-153.90227895,-164.30784307,-80.54447612,-57.95414292,79.77401196,-162.20669661
13.58362890,3.28986498,2.03097032,-2.23605236,-0.49654107,2.55463981

>  <Name>
ligand

>  <RI>
0

>  <Rbt.Current_Directory>
/home/itssahil/PROJECTS/Mol_Feturizer/New_Systems/rnas/3TD1

>  <Rbt.Executable>
rbdock ($Id: //depot/dev/client3/rdock/2013.1/src/exe/rbdock.cxx#4 $)

>  <Rbt.Library>
libRbt.so (2013.1, Build901 2013/11/27)

>  <Rbt.Parameter_File>
/export/apps/rDock/src/rDock_2013.1_src/data/scripts/dock_solv.prm

>  <Rbt.Receptor>
prm/blind_docking_20.prm

>  <SCORE>
1.28649

>  <SCORE.INTER>
-3.10518

>  <SCORE.INTER.CONST>
1

>  <SCORE.INTER.POLAR>
0

>  <SCORE.INTER.ROT>
6

>  <SCORE.INTER.SOLV>
19.068

>  <SCORE.INTER.VDW>
-16.0261

>  <SCORE.INTER.norm>
-0.0913288

>  <SCORE.INTRA>
-5.24935

>  <SCORE.INTRA.DIHEDRAL>
-11.9792

>  <SCORE.INTRA.DIHEDRAL.0>
19.5869

>  <SCORE.INTRA.POLAR>
0

>  <SCORE.INTRA.POLAR.0>
0

>  <SCORE.INTRA.REPUL>
0

>  <SCORE.INTRA.REPUL.0>
0

>  <SCORE.INTRA.SOLV>
-0.749405

>  <SCORE.INTRA.SOLV.lig_0>
-70.101

>  <SCORE.INTRA.VDW>
1.11493

>  <SCORE.INTRA.VDW.0>
-3.39718

>  <SCORE.INTRA.norm>
-0.154393

>  <SCORE.RESTR>
9.64101

>  <SCORE.RESTR.CAVITY>
9.64101

>  <SCORE.RESTR.norm>
0.283559

>  <SCORE.SYSTEM>
0

>  <SCORE.SYSTEM.CONST>
0

>  <SCORE.SYSTEM.DIHEDRAL>
0

>  <SCORE.SYSTEM.SOLV>
0

>  <SCORE.SYSTEM.norm>
0

>  <SCORE.heavy>
34

>  <SCORE.norm>
0.0378378

>  <RMSD>
10.364

$$$$
ligand
 OpenBabel11021811483D
libRbt.so/2013.1/901 2013/11/27
 34 36  0  0  0  0  0  0  0  0999 V2000
   13.3147    2.6901    2.5302 C   0  0  2  0  0  0  0  0  0  0  0  0
   14.2309    3.7848    2.6872 O   0  0  0  0  0  0  0  0  0  0  0  0
   13.4981    7.8118    1.4592 C   0  0  2  0  0  0  0  0  0  0  0  0
   13.3756    9.0095    0.6354 N   0  0  0  0  0  0  0  0  0  0  0  0
   10.3544    7.6085    0.0043 C   0  0  2  0  0  0  0  0  0  0  0  0
   12.9875    2.1232    3.9578 C   0  0  2  0  0  0  0  0  0  0  0  0
   12.3611    3.1493    4.8058 N   0  0  0  0  0  0  0  0  0  0  0  0
   14.9498    7.2590    1.2681 C   0  0  0  0  0  0  0  0  0  0  0  0
    9.1391    8.4648    0.5114 C   0  0  2  0  0  0  0  0  0  0  0  0
    9.6114    9.6213    1.1823 O   0  0  0  0  0  0  0  0  0  0  0  0
   14.2891    1.6187    4.6179 C   0  0  1  0  0  0  0  0  0  0  0  0
   13.9958    1.0912    5.9219 O   0  0  0  0  0  0  0  0  0  0  0  0
   15.0896    5.9863    2.1702 C   0  0  2  0  0  0  0  0  0  0  0  0
   16.4432    5.4125    2.0279 N   0  0  0  0  0  0  0  0  0  0  0  0
    8.2583    7.5734    1.4700 C   0  0  1  0  0  0  0  0  0  0  0  0
    7.0941    8.3492    1.9935 N   0  0  0  0  0  0  0  0  0  0  0  0
   14.9306    0.5491    3.7025 C   0  0  2  0  0  0  0  0  0  0  0  0
   16.1509    0.0770    4.2997 O   0  0  0  0  0  0  0  0  0  0  0  0
   14.0446    4.9108    1.7779 C   0  0  2  0  0  0  0  0  0  0  0  0
    7.7633    6.3131    0.6813 C   0  0  1  0  0  0  0  0  0  0  0  0
    6.9555    6.7242   -0.4185 O   0  0  0  0  0  0  0  0  0  0  0  0
   15.2162    1.1711    2.2826 C   0  0  2  0  0  0  0  0  0  0  0  0
   13.9595    1.6691    1.6902 O   0  0  0  0  0  0  0  0  0  0  0  0
   12.6203    5.5046    1.9147 C   0  0  2  0  0  0  0  0  0  0  0  0
   11.6796    4.5065    1.5323 O   0  0  0  0  0  0  0  0  0  0  0  0
    9.0086    5.5368    0.1485 C   0  0  0  0  0  0  0  0  0  0  0  0
    9.8559    6.4153   -0.6934 O   0  0  0  0  0  0  0  0  0  0  0  0
   15.8381    0.1347    1.3105 C   0  0  2  0  0  0  0  0  0  0  0  0
   15.9090    0.6947    0.0018 O   0  0  0  0  0  0  0  0  0  0  0  0
   12.4347    6.7338    0.9948 C   0  0  1  0  0  0  0  0  0  0  0  0
   11.0853    7.2151    1.1994 O   0  0  0  0  0  0  0  0  0  0  0  0
   15.0026   -1.1326    1.2348 C   0  0  0  0  0  0  0  0  0  0  0  0
    6.9219    5.3874    1.5514 C   0  0  0  0  0  0  0  0  0  0  0  0
    6.8503    9.4865    1.0857 C   0  0  0  0  0  0  0  0  0  0  0  0
  1  2  1  1  0  0  0
  1  6  1  0  0  0  0
  1 23  1  0  0  0  0
  3  4  1  6  0  0  0
  3  8  1  0  0  0  0
  3 30  1  0  0  0  0
  5  9  1  0  0  0  0
  5 27  1  0  0  0  0
  5 31  1  1  0  0  0
  6  7  1  1  0  0  0
  6 11  1  0  0  0  0
  8 13  1  0  0  0  0
  9 10  1  1  0  0  0
  9 15  1  0  0  0  0
 11 12  1  1  0  0  0
 11 17  1  0  0  0  0
 13 14  1  6  0  0  0
 13 19  1  0  0  0  0
 15 16  1  6  0  0  0
 15 20  1  0  0  0  0
 16 34  1  0  0  0  0
 17 18  1  1  0  0  0
 17 22  1  0  0  0  0
 19  2  1  1  0  0  0
 19 24  1  0  0  0  0
 20 21  1  6  0  0  0
 20 26  1  0  0  0  0
 20 33  1  0  0  0  0
 22 23  1  6  0  0  0
 22 28  1  0  0  0  0
 24 25  1  6  0  0  0
 24 30  1  0  0  0  0
 26 27  1  0  0  0  0
 28 29  1  6  0  0  0
 28 32  1  0  0  0  0
 30 31  1  1  0  0  0
M  END
>  <CHROM.1>
-143.03012825,177.45183252,21.12206808,172.32079774,106.34827605,-163.67270973
12.19680830,4.78301453,1.80149136,0.82908808,0.02003275,2.85426644

>  <Name>
ligand

>  <RI>
0

>  <Rbt.Current_Directory>
/home/itssahil/PROJECTS/Mol_Feturizer/New_Systems/rnas/3TD1

>  <Rbt.Executable>
rbdock ($Id: //depot/dev/client3/rdock/2013.1/src/exe/rbdock.cxx#4 $)

>  <Rbt.Library>
libRbt.so (2013.1, Build901 2013/11/27)

>  <Rbt.Parameter_File>
/export/apps/rDock/src/rDock_2013.1_src/data/scripts/dock_solv.prm

>  <Rbt.Receptor>
prm/blind_docking_20.prm

>  <SCORE>
24.216

>  <SCORE.INTER>
12.4885

>  <SCORE.INTER.CONST>
1

>  <SCORE.INTER.POLAR>
0

>  <SCORE.INTER.ROT>
6

>  <SCORE.INTER.SOLV>
27.7559

>  <SCORE.INTER.VDW>
-8.52632

>  <SCORE.INTER.norm>
0.367309

>  <SCORE.INTRA>
8.2516

>  <SCORE.INTRA.DIHEDRAL>
-6.06325

>  <SCORE.INTRA.DIHEDRAL.0>
19.5869

>  <SCORE.INTRA.POLAR>
0

>  <SCORE.INTRA.POLAR.0>
0

>  <SCORE.INTRA.REPUL>
0

>  <SCORE.INTRA.REPUL.0>
0

>  <SCORE.INTRA.SOLV>
-1.6596

>  <SCORE.INTRA.SOLV.lig_0>
-70.101

>  <SCORE.INTRA.VDW>
12.113

>  <SCORE.INTRA.VDW.0>
-3.39718

>  <SCORE.INTRA.norm>
0.242694

>  <SCORE.RESTR>
3.47595

>  <SCORE.RESTR.CAVITY>
3.47595

>  <SCORE.RESTR.norm>
0.102234

>  <SCORE.SYSTEM>
0

>  <SCORE.SYSTEM.CONST>
0

>  <SCORE.SYSTEM.DIHEDRAL>
0

>  <SCORE.SYSTEM.SOLV>
0

>  <SCORE.SYSTEM.norm>
0

>  <SCORE.heavy>
34

>  <SCORE.norm>
0.712237

>  <RMSD>
10.388

$$$$
ligand
 OpenBabel11021811483D
libRbt.so/2013.1/901 2013/11/27
 34 36  0  0  0  0  0  0  0  0999 V2000
   12.5715    4.6202    1.5021 C   0  0  2  0  0  0  0  0  0  0  0  0
   12.0635    4.3056    2.8081 O   0  0  0  0  0  0  0  0  0  0  0  0
   14.0949    1.3035    5.0713 C   0  0  2  0  0  0  0  0  0  0  0  0
   14.4345    0.0277    5.6919 N   0  0  0  0  0  0  0  0  0  0  0  0
   15.6981    0.4596    1.6882 C   0  0  2  0  0  0  0  0  0  0  0  0
   13.6589    5.7419    1.6621 C   0  0  2  0  0  0  0  0  0  0  0  0
   14.7726    5.2850    2.5079 N   0  0  0  0  0  0  0  0  0  0  0  0
   12.6348    1.6616    5.5068 C   0  0  0  0  0  0  0  0  0  0  0  0
   14.7633   -0.7891    1.5041 C   0  0  2  0  0  0  0  0  0  0  0  0
   13.4136   -0.4181    1.7315 O   0  0  0  0  0  0  0  0  0  0  0  0
   13.0095    6.9984    2.2817 C   0  0  1  0  0  0  0  0  0  0  0  0
   13.9976    8.0320    2.4237 O   0  0  0  0  0  0  0  0  0  0  0  0
   12.2777    3.0425    4.8599 C   0  0  2  0  0  0  0  0  0  0  0  0
   10.9026    3.4337    5.2309 N   0  0  0  0  0  0  0  0  0  0  0  0
   15.2192   -1.9143    2.5118 C   0  0  1  0  0  0  0  0  0  0  0  0
   14.3485   -3.1217    2.3870 N   0  0  0  0  0  0  0  0  0  0  0  0
   11.8380    7.4514    1.3785 C   0  0  2  0  0  0  0  0  0  0  0  0
   11.2158    8.6158    1.9490 O   0  0  0  0  0  0  0  0  0  0  0  0
   12.3808    2.9745    3.3147 C   0  0  2  0  0  0  0  0  0  0  0  0
   16.7127   -2.2864    2.2178 C   0  0  1  0  0  0  0  0  0  0  0  0
   16.8260   -2.7973    0.8922 O   0  0  0  0  0  0  0  0  0  0  0  0
   10.7930    6.2793    1.2408 C   0  0  2  0  0  0  0  0  0  0  0  0
   11.4490    5.0854    0.6731 O   0  0  0  0  0  0  0  0  0  0  0  0
   13.8174    2.5559    2.9137 C   0  0  2  0  0  0  0  0  0  0  0  0
   13.8830    2.4824    1.4932 O   0  0  0  0  0  0  0  0  0  0  0  0
   17.5840   -0.9980    2.3534 C   0  0  0  0  0  0  0  0  0  0  0  0
   17.0933    0.0672    1.4462 O   0  0  0  0  0  0  0  0  0  0  0  0
    9.6046    6.6676    0.3227 C   0  0  2  0  0  0  0  0  0  0  0  0
    9.0068    7.8688    0.8032 O   0  0  0  0  0  0  0  0  0  0  0  0
   14.1805    1.1698    3.4954 C   0  0  1  0  0  0  0  0  0  0  0  0
   15.5328    0.8751    3.0729 O   0  0  0  0  0  0  0  0  0  0  0  0
    8.5367    5.5864    0.3030 C   0  0  0  0  0  0  0  0  0  0  0  0
   17.2345   -3.3549    3.1706 C   0  0  0  0  0  0  0  0  0  0  0  0
   14.1622   -3.4112    0.9523 C   0  0  0  0  0  0  0  0  0  0  0  0
  1  2  1  1  0  0  0
  1  6  1  0  0  0  0
  1 23  1  0  0  0  0
  3  4  1  1  0  0  0
  3  8  1  0  0  0  0
  3 30  1  0  0  0  0
  5  9  1  0  0  0  0
  5 27  1  0  0  0  0
  5 31  1  1  0  0  0
  6  7  1  1  0  0  0
  6 11  1  0  0  0  0
  8 13  1  0  0  0  0
  9 10  1  1  0  0  0
  9 15  1  0  0  0  0
 11 12  1  6  0  0  0
 11 17  1  0  0  0  0
 13 14  1  6  0  0  0
 13 19  1  0  0  0  0
 15 16  1  6  0  0  0
 15 20  1  0  0  0  0
 16 34  1  0  0  0  0
 17 18  1  1  0  0  0
 17 22  1  0  0  0  0
 19  2  1  6  0  0  0
 19 24  1  0  0  0  0
 20 21  1  6  0  0  0
 20 26  1  0  0  0  0
 20 33  1  0  0  0  0
 22 23  1  6  0  0  0
 22 28  1  0  0  0  0
 24 25  1  6  0  0  0
 24 30  1  0  0  0  0
 26 27  1  0  0  0  0
 28 29  1  1  0  0  0
 28 32  1  0  0  0  0
 30 31  1  1  0  0  0
M  END
>  <CHROM.1>
-112.72808866,157.20205142,44.91507437,-54.94947958,167.85483506,-56.23614791
13.51456201,2.47163330,2.36012679,2.78120586,-1.03474447,1.06988474

>  <Name>
ligand

>  <RI>
0

>  <Rbt.Current_Directory>
/home/itssahil/PROJECTS/Mol_Feturizer/New_Systems/rnas/3TD1

>  <Rbt.Executable>
rbdock ($Id: //depot/dev/client3/rdock/2013.1/src/exe/rbdock.cxx#4 $)

>  <Rbt.Library>
libRbt.so (2013.1, Build901 2013/11/27)

>  <Rbt.Parameter_File>
/export/apps/rDock/src/rDock_2013.1_src/data/scripts/dock_solv.prm

>  <Rbt.Receptor>
prm/blind_docking_20.prm

>  <SCORE>
9.58147

>  <SCORE.INTER>
-6.78679

>  <SCORE.INTER.CONST>
1

>  <SCORE.INTER.POLAR>
0

>  <SCORE.INTER.ROT>
6

>  <SCORE.INTER.SOLV>
16.6258

>  <SCORE.INTER.VDW>
-17.6664

>  <SCORE.INTER.norm>
-0.199612

>  <SCORE.INTRA>
7.56234

>  <SCORE.INTRA.DIHEDRAL>
-9.25938

>  <SCORE.INTRA.DIHEDRAL.0>
19.5869

>  <SCORE.INTRA.POLAR>
0

>  <SCORE.INTRA.POLAR.0>
0

>  <SCORE.INTRA.REPUL>
0

>  <SCORE.INTRA.REPUL.0>
0

>  <SCORE.INTRA.SOLV>
0.581746

>  <SCORE.INTRA.SOLV.lig_0>
-70.101

>  <SCORE.INTRA.VDW>
11.9012

>  <SCORE.INTRA.VDW.0>
-3.39718

>  <SCORE.INTRA.norm>
0.222422

>  <SCORE.RESTR>
8.80592

>  <SCORE.RESTR.CAVITY>
8.80592

>  <SCORE.RESTR.norm>
0.258998

>  <SCORE.SYSTEM>
0

>  <SCORE.SYSTEM.CONST>
0

>  <SCORE.SYSTEM.DIHEDRAL>
0

>  <SCORE.SYSTEM.SOLV>
0

>  <SCORE.SYSTEM.norm>
0

>  <SCORE.heavy>
34

>  <SCORE.norm>
0.281808

>  <RMSD>
10.452

$$$$
ligand
 OpenBabel11021811483D
libRbt.so/2013.1/901 2013/11/27
 34 36  0  0  0  0  0  0  0  0999 V2000
    0.3387   -0.3828    5.8013 C   0  0  2  0  0  0  0  0  0  0  0  0
   -0.5288   -0.5779    6.9291 O   0  0  0  0  0  0  0  0  0  0  0  0
   -0.2413    2.7593    9.5829 C   0  0  2  0  0  0  0  0  0  0  0  0
   -0.0112    3.5654   10.7767 N   0  0  0  0  0  0  0  0  0  0  0  0
    2.4253    4.1416    9.7115 C   0  0  2  0  0  0  0  0  0  0  0  0
   -0.3088    0.7073    4.8745 C   0  0  2  0  0  0  0  0  0  0  0  0
   -0.4597    1.9867    5.5850 N   0  0  0  0  0  0  0  0  0  0  0  0
   -1.2396    1.6189    9.9736 C   0  0  0  0  0  0  0  0  0  0  0  0
    1.8723    5.5279    9.2222 C   0  0  2  0  0  0  0  0  0  0  0  0
    0.4594    5.4723    9.1152 O   0  0  0  0  0  0  0  0  0  0  0  0
   -1.6875    0.2107    4.3877 C   0  0  1  0  0  0  0  0  0  0  0  0
   -2.2824    1.2003    3.5324 O   0  0  0  0  0  0  0  0  0  0  0  0
   -1.5055    0.7668    8.6867 C   0  0  2  0  0  0  0  0  0  0  0  0
   -2.4403   -0.3346    8.9943 N   0  0  0  0  0  0  0  0  0  0  0  0
    2.5329    5.8729    7.8315 C   0  0  1  0  0  0  0  0  0  0  0  0
    2.0261    7.1792    7.3139 N   0  0  0  0  0  0  0  0  0  0  0  0
   -1.5009   -1.1382    3.6532 C   0  0  2  0  0  0  0  0  0  0  0  0
   -2.7794   -1.6191    3.2029 O   0  0  0  0  0  0  0  0  0  0  0  0
   -0.1864    0.1668    8.1363 C   0  0  2  0  0  0  0  0  0  0  0  0
    4.0894    5.9222    8.0055 C   0  0  1  0  0  0  0  0  0  0  0  0
    4.4344    6.9472    8.9337 O   0  0  0  0  0  0  0  0  0  0  0  0
   -0.8308   -2.1816    4.6263 C   0  0  2  0  0  0  0  0  0  0  0  0
    0.4702   -1.6669    5.0961 O   0  0  0  0  0  0  0  0  0  0  0  0
    0.8060    1.3132    7.8185 C   0  0  2  0  0  0  0  0  0  0  0  0
    2.0146    0.7382    7.3326 O   0  0  0  0  0  0  0  0  0  0  0  0
    4.5745    4.5427    8.5524 C   0  0  0  0  0  0  0  0  0  0  0  0
    3.8888    4.2099    9.8241 O   0  0  0  0  0  0  0  0  0  0  0  0
   -0.5948   -3.5499    3.9350 C   0  0  2  0  0  0  0  0  0  0  0  0
   -0.2178   -3.3365    2.5772 O   0  0  0  0  0  0  0  0  0  0  0  0
    1.1291    2.1418    9.0836 C   0  0  1  0  0  0  0  0  0  0  0  0
    2.0512    3.1827    8.6830 O   0  0  0  0  0  0  0  0  0  0  0  0
   -1.8507   -4.4057    3.9452 C   0  0  0  0  0  0  0  0  0  0  0  0
    4.8025    6.2279    6.6941 C   0  0  0  0  0  0  0  0  0  0  0  0
    1.2040    6.9151    6.1175 C   0  0  0  0  0  0  0  0  0  0  0  0
  1  2  1  1  0  0  0
  1  6  1  0  0  0  0
  1 23  1  0  0  0  0
  3  4  1  1  0  0  0
  3  8  1  0  0  0  0
  3 30  1  0  0  0  0
  5  9  1  0  0  0  0
  5 27  1  0  0  0  0
  5 31  1  6  0  0  0
  6  7  1  1  0  0  0
  6 11  1  0  0  0  0
  8 13  1  0  0  0  0
  9 10  1  6  0  0  0
  9 15  1  0  0  0  0
 11 12  1  6  0  0  0
 11 17  1  0  0  0  0
 13 14  1  1  0  0  0
 13 19  1  0  0  0  0
 15 16  1  1  0  0  0
 15 20  1  0  0  0  0
 16 34  1  0  0  0  0
 17 18  1  1  0  0  0
 17 22  1  0  0  0  0
 19  2  1  6  0  0  0
 19 24  1  0  0  0  0
 20 21  1  1  0  0  0
 20 26  1  0  0  0  0
 20 33  1  0  0  0  0
 22 23  1  6  0  0  0
 22 28  1  0  0  0  0
 24 25  1  1  0  0  0
 24 30  1  0  0  0  0
 26 27  1  0  0  0  0
 28 29  1  6  0  0  0
 28 32  1  0  0  0  0
 30 31  1  6  0  0  0
M  END
>  <CHROM.1>
-96.40192621,135.42509861,-111.89453627,36.94902660,60.24312300,-115.88476093
0.61103595,1.87874111,6.98418214,-2.38210128,0.93793529,1.22081067

>  <Name>
ligand

>  <RI>
0

>  <Rbt.Current_Directory>
/home/itssahil/PROJECTS/Mol_Feturizer/New_Systems/rnas/3TD1

>  <Rbt.Executable>
rbdock ($Id: //depot/dev/client3/rdock/2013.1/src/exe/rbdock.cxx#4 $)

>  <Rbt.Library>
libRbt.so (2013.1, Build901 2013/11/27)

>  <Rbt.Parameter_File>
/export/apps/rDock/src/rDock_2013.1_src/data/scripts/dock_solv.prm

>  <Rbt.Receptor>
prm/blind_docking_80.prm

>  <SCORE>
15.2917

>  <SCORE.INTER>
-4.67401

>  <SCORE.INTER.CONST>
1

>  <SCORE.INTER.POLAR>
0

>  <SCORE.INTER.ROT>
6

>  <SCORE.INTER.SOLV>
18.8862

>  <SCORE.INTER.VDW>
-17.0114

>  <SCORE.INTER.norm>
-0.137471

>  <SCORE.INTRA>
8.13731

>  <SCORE.INTRA.DIHEDRAL>
1.31336

>  <SCORE.INTRA.DIHEDRAL.0>
19.5869

>  <SCORE.INTRA.POLAR>
0

>  <SCORE.INTRA.POLAR.0>
0

>  <SCORE.INTRA.REPUL>
0

>  <SCORE.INTRA.REPUL.0>
0

>  <SCORE.INTRA.SOLV>
3.25155

>  <SCORE.INTRA.SOLV.lig_0>
-70.101

>  <SCORE.INTRA.VDW>
5.85486

>  <SCORE.INTRA.VDW.0>
-3.39718

>  <SCORE.INTRA.norm>
0.239333

>  <SCORE.RESTR>
11.8284

>  <SCORE.RESTR.CAVITY>
11.8284

>  <SCORE.RESTR.norm>
0.347893

>  <SCORE.SYSTEM>
0

>  <SCORE.SYSTEM.CONST>
0

>  <SCORE.SYSTEM.DIHEDRAL>
0

>  <SCORE.SYSTEM.SOLV>
0

>  <SCORE.SYSTEM.norm>
0

>  <SCORE.heavy>
34

>  <SCORE.norm>
0.449755

>  <RMSD>
10.512

$$$$
ligand
 OpenBabel11021811483D
libRbt.so/2013.1/901 2013/11/27
 34 36  0  0  0  0  0  0  0  0999 V2000
    0.3002   -0.3564    5.6862 C   0  0  2  0  0  0  0  0  0  0  0  0
   -0.5032   -0.5294    6.8641 O   0  0  0  0  0  0  0  0  0  0  0  0
   -0.3243    2.5161    9.8565 C   0  0  2  0  0  0  0  0  0  0  0  0
    0.0122    3.2446   11.0747 N   0  0  0  0  0  0  0  0  0  0  0  0
    1.9395    4.5115    9.5820 C   0  0  2  0  0  0  0  0  0  0  0  0
   -0.4347    0.6622    4.7435 C   0  0  2  0  0  0  0  0  0  0  0  0
   -0.6023    1.9679    5.4004 N   0  0  0  0  0  0  0  0  0  0  0  0
   -0.8949    1.1236   10.2868 C   0  0  0  0  0  0  0  0  0  0  0  0
    1.7315    5.9589    9.0087 C   0  0  2  0  0  0  0  0  0  0  0  0
    0.3562    6.1782    8.7416 O   0  0  0  0  0  0  0  0  0  0  0  0
   -1.8143    0.0908    4.3502 C   0  0  1  0  0  0  0  0  0  0  0  0
   -2.4892    1.0146    3.4808 O   0  0  0  0  0  0  0  0  0  0  0  0
   -1.2781    0.3497    8.9802 C   0  0  2  0  0  0  0  0  0  0  0  0
   -1.8197   -0.9813    9.3218 N   0  0  0  0  0  0  0  0  0  0  0  0
    2.5949    6.1116    7.6970 C   0  0  1  0  0  0  0  0  0  0  0  0
    2.4191    7.4705    7.1022 N   0  0  0  0  0  0  0  0  0  0  0  0
   -1.6095   -1.2840    3.6708 C   0  0  2  0  0  0  0  0  0  0  0  0
   -2.8879   -1.8342    3.3081 O   0  0  0  0  0  0  0  0  0  0  0  0
   -0.0437    0.1685    8.0604 C   0  0  2  0  0  0  0  0  0  0  0  0
    4.1016    5.8605    8.0472 C   0  0  1  0  0  0  0  0  0  0  0  0
    4.5416    6.8336    8.9908 O   0  0  0  0  0  0  0  0  0  0  0  0
   -0.8516   -2.2530    4.6564 C   0  0  2  0  0  0  0  0  0  0  0  0
    0.4488   -1.6673    5.0358 O   0  0  0  0  0  0  0  0  0  0  0  0
    0.5387    1.5587    7.7025 C   0  0  2  0  0  0  0  0  0  0  0  0
    1.6804    1.3668    6.8737 O   0  0  0  0  0  0  0  0  0  0  0  0
    4.2385    4.4354    8.6697 C   0  0  0  0  0  0  0  0  0  0  0  0
    3.3659    4.2949    9.8602 O   0  0  0  0  0  0  0  0  0  0  0  0
   -0.5945   -3.6433    4.0185 C   0  0  2  0  0  0  0  0  0  0  0  0
   -0.2784   -3.4807    2.6383 O   0  0  0  0  0  0  0  0  0  0  0  0
    0.9756    2.3270    8.9715 C   0  0  1  0  0  0  0  0  0  0  0  0
    1.4953    3.6049    8.5342 O   0  0  0  0  0  0  0  0  0  0  0  0
   -1.8181   -4.5392    4.1180 C   0  0  0  0  0  0  0  0  0  0  0  0
    4.9996    5.9675    6.8208 C   0  0  0  0  0  0  0  0  0  0  0  0
    1.4305    7.3734    6.0112 C   0  0  0  0  0  0  0  0  0  0  0  0
  1  2  1  1  0  0  0
  1  6  1  0  0  0  0
  1 23  1  0  0  0  0
  3  4  1  1  0  0  0
  3  8  1  0  0  0  0
  3 30  1  0  0  0  0
  5  9  1  0  0  0  0
  5 27  1  0  0  0  0
  5 31  1  6  0  0  0
  6  7  1  1  0  0  0
  6 11  1  0  0  0  0
  8 13  1  0  0  0  0
  9 10  1  6  0  0  0
  9 15  1  0  0  0  0
 11 12  1  6  0  0  0
 11 17  1  0  0  0  0
 13 14  1  1  0  0  0
 13 19  1  0  0  0  0
 15 16  1  1  0  0  0
 15 20  1  0  0  0  0
 16 34  1  0  0  0  0
 17 18  1  1  0  0  0
 17 22  1  0  0  0  0
 19  2  1  6  0  0  0
 19 24  1  0  0  0  0
 20 21  1  1  0  0  0
 20 26  1  0  0  0  0
 20 33  1  0  0  0  0
 22 23  1  6  0  0  0
 22 28  1  0  0  0  0
 24 25  1  6  0  0  0
 24 30  1  0  0  0  0
 26 27  1  0  0  0  0
 28 29  1  6  0  0  0
 28 32  1  0  0  0  0
 30 31  1  6  0  0  0
M  END
>  <CHROM.1>
-103.10937681,156.80623182,-98.45360125,37.57267991,62.66480043,-151.21365704
0.56263752,1.89209761,6.97074033,-2.53430477,1.03895889,1.37695015

>  <Name>
ligand

>  <RI>
0

>  <Rbt.Current_Directory>
/home/itssahil/PROJECTS/Mol_Feturizer/New_Systems/rnas/3TD1

>  <Rbt.Executable>
rbdock ($Id: //depot/dev/client3/rdock/2013.1/src/exe/rbdock.cxx#4 $)

>  <Rbt.Library>
libRbt.so (2013.1, Build901 2013/11/27)

>  <Rbt.Parameter_File>
/export/apps/rDock/src/rDock_2013.1_src/data/scripts/dock_solv.prm

>  <Rbt.Receptor>
prm/blind_docking_80.prm

>  <SCORE>
14.7458

>  <SCORE.INTER>
-0.872756

>  <SCORE.INTER.CONST>
1

>  <SCORE.INTER.POLAR>
0

>  <SCORE.INTER.ROT>
6

>  <SCORE.INTER.SOLV>
20.0843

>  <SCORE.INTER.VDW>
-14.8766

>  <SCORE.INTER.norm>
-0.0256693

>  <SCORE.INTRA>
3.52931

>  <SCORE.INTRA.DIHEDRAL>
-5.40126

>  <SCORE.INTRA.DIHEDRAL.0>
19.5869

>  <SCORE.INTRA.POLAR>
0

>  <SCORE.INTRA.POLAR.0>
0

>  <SCORE.INTRA.REPUL>
0.0339988

>  <SCORE.INTRA.REPUL.0>
0

>  <SCORE.INTRA.SOLV>
1.70906

>  <SCORE.INTRA.SOLV.lig_0>
-70.101

>  <SCORE.INTRA.VDW>
5.20542

>  <SCORE.INTRA.VDW.0>
-3.39718

>  <SCORE.INTRA.norm>
0.103803

>  <SCORE.RESTR>
12.0892

>  <SCORE.RESTR.CAVITY>
12.0892

>  <SCORE.RESTR.norm>
0.355565

>  <SCORE.SYSTEM>
0

>  <SCORE.SYSTEM.CONST>
0

>  <SCORE.SYSTEM.DIHEDRAL>
0

>  <SCORE.SYSTEM.SOLV>
0

>  <SCORE.SYSTEM.norm>
0

>  <SCORE.heavy>
34

>  <SCORE.norm>
0.433699

>  <RMSD>
10.571

$$$$
ligand
 OpenBabel11021811483D
libRbt.so/2013.1/901 2013/11/27
 34 36  0  0  0  0  0  0  0  0999 V2000
   13.9739    1.1507    2.3370 C   0  0  2  0  0  0  0  0  0  0  0  0
   14.3835    2.5068    2.1008 O   0  0  0  0  0  0  0  0  0  0  0  0
   11.3135    5.4376    2.5985 C   0  0  2  0  0  0  0  0  0  0  0  0
   10.4174    6.4179    3.2019 N   0  0  0  0  0  0  0  0  0  0  0  0
   12.1085    8.2963    2.2499 C   0  0  2  0  0  0  0  0  0  0  0  0
   14.5160    0.7190    3.7464 C   0  0  2  0  0  0  0  0  0  0  0  0
   13.9671    1.5735    4.8108 N   0  0  0  0  0  0  0  0  0  0  0  0
   11.1750    4.1110    3.4174 C   0  0  0  0  0  0  0  0  0  0  0  0
   11.0713    8.4502    1.0805 C   0  0  2  0  0  0  0  0  0  0  0  0
   10.2872    7.2736    0.9740 O   0  0  0  0  0  0  0  0  0  0  0  0
   16.0579    0.8022    3.7482 C   0  0  1  0  0  0  0  0  0  0  0  0
   16.5612    0.4008    5.0329 O   0  0  0  0  0  0  0  0  0  0  0  0
   12.1194    3.0508    2.7562 C   0  0  2  0  0  0  0  0  0  0  0  0
   12.0373    1.7726    3.4916 N   0  0  0  0  0  0  0  0  0  0  0  0
   11.8577    8.7303   -0.2584 C   0  0  1  0  0  0  0  0  0  0  0  0
   10.9139    8.8694   -1.4079 N   0  0  0  0  0  0  0  0  0  0  0  0
   16.6073   -0.0970    2.6155 C   0  0  2  0  0  0  0  0  0  0  0  0
   18.0434   -0.0214    2.5979 O   0  0  0  0  0  0  0  0  0  0  0  0
   13.5906    3.5390    2.7606 C   0  0  2  0  0  0  0  0  0  0  0  0
   12.7049   10.0374   -0.0874 C   0  0  1  0  0  0  0  0  0  0  0  0
   11.8375   11.1399    0.1635 O   0  0  0  0  0  0  0  0  0  0  0  0
   16.0133    0.3723    1.2329 C   0  0  2  0  0  0  0  0  0  0  0  0
   14.5393    0.3086    1.2717 O   0  0  0  0  0  0  0  0  0  0  0  0
   13.6876    4.8847    1.9992 C   0  0  2  0  0  0  0  0  0  0  0  0
   15.0422    5.3220    2.0322 O   0  0  0  0  0  0  0  0  0  0  0  0
   13.6708    9.8510    1.1249 C   0  0  0  0  0  0  0  0  0  0  0  0
   12.9130    9.5213    2.3559 O   0  0  0  0  0  0  0  0  0  0  0  0
   16.5103   -0.5113    0.0590 C   0  0  2  0  0  0  0  0  0  0  0  0
   15.9994    0.0004   -1.1692 O   0  0  0  0  0  0  0  0  0  0  0  0
   12.8046    5.9681    2.6611 C   0  0  1  0  0  0  0  0  0  0  0  0
   12.9585    7.1753    1.8780 O   0  0  0  0  0  0  0  0  0  0  0  0
   16.0380   -1.9487    0.2020 C   0  0  0  0  0  0  0  0  0  0  0  0
   13.5147   10.3620   -1.3367 C   0  0  0  0  0  0  0  0  0  0  0  0
   10.6109    7.5206   -1.9235 C   0  0  0  0  0  0  0  0  0  0  0  0
  1  2  1  6  0  0  0
  1  6  1  0  0  0  0
  1 23  1  0  0  0  0
  3  4  1  1  0  0  0
  3  8  1  0  0  0  0
  3 30  1  0  0  0  0
  5  9  1  0  0  0  0
  5 27  1  0  0  0  0
  5 31  1  6  0  0  0
  6  7  1  1  0  0  0
  6 11  1  0  0  0  0
  8 13  1  0  0  0  0
  9 10  1  6  0  0  0
  9 15  1  0  0  0  0
 11 12  1  1  0  0  0
 11 17  1  0  0  0  0
 13 14  1  1  0  0  0
 13 19  1  0  0  0  0
 15 16  1  6  0  0  0
 15 20  1  0  0  0  0
 16 34  1  0  0  0  0
 17 18  1  6  0  0  0
 17 22  1  0  0  0  0
 19  2  1  6  0  0  0
 19 24  1  0  0  0  0
 20 21  1  1  0  0  0
 20 26  1  0  0  0  0
 20 33  1  0  0  0  0
 22 23  1  1  0  0  0
 22 28  1  0  0  0  0
 24 25  1  1  0  0  0
 24 30  1  0  0  0  0
 26 27  1  0  0  0  0
 28 29  1  6  0  0  0
 28 32  1  0  0  0  0
 30 31  1  6  0  0  0
M  END
>  <CHROM.1>
-79.26541826,-35.99624683,-84.88037623,-176.97554648,58.29072235,-109.95410583
13.55160010,4.50142834,1.69423158,0.83176053,-0.95223504,2.31117083

>  <Name>
ligand

>  <RI>
0

>  <Rbt.Current_Directory>
/home/itssahil/PROJECTS/Mol_Feturizer/New_Systems/rnas/3TD1

>  <Rbt.Executable>
rbdock ($Id: //depot/dev/client3/rdock/2013.1/src/exe/rbdock.cxx#4 $)

>  <Rbt.Library>
libRbt.so (2013.1, Build901 2013/11/27)

>  <Rbt.Parameter_File>
/export/apps/rDock/src/rDock_2013.1_src/data/scripts/dock_solv.prm

>  <Rbt.Receptor>
prm/blind_docking_20.prm

>  <SCORE>
20.5523

>  <SCORE.INTER>
-2.67214

>  <SCORE.INTER.CONST>
1

>  <SCORE.INTER.POLAR>
0

>  <SCORE.INTER.ROT>
6

>  <SCORE.INTER.SOLV>
21.0423

>  <SCORE.INTER.VDW>
-16.3955

>  <SCORE.INTER.norm>
-0.0785923

>  <SCORE.INTRA>
13.58

>  <SCORE.INTRA.DIHEDRAL>
-8.16232

>  <SCORE.INTRA.DIHEDRAL.0>
19.5869

>  <SCORE.INTRA.POLAR>
0

>  <SCORE.INTRA.POLAR.0>
0

>  <SCORE.INTRA.REPUL>
0

>  <SCORE.INTRA.REPUL.0>
0

>  <SCORE.INTRA.SOLV>
6.15732

>  <SCORE.INTRA.SOLV.lig_0>
-70.101

>  <SCORE.INTRA.VDW>
14.5825

>  <SCORE.INTRA.VDW.0>
-3.39718

>  <SCORE.INTRA.norm>
0.399412

>  <SCORE.RESTR>
9.64443

>  <SCORE.RESTR.CAVITY>
9.64443

>  <SCORE.RESTR.norm>
0.28366

>  <SCORE.SYSTEM>
0

>  <SCORE.SYSTEM.CONST>
0

>  <SCORE.SYSTEM.DIHEDRAL>
0

>  <SCORE.SYSTEM.SOLV>
0

>  <SCORE.SYSTEM.norm>
0

>  <SCORE.heavy>
34

>  <SCORE.norm>
0.604479

>  <RMSD>
10.632

$$$$
ligand
 OpenBabel11021811483D
libRbt.so/2013.1/901 2013/11/27
 34 36  0  0  0  0  0  0  0  0999 V2000
   11.3712    8.2967    2.0309 C   0  0  2  0  0  0  0  0  0  0  0  0
   11.5830    8.9592    0.7744 O   0  0  0  0  0  0  0  0  0  0  0  0
   10.2213   12.5841   -1.0333 C   0  0  2  0  0  0  0  0  0  0  0  0
    9.6759   13.9255   -1.2099 N   0  0  0  0  0  0  0  0  0  0  0  0
   13.3442   14.4018   -0.2871 C   0  0  2  0  0  0  0  0  0  0  0  0
   12.3277    7.0525    2.0902 C   0  0  2  0  0  0  0  0  0  0  0  0
   13.7378    7.4621    2.0007 N   0  0  0  0  0  0  0  0  0  0  0  0
    9.1762   11.7586   -0.2111 C   0  0  0  0  0  0  0  0  0  0  0  0
   12.6715   15.7771   -0.6382 C   0  0  2  0  0  0  0  0  0  0  0  0
   11.3255   15.7829   -0.1919 O   0  0  0  0  0  0  0  0  0  0  0  0
   11.9856    6.0894    0.9326 C   0  0  1  0  0  0  0  0  0  0  0  0
   12.8522    4.9444    0.9856 O   0  0  0  0  0  0  0  0  0  0  0  0
    9.7506   10.3116   -0.0410 C   0  0  2  0  0  0  0  0  0  0  0  0
    8.8075    9.4818    0.7360 N   0  0  0  0  0  0  0  0  0  0  0  0
   12.7522   15.9950   -2.1988 C   0  0  1  0  0  0  0  0  0  0  0  0
   12.1097   17.2864   -2.5872 N   0  0  0  0  0  0  0  0  0  0  0  0
   10.4973    5.6824    1.0456 C   0  0  2  0  0  0  0  0  0  0  0  0
   10.1608    4.7928   -0.0333 O   0  0  0  0  0  0  0  0  0  0  0  0
   11.1162   10.3393    0.6919 C   0  0  2  0  0  0  0  0  0  0  0  0
   14.2564   15.9806   -2.6378 C   0  0  1  0  0  0  0  0  0  0  0  0
   14.9512   17.0480   -1.9983 O   0  0  0  0  0  0  0  0  0  0  0  0
    9.5918    6.9718    1.0001 C   0  0  2  0  0  0  0  0  0  0  0  0
    9.9610    7.8841    2.0999 O   0  0  0  0  0  0  0  0  0  0  0  0
   12.1116   11.2148   -0.1098 C   0  0  2  0  0  0  0  0  0  0  0  0
   13.3511   11.2405    0.5906 O   0  0  0  0  0  0  0  0  0  0  0  0
   14.8886   14.6193   -2.2083 C   0  0  0  0  0  0  0  0  0  0  0  0
   14.7392   14.4067   -0.7486 O   0  0  0  0  0  0  0  0  0  0  0  0
    8.0856    6.6270    1.1354 C   0  0  2  0  0  0  0  0  0  0  0  0
    7.8948    5.7654    2.2545 O   0  0  0  0  0  0  0  0  0  0  0  0
   11.5954   12.6658   -0.2496 C   0  0  1  0  0  0  0  0  0  0  0  0
   12.5851   13.3950   -1.0132 O   0  0  0  0  0  0  0  0  0  0  0  0
    7.5617    5.9149   -0.1008 C   0  0  0  0  0  0  0  0  0  0  0  0
   14.4152   16.1621   -4.1423 C   0  0  0  0  0  0  0  0  0  0  0  0
   10.6535   17.0686   -2.6818 C   0  0  0  0  0  0  0  0  0  0  0  0
  1  2  1  6  0  0  0
  1  6  1  0  0  0  0
  1 23  1  0  0  0  0
  3  4  1  1  0  0  0
  3  8  1  0  0  0  0
  3 30  1  0  0  0  0
  5  9  1  0  0  0  0
  5 27  1  0  0  0  0
  5 31  1  6  0  0  0
  6  7  1  6  0  0  0
  6 11  1  0  0  0  0
  8 13  1  0  0  0  0
  9 10  1  6  0  0  0
  9 15  1  0  0  0  0
 11 12  1  1  0  0  0
 11 17  1  0  0  0  0
 13 14  1  1  0  0  0
 13 19  1  0  0  0  0
 15 16  1  1  0  0  0
 15 20  1  0  0  0  0
 16 34  1  0  0  0  0
 17 18  1  6  0  0  0
 17 22  1  0  0  0  0
 19  2  1  6  0  0  0
 19 24  1  0  0  0  0
 20 21  1  1  0  0  0
 20 26  1  0  0  0  0
 20 33  1  0  0  0  0
 22 23  1  1  0  0  0
 22 28  1  0  0  0  0
 24 25  1  1  0  0  0
 24 30  1  0  0  0  0
 26 27  1  0  0  0  0
 28 29  1  1  0  0  0
 28 32  1  0  0  0  0
 30 31  1  6  0  0  0
M  END
>  <CHROM.1>
-161.54761305,-99.87978457,-82.32656094,49.79566597,133.53103021,-99.76450474
11.54227566,11.10191975,-0.17414457,-1.85883343,-0.01650864,-0.32463680

>  <Name>
ligand

>  <RI>
0

>  <Rbt.Current_Directory>
/home/itssahil/PROJECTS/Mol_Feturizer/New_Systems/rnas/3TD1

>  <Rbt.Executable>
rbdock ($Id: //depot/dev/client3/rdock/2013.1/src/exe/rbdock.cxx#4 $)

>  <Rbt.Library>
libRbt.so (2013.1, Build901 2013/11/27)

>  <Rbt.Parameter_File>
/export/apps/rDock/src/rDock_2013.1_src/data/scripts/dock_solv.prm

>  <Rbt.Receptor>
prm/blind_docking_40.prm

>  <SCORE>
15.2609

>  <SCORE.INTER>
0.736629

>  <SCORE.INTER.CONST>
1

>  <SCORE.INTER.POLAR>
0

>  <SCORE.INTER.ROT>
6

>  <SCORE.INTER.SOLV>
18.2268

>  <SCORE.INTER.VDW>
-13.1845

>  <SCORE.INTER.norm>
0.0216655

>  <SCORE.INTRA>
4.70158

>  <SCORE.INTRA.DIHEDRAL>
-0.268964

>  <SCORE.INTRA.DIHEDRAL.0>
19.5869

>  <SCORE.INTRA.POLAR>
0

>  <SCORE.INTRA.POLAR.0>
0

>  <SCORE.INTRA.REPUL>
0

>  <SCORE.INTRA.REPUL.0>
0

>  <SCORE.INTRA.SOLV>
4.11399

>  <SCORE.INTRA.SOLV.lig_0>
-70.101

>  <SCORE.INTRA.VDW>
2.77907

>  <SCORE.INTRA.VDW.0>
-3.39718

>  <SCORE.INTRA.norm>
0.138282

>  <SCORE.RESTR>
9.82267

>  <SCORE.RESTR.CAVITY>
9.82267

>  <SCORE.RESTR.norm>
0.288902

>  <SCORE.SYSTEM>
0

>  <SCORE.SYSTEM.CONST>
0

>  <SCORE.SYSTEM.DIHEDRAL>
0

>  <SCORE.SYSTEM.SOLV>
0

>  <SCORE.SYSTEM.norm>
0

>  <SCORE.heavy>
34

>  <SCORE.norm>
0.448849

>  <RMSD>
10.668

$$$$
ligand
 OpenBabel11021811483D
libRbt.so/2013.1/901 2013/11/27
 34 36  0  0  0  0  0  0  0  0999 V2000
   10.5396    7.5347    0.3025 C   0  0  2  0  0  0  0  0  0  0  0  0
   10.3814    8.3033    1.5053 O   0  0  0  0  0  0  0  0  0  0  0  0
    9.0603   11.8141   -0.5419 C   0  0  2  0  0  0  0  0  0  0  0  0
    8.5254   13.1448   -0.8086 N   0  0  0  0  0  0  0  0  0  0  0  0
   12.4516   13.3417    0.1816 C   0  0  2  0  0  0  0  0  0  0  0  0
   10.3180    6.0218    0.6613 C   0  0  2  0  0  0  0  0  0  0  0  0
    8.9661    5.7954    1.1957 N   0  0  0  0  0  0  0  0  0  0  0  0
    8.0023   11.0489    0.3211 C   0  0  0  0  0  0  0  0  0  0  0  0
   12.4246   14.8028   -0.3944 C   0  0  2  0  0  0  0  0  0  0  0  0
   11.1565   15.3911   -0.1564 O   0  0  0  0  0  0  0  0  0  0  0  0
   11.3737    5.5829    1.6992 C   0  0  1  0  0  0  0  0  0  0  0  0
   11.1816    4.1969    2.0263 O   0  0  0  0  0  0  0  0  0  0  0  0
    8.5655    9.6121    0.5883 C   0  0  2  0  0  0  0  0  0  0  0  0
    7.6099    8.8391    1.4074 N   0  0  0  0  0  0  0  0  0  0  0  0
   12.7406   14.7426   -1.9390 C   0  0  1  0  0  0  0  0  0  0  0  0
   12.7113   16.1101   -2.5394 N   0  0  0  0  0  0  0  0  0  0  0  0
   12.7835    5.8398    1.1160 C   0  0  2  0  0  0  0  0  0  0  0  0
   13.7784    5.4454    2.0768 O   0  0  0  0  0  0  0  0  0  0  0  0
    9.9246    9.6782    1.3308 C   0  0  2  0  0  0  0  0  0  0  0  0
   14.1486   14.0866   -2.1455 C   0  0  1  0  0  0  0  0  0  0  0  0
   15.1454   14.8853   -1.5135 O   0  0  0  0  0  0  0  0  0  0  0  0
   12.9372    7.3673    0.7584 C   0  0  2  0  0  0  0  0  0  0  0  0
   11.8984    7.7630   -0.2124 O   0  0  0  0  0  0  0  0  0  0  0  0
   10.9330   10.4948    0.4846 C   0  0  2  0  0  0  0  0  0  0  0  0
   12.1661   10.5575    1.1937 O   0  0  0  0  0  0  0  0  0  0  0  0
   14.1365   12.6652   -1.4997 C   0  0  0  0  0  0  0  0  0  0  0  0
   13.7701   12.7420   -0.0650 O   0  0  0  0  0  0  0  0  0  0  0  0
   14.3263    7.6815    0.1438 C   0  0  2  0  0  0  0  0  0  0  0  0
   15.3491    7.2393    1.0324 O   0  0  0  0  0  0  0  0  0  0  0  0
   10.4276   11.9371    0.2480 C   0  0  1  0  0  0  0  0  0  0  0  0
   11.4290   12.6103   -0.5509 O   0  0  0  0  0  0  0  0  0  0  0  0
   14.5131    9.1726   -0.0831 C   0  0  0  0  0  0  0  0  0  0  0  0
   14.5156   13.9714   -3.6199 C   0  0  0  0  0  0  0  0  0  0  0  0
   11.3075   16.4561   -2.8337 C   0  0  0  0  0  0  0  0  0  0  0  0
  1  2  1  1  0  0  0
  1  6  1  0  0  0  0
  1 23  1  0  0  0  0
  3  4  1  1  0  0  0
  3  8  1  0  0  0  0
  3 30  1  0  0  0  0
  5  9  1  0  0  0  0
  5 27  1  0  0  0  0
  5 31  1  6  0  0  0
  6  7  1  1  0  0  0
  6 11  1  0  0  0  0
  8 13  1  0  0  0  0
  9 10  1  6  0  0  0
  9 15  1  0  0  0  0
 11 12  1  6  0  0  0
 11 17  1  0  0  0  0
 13 14  1  1  0  0  0
 13 19  1  0  0  0  0
 15 16  1  1  0  0  0
 15 20  1  0  0  0  0
 16 34  1  0  0  0  0
 17 18  1  1  0  0  0
 17 22  1  0  0  0  0
 19  2  1  6  0  0  0
 19 24  1  0  0  0  0
 20 21  1  1  0  0  0
 20 26  1  0  0  0  0
 20 33  1  0  0  0  0
 22 23  1  6  0  0  0
 22 28  1  0  0  0  0
 24 25  1  1  0  0  0
 24 30  1  0  0  0  0
 26 27  1  0  0  0  0
 28 29  1  1  0  0  0
 28 32  1  0  0  0  0
 30 31  1  6  0  0  0
M  END
>  <CHROM.1>
-152.08034786,58.01658393,-82.53497469,-55.42357414,151.85578323,-125.66962208
11.79854092,10.49629627,-0.01083535,1.70496133,-0.14767820,2.82612844

>  <Name>
ligand

>  <RI>
0

>  <Rbt.Current_Directory>
/home/itssahil/PROJECTS/Mol_Feturizer/New_Systems/rnas/3TD1

>  <Rbt.Executable>
rbdock ($Id: //depot/dev/client3/rdock/2013.1/src/exe/rbdock.cxx#4 $)

>  <Rbt.Library>
libRbt.so (2013.1, Build901 2013/11/27)

>  <Rbt.Parameter_File>
/export/apps/rDock/src/rDock_2013.1_src/data/scripts/dock_solv.prm

>  <Rbt.Receptor>
prm/blind_docking_40.prm

>  <SCORE>
12.4405

>  <SCORE.INTER>
5.16895

>  <SCORE.INTER.CONST>
1

>  <SCORE.INTER.POLAR>
0

>  <SCORE.INTER.ROT>
6

>  <SCORE.INTER.SOLV>
21.7577

>  <SCORE.INTER.VDW>
-11.4066

>  <SCORE.INTER.norm>
0.152028

>  <SCORE.INTRA>
-1.8299

>  <SCORE.INTRA.DIHEDRAL>
-5.61179

>  <SCORE.INTRA.DIHEDRAL.0>
19.5869

>  <SCORE.INTRA.POLAR>
0

>  <SCORE.INTRA.POLAR.0>
0

>  <SCORE.INTRA.REPUL>
0

>  <SCORE.INTRA.REPUL.0>
0

>  <SCORE.INTRA.SOLV>
0.30823

>  <SCORE.INTRA.SOLV.lig_0>
-70.101

>  <SCORE.INTRA.VDW>
0.82188

>  <SCORE.INTRA.VDW.0>
-3.39718

>  <SCORE.INTRA.norm>
-0.0538205

>  <SCORE.RESTR>
9.10145

>  <SCORE.RESTR.CAVITY>
9.10145

>  <SCORE.RESTR.norm>
0.26769

>  <SCORE.SYSTEM>
0

>  <SCORE.SYSTEM.CONST>
0

>  <SCORE.SYSTEM.DIHEDRAL>
0

>  <SCORE.SYSTEM.SOLV>
0

>  <SCORE.SYSTEM.norm>
0

>  <SCORE.heavy>
34

>  <SCORE.norm>
0.365897

>  <RMSD>
10.698

$$$$
ligand
 OpenBabel11021811483D
libRbt.so/2013.1/901 2013/11/27
 34 36  0  0  0  0  0  0  0  0999 V2000
    0.7845    7.4806    7.5390 C   0  0  2  0  0  0  0  0  0  0  0  0
    1.7517    6.5027    7.1255 O   0  0  0  0  0  0  0  0  0  0  0  0
    3.7376    3.1065    8.7940 C   0  0  2  0  0  0  0  0  0  0  0  0
    4.2163    2.1092    9.7449 N   0  0  0  0  0  0  0  0  0  0  0  0
    0.5156    1.1676    8.5761 C   0  0  2  0  0  0  0  0  0  0  0  0
   -0.5002    6.7176    8.0225 C   0  0  2  0  0  0  0  0  0  0  0  0
   -0.1977    5.8371    9.1616 N   0  0  0  0  0  0  0  0  0  0  0  0
    4.1374    4.5136    9.3508 C   0  0  0  0  0  0  0  0  0  0  0  0
    0.5061   -0.3343    8.1165 C   0  0  2  0  0  0  0  0  0  0  0  0
    1.5822   -1.0306    8.7232 O   0  0  0  0  0  0  0  0  0  0  0  0
   -1.0713    5.8866    6.8531 C   0  0  1  0  0  0  0  0  0  0  0  0
   -2.2521    5.1917    7.2864 O   0  0  0  0  0  0  0  0  0  0  0  0
    3.6443    5.5838    8.3191 C   0  0  2  0  0  0  0  0  0  0  0  0
    3.9886    6.9394    8.7939 N   0  0  0  0  0  0  0  0  0  0  0  0
    0.6156   -0.3817    6.5432 C   0  0  1  0  0  0  0  0  0  0  0  0
    0.6266   -1.7934    6.0552 N   0  0  0  0  0  0  0  0  0  0  0  0
   -1.3716    6.8342    5.6676 C   0  0  2  0  0  0  0  0  0  0  0  0
   -1.8948    6.0721    4.5658 O   0  0  0  0  0  0  0  0  0  0  0  0
    2.1096    5.4964    8.1197 C   0  0  2  0  0  0  0  0  0  0  0  0
   -0.5939    0.3995    5.9249 C   0  0  1  0  0  0  0  0  0  0  0  0
   -1.8147   -0.2272    6.3097 O   0  0  0  0  0  0  0  0  0  0  0  0
   -0.0516    7.5835    5.2424 C   0  0  2  0  0  0  0  0  0  0  0  0
    0.4849    8.3450    6.3872 O   0  0  0  0  0  0  0  0  0  0  0  0
    1.7355    4.0750    7.6301 C   0  0  2  0  0  0  0  0  0  0  0  0
    0.3218    4.0129    7.4718 O   0  0  0  0  0  0  0  0  0  0  0  0
   -0.5704    1.8643    6.4646 C   0  0  0  0  0  0  0  0  0  0  0  0
   -0.6049    1.8799    7.9468 O   0  0  0  0  0  0  0  0  0  0  0  0
   -0.2971    8.5699    4.0708 C   0  0  2  0  0  0  0  0  0  0  0  0
   -1.4408    9.3707    4.3567 O   0  0  0  0  0  0  0  0  0  0  0  0
    2.1636    2.9985    8.6545 C   0  0  1  0  0  0  0  0  0  0  0  0
    1.7787    1.7159    8.1057 O   0  0  0  0  0  0  0  0  0  0  0  0
   -0.5523    7.8349    2.7652 C   0  0  0  0  0  0  0  0  0  0  0  0
   -0.5446    0.4185    4.4021 C   0  0  0  0  0  0  0  0  0  0  0  0
   -0.5181   -2.5009    6.6604 C   0  0  0  0  0  0  0  0  0  0  0  0
  1  2  1  6  0  0  0
  1  6  1  0  0  0  0
  1 23  1  0  0  0  0
  3  4  1  1  0  0  0
  3  8  1  0  0  0  0
  3 30  1  0  0  0  0
  5  9  1  0  0  0  0
  5 27  1  0  0  0  0
  5 31  1  6  0  0  0
  6  7  1  1  0  0  0
  6 11  1  0  0  0  0
  8 13  1  0  0  0  0
  9 10  1  1  0  0  0
  9 15  1  0  0  0  0
 11 12  1  1  0  0  0
 11 17  1  0  0  0  0
 13 14  1  1  0  0  0
 13 19  1  0  0  0  0
 15 16  1  6  0  0  0
 15 20  1  0  0  0  0
 16 34  1  0  0  0  0
 17 18  1  6  0  0  0
 17 22  1  0  0  0  0
 19  2  1  6  0  0  0
 19 24  1  0  0  0  0
 20 21  1  1  0  0  0
 20 26  1  0  0  0  0
 20 33  1  0  0  0  0
 22 23  1  1  0  0  0
 22 28  1  0  0  0  0
 24 25  1  1  0  0  0
 24 30  1  0  0  0  0
 26 27  1  0  0  0  0
 28 29  1  1  0  0  0
 28 32  1  0  0  0  0
 30 31  1  6  0  0  0
M  END
>  <CHROM.1>
-55.87478162,-122.61820320,50.93022898,48.17601686,146.89742112,-166.70368282
0.55670979,3.88216756,7.02442306,-1.67852288,0.71011325,3.02292547

>  <Name>
ligand

>  <RI>
0

>  <Rbt.Current_Directory>
/home/itssahil/PROJECTS/Mol_Feturizer/New_Systems/rnas/3TD1

>  <Rbt.Executable>
rbdock ($Id: //depot/dev/client3/rdock/2013.1/src/exe/rbdock.cxx#4 $)

>  <Rbt.Library>
libRbt.so (2013.1, Build901 2013/11/27)

>  <Rbt.Parameter_File>
/export/apps/rDock/src/rDock_2013.1_src/data/scripts/dock_solv.prm

>  <Rbt.Receptor>
prm/blind_docking_80.prm

>  <SCORE>
27.6711

>  <SCORE.INTER>
1.92319

>  <SCORE.INTER.CONST>
1

>  <SCORE.INTER.POLAR>
0

>  <SCORE.INTER.ROT>
6

>  <SCORE.INTER.SOLV>
21.9573

>  <SCORE.INTER.VDW>
-13.637

>  <SCORE.INTER.norm>
0.0565644

>  <SCORE.INTRA>
13.0884

>  <SCORE.INTRA.DIHEDRAL>
-6.75683

>  <SCORE.INTRA.DIHEDRAL.0>
19.5869

>  <SCORE.INTRA.POLAR>
0

>  <SCORE.INTRA.POLAR.0>
0

>  <SCORE.INTRA.REPUL>
0

>  <SCORE.INTRA.REPUL.0>
0

>  <SCORE.INTRA.SOLV>
2.23491

>  <SCORE.INTRA.SOLV.lig_0>
-70.101

>  <SCORE.INTRA.VDW>
15.3493

>  <SCORE.INTRA.VDW.0>
-3.39718

>  <SCORE.INTRA.norm>
0.384952

>  <SCORE.RESTR>
12.6595

>  <SCORE.RESTR.CAVITY>
12.6595

>  <SCORE.RESTR.norm>
0.37234

>  <SCORE.SYSTEM>
0

>  <SCORE.SYSTEM.CONST>
0

>  <SCORE.SYSTEM.DIHEDRAL>
0

>  <SCORE.SYSTEM.SOLV>
0

>  <SCORE.SYSTEM.norm>
0

>  <SCORE.heavy>
34

>  <SCORE.norm>
0.813856

>  <RMSD>
10.717

$$$$
ligand
 OpenBabel11021811483D
libRbt.so/2013.1/901 2013/11/27
 34 36  0  0  0  0  0  0  0  0999 V2000
    6.8056    4.1627   10.0104 C   0  0  2  0  0  0  0  0  0  0  0  0
    5.5244    3.5540   10.2356 O   0  0  0  0  0  0  0  0  0  0  0  0
    1.6613    5.0140    9.1371 C   0  0  2  0  0  0  0  0  0  0  0  0
    0.5518    5.5470    8.3543 N   0  0  0  0  0  0  0  0  0  0  0  0
   -0.2296    2.8512    7.9675 C   0  0  2  0  0  0  0  0  0  0  0  0
    7.3793    3.6000    8.6610 C   0  0  2  0  0  0  0  0  0  0  0  0
    6.4940    3.9239    7.5316 N   0  0  0  0  0  0  0  0  0  0  0  0
    2.8721    5.9893    8.9569 C   0  0  0  0  0  0  0  0  0  0  0  0
   -1.3365    1.8944    8.5388 C   0  0  2  0  0  0  0  0  0  0  0  0
   -1.6396    2.2533    9.8768 O   0  0  0  0  0  0  0  0  0  0  0  0
    7.5462    2.0691    8.7758 C   0  0  1  0  0  0  0  0  0  0  0  0
    8.0784    1.5484    7.5469 O   0  0  0  0  0  0  0  0  0  0  0  0
    4.0566    5.4303    9.8156 C   0  0  2  0  0  0  0  0  0  0  0  0
    5.2364    6.3086    9.6814 N   0  0  0  0  0  0  0  0  0  0  0  0
   -0.8119    0.4086    8.4556 C   0  0  1  0  0  0  0  0  0  0  0  0
   -1.8252   -0.5424    9.0034 N   0  0  0  0  0  0  0  0  0  0  0  0
    8.4727    1.7568    9.9747 C   0  0  2  0  0  0  0  0  0  0  0  0
    8.6291    0.3327   10.1009 O   0  0  0  0  0  0  0  0  0  0  0  0
    4.4424    3.9987    9.3634 C   0  0  2  0  0  0  0  0  0  0  0  0
   -0.4932    0.0643    6.9605 C   0  0  1  0  0  0  0  0  0  0  0  0
   -1.6831    0.1652    6.1826 O   0  0  0  0  0  0  0  0  0  0  0  0
    7.8547    2.3626   11.2922 C   0  0  2  0  0  0  0  0  0  0  0  0
    7.6813    3.8205   11.1416 O   0  0  0  0  0  0  0  0  0  0  0  0
    3.2091    3.0698    9.4914 C   0  0  2  0  0  0  0  0  0  0  0  0
    3.5817    1.7670    9.0540 O   0  0  0  0  0  0  0  0  0  0  0  0
    0.5627    1.0834    6.4277 C   0  0  0  0  0  0  0  0  0  0  0  0
    0.0746    2.4752    6.5800 O   0  0  0  0  0  0  0  0  0  0  0  0
    8.7556    2.1023   12.5277 C   0  0  2  0  0  0  0  0  0  0  0  0
    8.1142    2.6052   13.6969 O   0  0  0  0  0  0  0  0  0  0  0  0
    2.0385    3.5680    8.6123 C   0  0  1  0  0  0  0  0  0  0  0  0
    0.9416    2.6439    8.8057 O   0  0  0  0  0  0  0  0  0  0  0  0
   10.1013    2.7958   12.3946 C   0  0  0  0  0  0  0  0  0  0  0  0
    0.0436   -1.3529    6.8015 C   0  0  0  0  0  0  0  0  0  0  0  0
   -1.3644   -0.9959   10.3296 C   0  0  0  0  0  0  0  0  0  0  0  0
  1  2  1  1  0  0  0
  1  6  1  0  0  0  0
  1 23  1  0  0  0  0
  3  4  1  6  0  0  0
  3  8  1  0  0  0  0
  3 30  1  0  0  0  0
  5  9  1  0  0  0  0
  5 27  1  0  0  0  0
  5 31  1  1  0  0  0
  6  7  1  6  0  0  0
  6 11  1  0  0  0  0
  8 13  1  0  0  0  0
  9 10  1  1  0  0  0
  9 15  1  0  0  0  0
 11 12  1  6  0  0  0
 11 17  1  0  0  0  0
 13 14  1  6  0  0  0
 13 19  1  0  0  0  0
 15 16  1  6  0  0  0
 15 20  1  0  0  0  0
 16 34  1  0  0  0  0
 17 18  1  1  0  0  0
 17 22  1  0  0  0  0
 19  2  1  1  0  0  0
 19 24  1  0  0  0  0
 20 21  1  6  0  0  0
 20 26  1  0  0  0  0
 20 33  1  0  0  0  0
 22 23  1  6  0  0  0
 22 28  1  0  0  0  0
 24 25  1  6  0  0  0
 24 30  1  0  0  0  0
 26 27  1  0  0  0  0
 28 29  1  1  0  0  0
 28 32  1  0  0  0  0
 30 31  1  1  0  0  0
M  END
>  <CHROM.1>
-71.66995324,-72.97956769,-105.32496302,-176.82163773,69.80047510,-170.63216215
3.57563589,2.50137714,9.19554217,0.19550893,-0.29479372,0.03326378

>  <Name>
ligand

>  <RI>
0

>  <Rbt.Current_Directory>
/home/itssahil/PROJECTS/Mol_Feturizer/New_Systems/rnas/3TD1

>  <Rbt.Executable>
rbdock ($Id: //depot/dev/client3/rdock/2013.1/src/exe/rbdock.cxx#4 $)

>  <Rbt.Library>
libRbt.so (2013.1, Build901 2013/11/27)

>  <Rbt.Parameter_File>
/export/apps/rDock/src/rDock_2013.1_src/data/scripts/dock_solv.prm

>  <Rbt.Receptor>
prm/pocket_docking_8.prm

>  <SCORE>
-16.2772

>  <SCORE.INTER>
-11.315

>  <SCORE.INTER.CONST>
1

>  <SCORE.INTER.POLAR>
0

>  <SCORE.INTER.ROT>
6

>  <SCORE.INTER.SOLV>
12.8035

>  <SCORE.INTER.VDW>
-19.4112

>  <SCORE.INTER.norm>
-0.332793

>  <SCORE.INTRA>
-4.96222

>  <SCORE.INTRA.DIHEDRAL>
-16.1111

>  <SCORE.INTRA.DIHEDRAL.0>
19.5869

>  <SCORE.INTRA.POLAR>
0

>  <SCORE.INTRA.POLAR.0>
0

>  <SCORE.INTRA.REPUL>
0

>  <SCORE.INTRA.REPUL.0>
0

>  <SCORE.INTRA.SOLV>
2.11005

>  <SCORE.INTRA.SOLV.lig_0>
-70.101

>  <SCORE.INTRA.VDW>
2.03829

>  <SCORE.INTRA.VDW.0>
-3.39718

>  <SCORE.INTRA.norm>
-0.145948

>  <SCORE.RESTR>
0

>  <SCORE.RESTR.CAVITY>
0

>  <SCORE.RESTR.norm>
0

>  <SCORE.SYSTEM>
0

>  <SCORE.SYSTEM.CONST>
0

>  <SCORE.SYSTEM.DIHEDRAL>
0

>  <SCORE.SYSTEM.SOLV>
0

>  <SCORE.SYSTEM.norm>
0

>  <SCORE.heavy>
34

>  <SCORE.norm>
-0.47874

>  <RMSD>
10.810

$$$$
ligand
 OpenBabel11021811483D
libRbt.so/2013.1/901 2013/11/27
 34 36  0  0  0  0  0  0  0  0999 V2000
   13.5161    4.9054    1.9641 C   0  0  2  0  0  0  0  0  0  0  0  0
   12.6398    4.4426    3.0036 O   0  0  0  0  0  0  0  0  0  0  0  0
   14.4885    1.1028    4.9244 C   0  0  2  0  0  0  0  0  0  0  0  0
   14.7199   -0.2325    5.4644 N   0  0  0  0  0  0  0  0  0  0  0  0
   16.2332   -0.5904    3.3722 C   0  0  2  0  0  0  0  0  0  0  0  0
   13.8826    6.4018    2.2694 C   0  0  2  0  0  0  0  0  0  0  0  0
   14.5724    6.5261    3.5629 N   0  0  0  0  0  0  0  0  0  0  0  0
   13.1502    1.6311    5.5404 C   0  0  0  0  0  0  0  0  0  0  0  0
   17.3734   -1.0370    2.3885 C   0  0  2  0  0  0  0  0  0  0  0  0
   18.3345   -0.0019    2.2634 O   0  0  0  0  0  0  0  0  0  0  0  0
   12.5937    7.2521    2.2772 C   0  0  1  0  0  0  0  0  0  0  0  0
   12.9227    8.6244    2.5483 O   0  0  0  0  0  0  0  0  0  0  0  0
   12.9130    3.0740    4.9793 C   0  0  2  0  0  0  0  0  0  0  0  0
   11.6554    3.6267    5.5221 N   0  0  0  0  0  0  0  0  0  0  0  0
   16.7279   -1.3831    0.9910 C   0  0  1  0  0  0  0  0  0  0  0  0
   17.7763   -1.7998    0.0119 N   0  0  0  0  0  0  0  0  0  0  0  0
   11.8849    7.0961    0.9109 C   0  0  2  0  0  0  0  0  0  0  0  0
   10.6757    7.8749    0.9070 O   0  0  0  0  0  0  0  0  0  0  0  0
   12.8286    3.0604    3.4316 C   0  0  2  0  0  0  0  0  0  0  0  0
   15.6770   -2.5291    1.1854 C   0  0  1  0  0  0  0  0  0  0  0  0
   16.3283   -3.6958    1.6811 O   0  0  0  0  0  0  0  0  0  0  0  0
   11.5619    5.5749    0.6537 C   0  0  2  0  0  0  0  0  0  0  0  0
   12.8084    4.7852    0.6802 O   0  0  0  0  0  0  0  0  0  0  0  0
   14.1396    2.4738    2.8509 C   0  0  2  0  0  0  0  0  0  0  0  0
   14.0320    2.4543    1.4313 O   0  0  0  0  0  0  0  0  0  0  0  0
   14.6063   -2.0547    2.2177 C   0  0  0  0  0  0  0  0  0  0  0  0
   15.2449   -1.6703    3.4995 O   0  0  0  0  0  0  0  0  0  0  0  0
   10.8713    5.3530   -0.7174 C   0  0  2  0  0  0  0  0  0  0  0  0
   11.4713    6.2008   -1.6933 O   0  0  0  0  0  0  0  0  0  0  0  0
   14.3746    1.0279    3.3464 C   0  0  1  0  0  0  0  0  0  0  0  0
   15.6170    0.5760    2.7579 O   0  0  0  0  0  0  0  0  0  0  0  0
    9.3888    5.6820   -0.6566 C   0  0  0  0  0  0  0  0  0  0  0  0
   14.9906   -2.9039   -0.1224 C   0  0  0  0  0  0  0  0  0  0  0  0
   18.0113   -0.6795   -0.9190 C   0  0  0  0  0  0  0  0  0  0  0  0
  1  2  1  1  0  0  0
  1  6  1  0  0  0  0
  1 23  1  0  0  0  0
  3  4  1  1  0  0  0
  3  8  1  0  0  0  0
  3 30  1  0  0  0  0
  5  9  1  0  0  0  0
  5 27  1  0  0  0  0
  5 31  1  6  0  0  0
  6  7  1  1  0  0  0
  6 11  1  0  0  0  0
  8 13  1  0  0  0  0
  9 10  1  6  0  0  0
  9 15  1  0  0  0  0
 11 12  1  6  0  0  0
 11 17  1  0  0  0  0
 13 14  1  1  0  0  0
 13 19  1  0  0  0  0
 15 16  1  6  0  0  0
 15 20  1  0  0  0  0
 16 34  1  0  0  0  0
 17 18  1  1  0  0  0
 17 22  1  0  0  0  0
 19  2  1  6  0  0  0
 19 24  1  0  0  0  0
 20 21  1  1  0  0  0
 20 26  1  0  0  0  0
 20 33  1  0  0  0  0
 22 23  1  6  0  0  0
 22 28  1  0  0  0  0
 24 25  1  6  0  0  0
 24 30  1  0  0  0  0
 26 27  1  0  0  0  0
 28 29  1  6  0  0  0
 28 32  1  0  0  0  0
 30 31  1  6  0  0  0
M  END
>  <CHROM.1>
-142.68784960,130.54540355,-104.07761847,39.71278564,46.96337622,168.79079436
14.05782952,2.39793684,2.09476982,3.05436573,1.06710419,-1.54069095

>  <Name>
ligand

>  <RI>
0

>  <Rbt.Current_Directory>
/home/itssahil/PROJECTS/Mol_Feturizer/New_Systems/rnas/3TD1

>  <Rbt.Executable>
rbdock ($Id: //depot/dev/client3/rdock/2013.1/src/exe/rbdock.cxx#4 $)

>  <Rbt.Library>
libRbt.so (2013.1, Build901 2013/11/27)

>  <Rbt.Parameter_File>
/export/apps/rDock/src/rDock_2013.1_src/data/scripts/dock_solv.prm

>  <Rbt.Receptor>
prm/blind_docking_20.prm

>  <SCORE>
9.33569

>  <SCORE.INTER>
-5.87083

>  <SCORE.INTER.CONST>
1

>  <SCORE.INTER.POLAR>
0

>  <SCORE.INTER.ROT>
6

>  <SCORE.INTER.SOLV>
13.64

>  <SCORE.INTER.VDW>
-16.0606

>  <SCORE.INTER.norm>
-0.172671

>  <SCORE.INTRA>
4.66731

>  <SCORE.INTRA.DIHEDRAL>
-4.14303

>  <SCORE.INTRA.DIHEDRAL.0>
19.5869

>  <SCORE.INTRA.POLAR>
0

>  <SCORE.INTRA.POLAR.0>
0

>  <SCORE.INTRA.REPUL>
0

>  <SCORE.INTRA.REPUL.0>
0

>  <SCORE.INTRA.SOLV>
-0.127351

>  <SCORE.INTRA.SOLV.lig_0>
-70.101

>  <SCORE.INTRA.VDW>
6.8025

>  <SCORE.INTRA.VDW.0>
-3.39718

>  <SCORE.INTRA.norm>
0.137274

>  <SCORE.RESTR>
10.5392

>  <SCORE.RESTR.CAVITY>
10.5392

>  <SCORE.RESTR.norm>
0.309977

>  <SCORE.SYSTEM>
0

>  <SCORE.SYSTEM.CONST>
0

>  <SCORE.SYSTEM.DIHEDRAL>
0

>  <SCORE.SYSTEM.SOLV>
0

>  <SCORE.SYSTEM.norm>
0

>  <SCORE.heavy>
34

>  <SCORE.norm>
0.274579

>  <RMSD>
10.889

$$$$
ligand
 OpenBabel11021811483D
libRbt.so/2013.1/901 2013/11/27
 34 36  0  0  0  0  0  0  0  0999 V2000
   13.4719    4.3188    1.7451 C   0  0  2  0  0  0  0  0  0  0  0  0
   13.2064    3.9894    3.1175 O   0  0  0  0  0  0  0  0  0  0  0  0
   14.9348    0.4494    4.7737 C   0  0  2  0  0  0  0  0  0  0  0  0
   15.1068   -0.9223    5.2394 N   0  0  0  0  0  0  0  0  0  0  0  0
   15.8262   -0.0939    1.0691 C   0  0  2  0  0  0  0  0  0  0  0  0
   14.2350    5.6911    1.7147 C   0  0  2  0  0  0  0  0  0  0  0  0
   15.5129    5.6043    2.4384 N   0  0  0  0  0  0  0  0  0  0  0  0
   13.6727    1.0327    5.4926 C   0  0  0  0  0  0  0  0  0  0  0  0
   14.9368   -1.3431    0.7294 C   0  0  2  0  0  0  0  0  0  0  0  0
   13.6354   -1.1678    1.2645 O   0  0  0  0  0  0  0  0  0  0  0  0
   13.3461    6.7841    2.3470 C   0  0  1  0  0  0  0  0  0  0  0  0
   14.0352    8.0446    2.3153 O   0  0  0  0  0  0  0  0  0  0  0  0
   13.5008    2.5130    5.0109 C   0  0  2  0  0  0  0  0  0  0  0  0
   12.3166    3.1189    5.6529 N   0  0  0  0  0  0  0  0  0  0  0  0
   15.6260   -2.6311    1.3258 C   0  0  1  0  0  0  0  0  0  0  0  0
   14.8084   -3.8487    1.0424 N   0  0  0  0  0  0  0  0  0  0  0  0
   12.0076    6.8477    1.5737 C   0  0  2  0  0  0  0  0  0  0  0  0
   11.1640    7.8551    2.1586 O   0  0  0  0  0  0  0  0  0  0  0  0
   13.3265    2.5791    3.4721 C   0  0  2  0  0  0  0  0  0  0  0  0
   17.0564   -2.7777    0.7030 C   0  0  1  0  0  0  0  0  0  0  0  0
   16.9489   -2.9383   -0.7090 O   0  0  0  0  0  0  0  0  0  0  0  0
   11.3010    5.4396    1.6235 C   0  0  2  0  0  0  0  0  0  0  0  0
   12.1851    4.4128    1.0387 O   0  0  0  0  0  0  0  0  0  0  0  0
   14.5594    1.9378    2.7876 C   0  0  2  0  0  0  0  0  0  0  0  0
   14.3689    1.9932    1.3776 O   0  0  0  0  0  0  0  0  0  0  0  0
   17.8725   -1.4844    1.0172 C   0  0  0  0  0  0  0  0  0  0  0  0
   17.1707   -0.2821    0.5070 O   0  0  0  0  0  0  0  0  0  0  0  0
    9.9619    5.4354    0.8407 C   0  0  2  0  0  0  0  0  0  0  0  0
   10.1757    5.9583   -0.4678 O   0  0  0  0  0  0  0  0  0  0  0  0
   14.7251    0.4577    3.2038 C   0  0  1  0  0  0  0  0  0  0  0  0
   15.8983   -0.0446    2.5216 O   0  0  0  0  0  0  0  0  0  0  0  0
    8.9116    6.2950    1.5246 C   0  0  0  0  0  0  0  0  0  0  0  0
   17.7973   -3.9913    1.2506 C   0  0  0  0  0  0  0  0  0  0  0  0
   13.7779   -3.9684    2.0915 C   0  0  0  0  0  0  0  0  0  0  0  0
  1  2  1  1  0  0  0
  1  6  1  0  0  0  0
  1 23  1  0  0  0  0
  3  4  1  1  0  0  0
  3  8  1  0  0  0  0
  3 30  1  0  0  0  0
  5  9  1  0  0  0  0
  5 27  1  0  0  0  0
  5 31  1  1  0  0  0
  6  7  1  1  0  0  0
  6 11  1  0  0  0  0
  8 13  1  0  0  0  0
  9 10  1  1  0  0  0
  9 15  1  0  0  0  0
 11 12  1  6  0  0  0
 11 17  1  0  0  0  0
 13 14  1  1  0  0  0
 13 19  1  0  0  0  0
 15 16  1  6  0  0  0
 15 20  1  0  0  0  0
 16 34  1  0  0  0  0
 17 18  1  1  0  0  0
 17 22  1  0  0  0  0
 19  2  1  6  0  0  0
 19 24  1  0  0  0  0
 20 21  1  6  0  0  0
 20 26  1  0  0  0  0
 20 33  1  0  0  0  0
 22 23  1  6  0  0  0
 22 28  1  0  0  0  0
 24 25  1  6  0  0  0
 24 30  1  0  0  0  0
 26 27  1  0  0  0  0
 28 29  1  6  0  0  0
 28 32  1  0  0  0  0
 30 31  1  6  0  0  0
M  END
>  <CHROM.1>
-142.03765497,160.39453070,-84.75079075,51.18189170,179.66926451,-76.54703473
14.02799407,1.93499134,2.07598664,3.10967161,-1.11328666,1.58776279

>  <Name>
ligand

>  <RI>
0

>  <Rbt.Current_Directory>
/home/itssahil/PROJECTS/Mol_Feturizer/New_Systems/rnas/3TD1

>  <Rbt.Executable>
rbdock ($Id: //depot/dev/client3/rdock/2013.1/src/exe/rbdock.cxx#4 $)

>  <Rbt.Library>
libRbt.so (2013.1, Build901 2013/11/27)

>  <Rbt.Parameter_File>
/export/apps/rDock/src/rDock_2013.1_src/data/scripts/dock_solv.prm

>  <Rbt.Receptor>
prm/blind_docking_20.prm

>  <SCORE>
2.13554

>  <SCORE.INTER>
-6.49329

>  <SCORE.INTER.CONST>
1

>  <SCORE.INTER.POLAR>
0

>  <SCORE.INTER.ROT>
6

>  <SCORE.INTER.SOLV>
19.1078

>  <SCORE.INTER.VDW>
-18.2981

>  <SCORE.INTER.norm>
-0.190979

>  <SCORE.INTRA>
0.170218

>  <SCORE.INTRA.DIHEDRAL>
-10.7447

>  <SCORE.INTRA.DIHEDRAL.0>
19.5869

>  <SCORE.INTRA.POLAR>
0

>  <SCORE.INTRA.POLAR.0>
0

>  <SCORE.INTRA.REPUL>
0

>  <SCORE.INTRA.REPUL.0>
0

>  <SCORE.INTRA.SOLV>
-1.87937

>  <SCORE.INTRA.SOLV.lig_0>
-70.101

>  <SCORE.INTRA.VDW>
6.48225

>  <SCORE.INTRA.VDW.0>
-3.39718

>  <SCORE.INTRA.norm>
0.00500641

>  <SCORE.RESTR>
8.4586

>  <SCORE.RESTR.CAVITY>
8.4586

>  <SCORE.RESTR.norm>
0.248782

>  <SCORE.SYSTEM>
0

>  <SCORE.SYSTEM.CONST>
0

>  <SCORE.SYSTEM.DIHEDRAL>
0

>  <SCORE.SYSTEM.SOLV>
0

>  <SCORE.SYSTEM.norm>
0

>  <SCORE.heavy>
34

>  <SCORE.norm>
0.0628099

>  <RMSD>
11.165

$$$$
ligand
 OpenBabel11021811483D
libRbt.so/2013.1/901 2013/11/27
 34 36  0  0  0  0  0  0  0  0999 V2000
   16.1085    0.1158    1.9309 C   0  0  2  0  0  0  0  0  0  0  0  0
   14.7509    0.5830    1.9618 O   0  0  0  0  0  0  0  0  0  0  0  0
   12.4887    3.2211    4.4487 C   0  0  2  0  0  0  0  0  0  0  0  0
   12.1392    4.2709    5.3994 N   0  0  0  0  0  0  0  0  0  0  0  0
   12.7678    5.6476    1.4998 C   0  0  2  0  0  0  0  0  0  0  0  0
   16.2948   -0.7471    0.6319 C   0  0  2  0  0  0  0  0  0  0  0  0
   16.0394    0.0514   -0.5770 N   0  0  0  0  0  0  0  0  0  0  0  0
   13.5074    2.2679    5.1580 C   0  0  0  0  0  0  0  0  0  0  0  0
   12.2588    7.0717    1.9242 C   0  0  2  0  0  0  0  0  0  0  0  0
   12.7410    7.3894    3.2193 O   0  0  0  0  0  0  0  0  0  0  0  0
   15.3326   -1.9539    0.6777 C   0  0  1  0  0  0  0  0  0  0  0  0
   15.5034   -2.7523   -0.5046 O   0  0  0  0  0  0  0  0  0  0  0  0
   13.8655    1.1274    4.1461 C   0  0  2  0  0  0  0  0  0  0  0  0
   14.8329    0.1942    4.7582 N   0  0  0  0  0  0  0  0  0  0  0  0
   10.6814    7.0751    1.8901 C   0  0  1  0  0  0  0  0  0  0  0  0
   10.1455    8.4071    2.3024 N   0  0  0  0  0  0  0  0  0  0  0  0
   15.6165   -2.7697    1.9612 C   0  0  2  0  0  0  0  0  0  0  0  0
   14.7196   -3.8924    2.0233 O   0  0  0  0  0  0  0  0  0  0  0  0
   14.4820    1.7101    2.8487 C   0  0  2  0  0  0  0  0  0  0  0  0
   10.2027    6.7196    0.4410 C   0  0  1  0  0  0  0  0  0  0  0  0
   10.6742    7.7056   -0.4736 O   0  0  0  0  0  0  0  0  0  0  0  0
   15.4329   -1.8467    3.2257 C   0  0  2  0  0  0  0  0  0  0  0  0
   16.3443   -0.6891    3.1393 O   0  0  0  0  0  0  0  0  0  0  0  0
   13.4790    2.6980    2.2022 C   0  0  2  0  0  0  0  0  0  0  0  0
   14.0731    3.2336    1.0243 O   0  0  0  0  0  0  0  0  0  0  0  0
   10.7888    5.3266    0.0494 C   0  0  0  0  0  0  0  0  0  0  0  0
   12.2677    5.3289    0.1555 O   0  0  0  0  0  0  0  0  0  0  0  0
   15.7301   -2.6058    4.5453 C   0  0  2  0  0  0  0  0  0  0  0  0
   16.0614   -3.9600    4.2491 O   0  0  0  0  0  0  0  0  0  0  0  0
   13.1460    3.8658    3.1598 C   0  0  1  0  0  0  0  0  0  0  0  0
   12.2044    4.7220    2.4710 O   0  0  0  0  0  0  0  0  0  0  0  0
   14.5258   -2.6085    5.4723 C   0  0  0  0  0  0  0  0  0  0  0  0
    8.6832    6.6796    0.3339 C   0  0  0  0  0  0  0  0  0  0  0  0
    8.9245    8.1874    3.1010 C   0  0  0  0  0  0  0  0  0  0  0  0
  1  2  1  1  0  0  0
  1  6  1  0  0  0  0
  1 23  1  0  0  0  0
  3  4  1  1  0  0  0
  3  8  1  0  0  0  0
  3 30  1  0  0  0  0
  5  9  1  0  0  0  0
  5 27  1  0  0  0  0
  5 31  1  1  0  0  0
  6  7  1  6  0  0  0
  6 11  1  0  0  0  0
  8 13  1  0  0  0  0
  9 10  1  1  0  0  0
  9 15  1  0  0  0  0
 11 12  1  6  0  0  0
 11 17  1  0  0  0  0
 13 14  1  1  0  0  0
 13 19  1  0  0  0  0
 15 16  1  6  0  0  0
 15 20  1  0  0  0  0
 16 34  1  0  0  0  0
 17 18  1  1  0  0  0
 17 22  1  0  0  0  0
 19  2  1  6  0  0  0
 19 24  1  0  0  0  0
 20 21  1  6  0  0  0
 20 26  1  0  0  0  0
 20 33  1  0  0  0  0
 22 23  1  6  0  0  0
 22 28  1  0  0  0  0
 24 25  1  6  0  0  0
 24 30  1  0  0  0  0
 26 27  1  0  0  0  0
 28 29  1  6  0  0  0
 28 32  1  0  0  0  0
 30 31  1  6  0  0  0
M  END
>  <CHROM.1>
-162.12672773,-99.62725559,-142.47446059,-1.41748016,163.82787470,-125.29902887
13.43252356,2.33650827,2.29969920,-0.19534796,1.07952994,-1.46251279

>  <Name>
ligand

>  <RI>
0

>  <Rbt.Current_Directory>
/home/itssahil/PROJECTS/Mol_Feturizer/New_Systems/rnas/3TD1

>  <Rbt.Executable>
rbdock ($Id: //depot/dev/client3/rdock/2013.1/src/exe/rbdock.cxx#4 $)

>  <Rbt.Library>
libRbt.so (2013.1, Build901 2013/11/27)

>  <Rbt.Parameter_File>
/export/apps/rDock/src/rDock_2013.1_src/data/scripts/dock_solv.prm

>  <Rbt.Receptor>
prm/blind_docking_20.prm

>  <SCORE>
10.9217

>  <SCORE.INTER>
-4.25577

>  <SCORE.INTER.CONST>
1

>  <SCORE.INTER.POLAR>
0

>  <SCORE.INTER.ROT>
6

>  <SCORE.INTER.SOLV>
16.5715

>  <SCORE.INTER.VDW>
-15.961

>  <SCORE.INTER.norm>
-0.12517

>  <SCORE.INTRA>
6.03289

>  <SCORE.INTRA.DIHEDRAL>
1.73661

>  <SCORE.INTRA.DIHEDRAL.0>
19.5869

>  <SCORE.INTRA.POLAR>
0

>  <SCORE.INTRA.POLAR.0>
0

>  <SCORE.INTRA.REPUL>
0

>  <SCORE.INTRA.REPUL.0>
0

>  <SCORE.INTRA.SOLV>
1.85744

>  <SCORE.INTRA.SOLV.lig_0>
-70.101

>  <SCORE.INTRA.VDW>
4.23586

>  <SCORE.INTRA.VDW.0>
-3.39718

>  <SCORE.INTRA.norm>
0.177438

>  <SCORE.RESTR>
9.14454

>  <SCORE.RESTR.CAVITY>
9.14454

>  <SCORE.RESTR.norm>
0.268957

>  <SCORE.SYSTEM>
0

>  <SCORE.SYSTEM.CONST>
0

>  <SCORE.SYSTEM.DIHEDRAL>
0

>  <SCORE.SYSTEM.SOLV>
0

>  <SCORE.SYSTEM.norm>
0

>  <SCORE.heavy>
34

>  <SCORE.norm>
0.321225

>  <RMSD>
11.257

$$$$
ligand
 OpenBabel11021811483D
libRbt.so/2013.1/901 2013/11/27
 34 36  0  0  0  0  0  0  0  0999 V2000
   -1.0964   -0.2097    5.1440 C   0  0  2  0  0  0  0  0  0  0  0  0
    0.3072   -0.0441    5.3990 O   0  0  0  0  0  0  0  0  0  0  0  0
   -0.1662    2.7651    8.5843 C   0  0  2  0  0  0  0  0  0  0  0  0
    0.1257    3.7636    9.6070 N   0  0  0  0  0  0  0  0  0  0  0  0
   -0.4341    5.7500    7.5126 C   0  0  2  0  0  0  0  0  0  0  0  0
   -1.5650   -1.5314    5.8511 C   0  0  2  0  0  0  0  0  0  0  0  0
   -1.3512   -1.4602    7.3049 N   0  0  0  0  0  0  0  0  0  0  0  0
    0.7728    1.5403    8.8448 C   0  0  0  0  0  0  0  0  0  0  0  0
   -0.7301    6.8586    6.4399 C   0  0  2  0  0  0  0  0  0  0  0  0
   -2.1081    6.8498    6.1056 O   0  0  0  0  0  0  0  0  0  0  0  0
   -0.7870   -2.7288    5.2634 C   0  0  1  0  0  0  0  0  0  0  0  0
   -1.2166   -3.9429    5.9006 O   0  0  0  0  0  0  0  0  0  0  0  0
    0.4439    0.4583    7.7613 C   0  0  2  0  0  0  0  0  0  0  0  0
    1.3063   -0.7256    7.9515 N   0  0  0  0  0  0  0  0  0  0  0  0
    0.1632    6.5829    5.1689 C   0  0  1  0  0  0  0  0  0  0  0  0
   -0.0933    7.6042    4.1094 N   0  0  0  0  0  0  0  0  0  0  0  0
   -1.0218   -2.7744    3.7349 C   0  0  2  0  0  0  0  0  0  0  0  0
   -0.2939   -3.8795    3.1713 O   0  0  0  0  0  0  0  0  0  0  0  0
    0.6672    1.0177    6.3330 C   0  0  2  0  0  0  0  0  0  0  0  0
    1.6718    6.6040    5.5926 C   0  0  1  0  0  0  0  0  0  0  0  0
    2.0060    7.8905    6.1065 O   0  0  0  0  0  0  0  0  0  0  0  0
   -0.5515   -1.4166    3.0871 C   0  0  2  0  0  0  0  0  0  0  0  0
   -1.2917   -0.2902    3.6883 O   0  0  0  0  0  0  0  0  0  0  0  0
   -0.2262    2.2662    6.1249 C   0  0  2  0  0  0  0  0  0  0  0  0
    0.0090    2.7726    4.8151 O   0  0  0  0  0  0  0  0  0  0  0  0
    1.8935    5.5285    6.7024 C   0  0  0  0  0  0  0  0  0  0  0  0
    0.9943    5.7697    7.8563 O   0  0  0  0  0  0  0  0  0  0  0  0
   -0.7868   -1.3939    1.5541 C   0  0  2  0  0  0  0  0  0  0  0  0
   -1.8782   -2.2508    1.2290 O   0  0  0  0  0  0  0  0  0  0  0  0
    0.1120    3.3745    7.1490 C   0  0  1  0  0  0  0  0  0  0  0  0
   -0.7740    4.4859    6.8772 O   0  0  0  0  0  0  0  0  0  0  0  0
    0.4356   -1.8805    0.7935 C   0  0  0  0  0  0  0  0  0  0  0  0
    2.6001    6.3206    4.4180 C   0  0  0  0  0  0  0  0  0  0  0  0
   -1.1293    7.0774    3.2004 C   0  0  0  0  0  0  0  0  0  0  0  0
  1  2  1  6  0  0  0
  1  6  1  0  0  0  0
  1 23  1  0  0  0  0
  3  4  1  1  0  0  0
  3  8  1  0  0  0  0
  3 30  1  0  0  0  0
  5  9  1  0  0  0  0
  5 27  1  0  0  0  0
  5 31  1  6  0  0  0
  6  7  1  1  0  0  0
  6 11  1  0  0  0  0
  8 13  1  0  0  0  0
  9 10  1  6  0  0  0
  9 15  1  0  0  0  0
 11 12  1  1  0  0  0
 11 17  1  0  0  0  0
 13 14  1  1  0  0  0
 13 19  1  0  0  0  0
 15 16  1  6  0  0  0
 15 20  1  0  0  0  0
 16 34  1  0  0  0  0
 17 18  1  6  0  0  0
 17 22  1  0  0  0  0
 19  2  1  6  0  0  0
 19 24  1  0  0  0  0
 20 21  1  1  0  0  0
 20 26  1  0  0  0  0
 20 33  1  0  0  0  0
 22 23  1  1  0  0  0
 22 28  1  0  0  0  0
 24 25  1  6  0  0  0
 24 30  1  0  0  0  0
 26 27  1  0  0  0  0
 28 29  1  1  0  0  0
 28 32  1  0  0  0  0
 30 31  1  6  0  0  0
M  END
>  <CHROM.1>
-107.87664132,80.17769116,-93.22767668,27.34702710,77.66957140,140.46861473
-0.12370530,2.08005626,5.53021129,-2.59997145,-1.41898373,-0.77351321

>  <Name>
ligand

>  <RI>
0

>  <Rbt.Current_Directory>
/home/itssahil/PROJECTS/Mol_Feturizer/New_Systems/rnas/3TD1

>  <Rbt.Executable>
rbdock ($Id: //depot/dev/client3/rdock/2013.1/src/exe/rbdock.cxx#4 $)

>  <Rbt.Library>
libRbt.so (2013.1, Build901 2013/11/27)

>  <Rbt.Parameter_File>
/export/apps/rDock/src/rDock_2013.1_src/data/scripts/dock_solv.prm

>  <Rbt.Receptor>
prm/blind_docking_80.prm

>  <SCORE>
15.6092

>  <SCORE.INTER>
-0.110905

>  <SCORE.INTER.CONST>
1

>  <SCORE.INTER.POLAR>
0

>  <SCORE.INTER.ROT>
6

>  <SCORE.INTER.SOLV>
19.0778

>  <SCORE.INTER.VDW>
-14.0332

>  <SCORE.INTER.norm>
-0.0032619

>  <SCORE.INTRA>
5.48136

>  <SCORE.INTRA.DIHEDRAL>
-0.71933

>  <SCORE.INTRA.DIHEDRAL.0>
19.5869

>  <SCORE.INTRA.POLAR>
0

>  <SCORE.INTRA.POLAR.0>
0

>  <SCORE.INTRA.REPUL>
0

>  <SCORE.INTRA.REPUL.0>
0

>  <SCORE.INTRA.SOLV>
3.95678

>  <SCORE.INTRA.SOLV.lig_0>
-70.101

>  <SCORE.INTRA.VDW>
3.86263

>  <SCORE.INTRA.VDW.0>
-3.39718

>  <SCORE.INTRA.norm>
0.161217

>  <SCORE.RESTR>
10.2387

>  <SCORE.RESTR.CAVITY>
10.2387

>  <SCORE.RESTR.norm>
0.301139

>  <SCORE.SYSTEM>
0

>  <SCORE.SYSTEM.CONST>
0

>  <SCORE.SYSTEM.DIHEDRAL>
0

>  <SCORE.SYSTEM.SOLV>
0

>  <SCORE.SYSTEM.norm>
0

>  <SCORE.heavy>
34

>  <SCORE.norm>
0.459094

>  <RMSD>
11.325

$$$$
ligand
 OpenBabel11021811483D
libRbt.so/2013.1/901 2013/11/27
 34 36  0  0  0  0  0  0  0  0999 V2000
    1.2398    7.1240    5.8022 C   0  0  2  0  0  0  0  0  0  0  0  0
    0.4754    6.8812    6.9936 O   0  0  0  0  0  0  0  0  0  0  0  0
    2.8289    3.5332    8.2238 C   0  0  2  0  0  0  0  0  0  0  0  0
    3.4370    2.4935    9.0468 N   0  0  0  0  0  0  0  0  0  0  0  0
    0.3302    1.0183    8.2728 C   0  0  2  0  0  0  0  0  0  0  0  0
    0.6160    8.3659    5.0707 C   0  0  2  0  0  0  0  0  0  0  0  0
    0.6683    9.5649    5.9215 N   0  0  0  0  0  0  0  0  0  0  0  0
    3.1269    4.9076    8.9107 C   0  0  0  0  0  0  0  0  0  0  0  0
    0.2294   -0.2500    7.3517 C   0  0  2  0  0  0  0  0  0  0  0  0
    1.5287   -0.6810    6.9815 O   0  0  0  0  0  0  0  0  0  0  0  0
   -0.8481    8.0536    4.6921 C   0  0  1  0  0  0  0  0  0  0  0  0
   -1.4228    9.1832    4.0150 O   0  0  0  0  0  0  0  0  0  0  0  0
    2.4944    6.0263    8.0155 C   0  0  2  0  0  0  0  0  0  0  0  0
    2.7379    7.3529    8.6174 N   0  0  0  0  0  0  0  0  0  0  0  0
   -0.6298    0.1163    6.0800 C   0  0  1  0  0  0  0  0  0  0  0  0
   -0.7427   -1.0560    5.1613 N   0  0  0  0  0  0  0  0  0  0  0  0
   -0.8747    6.7853    3.8064 C   0  0  2  0  0  0  0  0  0  0  0  0
   -2.2343    6.4755    3.4543 O   0  0  0  0  0  0  0  0  0  0  0  0
    0.9661    5.8170    7.8631 C   0  0  2  0  0  0  0  0  0  0  0  0
   -2.0516    0.5844    6.5439 C   0  0  1  0  0  0  0  0  0  0  0  0
   -2.7026   -0.4782    7.2355 O   0  0  0  0  0  0  0  0  0  0  0  0
   -0.2191    5.5824    4.5860 C   0  0  2  0  0  0  0  0  0  0  0  0
    1.1682    5.9214    4.9583 O   0  0  0  0  0  0  0  0  0  0  0  0
    0.6980    4.4239    7.2406 C   0  0  2  0  0  0  0  0  0  0  0  0
   -0.7103    4.2468    7.1273 O   0  0  0  0  0  0  0  0  0  0  0  0
   -1.8868    1.8042    7.5042 C   0  0  0  0  0  0  0  0  0  0  0  0
   -1.0198    1.4548    8.6551 O   0  0  0  0  0  0  0  0  0  0  0  0
   -0.1943    4.2856    3.7354 C   0  0  2  0  0  0  0  0  0  0  0  0
   -1.2645    4.3148    2.7946 O   0  0  0  0  0  0  0  0  0  0  0  0
    1.2661    3.2937    8.1301 C   0  0  1  0  0  0  0  0  0  0  0  0
    0.9723    2.0431    7.4637 O   0  0  0  0  0  0  0  0  0  0  0  0
   -0.3618    3.0467    4.5996 C   0  0  0  0  0  0  0  0  0  0  0  0
   -2.9359    0.9798    5.3677 C   0  0  0  0  0  0  0  0  0  0  0  0
   -0.6846   -0.5622    3.7721 C   0  0  0  0  0  0  0  0  0  0  0  0
  1  2  1  1  0  0  0
  1  6  1  0  0  0  0
  1 23  1  0  0  0  0
  3  4  1  1  0  0  0
  3  8  1  0  0  0  0
  3 30  1  0  0  0  0
  5  9  1  0  0  0  0
  5 27  1  0  0  0  0
  5 31  1  6  0  0  0
  6  7  1  1  0  0  0
  6 11  1  0  0  0  0
  8 13  1  0  0  0  0
  9 10  1  6  0  0  0
  9 15  1  0  0  0  0
 11 12  1  6  0  0  0
 11 17  1  0  0  0  0
 13 14  1  1  0  0  0
 13 19  1  0  0  0  0
 15 16  1  6  0  0  0
 15 20  1  0  0  0  0
 16 34  1  0  0  0  0
 17 18  1  1  0  0  0
 17 22  1  0  0  0  0
 19  2  1  6  0  0  0
 19 24  1  0  0  0  0
 20 21  1  1  0  0  0
 20 26  1  0  0  0  0
 20 33  1  0  0  0  0
 22 23  1  6  0  0  0
 22 28  1  0  0  0  0
 24 25  1  1  0  0  0
 24 30  1  0  0  0  0
 26 27  1  0  0  0  0
 28 29  1  6  0  0  0
 28 32  1  0  0  0  0
 30 31  1  6  0  0  0
M  END
>  <CHROM.1>
-175.72388905,46.29618355,-142.44613558,-27.09571638,114.75863016,-175.76323731
0.07832053,3.87958459,6.26715691,-1.39753786,0.83414192,2.84763444

>  <Name>
ligand

>  <RI>
0

>  <Rbt.Current_Directory>
/home/itssahil/PROJECTS/Mol_Feturizer/New_Systems/rnas/3TD1

>  <Rbt.Executable>
rbdock ($Id: //depot/dev/client3/rdock/2013.1/src/exe/rbdock.cxx#4 $)

>  <Rbt.Library>
libRbt.so (2013.1, Build901 2013/11/27)

>  <Rbt.Parameter_File>
/export/apps/rDock/src/rDock_2013.1_src/data/scripts/dock_solv.prm

>  <Rbt.Receptor>
prm/blind_docking_80.prm

>  <SCORE>
15.3741

>  <SCORE.INTER>
3.49363

>  <SCORE.INTER.CONST>
1

>  <SCORE.INTER.POLAR>
0

>  <SCORE.INTER.ROT>
6

>  <SCORE.INTER.SOLV>
23.2369

>  <SCORE.INTER.VDW>
-13.0165

>  <SCORE.INTER.norm>
0.102754

>  <SCORE.INTRA>
-0.34123

>  <SCORE.INTRA.DIHEDRAL>
-7.53637

>  <SCORE.INTRA.DIHEDRAL.0>
19.5869

>  <SCORE.INTRA.POLAR>
0

>  <SCORE.INTRA.POLAR.0>
0

>  <SCORE.INTRA.REPUL>
0

>  <SCORE.INTRA.REPUL.0>
0

>  <SCORE.INTRA.SOLV>
-0.846488

>  <SCORE.INTRA.SOLV.lig_0>
-70.101

>  <SCORE.INTRA.VDW>
3.8502

>  <SCORE.INTRA.VDW.0>
-3.39718

>  <SCORE.INTRA.norm>
-0.0100362

>  <SCORE.RESTR>
12.2217

>  <SCORE.RESTR.CAVITY>
12.2217

>  <SCORE.RESTR.norm>
0.359463

>  <SCORE.SYSTEM>
0

>  <SCORE.SYSTEM.CONST>
0

>  <SCORE.SYSTEM.DIHEDRAL>
0

>  <SCORE.SYSTEM.SOLV>
0

>  <SCORE.SYSTEM.norm>
0

>  <SCORE.heavy>
34

>  <SCORE.norm>
0.45218

>  <RMSD>
11.327

$$$$
ligand
 OpenBabel11021811483D
libRbt.so/2013.1/901 2013/11/27
 34 36  0  0  0  0  0  0  0  0999 V2000
   -1.1051   -0.6023    4.6151 C   0  0  2  0  0  0  0  0  0  0  0  0
    0.1885   -0.7779    5.2137 O   0  0  0  0  0  0  0  0  0  0  0  0
   -0.3543    2.0564    8.3655 C   0  0  2  0  0  0  0  0  0  0  0  0
   -0.0831    2.9751    9.4658 N   0  0  0  0  0  0  0  0  0  0  0  0
   -0.2562    4.9262    7.6473 C   0  0  2  0  0  0  0  0  0  0  0  0
   -1.9771   -1.8601    4.9673 C   0  0  2  0  0  0  0  0  0  0  0  0
   -2.1419   -2.0012    6.4224 N   0  0  0  0  0  0  0  0  0  0  0  0
    0.2670    0.6718    8.7483 C   0  0  0  0  0  0  0  0  0  0  0  0
   -0.2310    6.2742    6.8415 C   0  0  2  0  0  0  0  0  0  0  0  0
   -1.4075    6.3892    6.0582 O   0  0  0  0  0  0  0  0  0  0  0  0
   -1.3062   -3.1250    4.3892 C   0  0  1  0  0  0  0  0  0  0  0  0
   -2.1033   -4.2793    4.7011 O   0  0  0  0  0  0  0  0  0  0  0  0
   -0.0438   -0.3214    7.5778 C   0  0  2  0  0  0  0  0  0  0  0  0
    0.5251   -1.6508    7.8788 N   0  0  0  0  0  0  0  0  0  0  0  0
    1.0589    6.2957    5.9332 C   0  0  1  0  0  0  0  0  0  0  0  0
    1.1216    7.5547    5.1318 N   0  0  0  0  0  0  0  0  0  0  0  0
   -1.1371   -2.9462    2.8618 C   0  0  2  0  0  0  0  0  0  0  0  0
   -0.5031   -4.1134    2.3102 O   0  0  0  0  0  0  0  0  0  0  0  0
    0.5545    0.1901    6.2425 C   0  0  2  0  0  0  0  0  0  0  0  0
    2.3263    6.1665    6.8457 C   0  0  1  0  0  0  0  0  0  0  0  0
    2.3871    7.2751    7.7391 O   0  0  0  0  0  0  0  0  0  0  0  0
   -0.2724   -1.6604    2.5727 C   0  0  2  0  0  0  0  0  0  0  0  0
   -0.9240   -0.4740    3.1610 O   0  0  0  0  0  0  0  0  0  0  0  0
   -0.0286    1.5888    5.9208 C   0  0  2  0  0  0  0  0  0  0  0  0
    0.5481    2.0456    4.7018 O   0  0  0  0  0  0  0  0  0  0  0  0
    2.2169    4.8436    7.6674 C   0  0  0  0  0  0  0  0  0  0  0  0
    0.9636    4.8178    8.4593 O   0  0  0  0  0  0  0  0  0  0  0  0
   -0.0900   -1.4147    1.0521 C   0  0  2  0  0  0  0  0  0  0  0  0
   -0.1632   -2.6577    0.3587 O   0  0  0  0  0  0  0  0  0  0  0  0
    0.3077    2.6063    7.0358 C   0  0  1  0  0  0  0  0  0  0  0  0
   -0.2819    3.8695    6.6473 O   0  0  0  0  0  0  0  0  0  0  0  0
    1.2583   -0.7840    0.7453 C   0  0  0  0  0  0  0  0  0  0  0  0
    3.6165    6.1556    6.0349 C   0  0  0  0  0  0  0  0  0  0  0  0
    0.6014    7.2695    3.7809 C   0  0  0  0  0  0  0  0  0  0  0  0
  1  2  1  1  0  0  0
  1  6  1  0  0  0  0
  1 23  1  0  0  0  0
  3  4  1  1  0  0  0
  3  8  1  0  0  0  0
  3 30  1  0  0  0  0
  5  9  1  0  0  0  0
  5 27  1  0  0  0  0
  5 31  1  6  0  0  0
  6  7  1  1  0  0  0
  6 11  1  0  0  0  0
  8 13  1  0  0  0  0
  9 10  1  6  0  0  0
  9 15  1  0  0  0  0
 11 12  1  6  0  0  0
 11 17  1  0  0  0  0
 13 14  1  1  0  0  0
 13 19  1  0  0  0  0
 15 16  1  1  0  0  0
 15 20  1  0  0  0  0
 16 34  1  0  0  0  0
 17 18  1  1  0  0  0
 17 22  1  0  0  0  0
 19  2  1  6  0  0  0
 19 24  1  0  0  0  0
 20 21  1  1  0  0  0
 20 26  1  0  0  0  0
 20 33  1  0  0  0  0
 22 23  1  6  0  0  0
 22 28  1  0  0  0  0
 24 25  1  6  0  0  0
 24 30  1  0  0  0  0
 26 27  1  0  0  0  0
 28 29  1  6  0  0  0
 28 32  1  0  0  0  0
 30 31  1  6  0  0  0
M  END
>  <CHROM.1>
-116.17112027,84.91849778,-98.09492636,-27.66942779,55.37488807,151.74990062
0.10909377,1.62921817,5.49245031,2.39822493,-1.29837046,-1.93957344

>  <Name>
ligand

>  <RI>
0

>  <Rbt.Current_Directory>
/home/itssahil/PROJECTS/Mol_Feturizer/New_Systems/rnas/3TD1

>  <Rbt.Executable>
rbdock ($Id: //depot/dev/client3/rdock/2013.1/src/exe/rbdock.cxx#4 $)

>  <Rbt.Library>
libRbt.so (2013.1, Build901 2013/11/27)

>  <Rbt.Parameter_File>
/export/apps/rDock/src/rDock_2013.1_src/data/scripts/dock_solv.prm

>  <Rbt.Receptor>
prm/blind_docking_80.prm

>  <SCORE>
14.1594

>  <SCORE.INTER>
-1.07125

>  <SCORE.INTER.CONST>
1

>  <SCORE.INTER.POLAR>
0

>  <SCORE.INTER.ROT>
6

>  <SCORE.INTER.SOLV>
17.2362

>  <SCORE.INTER.VDW>
-14.0596

>  <SCORE.INTER.norm>
-0.0315074

>  <SCORE.INTRA>
6.25562

>  <SCORE.INTRA.DIHEDRAL>
-2.48282

>  <SCORE.INTRA.DIHEDRAL.0>
19.5869

>  <SCORE.INTRA.POLAR>
0

>  <SCORE.INTRA.POLAR.0>
0

>  <SCORE.INTRA.REPUL>
0

>  <SCORE.INTRA.REPUL.0>
0

>  <SCORE.INTRA.SOLV>
3.5106

>  <SCORE.INTRA.SOLV.lig_0>
-70.101

>  <SCORE.INTRA.VDW>
5.74173

>  <SCORE.INTRA.VDW.0>
-3.39718

>  <SCORE.INTRA.norm>
0.183989

>  <SCORE.RESTR>
8.97506

>  <SCORE.RESTR.CAVITY>
8.97506

>  <SCORE.RESTR.norm>
0.263972

>  <SCORE.SYSTEM>
0

>  <SCORE.SYSTEM.CONST>
0

>  <SCORE.SYSTEM.DIHEDRAL>
0

>  <SCORE.SYSTEM.SOLV>
0

>  <SCORE.SYSTEM.norm>
0

>  <SCORE.heavy>
34

>  <SCORE.norm>
0.416454

>  <RMSD>
11.330

$$$$
ligand
 OpenBabel11021811483D
libRbt.so/2013.1/901 2013/11/27
 34 36  0  0  0  0  0  0  0  0999 V2000
    2.9207    6.1648    7.2261 C   0  0  2  0  0  0  0  0  0  0  0  0
    2.8095    4.7335    7.1845 O   0  0  0  0  0  0  0  0  0  0  0  0
    0.0417    2.3638    9.4173 C   0  0  2  0  0  0  0  0  0  0  0  0
   -0.5921    1.6325   10.5090 N   0  0  0  0  0  0  0  0  0  0  0  0
   -1.5481    5.2428   11.0493 C   0  0  2  0  0  0  0  0  0  0  0  0
    2.0764    6.7513    6.0388 C   0  0  2  0  0  0  0  0  0  0  0  0
    0.6580    6.3810    6.1622 N   0  0  0  0  0  0  0  0  0  0  0  0
    1.4981    1.8105    9.2671 C   0  0  0  0  0  0  0  0  0  0  0  0
   -1.7212    4.2138   12.2233 C   0  0  2  0  0  0  0  0  0  0  0  0
   -0.5156    3.4916   12.4125 O   0  0  0  0  0  0  0  0  0  0  0  0
    2.6421    6.2264    4.7013 C   0  0  1  0  0  0  0  0  0  0  0  0
    1.8789    6.7657    3.6098 O   0  0  0  0  0  0  0  0  0  0  0  0
    2.1716    2.5789    8.0801 C   0  0  2  0  0  0  0  0  0  0  0  0
    3.5572    2.1031    7.8918 N   0  0  0  0  0  0  0  0  0  0  0  0
   -2.9143    3.2429   11.8722 C   0  0  1  0  0  0  0  0  0  0  0  0
   -3.1103    2.2317   12.9540 N   0  0  0  0  0  0  0  0  0  0  0  0
    4.1347    6.6212    4.6018 C   0  0  2  0  0  0  0  0  0  0  0  0
    4.6788    6.1293    3.3646 O   0  0  0  0  0  0  0  0  0  0  0  0
    2.1972    4.1050    8.3504 C   0  0  2  0  0  0  0  0  0  0  0  0
   -4.2182    4.0894   11.6745 C   0  0  1  0  0  0  0  0  0  0  0  0
   -4.5343    4.7704   12.8858 O   0  0  0  0  0  0  0  0  0  0  0  0
    4.9230    6.0215    5.8280 C   0  0  2  0  0  0  0  0  0  0  0  0
    4.3420    6.5186    7.0904 O   0  0  0  0  0  0  0  0  0  0  0  0
    0.7489    4.6140    8.5587 C   0  0  2  0  0  0  0  0  0  0  0  0
    0.7987    6.0122    8.8232 O   0  0  0  0  0  0  0  0  0  0  0  0
   -3.9677    5.1345   10.5420 C   0  0  0  0  0  0  0  0  0  0  0  0
   -2.7999    5.9895   10.8637 O   0  0  0  0  0  0  0  0  0  0  0  0
    6.4250    6.4071    5.7957 C   0  0  2  0  0  0  0  0  0  0  0  0
    6.5607    7.7479    5.3320 O   0  0  0  0  0  0  0  0  0  0  0  0
    0.0744    3.9100    9.7591 C   0  0  1  0  0  0  0  0  0  0  0  0
   -1.2657    4.4459    9.8651 O   0  0  0  0  0  0  0  0  0  0  0  0
    7.2140    5.5046    4.8615 C   0  0  0  0  0  0  0  0  0  0  0  0
   -5.4147    3.2200   11.3077 C   0  0  0  0  0  0  0  0  0  0  0  0
   -2.3119    1.0366   12.6202 C   0  0  0  0  0  0  0  0  0  0  0  0
  1  2  1  6  0  0  0
  1  6  1  0  0  0  0
  1 23  1  0  0  0  0
  3  4  1  1  0  0  0
  3  8  1  0  0  0  0
  3 30  1  0  0  0  0
  5  9  1  0  0  0  0
  5 27  1  0  0  0  0
  5 31  1  6  0  0  0
  6  7  1  1  0  0  0
  6 11  1  0  0  0  0
  8 13  1  0  0  0  0
  9 10  1  6  0  0  0
  9 15  1  0  0  0  0
 11 12  1  6  0  0  0
 11 17  1  0  0  0  0
 13 14  1  1  0  0  0
 13 19  1  0  0  0  0
 15 16  1  1  0  0  0
 15 20  1  0  0  0  0
 16 34  1  0  0  0  0
 17 18  1  6  0  0  0
 17 22  1  0  0  0  0
 19  2  1  6  0  0  0
 19 24  1  0  0  0  0
 20 21  1  1  0  0  0
 20 26  1  0  0  0  0
 20 33  1  0  0  0  0
 22 23  1  1  0  0  0
 22 28  1  0  0  0  0
 24 25  1  1  0  0  0
 24 30  1  0  0  0  0
 26 27  1  0  0  0  0
 28 29  1  6  0  0  0
 28 32  1  0  0  0  0
 30 31  1  6  0  0  0
M  END
>  <CHROM.1>
-118.19603203,179.49393424,-91.82966021,38.17100051,130.86272760,-76.22187733
0.81511248,4.68134118,8.59841681,0.62904660,0.43030185,-0.65966703

>  <Name>
ligand

>  <RI>
0

>  <Rbt.Current_Directory>
/home/itssahil/PROJECTS/Mol_Feturizer/New_Systems/rnas/3TD1

>  <Rbt.Executable>
rbdock ($Id: //depot/dev/client3/rdock/2013.1/src/exe/rbdock.cxx#4 $)

>  <Rbt.Library>
libRbt.so (2013.1, Build901 2013/11/27)

>  <Rbt.Parameter_File>
/export/apps/rDock/src/rDock_2013.1_src/data/scripts/dock_solv.prm

>  <Rbt.Receptor>
prm/blind_docking_60.prm

>  <SCORE>
37.8983

>  <SCORE.INTER>
18.351

>  <SCORE.INTER.CONST>
1

>  <SCORE.INTER.POLAR>
0

>  <SCORE.INTER.ROT>
6

>  <SCORE.INTER.SOLV>
26.102

>  <SCORE.INTER.VDW>
-4.06664

>  <SCORE.INTER.norm>
0.539736

>  <SCORE.INTRA>
3.19176

>  <SCORE.INTRA.DIHEDRAL>
-2.35961

>  <SCORE.INTRA.DIHEDRAL.0>
19.5869

>  <SCORE.INTRA.POLAR>
0

>  <SCORE.INTRA.POLAR.0>
0

>  <SCORE.INTRA.REPUL>
0

>  <SCORE.INTRA.REPUL.0>
0

>  <SCORE.INTRA.SOLV>
3.66861

>  <SCORE.INTRA.SOLV.lig_0>
-70.101

>  <SCORE.INTRA.VDW>
2.53726

>  <SCORE.INTRA.VDW.0>
-3.39718

>  <SCORE.INTRA.norm>
0.0938753

>  <SCORE.RESTR>
16.3555

>  <SCORE.RESTR.CAVITY>
16.3555

>  <SCORE.RESTR.norm>
0.481044

>  <SCORE.SYSTEM>
0

>  <SCORE.SYSTEM.CONST>
0

>  <SCORE.SYSTEM.DIHEDRAL>
0

>  <SCORE.SYSTEM.SOLV>
0

>  <SCORE.SYSTEM.norm>
0

>  <SCORE.heavy>
34

>  <SCORE.norm>
1.11466

>  <RMSD>
11.771

$$$$
ligand
 OpenBabel11021811483D
libRbt.so/2013.1/901 2013/11/27
 34 36  0  0  0  0  0  0  0  0999 V2000
    2.5822    6.5871    6.7629 C   0  0  2  0  0  0  0  0  0  0  0  0
    2.3341    5.1741    6.8284 O   0  0  0  0  0  0  0  0  0  0  0  0
    0.8145    2.6745    9.9436 C   0  0  2  0  0  0  0  0  0  0  0  0
    0.6605    1.9958   11.2257 N   0  0  0  0  0  0  0  0  0  0  0  0
   -1.7844    3.6864   10.0547 C   0  0  2  0  0  0  0  0  0  0  0  0
    1.9431    7.1306    5.4352 C   0  0  2  0  0  0  0  0  0  0  0  0
    0.4901    6.9017    5.4130 N   0  0  0  0  0  0  0  0  0  0  0  0
    2.2596    2.3713    9.4245 C   0  0  0  0  0  0  0  0  0  0  0  0
   -3.1307    4.3276   10.5481 C   0  0  2  0  0  0  0  0  0  0  0  0
   -3.2627    5.6370   10.0199 O   0  0  0  0  0  0  0  0  0  0  0  0
    2.6038    6.4321    4.2269 C   0  0  1  0  0  0  0  0  0  0  0  0
    2.0290    6.9306    3.0079 O   0  0  0  0  0  0  0  0  0  0  0  0
    2.4180    3.0804    8.0370 C   0  0  2  0  0  0  0  0  0  0  0  0
    3.7702    2.8352    7.4958 N   0  0  0  0  0  0  0  0  0  0  0  0
   -3.1309    4.3502   12.1257 C   0  0  1  0  0  0  0  0  0  0  0  0
   -4.3877    4.9673   12.6465 N   0  0  0  0  0  0  0  0  0  0  0  0
    4.1298    6.6811    4.2799 C   0  0  2  0  0  0  0  0  0  0  0  0
    4.7609    6.0268    3.1653 O   0  0  0  0  0  0  0  0  0  0  0  0
    2.1988    4.6094    8.1671 C   0  0  2  0  0  0  0  0  0  0  0  0
   -2.9835    2.8830   12.6560 C   0  0  1  0  0  0  0  0  0  0  0  0
   -4.0924    2.1026   12.2174 O   0  0  0  0  0  0  0  0  0  0  0  0
    4.7078    6.1333    5.6403 C   0  0  2  0  0  0  0  0  0  0  0  0
    4.0379    6.7983    6.7748 O   0  0  0  0  0  0  0  0  0  0  0  0
    0.7860    4.8786    8.7428 C   0  0  2  0  0  0  0  0  0  0  0  0
    0.6146    6.2864    8.8704 O   0  0  0  0  0  0  0  0  0  0  0  0
   -1.6636    2.2760   12.0843 C   0  0  0  0  0  0  0  0  0  0  0  0
   -1.6583    2.3289   10.6026 O   0  0  0  0  0  0  0  0  0  0  0  0
    6.2345    6.3785    5.7617 C   0  0  2  0  0  0  0  0  0  0  0  0
    6.8647    6.0696    4.5212 O   0  0  0  0  0  0  0  0  0  0  0  0
    0.6171    4.2339   10.1382 C   0  0  1  0  0  0  0  0  0  0  0  0
   -0.7268    4.5347   10.5830 O   0  0  0  0  0  0  0  0  0  0  0  0
    6.8578    5.5032    6.8364 C   0  0  0  0  0  0  0  0  0  0  0  0
   -2.9515    2.8252   14.1783 C   0  0  0  0  0  0  0  0  0  0  0  0
   -5.5320    4.3276   11.9694 C   0  0  0  0  0  0  0  0  0  0  0  0
  1  2  1  6  0  0  0
  1  6  1  0  0  0  0
  1 23  1  0  0  0  0
  3  4  1  1  0  0  0
  3  8  1  0  0  0  0
  3 30  1  0  0  0  0
  5  9  1  0  0  0  0
  5 27  1  0  0  0  0
  5 31  1  1  0  0  0
  6  7  1  1  0  0  0
  6 11  1  0  0  0  0
  8 13  1  0  0  0  0
  9 10  1  6  0  0  0
  9 15  1  0  0  0  0
 11 12  1  6  0  0  0
 11 17  1  0  0  0  0
 13 14  1  1  0  0  0
 13 19  1  0  0  0  0
 15 16  1  1  0  0  0
 15 20  1  0  0  0  0
 16 34  1  0  0  0  0
 17 18  1  6  0  0  0
 17 22  1  0  0  0  0
 19  2  1  6  0  0  0
 19 24  1  0  0  0  0
 20 21  1  6  0  0  0
 20 26  1  0  0  0  0
 20 33  1  0  0  0  0
 22 23  1  1  0  0  0
 22 28  1  0  0  0  0
 24 25  1  1  0  0  0
 24 30  1  0  0  0  0
 26 27  1  0  0  0  0
 28 29  1  6  0  0  0
 28 32  1  0  0  0  0
 30 31  1  6  0  0  0
M  END
>  <CHROM.1>
-149.47768395,-161.32529301,49.54625794,-43.16771469,-34.95242353,-173.33574673
0.83404900,4.71799232,8.52306479,0.72850727,0.30309662,-0.87337191

>  <Name>
ligand

>  <RI>
0

>  <Rbt.Current_Directory>
/home/itssahil/PROJECTS/Mol_Feturizer/New_Systems/rnas/3TD1

>  <Rbt.Executable>
rbdock ($Id: //depot/dev/client3/rdock/2013.1/src/exe/rbdock.cxx#4 $)

>  <Rbt.Library>
libRbt.so (2013.1, Build901 2013/11/27)

>  <Rbt.Parameter_File>
/export/apps/rDock/src/rDock_2013.1_src/data/scripts/dock_solv.prm

>  <Rbt.Receptor>
prm/blind_docking_60.prm

>  <SCORE>
52.3218

>  <SCORE.INTER>
28.18

>  <SCORE.INTER.CONST>
1

>  <SCORE.INTER.POLAR>
0

>  <SCORE.INTER.ROT>
6

>  <SCORE.INTER.SOLV>
28.8271

>  <SCORE.INTER.VDW>
1.57765

>  <SCORE.INTER.norm>
0.828823

>  <SCORE.INTRA>
8.74813

>  <SCORE.INTRA.DIHEDRAL>
-10.2918

>  <SCORE.INTRA.DIHEDRAL.0>
19.5869

>  <SCORE.INTRA.POLAR>
0

>  <SCORE.INTRA.POLAR.0>
0

>  <SCORE.INTRA.REPUL>
0

>  <SCORE.INTRA.REPUL.0>
0

>  <SCORE.INTRA.SOLV>
1.9493

>  <SCORE.INTRA.SOLV.lig_0>
-70.101

>  <SCORE.INTRA.VDW>
12.9194

>  <SCORE.INTRA.VDW.0>
-3.39718

>  <SCORE.INTRA.norm>
0.257298

>  <SCORE.RESTR>
15.3937

>  <SCORE.RESTR.CAVITY>
15.3937

>  <SCORE.RESTR.norm>
0.452755

>  <SCORE.SYSTEM>
0

>  <SCORE.SYSTEM.CONST>
0

>  <SCORE.SYSTEM.DIHEDRAL>
0

>  <SCORE.SYSTEM.SOLV>
0

>  <SCORE.SYSTEM.norm>
0

>  <SCORE.heavy>
34

>  <SCORE.norm>
1.53888

>  <RMSD>
11.804

$$$$
ligand
 OpenBabel11021811483D
libRbt.so/2013.1/901 2013/11/27
 34 36  0  0  0  0  0  0  0  0999 V2000
    2.5127    6.6270    6.7661 C   0  0  2  0  0  0  0  0  0  0  0  0
    2.2461    5.2186    6.8545 O   0  0  0  0  0  0  0  0  0  0  0  0
    0.8454    2.6649    9.9815 C   0  0  2  0  0  0  0  0  0  0  0  0
    0.7063    2.0055   11.2754 N   0  0  0  0  0  0  0  0  0  0  0  0
   -1.8247    3.3919   10.0398 C   0  0  2  0  0  0  0  0  0  0  0  0
    1.8786    7.1575    5.4307 C   0  0  2  0  0  0  0  0  0  0  0  0
    0.4227    6.9473    5.4141 N   0  0  0  0  0  0  0  0  0  0  0  0
    2.3302    2.4830    9.5210 C   0  0  0  0  0  0  0  0  0  0  0  0
   -3.2470    3.9259   10.4385 C   0  0  2  0  0  0  0  0  0  0  0  0
   -3.4960    5.1630    9.7916 O   0  0  0  0  0  0  0  0  0  0  0  0
    2.5282    6.4312    4.2329 C   0  0  1  0  0  0  0  0  0  0  0  0
    1.9582    6.9176    3.0068 O   0  0  0  0  0  0  0  0  0  0  0  0
    2.4747    3.1705    8.1212 C   0  0  2  0  0  0  0  0  0  0  0  0
    3.8626    3.0373    7.6338 N   0  0  0  0  0  0  0  0  0  0  0  0
   -3.3053    4.0850   12.0072 C   0  0  1  0  0  0  0  0  0  0  0  0
   -4.6371    4.6069   12.4376 N   0  0  0  0  0  0  0  0  0  0  0  0
    4.0575    6.6609    4.2798 C   0  0  2  0  0  0  0  0  0  0  0  0
    4.6782    5.9807    3.1750 O   0  0  0  0  0  0  0  0  0  0  0  0
    2.1133    4.6757    8.2024 C   0  0  2  0  0  0  0  0  0  0  0  0
   -3.0248    2.6934   12.6708 C   0  0  1  0  0  0  0  0  0  0  0  0
   -4.0302    1.7639   12.2755 O   0  0  0  0  0  0  0  0  0  0  0  0
    4.6303    6.1274    5.6480 C   0  0  2  0  0  0  0  0  0  0  0  0
    3.9710    6.8192    6.7727 O   0  0  0  0  0  0  0  0  0  0  0  0
    0.6617    4.8281    8.7215 C   0  0  2  0  0  0  0  0  0  0  0  0
    0.3589    6.2169    8.8052 O   0  0  0  0  0  0  0  0  0  0  0  0
   -1.6295    2.1836   12.1904 C   0  0  0  0  0  0  0  0  0  0  0  0
   -1.5775    2.1082   10.7106 O   0  0  0  0  0  0  0  0  0  0  0  0
    6.1603    6.3546    5.7634 C   0  0  2  0  0  0  0  0  0  0  0  0
    6.8040    5.8512    4.5957 O   0  0  0  0  0  0  0  0  0  0  0  0
    0.5005    4.2039   10.1272 C   0  0  1  0  0  0  0  0  0  0  0  0
   -0.8806    4.3909   10.5170 O   0  0  0  0  0  0  0  0  0  0  0  0
    6.7432    5.6351    6.9686 C   0  0  0  0  0  0  0  0  0  0  0  0
   -3.0407    2.7713   14.1925 C   0  0  0  0  0  0  0  0  0  0  0  0
   -4.6664    6.0610   12.1888 C   0  0  0  0  0  0  0  0  0  0  0  0
  1  2  1  6  0  0  0
  1  6  1  0  0  0  0
  1 23  1  0  0  0  0
  3  4  1  1  0  0  0
  3  8  1  0  0  0  0
  3 30  1  0  0  0  0
  5  9  1  0  0  0  0
  5 27  1  0  0  0  0
  5 31  1  1  0  0  0
  6  7  1  1  0  0  0
  6 11  1  0  0  0  0
  8 13  1  0  0  0  0
  9 10  1  6  0  0  0
  9 15  1  0  0  0  0
 11 12  1  6  0  0  0
 11 17  1  0  0  0  0
 13 14  1  1  0  0  0
 13 19  1  0  0  0  0
 15 16  1  6  0  0  0
 15 20  1  0  0  0  0
 16 34  1  0  0  0  0
 17 18  1  6  0  0  0
 17 22  1  0  0  0  0
 19  2  1  6  0  0  0
 19 24  1  0  0  0  0
 20 21  1  6  0  0  0
 20 26  1  0  0  0  0
 20 33  1  0  0  0  0
 22 23  1  1  0  0  0
 22 28  1  0  0  0  0
 24 25  1  1  0  0  0
 24 30  1  0  0  0  0
 26 27  1  0  0  0  0
 28 29  1  6  0  0  0
 28 32  1  0  0  0  0
 30 31  1  6  0  0  0
M  END
>  <CHROM.1>
-149.82273105,-154.81549067,-78.38291995,-50.89016670,-31.46004268,-172.86136226
0.79568510,4.69524026,8.53445412,0.73361944,0.31455350,-0.85811254

>  <Name>
ligand

>  <RI>
0

>  <Rbt.Current_Directory>
/home/itssahil/PROJECTS/Mol_Feturizer/New_Systems/rnas/3TD1

>  <Rbt.Executable>
rbdock ($Id: //depot/dev/client3/rdock/2013.1/src/exe/rbdock.cxx#4 $)

>  <Rbt.Library>
libRbt.so (2013.1, Build901 2013/11/27)

>  <Rbt.Parameter_File>
/export/apps/rDock/src/rDock_2013.1_src/data/scripts/dock_solv.prm

>  <Rbt.Receptor>
prm/blind_docking_60.prm

>  <SCORE>
45.5308

>  <SCORE.INTER>
24.4115

>  <SCORE.INTER.CONST>
1

>  <SCORE.INTER.POLAR>
0

>  <SCORE.INTER.ROT>
6

>  <SCORE.INTER.SOLV>
27.4433

>  <SCORE.INTER.VDW>
-0.473441

>  <SCORE.INTER.norm>
0.717986

>  <SCORE.INTRA>
5.01449

>  <SCORE.INTRA.DIHEDRAL>
-9.09004

>  <SCORE.INTRA.DIHEDRAL.0>
19.5869

>  <SCORE.INTRA.POLAR>
0

>  <SCORE.INTRA.POLAR.0>
0

>  <SCORE.INTRA.REPUL>
0

>  <SCORE.INTRA.REPUL.0>
0

>  <SCORE.INTRA.SOLV>
2.18792

>  <SCORE.INTRA.SOLV.lig_0>
-70.101

>  <SCORE.INTRA.VDW>
8.46555

>  <SCORE.INTRA.VDW.0>
-3.39718

>  <SCORE.INTRA.norm>
0.147485

>  <SCORE.RESTR>
16.1048

>  <SCORE.RESTR.CAVITY>
16.1048

>  <SCORE.RESTR.norm>
0.473669

>  <SCORE.SYSTEM>
0

>  <SCORE.SYSTEM.CONST>
0

>  <SCORE.SYSTEM.DIHEDRAL>
0

>  <SCORE.SYSTEM.SOLV>
0

>  <SCORE.SYSTEM.norm>
0

>  <SCORE.heavy>
34

>  <SCORE.norm>
1.33914

>  <RMSD>
11.830

$$$$
ligand
 OpenBabel11021811483D
libRbt.so/2013.1/901 2013/11/27
 34 36  0  0  0  0  0  0  0  0999 V2000
    2.8040    3.4589    8.1437 C   0  0  2  0  0  0  0  0  0  0  0  0
    1.9583    3.0243    9.2201 O   0  0  0  0  0  0  0  0  0  0  0  0
   -1.3974    0.3823    9.0775 C   0  0  2  0  0  0  0  0  0  0  0  0
   -2.7277   -0.1563    8.8162 N   0  0  0  0  0  0  0  0  0  0  0  0
    0.5344   -0.5764    5.9108 C   0  0  2  0  0  0  0  0  0  0  0  0
    4.2237    3.7711    8.7383 C   0  0  2  0  0  0  0  0  0  0  0  0
    4.8162    2.5739    9.3546 N   0  0  0  0  0  0  0  0  0  0  0  0
   -1.5823    1.7319    9.8482 C   0  0  0  0  0  0  0  0  0  0  0  0
   -0.2460   -0.0214    4.6658 C   0  0  2  0  0  0  0  0  0  0  0  0
   -0.7091    1.2918    4.9336 O   0  0  0  0  0  0  0  0  0  0  0  0
    4.1017    4.8969    9.7881 C   0  0  1  0  0  0  0  0  0  0  0  0
    5.3988    5.1933   10.3307 O   0  0  0  0  0  0  0  0  0  0  0  0
   -0.1539    2.2994   10.1497 C   0  0  2  0  0  0  0  0  0  0  0  0
   -0.2624    3.5820   10.8740 N   0  0  0  0  0  0  0  0  0  0  0  0
   -1.4483   -0.9928    4.3492 C   0  0  1  0  0  0  0  0  0  0  0  0
   -2.2342   -0.4990    3.1787 N   0  0  0  0  0  0  0  0  0  0  0  0
    3.4685    6.1386    9.1166 C   0  0  2  0  0  0  0  0  0  0  0  0
    3.3385    7.1932   10.0859 O   0  0  0  0  0  0  0  0  0  0  0  0
    0.6400    2.5289    8.8382 C   0  0  2  0  0  0  0  0  0  0  0  0
   -0.8830   -2.4256    4.0610 C   0  0  1  0  0  0  0  0  0  0  0  0
   -0.0283   -2.3820    2.9214 O   0  0  0  0  0  0  0  0  0  0  0  0
    2.0586    5.7576    8.5237 C   0  0  2  0  0  0  0  0  0  0  0  0
    2.2042    4.6617    7.5460 O   0  0  0  0  0  0  0  0  0  0  0  0
    0.7524    1.1912    8.0650 C   0  0  2  0  0  0  0  0  0  0  0  0
    1.4682    1.4299    6.8576 O   0  0  0  0  0  0  0  0  0  0  0  0
   -0.0661   -2.8992    5.3043 C   0  0  0  0  0  0  0  0  0  0  0  0
    1.0144   -1.9349    5.6226 O   0  0  0  0  0  0  0  0  0  0  0  0
    1.3846    6.9605    7.8132 C   0  0  2  0  0  0  0  0  0  0  0  0
   -0.0252    6.7560    7.7688 O   0  0  0  0  0  0  0  0  0  0  0  0
   -0.6441    0.6317    7.7067 C   0  0  1  0  0  0  0  0  0  0  0  0
   -0.4321   -0.6120    6.9980 O   0  0  0  0  0  0  0  0  0  0  0  0
    1.8821    7.1173    6.3858 C   0  0  0  0  0  0  0  0  0  0  0  0
   -1.9911   -3.4299    3.7688 C   0  0  0  0  0  0  0  0  0  0  0  0
   -3.6082   -0.2106    3.6325 C   0  0  0  0  0  0  0  0  0  0  0  0
  1  2  1  1  0  0  0
  1  6  1  0  0  0  0
  1 23  1  0  0  0  0
  3  4  1  6  0  0  0
  3  8  1  0  0  0  0
  3 30  1  0  0  0  0
  5  9  1  0  0  0  0
  5 27  1  0  0  0  0
  5 31  1  1  0  0  0
  6  7  1  1  0  0  0
  6 11  1  0  0  0  0
  8 13  1  0  0  0  0
  9 10  1  1  0  0  0
  9 15  1  0  0  0  0
 11 12  1  6  0  0  0
 11 17  1  0  0  0  0
 13 14  1  6  0  0  0
 13 19  1  0  0  0  0
 15 16  1  6  0  0  0
 15 20  1  0  0  0  0
 16 34  1  0  0  0  0
 17 18  1  1  0  0  0
 17 22  1  0  0  0  0
 19  2  1  1  0  0  0
 19 24  1  0  0  0  0
 20 21  1  6  0  0  0
 20 26  1  0  0  0  0
 20 33  1  0  0  0  0
 22 23  1  6  0  0  0
 22 28  1  0  0  0  0
 24 25  1  6  0  0  0
 24 30  1  0  0  0  0
 26 27  1  0  0  0  0
 28 29  1  6  0  0  0
 28 32  1  0  0  0  0
 30 31  1  1  0  0  0
M  END
>  <CHROM.1>
-172.70510488,-172.65225424,-117.96848038,-157.28391339,-164.76785637,-82.81261504
0.70530997,1.96910293,7.28109602,-1.10934629,0.13418658,-2.63852719

>  <Name>
ligand

>  <RI>
0

>  <Rbt.Current_Directory>
/home/itssahil/PROJECTS/Mol_Feturizer/New_Systems/rnas/3TD1

>  <Rbt.Executable>
rbdock ($Id: //depot/dev/client3/rdock/2013.1/src/exe/rbdock.cxx#4 $)

>  <Rbt.Library>
libRbt.so (2013.1, Build901 2013/11/27)

>  <Rbt.Parameter_File>
/export/apps/rDock/src/rDock_2013.1_src/data/scripts/dock_solv.prm

>  <Rbt.Receptor>
prm/blind_docking_80.prm

>  <SCORE>
6.17121

>  <SCORE.INTER>
-4.31154

>  <SCORE.INTER.CONST>
1

>  <SCORE.INTER.POLAR>
0

>  <SCORE.INTER.ROT>
6

>  <SCORE.INTER.SOLV>
22.0231

>  <SCORE.INTER.VDW>
-17.8154

>  <SCORE.INTER.norm>
-0.12681

>  <SCORE.INTRA>
-1.66831

>  <SCORE.INTRA.DIHEDRAL>
-12.7467

>  <SCORE.INTRA.DIHEDRAL.0>
19.5869

>  <SCORE.INTRA.POLAR>
0

>  <SCORE.INTRA.POLAR.0>
0

>  <SCORE.INTRA.REPUL>
0

>  <SCORE.INTRA.REPUL.0>
0

>  <SCORE.INTRA.SOLV>
-3.2211

>  <SCORE.INTRA.SOLV.lig_0>
-70.101

>  <SCORE.INTRA.VDW>
6.3156

>  <SCORE.INTRA.VDW.0>
-3.39718

>  <SCORE.INTRA.norm>
-0.0490679

>  <SCORE.RESTR>
12.1511

>  <SCORE.RESTR.CAVITY>
12.1511

>  <SCORE.RESTR.norm>
0.357384

>  <SCORE.SYSTEM>
0

>  <SCORE.SYSTEM.CONST>
0

>  <SCORE.SYSTEM.DIHEDRAL>
0

>  <SCORE.SYSTEM.SOLV>
0

>  <SCORE.SYSTEM.norm>
0

>  <SCORE.heavy>
34

>  <SCORE.norm>
0.181506

>  <RMSD>
11.984

$$$$
ligand
 OpenBabel11021811483D
libRbt.so/2013.1/901 2013/11/27
 34 36  0  0  0  0  0  0  0  0999 V2000
    2.8933    3.4160    8.1137 C   0  0  2  0  0  0  0  0  0  0  0  0
    2.0617    2.8920    9.1608 O   0  0  0  0  0  0  0  0  0  0  0  0
   -1.3989    0.3923    8.9676 C   0  0  2  0  0  0  0  0  0  0  0  0
   -2.7469   -0.0899    8.6875 N   0  0  0  0  0  0  0  0  0  0  0  0
    0.4486   -0.6113    5.7532 C   0  0  2  0  0  0  0  0  0  0  0  0
    4.2128    3.9601    8.7689 C   0  0  2  0  0  0  0  0  0  0  0  0
    4.9422    2.8876    9.4633 N   0  0  0  0  0  0  0  0  0  0  0  0
   -1.5376    1.7471    9.7391 C   0  0  0  0  0  0  0  0  0  0  0  0
   -0.4295   -0.1490    4.5357 C   0  0  2  0  0  0  0  0  0  0  0  0
   -0.9352    1.1543    4.7738 O   0  0  0  0  0  0  0  0  0  0  0  0
    3.8618    5.0870    9.7646 C   0  0  1  0  0  0  0  0  0  0  0  0
    5.0658    5.5951   10.3623 O   0  0  0  0  0  0  0  0  0  0  0  0
   -0.0911    2.2539   10.0607 C   0  0  2  0  0  0  0  0  0  0  0  0
   -0.1556    3.5387   10.7865 N   0  0  0  0  0  0  0  0  0  0  0  0
   -1.6031   -1.1847    4.3372 C   0  0  1  0  0  0  0  0  0  0  0  0
   -2.4795   -0.7802    3.1972 N   0  0  0  0  0  0  0  0  0  0  0  0
    3.0889    6.1954    9.0112 C   0  0  2  0  0  0  0  0  0  0  0  0
    2.7454    7.2482    9.9290 O   0  0  0  0  0  0  0  0  0  0  0  0
    0.7291    2.4526    8.7604 C   0  0  2  0  0  0  0  0  0  0  0  0
   -0.9913   -2.6038    4.0778 C   0  0  1  0  0  0  0  0  0  0  0  0
   -0.2093   -2.5768    2.8867 O   0  0  0  0  0  0  0  0  0  0  0  0
    1.7893    5.5849    8.3609 C   0  0  2  0  0  0  0  0  0  0  0  0
    2.1549    4.4934    7.4373 O   0  0  0  0  0  0  0  0  0  0  0  0
    0.7960    1.1128    7.9856 C   0  0  2  0  0  0  0  0  0  0  0  0
    1.5371    1.3237    6.7882 O   0  0  0  0  0  0  0  0  0  0  0  0
   -0.0805   -2.9834    5.2877 C   0  0  0  0  0  0  0  0  0  0  0  0
    0.9720   -1.9600    5.4958 O   0  0  0  0  0  0  0  0  0  0  0  0
    0.9842    6.6475    7.5681 C   0  0  2  0  0  0  0  0  0  0  0  0
    1.8762    7.4182    6.7671 O   0  0  0  0  0  0  0  0  0  0  0  0
   -0.6177    0.6127    7.6075 C   0  0  1  0  0  0  0  0  0  0  0  0
   -0.4483   -0.6376    6.8986 O   0  0  0  0  0  0  0  0  0  0  0  0
    0.2463    7.5977    8.4968 C   0  0  0  0  0  0  0  0  0  0  0  0
   -2.0679   -3.6673    3.8993 C   0  0  0  0  0  0  0  0  0  0  0  0
   -3.8849   -0.9700    3.6042 C   0  0  0  0  0  0  0  0  0  0  0  0
  1  2  1  1  0  0  0
  1  6  1  0  0  0  0
  1 23  1  0  0  0  0
  3  4  1  6  0  0  0
  3  8  1  0  0  0  0
  3 30  1  0  0  0  0
  5  9  1  0  0  0  0
  5 27  1  0  0  0  0
  5 31  1  1  0  0  0
  6  7  1  1  0  0  0
  6 11  1  0  0  0  0
  8 13  1  0  0  0  0
  9 10  1  1  0  0  0
  9 15  1  0  0  0  0
 11 12  1  6  0  0  0
 11 17  1  0  0  0  0
 13 14  1  6  0  0  0
 13 19  1  0  0  0  0
 15 16  1  6  0  0  0
 15 20  1  0  0  0  0
 16 34  1  0  0  0  0
 17 18  1  1  0  0  0
 17 22  1  0  0  0  0
 19  2  1  1  0  0  0
 19 24  1  0  0  0  0
 20 21  1  6  0  0  0
 20 26  1  0  0  0  0
 20 33  1  0  0  0  0
 22 23  1  6  0  0  0
 22 28  1  0  0  0  0
 24 25  1  6  0  0  0
 24 30  1  0  0  0  0
 26 27  1  0  0  0  0
 28 29  1  1  0  0  0
 28 32  1  0  0  0  0
 30 31  1  1  0  0  0
M  END
>  <CHROM.1>
174.39667960,-166.77184016,-136.78695441,45.05865989,-169.78984331,-86.02393801
0.62355896,1.94144495,7.25026424,-1.11155075,0.30592787,-2.73723487

>  <Name>
ligand

>  <RI>
0

>  <Rbt.Current_Directory>
/home/itssahil/PROJECTS/Mol_Feturizer/New_Systems/rnas/3TD1

>  <Rbt.Executable>
rbdock ($Id: //depot/dev/client3/rdock/2013.1/src/exe/rbdock.cxx#4 $)

>  <Rbt.Library>
libRbt.so (2013.1, Build901 2013/11/27)

>  <Rbt.Parameter_File>
/export/apps/rDock/src/rDock_2013.1_src/data/scripts/dock_solv.prm

>  <Rbt.Receptor>
prm/blind_docking_80.prm

>  <SCORE>
6.56491

>  <SCORE.INTER>
-2.27588

>  <SCORE.INTER.CONST>
1

>  <SCORE.INTER.POLAR>
0

>  <SCORE.INTER.ROT>
6

>  <SCORE.INTER.SOLV>
21.3256

>  <SCORE.INTER.VDW>
-16.2258

>  <SCORE.INTER.norm>
-0.0669375

>  <SCORE.INTRA>
-3.09461

>  <SCORE.INTRA.DIHEDRAL>
-13.4364

>  <SCORE.INTRA.DIHEDRAL.0>
19.5869

>  <SCORE.INTRA.POLAR>
0

>  <SCORE.INTRA.POLAR.0>
0

>  <SCORE.INTRA.REPUL>
0

>  <SCORE.INTRA.REPUL.0>
0

>  <SCORE.INTRA.SOLV>
-2.5313

>  <SCORE.INTRA.SOLV.lig_0>
-70.101

>  <SCORE.INTRA.VDW>
4.88922

>  <SCORE.INTRA.VDW.0>
-3.39718

>  <SCORE.INTRA.norm>
-0.091018

>  <SCORE.RESTR>
11.9354

>  <SCORE.RESTR.CAVITY>
11.9354

>  <SCORE.RESTR.norm>
0.351041

>  <SCORE.SYSTEM>
0

>  <SCORE.SYSTEM.CONST>
0

>  <SCORE.SYSTEM.DIHEDRAL>
0

>  <SCORE.SYSTEM.SOLV>
0

>  <SCORE.SYSTEM.norm>
0

>  <SCORE.heavy>
34

>  <SCORE.norm>
0.193086

>  <RMSD>
12.083

$$$$
ligand
 OpenBabel11021811483D
libRbt.so/2013.1/901 2013/11/27
 34 36  0  0  0  0  0  0  0  0999 V2000
    1.5732    6.5520    7.2184 C   0  0  2  0  0  0  0  0  0  0  0  0
    1.2650    5.1498    7.1839 O   0  0  0  0  0  0  0  0  0  0  0  0
   -0.2459    2.3659   10.0525 C   0  0  2  0  0  0  0  0  0  0  0  0
   -0.4278    1.6057   11.2842 N   0  0  0  0  0  0  0  0  0  0  0  0
   -2.2418    4.9402   11.8036 C   0  0  2  0  0  0  0  0  0  0  0  0
    1.9982    6.9907    5.7715 C   0  0  2  0  0  0  0  0  0  0  0  0
    0.9095    6.7669    4.8076 N   0  0  0  0  0  0  0  0  0  0  0  0
    1.2503    2.2072    9.6215 C   0  0  0  0  0  0  0  0  0  0  0  0
   -2.0221    4.0645   13.0888 C   0  0  2  0  0  0  0  0  0  0  0  0
   -0.6773    3.6178   13.1433 O   0  0  0  0  0  0  0  0  0  0  0  0
    3.2507    6.1954    5.3436 C   0  0  1  0  0  0  0  0  0  0  0  0
    3.6498    6.5976    4.0231 O   0  0  0  0  0  0  0  0  0  0  0  0
    1.4410    3.0040    8.2867 C   0  0  2  0  0  0  0  0  0  0  0  0
    2.8415    2.8970    7.8301 N   0  0  0  0  0  0  0  0  0  0  0  0
   -3.0229    2.8455   13.0467 C   0  0  1  0  0  0  0  0  0  0  0  0
   -2.8425    1.9702   14.2436 N   0  0  0  0  0  0  0  0  0  0  0  0
    4.3750    6.4412    6.3775 C   0  0  2  0  0  0  0  0  0  0  0  0
    5.5460    5.6976    5.9977 O   0  0  0  0  0  0  0  0  0  0  0  0
    1.0886    4.5012    8.4791 C   0  0  2  0  0  0  0  0  0  0  0  0
   -4.4900    3.3930   12.9878 C   0  0  1  0  0  0  0  0  0  0  0  0
   -4.7622    4.1578   14.1591 O   0  0  0  0  0  0  0  0  0  0  0  0
    3.8824    6.0011    7.8087 C   0  0  2  0  0  0  0  0  0  0  0  0
    2.6697    6.7573    8.1772 O   0  0  0  0  0  0  0  0  0  0  0  0
   -0.3765    4.6255    8.9670 C   0  0  2  0  0  0  0  0  0  0  0  0
   -0.6712    6.0059    9.1542 O   0  0  0  0  0  0  0  0  0  0  0  0
   -4.6322    4.3048   11.7284 C   0  0  0  0  0  0  0  0  0  0  0  0
   -3.6358    5.4024   11.7579 O   0  0  0  0  0  0  0  0  0  0  0  0
    4.9620    6.2488    8.8945 C   0  0  2  0  0  0  0  0  0  0  0  0
    4.3999    7.0159    9.9560 O   0  0  0  0  0  0  0  0  0  0  0  0
   -0.5835    3.8914   10.3123 C   0  0  1  0  0  0  0  0  0  0  0  0
   -1.9739    4.0599   10.6763 O   0  0  0  0  0  0  0  0  0  0  0  0
    6.1496    7.0163    8.3376 C   0  0  0  0  0  0  0  0  0  0  0  0
   -5.5177    2.2700   12.9204 C   0  0  0  0  0  0  0  0  0  0  0  0
   -1.6638    1.1125   14.0160 C   0  0  0  0  0  0  0  0  0  0  0  0
  1  2  1  6  0  0  0
  1  6  1  0  0  0  0
  1 23  1  0  0  0  0
  3  4  1  1  0  0  0
  3  8  1  0  0  0  0
  3 30  1  0  0  0  0
  5  9  1  0  0  0  0
  5 27  1  0  0  0  0
  5 31  1  6  0  0  0
  6  7  1  6  0  0  0
  6 11  1  0  0  0  0
  8 13  1  0  0  0  0
  9 10  1  6  0  0  0
  9 15  1  0  0  0  0
 11 12  1  6  0  0  0
 11 17  1  0  0  0  0
 13 14  1  1  0  0  0
 13 19  1  0  0  0  0
 15 16  1  1  0  0  0
 15 20  1  0  0  0  0
 16 34  1  0  0  0  0
 17 18  1  6  0  0  0
 17 22  1  0  0  0  0
 19  2  1  6  0  0  0
 19 24  1  0  0  0  0
 20 21  1  1  0  0  0
 20 26  1  0  0  0  0
 20 33  1  0  0  0  0
 22 23  1  1  0  0  0
 22 28  1  0  0  0  0
 24 25  1  1  0  0  0
 24 30  1  0  0  0  0
 26 27  1  0  0  0  0
 28 29  1  1  0  0  0
 28 32  1  0  0  0  0
 30 31  1  6  0  0  0
M  END
>  <CHROM.1>
169.04051988,-153.50994224,-79.31386801,126.87303577,134.84942912,-82.45833379
0.34355593,4.63171350,9.64147337,0.77226450,0.11364652,-1.00011202

>  <Name>
ligand

>  <RI>
0

>  <Rbt.Current_Directory>
/home/itssahil/PROJECTS/Mol_Feturizer/New_Systems/rnas/3TD1

>  <Rbt.Executable>
rbdock ($Id: //depot/dev/client3/rdock/2013.1/src/exe/rbdock.cxx#4 $)

>  <Rbt.Library>
libRbt.so (2013.1, Build901 2013/11/27)

>  <Rbt.Parameter_File>
/export/apps/rDock/src/rDock_2013.1_src/data/scripts/dock_solv.prm

>  <Rbt.Receptor>
prm/blind_docking_60.prm

>  <SCORE>
27.6123

>  <SCORE.INTER>
2.71342

>  <SCORE.INTER.CONST>
1

>  <SCORE.INTER.POLAR>
0

>  <SCORE.INTER.ROT>
6

>  <SCORE.INTER.SOLV>
23.5064

>  <SCORE.INTER.VDW>
-13.6265

>  <SCORE.INTER.norm>
0.0798065

>  <SCORE.INTRA>
6.8683

>  <SCORE.INTRA.DIHEDRAL>
-2.22336

>  <SCORE.INTRA.DIHEDRAL.0>
19.5869

>  <SCORE.INTRA.POLAR>
0

>  <SCORE.INTRA.POLAR.0>
0

>  <SCORE.INTRA.REPUL>
0

>  <SCORE.INTRA.REPUL.0>
0

>  <SCORE.INTRA.SOLV>
2.36795

>  <SCORE.INTRA.SOLV.lig_0>
-70.101

>  <SCORE.INTRA.VDW>
6.796

>  <SCORE.INTRA.VDW.0>
-3.39718

>  <SCORE.INTRA.norm>
0.202009

>  <SCORE.RESTR>
18.0306

>  <SCORE.RESTR.CAVITY>
18.0306

>  <SCORE.RESTR.norm>
0.530311

>  <SCORE.SYSTEM>
0

>  <SCORE.SYSTEM.CONST>
0

>  <SCORE.SYSTEM.DIHEDRAL>
0

>  <SCORE.SYSTEM.SOLV>
0

>  <SCORE.SYSTEM.norm>
0

>  <SCORE.heavy>
34

>  <SCORE.norm>
0.812126

>  <RMSD>
12.097

$$$$
ligand
 OpenBabel11021811483D
libRbt.so/2013.1/901 2013/11/27
 34 36  0  0  0  0  0  0  0  0999 V2000
    1.4143    6.1091    7.0636 C   0  0  2  0  0  0  0  0  0  0  0  0
    1.3949    4.6752    6.9869 O   0  0  0  0  0  0  0  0  0  0  0  0
   -0.3546    1.9367    9.7621 C   0  0  2  0  0  0  0  0  0  0  0  0
   -0.5823    1.1259   10.9532 N   0  0  0  0  0  0  0  0  0  0  0  0
   -1.8859    4.8729   11.5749 C   0  0  2  0  0  0  0  0  0  0  0  0
    1.7057    6.6677    5.6250 C   0  0  2  0  0  0  0  0  0  0  0  0
    0.6610    6.2567    4.6742 N   0  0  0  0  0  0  0  0  0  0  0  0
    1.0807    1.6018    9.2356 C   0  0  0  0  0  0  0  0  0  0  0  0
   -2.0823    4.1559   12.9585 C   0  0  2  0  0  0  0  0  0  0  0  0
   -0.9561    3.3429   13.2439 O   0  0  0  0  0  0  0  0  0  0  0  0
    3.0819    6.1559    5.1472 C   0  0  1  0  0  0  0  0  0  0  0  0
    3.3586    6.6698    3.8342 O   0  0  0  0  0  0  0  0  0  0  0  0
    1.3172    2.4547    7.9435 C   0  0  2  0  0  0  0  0  0  0  0  0
    2.6641    2.1859    7.4002 N   0  0  0  0  0  0  0  0  0  0  0  0
   -3.4027    3.2943   12.8980 C   0  0  1  0  0  0  0  0  0  0  0  0
   -3.6270    2.5773   14.1891 N   0  0  0  0  0  0  0  0  0  0  0  0
    4.1588    6.5937    6.1681 C   0  0  2  0  0  0  0  0  0  0  0  0
    5.4461    6.1144    5.7416 O   0  0  0  0  0  0  0  0  0  0  0  0
    1.1917    3.9695    8.2479 C   0  0  2  0  0  0  0  0  0  0  0  0
   -4.6126    4.2383   12.5812 C   0  0  1  0  0  0  0  0  0  0  0  0
   -4.7521    5.2021   13.6217 O   0  0  0  0  0  0  0  0  0  0  0  0
    3.8011    6.0204    7.5922 C   0  0  2  0  0  0  0  0  0  0  0  0
    2.4702    6.5037    8.0086 O   0  0  0  0  0  0  0  0  0  0  0  0
   -0.2150    4.2621    8.8271 C   0  0  2  0  0  0  0  0  0  0  0  0
   -0.3005    5.6538    9.1157 O   0  0  0  0  0  0  0  0  0  0  0  0
   -4.3345    4.9700   11.2304 C   0  0  0  0  0  0  0  0  0  0  0  0
   -3.0548    5.7165   11.2898 O   0  0  0  0  0  0  0  0  0  0  0  0
    4.8351    6.4494    8.6659 C   0  0  2  0  0  0  0  0  0  0  0  0
    5.8610    5.4641    8.7567 O   0  0  0  0  0  0  0  0  0  0  0  0
   -0.4582    3.4728   10.1345 C   0  0  1  0  0  0  0  0  0  0  0  0
   -1.7909    3.8073   10.5887 O   0  0  0  0  0  0  0  0  0  0  0  0
    4.1935    6.5876   10.0366 C   0  0  0  0  0  0  0  0  0  0  0  0
   -5.9259    3.4719   12.4826 C   0  0  0  0  0  0  0  0  0  0  0  0
   -3.1072    1.2033   14.0515 C   0  0  0  0  0  0  0  0  0  0  0  0
  1  2  1  6  0  0  0
  1  6  1  0  0  0  0
  1 23  1  0  0  0  0
  3  4  1  1  0  0  0
  3  8  1  0  0  0  0
  3 30  1  0  0  0  0
  5  9  1  0  0  0  0
  5 27  1  0  0  0  0
  5 31  1  6  0  0  0
  6  7  1  6  0  0  0
  6 11  1  0  0  0  0
  8 13  1  0  0  0  0
  9 10  1  6  0  0  0
  9 15  1  0  0  0  0
 11 12  1  6  0  0  0
 11 17  1  0  0  0  0
 13 14  1  1  0  0  0
 13 19  1  0  0  0  0
 15 16  1  1  0  0  0
 15 20  1  0  0  0  0
 16 34  1  0  0  0  0
 17 18  1  6  0  0  0
 17 22  1  0  0  0  0
 19  2  1  6  0  0  0
 19 24  1  0  0  0  0
 20 21  1  1  0  0  0
 20 26  1  0  0  0  0
 20 33  1  0  0  0  0
 22 23  1  1  0  0  0
 22 28  1  0  0  0  0
 24 25  1  1  0  0  0
 24 30  1  0  0  0  0
 26 27  1  0  0  0  0
 28 29  1  1  0  0  0
 28 32  1  0  0  0  0
 30 31  1  6  0  0  0
M  END
>  <CHROM.1>
177.54038613,-175.69036624,-96.86700500,-91.39729300,148.69004902,-101.10387107
0.22188415,4.54554537,9.44138656,0.69751363,0.32537022,-0.83668251

>  <Name>
ligand

>  <RI>
0

>  <Rbt.Current_Directory>
/home/itssahil/PROJECTS/Mol_Feturizer/New_Systems/rnas/3TD1

>  <Rbt.Executable>
rbdock ($Id: //depot/dev/client3/rdock/2013.1/src/exe/rbdock.cxx#4 $)

>  <Rbt.Library>
libRbt.so (2013.1, Build901 2013/11/27)

>  <Rbt.Parameter_File>
/export/apps/rDock/src/rDock_2013.1_src/data/scripts/dock_solv.prm

>  <Rbt.Receptor>
prm/blind_docking_60.prm

>  <SCORE>
24.1661

>  <SCORE.INTER>
7.71623

>  <SCORE.INTER.CONST>
1

>  <SCORE.INTER.POLAR>
0

>  <SCORE.INTER.ROT>
6

>  <SCORE.INTER.SOLV>
25.1851

>  <SCORE.INTER.VDW>
-10.8509

>  <SCORE.INTER.norm>
0.226948

>  <SCORE.INTRA>
-2.16801

>  <SCORE.INTRA.DIHEDRAL>
-6.3608

>  <SCORE.INTRA.DIHEDRAL.0>
19.5869

>  <SCORE.INTRA.POLAR>
0

>  <SCORE.INTRA.POLAR.0>
0

>  <SCORE.INTRA.REPUL>
0

>  <SCORE.INTRA.REPUL.0>
0

>  <SCORE.INTRA.SOLV>
-1.51049

>  <SCORE.INTRA.SOLV.lig_0>
-70.101

>  <SCORE.INTRA.VDW>
1.76764

>  <SCORE.INTRA.VDW.0>
-3.39718

>  <SCORE.INTRA.norm>
-0.063765

>  <SCORE.RESTR>
18.6179

>  <SCORE.RESTR.CAVITY>
18.6179

>  <SCORE.RESTR.norm>
0.547584

>  <SCORE.SYSTEM>
0

>  <SCORE.SYSTEM.CONST>
0

>  <SCORE.SYSTEM.DIHEDRAL>
0

>  <SCORE.SYSTEM.SOLV>
0

>  <SCORE.SYSTEM.norm>
0

>  <SCORE.heavy>
34

>  <SCORE.norm>
0.710767

>  <RMSD>
12.159

$$$$
ligand
 OpenBabel11021811483D
libRbt.so/2013.1/901 2013/11/27
 34 36  0  0  0  0  0  0  0  0999 V2000
    3.2571    4.6477    7.9149 C   0  0  2  0  0  0  0  0  0  0  0  0
    2.0270    3.9573    7.6454 O   0  0  0  0  0  0  0  0  0  0  0  0
   -0.7184    1.4434    9.7444 C   0  0  2  0  0  0  0  0  0  0  0  0
   -1.3325    0.6266   10.7853 N   0  0  0  0  0  0  0  0  0  0  0  0
   -2.0871    4.5346   11.4396 C   0  0  2  0  0  0  0  0  0  0  0  0
    2.9424    5.8348    8.8939 C   0  0  2  0  0  0  0  0  0  0  0  0
    2.3858    5.3425   10.1636 N   0  0  0  0  0  0  0  0  0  0  0  0
    0.7203    0.8797    9.4952 C   0  0  0  0  0  0  0  0  0  0  0  0
   -2.0613    3.7834   12.8187 C   0  0  2  0  0  0  0  0  0  0  0  0
   -0.8253    3.1062   12.9753 O   0  0  0  0  0  0  0  0  0  0  0  0
    1.9429    6.8006    8.2212 C   0  0  1  0  0  0  0  0  0  0  0  0
    1.6565    7.8937    9.1088 O   0  0  0  0  0  0  0  0  0  0  0  0
    1.3719    1.7415    8.3613 C   0  0  2  0  0  0  0  0  0  0  0  0
    2.7403    1.2596    8.0837 N   0  0  0  0  0  0  0  0  0  0  0  0
   -3.2715    2.7721   12.8658 C   0  0  1  0  0  0  0  0  0  0  0  0
   -3.2824    2.0187   14.1556 N   0  0  0  0  0  0  0  0  0  0  0  0
    2.5486    7.2952    6.8863 C   0  0  2  0  0  0  0  0  0  0  0  0
    1.6234    8.1884    6.2423 O   0  0  0  0  0  0  0  0  0  0  0  0
    1.4388    3.2355    8.7690 C   0  0  2  0  0  0  0  0  0  0  0  0
   -4.6087    3.5699   12.6891 C   0  0  1  0  0  0  0  0  0  0  0  0
   -4.7566    4.4982   13.7602 O   0  0  0  0  0  0  0  0  0  0  0  0
    2.8601    6.0603    5.9575 C   0  0  2  0  0  0  0  0  0  0  0  0
    3.7944    5.1428    6.6382 O   0  0  0  0  0  0  0  0  0  0  0  0
    0.0092    3.7498    9.0717 C   0  0  2  0  0  0  0  0  0  0  0  0
    0.0973    5.1166    9.4610 O   0  0  0  0  0  0  0  0  0  0  0  0
   -4.5522    4.3449   11.3350 C   0  0  0  0  0  0  0  0  0  0  0  0
   -3.3688    5.2370   11.2880 O   0  0  0  0  0  0  0  0  0  0  0  0
    3.4949    6.4941    4.6104 C   0  0  2  0  0  0  0  0  0  0  0  0
    3.0434    5.6279    3.5725 O   0  0  0  0  0  0  0  0  0  0  0  0
   -0.6416    2.9508   10.2247 C   0  0  1  0  0  0  0  0  0  0  0  0
   -1.9658    3.4992   10.4244 O   0  0  0  0  0  0  0  0  0  0  0  0
    5.0121    6.4200    4.6576 C   0  0  0  0  0  0  0  0  0  0  0  0
   -5.8268    2.6545   12.6998 C   0  0  0  0  0  0  0  0  0  0  0  0
   -3.0546    2.9778   15.2534 C   0  0  0  0  0  0  0  0  0  0  0  0
  1  2  1  6  0  0  0
  1  6  1  0  0  0  0
  1 23  1  0  0  0  0
  3  4  1  1  0  0  0
  3  8  1  0  0  0  0
  3 30  1  0  0  0  0
  5  9  1  0  0  0  0
  5 27  1  0  0  0  0
  5 31  1  6  0  0  0
  6  7  1  1  0  0  0
  6 11  1  0  0  0  0
  8 13  1  0  0  0  0
  9 10  1  6  0  0  0
  9 15  1  0  0  0  0
 11 12  1  1  0  0  0
 11 17  1  0  0  0  0
 13 14  1  1  0  0  0
 13 19  1  0  0  0  0
 15 16  1  1  0  0  0
 15 20  1  0  0  0  0
 16 34  1  0  0  0  0
 17 18  1  6  0  0  0
 17 22  1  0  0  0  0
 19  2  1  6  0  0  0
 19 24  1  0  0  0  0
 20 21  1  1  0  0  0
 20 26  1  0  0  0  0
 20 33  1  0  0  0  0
 22 23  1  1  0  0  0
 22 28  1  0  0  0  0
 24 25  1  1  0  0  0
 24 30  1  0  0  0  0
 26 27  1  0  0  0  0
 28 29  1  6  0  0  0
 28 32  1  0  0  0  0
 30 31  1  6  0  0  0
M  END
>  <CHROM.1>
-67.84789530,-119.38332934,45.34710958,-145.19799818,150.15311038,-76.94931682
0.01121895,4.26466108,9.58750653,-0.43446642,-0.72719244,2.92450704

>  <Name>
ligand

>  <RI>
0

>  <Rbt.Current_Directory>
/home/itssahil/PROJECTS/Mol_Feturizer/New_Systems/rnas/3TD1

>  <Rbt.Executable>
rbdock ($Id: //depot/dev/client3/rdock/2013.1/src/exe/rbdock.cxx#4 $)

>  <Rbt.Library>
libRbt.so (2013.1, Build901 2013/11/27)

>  <Rbt.Parameter_File>
/export/apps/rDock/src/rDock_2013.1_src/data/scripts/dock_solv.prm

>  <Rbt.Receptor>
prm/blind_docking_60.prm

>  <SCORE>
71.9146

>  <SCORE.INTER>
47.7656

>  <SCORE.INTER.CONST>
1

>  <SCORE.INTER.POLAR>
0

>  <SCORE.INTER.ROT>
6

>  <SCORE.INTER.SOLV>
30.5251

>  <SCORE.INTER.VDW>
14.0687

>  <SCORE.INTER.norm>
1.40487

>  <SCORE.INTRA>
8.62309

>  <SCORE.INTRA.DIHEDRAL>
-3.62752

>  <SCORE.INTRA.DIHEDRAL.0>
19.5869

>  <SCORE.INTRA.POLAR>
0

>  <SCORE.INTRA.POLAR.0>
0

>  <SCORE.INTRA.REPUL>
0

>  <SCORE.INTRA.REPUL.0>
0

>  <SCORE.INTRA.SOLV>
2.69349

>  <SCORE.INTRA.SOLV.lig_0>
-70.101

>  <SCORE.INTRA.VDW>
9.09011

>  <SCORE.INTRA.VDW.0>
-3.39718

>  <SCORE.INTRA.norm>
0.25362

>  <SCORE.RESTR>
15.5259

>  <SCORE.RESTR.CAVITY>
15.5259

>  <SCORE.RESTR.norm>
0.456643

>  <SCORE.SYSTEM>
0

>  <SCORE.SYSTEM.CONST>
0

>  <SCORE.SYSTEM.DIHEDRAL>
0

>  <SCORE.SYSTEM.SOLV>
0

>  <SCORE.SYSTEM.norm>
0

>  <SCORE.heavy>
34

>  <SCORE.norm>
2.11513

>  <RMSD>
12.216

$$$$
ligand
 OpenBabel11021811483D
libRbt.so/2013.1/901 2013/11/27
 34 36  0  0  0  0  0  0  0  0999 V2000
    1.1706    5.2934    6.2744 C   0  0  2  0  0  0  0  0  0  0  0  0
    0.1086    5.2181    7.2383 O   0  0  0  0  0  0  0  0  0  0  0  0
    0.7784    1.0897    8.1154 C   0  0  2  0  0  0  0  0  0  0  0  0
    0.7042   -0.2232    8.7470 N   0  0  0  0  0  0  0  0  0  0  0  0
    0.1064    0.2230    5.4558 C   0  0  2  0  0  0  0  0  0  0  0  0
    1.6735    6.7804    6.2223 C   0  0  2  0  0  0  0  0  0  0  0  0
    2.1878    7.2130    7.5309 N   0  0  0  0  0  0  0  0  0  0  0  0
    1.1409    2.1257    9.2313 C   0  0  0  0  0  0  0  0  0  0  0  0
   -0.5910    0.1463    4.0505 C   0  0  2  0  0  0  0  0  0  0  0  0
   -1.1747    1.3991    3.7334 O   0  0  0  0  0  0  0  0  0  0  0  0
    0.5110    7.6979    5.7850 C   0  0  1  0  0  0  0  0  0  0  0  0
    0.9664    9.0595    5.7275 O   0  0  0  0  0  0  0  0  0  0  0  0
    1.2437    3.5322    8.5500 C   0  0  2  0  0  0  0  0  0  0  0  0
    1.5791    4.5584    9.5579 N   0  0  0  0  0  0  0  0  0  0  0  0
   -1.6814   -0.9934    4.0893 C   0  0  1  0  0  0  0  0  0  0  0  0
   -2.3868   -1.0966    2.7766 N   0  0  0  0  0  0  0  0  0  0  0  0
   -0.0159    7.2157    4.4126 C   0  0  2  0  0  0  0  0  0  0  0  0
   -1.1073    8.0551    3.9968 O   0  0  0  0  0  0  0  0  0  0  0  0
   -0.0937    3.9171    7.8673 C   0  0  2  0  0  0  0  0  0  0  0  0
   -0.9853   -2.3522    4.4425 C   0  0  1  0  0  0  0  0  0  0  0  0
   -0.0314   -2.6768    3.4347 O   0  0  0  0  0  0  0  0  0  0  0  0
   -0.4858    5.7152    4.5243 C   0  0  2  0  0  0  0  0  0  0  0  0
    0.6378    4.8688    4.9707 O   0  0  0  0  0  0  0  0  0  0  0  0
   -0.4605    2.8423    6.8137 C   0  0  2  0  0  0  0  0  0  0  0  0
   -1.6993    3.2067    6.2138 O   0  0  0  0  0  0  0  0  0  0  0  0
   -0.2576   -2.1981    5.8151 C   0  0  0  0  0  0  0  0  0  0  0  0
    0.7122   -1.0773    5.7739 O   0  0  0  0  0  0  0  0  0  0  0  0
   -1.0022    5.1673    3.1682 C   0  0  2  0  0  0  0  0  0  0  0  0
   -1.5941    6.2280    2.4226 O   0  0  0  0  0  0  0  0  0  0  0  0
   -0.6207    1.4493    7.4661 C   0  0  1  0  0  0  0  0  0  0  0  0
   -0.9540    0.5219    6.4063 O   0  0  0  0  0  0  0  0  0  0  0  0
   -2.0534    4.0875    3.3651 C   0  0  0  0  0  0  0  0  0  0  0  0
   -1.9820   -3.5020    4.5224 C   0  0  0  0  0  0  0  0  0  0  0  0
   -3.5928   -0.2485    2.8317 C   0  0  0  0  0  0  0  0  0  0  0  0
  1  2  1  1  0  0  0
  1  6  1  0  0  0  0
  1 23  1  0  0  0  0
  3  4  1  1  0  0  0
  3  8  1  0  0  0  0
  3 30  1  0  0  0  0
  5  9  1  0  0  0  0
  5 27  1  0  0  0  0
  5 31  1  1  0  0  0
  6  7  1  1  0  0  0
  6 11  1  0  0  0  0
  8 13  1  0  0  0  0
  9 10  1  1  0  0  0
  9 15  1  0  0  0  0
 11 12  1  6  0  0  0
 11 17  1  0  0  0  0
 13 14  1  1  0  0  0
 13 19  1  0  0  0  0
 15 16  1  6  0  0  0
 15 20  1  0  0  0  0
 16 34  1  0  0  0  0
 17 18  1  1  0  0  0
 17 22  1  0  0  0  0
 19  2  1  6  0  0  0
 19 24  1  0  0  0  0
 20 21  1  6  0  0  0
 20 26  1  0  0  0  0
 20 33  1  0  0  0  0
 22 23  1  6  0  0  0
 22 28  1  0  0  0  0
 24 25  1  1  0  0  0
 24 30  1  0  0  0  0
 26 27  1  0  0  0  0
 28 29  1  6  0  0  0
 28 32  1  0  0  0  0
 30 31  1  6  0  0  0
M  END
>  <CHROM.1>
-153.86951264,57.85988224,-92.54673133,-31.48111674,-46.06975010,-140.78731589
-0.29823074,2.75302972,5.59078199,-1.19799417,1.07779878,2.93521291

>  <Name>
ligand

>  <RI>
0

>  <Rbt.Current_Directory>
/home/itssahil/PROJECTS/Mol_Feturizer/New_Systems/rnas/3TD1

>  <Rbt.Executable>
rbdock ($Id: //depot/dev/client3/rdock/2013.1/src/exe/rbdock.cxx#4 $)

>  <Rbt.Library>
libRbt.so (2013.1, Build901 2013/11/27)

>  <Rbt.Parameter_File>
/export/apps/rDock/src/rDock_2013.1_src/data/scripts/dock_solv.prm

>  <Rbt.Receptor>
prm/blind_docking_80.prm

>  <SCORE>
14.0544

>  <SCORE.INTER>
6.16048

>  <SCORE.INTER.CONST>
1

>  <SCORE.INTER.POLAR>
0

>  <SCORE.INTER.ROT>
6

>  <SCORE.INTER.SOLV>
20.2226

>  <SCORE.INTER.VDW>
-10.2339

>  <SCORE.INTER.norm>
0.181191

>  <SCORE.INTRA>
-0.697208

>  <SCORE.INTRA.DIHEDRAL>
-7.27648

>  <SCORE.INTRA.DIHEDRAL.0>
19.5869

>  <SCORE.INTRA.POLAR>
0

>  <SCORE.INTRA.POLAR.0>
0

>  <SCORE.INTRA.REPUL>
0

>  <SCORE.INTRA.REPUL.0>
0

>  <SCORE.INTRA.SOLV>
1.79284

>  <SCORE.INTRA.SOLV.lig_0>
-70.101

>  <SCORE.INTRA.VDW>
2.04461

>  <SCORE.INTRA.VDW.0>
-3.39718

>  <SCORE.INTRA.norm>
-0.0205061

>  <SCORE.RESTR>
8.5911

>  <SCORE.RESTR.CAVITY>
8.5911

>  <SCORE.RESTR.norm>
0.25268

>  <SCORE.SYSTEM>
0

>  <SCORE.SYSTEM.CONST>
0

>  <SCORE.SYSTEM.DIHEDRAL>
0

>  <SCORE.SYSTEM.SOLV>
0

>  <SCORE.SYSTEM.norm>
0

>  <SCORE.heavy>
34

>  <SCORE.norm>
0.413364

>  <RMSD>
12.238

$$$$
ligand
 OpenBabel11021811483D
libRbt.so/2013.1/901 2013/11/27
 34 36  0  0  0  0  0  0  0  0999 V2000
    1.3035    5.3869    6.0913 C   0  0  2  0  0  0  0  0  0  0  0  0
    0.2935    5.1796    7.0911 O   0  0  0  0  0  0  0  0  0  0  0  0
    1.4158    1.1245    7.8384 C   0  0  2  0  0  0  0  0  0  0  0  0
    1.4780   -0.2122    8.4192 N   0  0  0  0  0  0  0  0  0  0  0  0
   -0.8249   -0.8410    6.3796 C   0  0  2  0  0  0  0  0  0  0  0  0
    1.6949    6.9078    6.1056 C   0  0  2  0  0  0  0  0  0  0  0  0
    2.2342    7.3050    7.4154 N   0  0  0  0  0  0  0  0  0  0  0  0
    1.6250    2.1503    9.0018 C   0  0  0  0  0  0  0  0  0  0  0  0
   -0.2963   -1.8637    5.3111 C   0  0  2  0  0  0  0  0  0  0  0  0
    1.1116   -1.9918    5.4221 O   0  0  0  0  0  0  0  0  0  0  0  0
    0.4510    7.7587    5.7693 C   0  0  1  0  0  0  0  0  0  0  0  0
    0.8039    9.1516    5.7729 O   0  0  0  0  0  0  0  0  0  0  0  0
    1.5816    3.5852    8.3756 C   0  0  2  0  0  0  0  0  0  0  0  0
    1.7681    4.6025    9.4300 N   0  0  0  0  0  0  0  0  0  0  0  0
   -0.7075   -1.3528    3.8761 C   0  0  1  0  0  0  0  0  0  0  0  0
   -0.2128   -2.2858    2.8197 N   0  0  0  0  0  0  0  0  0  0  0  0
   -0.1000    7.3147    4.3935 C   0  0  2  0  0  0  0  0  0  0  0  0
   -1.2665    8.0920    4.0714 O   0  0  0  0  0  0  0  0  0  0  0  0
    0.2273    3.8400    7.6659 C   0  0  2  0  0  0  0  0  0  0  0  0
   -2.2682   -1.2296    3.8074 C   0  0  1  0  0  0  0  0  0  0  0  0
   -2.8584   -2.5101    4.0149 O   0  0  0  0  0  0  0  0  0  0  0  0
   -0.4549    5.7795    4.4366 C   0  0  2  0  0  0  0  0  0  0  0  0
    0.7455    4.9960    4.7876 O   0  0  0  0  0  0  0  0  0  0  0  0
    0.0166    2.7727    6.5630 C   0  0  2  0  0  0  0  0  0  0  0  0
   -1.2397    3.0154    5.9383 O   0  0  0  0  0  0  0  0  0  0  0  0
   -2.7416   -0.2524    4.9293 C   0  0  0  0  0  0  0  0  0  0  0  0
   -2.2843   -0.7182    6.2606 O   0  0  0  0  0  0  0  0  0  0  0  0
   -0.9900    5.2701    3.0728 C   0  0  2  0  0  0  0  0  0  0  0  0
   -1.6623    6.3318    2.4005 O   0  0  0  0  0  0  0  0  0  0  0  0
    0.0022    1.3459    7.1591 C   0  0  1  0  0  0  0  0  0  0  0  0
   -0.1923    0.4290    6.0565 O   0  0  0  0  0  0  0  0  0  0  0  0
   -1.9760    4.1273    3.2505 C   0  0  0  0  0  0  0  0  0  0  0  0
   -2.7427   -0.7164    2.4535 C   0  0  0  0  0  0  0  0  0  0  0  0
    0.2841   -1.4808    1.6874 C   0  0  0  0  0  0  0  0  0  0  0  0
  1  2  1  1  0  0  0
  1  6  1  0  0  0  0
  1 23  1  0  0  0  0
  3  4  1  1  0  0  0
  3  8  1  0  0  0  0
  3 30  1  0  0  0  0
  5  9  1  0  0  0  0
  5 27  1  0  0  0  0
  5 31  1  6  0  0  0
  6  7  1  1  0  0  0
  6 11  1  0  0  0  0
  8 13  1  0  0  0  0
  9 10  1  6  0  0  0
  9 15  1  0  0  0  0
 11 12  1  6  0  0  0
 11 17  1  0  0  0  0
 13 14  1  1  0  0  0
 13 19  1  0  0  0  0
 15 16  1  6  0  0  0
 15 20  1  0  0  0  0
 16 34  1  0  0  0  0
 17 18  1  1  0  0  0
 17 22  1  0  0  0  0
 19  2  1  6  0  0  0
 19 24  1  0  0  0  0
 20 21  1  1  0  0  0
 20 26  1  0  0  0  0
 20 33  1  0  0  0  0
 22 23  1  6  0  0  0
 22 28  1  0  0  0  0
 24 25  1  1  0  0  0
 24 30  1  0  0  0  0
 26 27  1  0  0  0  0
 28 29  1  1  0  0  0
 28 32  1  0  0  0  0
 30 31  1  6  0  0  0
M  END
>  <CHROM.1>
-152.96125435,62.27588257,-139.55149658,-30.12960517,90.84836056,-152.50035494
-0.20139914,2.68176702,5.49321639,-1.21132066,1.04672396,2.97076535

>  <Name>
ligand

>  <RI>
0

>  <Rbt.Current_Directory>
/home/itssahil/PROJECTS/Mol_Feturizer/New_Systems/rnas/3TD1

>  <Rbt.Executable>
rbdock ($Id: //depot/dev/client3/rdock/2013.1/src/exe/rbdock.cxx#4 $)

>  <Rbt.Library>
libRbt.so (2013.1, Build901 2013/11/27)

>  <Rbt.Parameter_File>
/export/apps/rDock/src/rDock_2013.1_src/data/scripts/dock_solv.prm

>  <Rbt.Receptor>
prm/blind_docking_80.prm

>  <SCORE>
10.8077

>  <SCORE.INTER>
2.58535

>  <SCORE.INTER.CONST>
1

>  <SCORE.INTER.POLAR>
0

>  <SCORE.INTER.ROT>
6

>  <SCORE.INTER.SOLV>
23.9854

>  <SCORE.INTER.VDW>
-13.8716

>  <SCORE.INTER.norm>
0.0760398

>  <SCORE.INTRA>
-1.07976

>  <SCORE.INTRA.DIHEDRAL>
-6.01375

>  <SCORE.INTRA.DIHEDRAL.0>
19.5869

>  <SCORE.INTRA.POLAR>
0

>  <SCORE.INTRA.POLAR.0>
0

>  <SCORE.INTRA.REPUL>
0

>  <SCORE.INTRA.REPUL.0>
0

>  <SCORE.INTRA.SOLV>
0.632716

>  <SCORE.INTRA.SOLV.lig_0>
-70.101

>  <SCORE.INTRA.VDW>
1.61076

>  <SCORE.INTRA.VDW.0>
-3.39718

>  <SCORE.INTRA.norm>
-0.0317576

>  <SCORE.RESTR>
9.30211

>  <SCORE.RESTR.CAVITY>
9.30211

>  <SCORE.RESTR.norm>
0.273591

>  <SCORE.SYSTEM>
0

>  <SCORE.SYSTEM.CONST>
0

>  <SCORE.SYSTEM.DIHEDRAL>
0

>  <SCORE.SYSTEM.SOLV>
0

>  <SCORE.SYSTEM.norm>
0

>  <SCORE.heavy>
34

>  <SCORE.norm>
0.317874

>  <RMSD>
12.239

$$$$
ligand
 OpenBabel11021811483D
libRbt.so/2013.1/901 2013/11/27
 34 36  0  0  0  0  0  0  0  0999 V2000
    1.1831    5.3181    6.2644 C   0  0  2  0  0  0  0  0  0  0  0  0
    0.1260    5.2321    7.2328 O   0  0  0  0  0  0  0  0  0  0  0  0
    0.8122    1.0990    8.0745 C   0  0  2  0  0  0  0  0  0  0  0  0
    0.7533   -0.2162    8.7028 N   0  0  0  0  0  0  0  0  0  0  0  0
    0.1050    0.1152    5.5300 C   0  0  2  0  0  0  0  0  0  0  0  0
    1.6750    6.8087    6.2146 C   0  0  2  0  0  0  0  0  0  0  0  0
    2.1920    7.2412    7.5222 N   0  0  0  0  0  0  0  0  0  0  0  0
    1.2086    2.1300    9.1835 C   0  0  0  0  0  0  0  0  0  0  0  0
   -0.5804   -0.2193    4.1569 C   0  0  2  0  0  0  0  0  0  0  0  0
   -1.1963    0.9441    3.6298 O   0  0  0  0  0  0  0  0  0  0  0  0
    0.5039    7.7191    5.7852 C   0  0  1  0  0  0  0  0  0  0  0  0
    0.9492    9.0842    5.7299 O   0  0  0  0  0  0  0  0  0  0  0  0
    1.2948    3.5389    8.5049 C   0  0  2  0  0  0  0  0  0  0  0  0
    1.6610    4.5606    9.5067 N   0  0  0  0  0  0  0  0  0  0  0  0
   -1.6392   -1.3663    4.3871 C   0  0  1  0  0  0  0  0  0  0  0  0
   -2.3325   -1.7114    3.1097 N   0  0  0  0  0  0  0  0  0  0  0  0
   -0.0256    7.2372    4.4137 C   0  0  2  0  0  0  0  0  0  0  0  0
   -1.1249    8.0699    4.0053 O   0  0  0  0  0  0  0  0  0  0  0  0
   -0.0608    3.9291    7.8623 C   0  0  2  0  0  0  0  0  0  0  0  0
   -0.9082   -2.6248    4.9680 C   0  0  1  0  0  0  0  0  0  0  0  0
    0.0611   -3.0890    4.0321 O   0  0  0  0  0  0  0  0  0  0  0  0
   -0.4841    5.7331    4.5230 C   0  0  2  0  0  0  0  0  0  0  0  0
    0.6476    4.8935    4.9618 O   0  0  0  0  0  0  0  0  0  0  0  0
   -0.4599    2.8591    6.8155 C   0  0  2  0  0  0  0  0  0  0  0  0
   -1.7147    3.2283    6.2528 O   0  0  0  0  0  0  0  0  0  0  0  0
   -0.1944   -2.2188    6.2957 C   0  0  0  0  0  0  0  0  0  0  0  0
    0.7443   -1.0942    6.0661 O   0  0  0  0  0  0  0  0  0  0  0  0
   -1.0026    5.1855    3.1675 C   0  0  2  0  0  0  0  0  0  0  0  0
   -1.7016    6.2169    2.4755 O   0  0  0  0  0  0  0  0  0  0  0  0
   -0.6043    1.4640    7.4669 C   0  0  1  0  0  0  0  0  0  0  0  0
   -0.9697    0.5414    6.4136 O   0  0  0  0  0  0  0  0  0  0  0  0
   -1.9581    4.0201    3.3639 C   0  0  0  0  0  0  0  0  0  0  0  0
   -1.8733   -3.7721    5.2405 C   0  0  0  0  0  0  0  0  0  0  0  0
   -3.4328   -0.7498    2.9063 C   0  0  0  0  0  0  0  0  0  0  0  0
  1  2  1  1  0  0  0
  1  6  1  0  0  0  0
  1 23  1  0  0  0  0
  3  4  1  1  0  0  0
  3  8  1  0  0  0  0
  3 30  1  0  0  0  0
  5  9  1  0  0  0  0
  5 27  1  0  0  0  0
  5 31  1  1  0  0  0
  6  7  1  1  0  0  0
  6 11  1  0  0  0  0
  8 13  1  0  0  0  0
  9 10  1  1  0  0  0
  9 15  1  0  0  0  0
 11 12  1  6  0  0  0
 11 17  1  0  0  0  0
 13 14  1  1  0  0  0
 13 19  1  0  0  0  0
 15 16  1  6  0  0  0
 15 20  1  0  0  0  0
 16 34  1  0  0  0  0
 17 18  1  1  0  0  0
 17 22  1  0  0  0  0
 19  2  1  6  0  0  0
 19 24  1  0  0  0  0
 20 21  1  6  0  0  0
 20 26  1  0  0  0  0
 20 33  1  0  0  0  0
 22 23  1  6  0  0  0
 22 28  1  0  0  0  0
 24 25  1  1  0  0  0
 24 30  1  0  0  0  0
 26 27  1  0  0  0  0
 28 29  1  1  0  0  0
 28 32  1  0  0  0  0
 30 31  1  6  0  0  0
M  END
>  <CHROM.1>
-153.65346903,56.29310279,-83.23412243,-36.20333098,-38.71496998,-152.02299020
-0.27215590,2.65964305,5.68684297,-1.24310005,1.05929314,2.93051764

>  <Name>
ligand

>  <RI>
0

>  <Rbt.Current_Directory>
/home/itssahil/PROJECTS/Mol_Feturizer/New_Systems/rnas/3TD1

>  <Rbt.Executable>
rbdock ($Id: //depot/dev/client3/rdock/2013.1/src/exe/rbdock.cxx#4 $)

>  <Rbt.Library>
libRbt.so (2013.1, Build901 2013/11/27)

>  <Rbt.Parameter_File>
/export/apps/rDock/src/rDock_2013.1_src/data/scripts/dock_solv.prm

>  <Rbt.Receptor>
prm/blind_docking_80.prm

>  <SCORE>
13.5058

>  <SCORE.INTER>
5.88059

>  <SCORE.INTER.CONST>
1

>  <SCORE.INTER.POLAR>
0

>  <SCORE.INTER.ROT>
6

>  <SCORE.INTER.SOLV>
19.0373

>  <SCORE.INTER.VDW>
-10.0254

>  <SCORE.INTER.norm>
0.172958

>  <SCORE.INTRA>
-1.02032

>  <SCORE.INTRA.DIHEDRAL>
-9.09378

>  <SCORE.INTRA.DIHEDRAL.0>
19.5869

>  <SCORE.INTRA.POLAR>
0

>  <SCORE.INTRA.POLAR.0>
0

>  <SCORE.INTRA.REPUL>
0

>  <SCORE.INTRA.REPUL.0>
0

>  <SCORE.INTRA.SOLV>
2.0906

>  <SCORE.INTRA.SOLV.lig_0>
-70.101

>  <SCORE.INTRA.VDW>
2.48127

>  <SCORE.INTRA.VDW.0>
-3.39718

>  <SCORE.INTRA.norm>
-0.0300093

>  <SCORE.RESTR>
8.64555

>  <SCORE.RESTR.CAVITY>
8.64555

>  <SCORE.RESTR.norm>
0.254281

>  <SCORE.SYSTEM>
0

>  <SCORE.SYSTEM.CONST>
0

>  <SCORE.SYSTEM.DIHEDRAL>
0

>  <SCORE.SYSTEM.SOLV>
0

>  <SCORE.SYSTEM.norm>
0

>  <SCORE.heavy>
34

>  <SCORE.norm>
0.39723

>  <RMSD>
12.245

$$$$
ligand
 OpenBabel11021811483D
libRbt.so/2013.1/901 2013/11/27
 34 36  0  0  0  0  0  0  0  0999 V2000
    1.2457    5.3907    6.0766 C   0  0  2  0  0  0  0  0  0  0  0  0
    0.2225    5.1786    7.0618 O   0  0  0  0  0  0  0  0  0  0  0  0
    1.3815    1.1428    7.8558 C   0  0  2  0  0  0  0  0  0  0  0  0
    1.4533   -0.1877    8.4497 N   0  0  0  0  0  0  0  0  0  0  0  0
   -0.8200   -0.8630    6.4006 C   0  0  2  0  0  0  0  0  0  0  0  0
    1.6497    6.9079    6.1160 C   0  0  2  0  0  0  0  0  0  0  0  0
    2.1770    7.2827    7.4372 N   0  0  0  0  0  0  0  0  0  0  0  0
    1.5713    2.1816    9.0110 C   0  0  0  0  0  0  0  0  0  0  0  0
   -0.2801   -1.8845    5.3365 C   0  0  2  0  0  0  0  0  0  0  0  0
    1.1297   -1.9926    5.4444 O   0  0  0  0  0  0  0  0  0  0  0  0
    0.4169    7.7738    5.7771 C   0  0  1  0  0  0  0  0  0  0  0  0
    0.7814    9.1635    5.8037 O   0  0  0  0  0  0  0  0  0  0  0  0
    1.5175    3.6100    8.3708 C   0  0  2  0  0  0  0  0  0  0  0  0
    1.6854    4.6390    9.4170 N   0  0  0  0  0  0  0  0  0  0  0  0
   -0.7020   -1.3874    3.8997 C   0  0  1  0  0  0  0  0  0  0  0  0
   -0.1973   -2.3195    2.8472 N   0  0  0  0  0  0  0  0  0  0  0  0
   -0.1219    7.3532    4.3892 C   0  0  2  0  0  0  0  0  0  0  0  0
   -1.2780    8.1447    4.0643 O   0  0  0  0  0  0  0  0  0  0  0  0
    0.1660    3.8439    7.6487 C   0  0  2  0  0  0  0  0  0  0  0  0
   -2.2645   -1.2860    3.8345 C   0  0  1  0  0  0  0  0  0  0  0  0
   -2.8364   -2.5734    4.0508 O   0  0  0  0  0  0  0  0  0  0  0  0
   -0.4901    5.8207    4.4074 C   0  0  2  0  0  0  0  0  0  0  0  0
    0.6996    5.0223    4.7614 O   0  0  0  0  0  0  0  0  0  0  0  0
   -0.0252    2.7641    6.5544 C   0  0  2  0  0  0  0  0  0  0  0  0
   -1.2793    2.9876    5.9182 O   0  0  0  0  0  0  0  0  0  0  0  0
   -2.7483   -0.3092    4.9521 C   0  0  0  0  0  0  0  0  0  0  0  0
   -2.2812   -0.7611    6.2847 O   0  0  0  0  0  0  0  0  0  0  0  0
   -1.0137    5.3343    3.0307 C   0  0  2  0  0  0  0  0  0  0  0  0
   -1.7614    6.3779    2.4119 O   0  0  0  0  0  0  0  0  0  0  0  0
   -0.0292    1.3428    7.1639 C   0  0  1  0  0  0  0  0  0  0  0  0
   -0.2058    0.4136    6.0686 O   0  0  0  0  0  0  0  0  0  0  0  0
   -1.9235    4.1254    3.1737 C   0  0  0  0  0  0  0  0  0  0  0  0
   -2.7495   -0.7871    2.4789 C   0  0  0  0  0  0  0  0  0  0  0  0
    0.2952   -1.5138    1.7135 C   0  0  0  0  0  0  0  0  0  0  0  0
  1  2  1  1  0  0  0
  1  6  1  0  0  0  0
  1 23  1  0  0  0  0
  3  4  1  1  0  0  0
  3  8  1  0  0  0  0
  3 30  1  0  0  0  0
  5  9  1  0  0  0  0
  5 27  1  0  0  0  0
  5 31  1  6  0  0  0
  6  7  1  1  0  0  0
  6 11  1  0  0  0  0
  8 13  1  0  0  0  0
  9 10  1  6  0  0  0
  9 15  1  0  0  0  0
 11 12  1  6  0  0  0
 11 17  1  0  0  0  0
 13 14  1  1  0  0  0
 13 19  1  0  0  0  0
 15 16  1  6  0  0  0
 15 20  1  0  0  0  0
 16 34  1  0  0  0  0
 17 18  1  1  0  0  0
 17 22  1  0  0  0  0
 19  2  1  6  0  0  0
 19 24  1  0  0  0  0
 20 21  1  1  0  0  0
 20 26  1  0  0  0  0
 20 33  1  0  0  0  0
 22 23  1  6  0  0  0
 22 28  1  0  0  0  0
 24 25  1  1  0  0  0
 24 30  1  0  0  0  0
 26 27  1  0  0  0  0
 28 29  1  1  0  0  0
 28 32  1  0  0  0  0
 30 31  1  6  0  0  0
M  END
>  <CHROM.1>
-151.06832000,61.72132995,-139.12219054,-34.75171202,90.48599807,-152.89743853
-0.22563474,2.67927567,5.49745993,-1.22405220,1.05385696,2.97366128

>  <Name>
ligand

>  <RI>
0

>  <Rbt.Current_Directory>
/home/itssahil/PROJECTS/Mol_Feturizer/New_Systems/rnas/3TD1

>  <Rbt.Executable>
rbdock ($Id: //depot/dev/client3/rdock/2013.1/src/exe/rbdock.cxx#4 $)

>  <Rbt.Library>
libRbt.so (2013.1, Build901 2013/11/27)

>  <Rbt.Parameter_File>
/export/apps/rDock/src/rDock_2013.1_src/data/scripts/dock_solv.prm

>  <Rbt.Receptor>
prm/blind_docking_80.prm

>  <SCORE>
9.77764

>  <SCORE.INTER>
1.73188

>  <SCORE.INTER.CONST>
1

>  <SCORE.INTER.POLAR>
0

>  <SCORE.INTER.ROT>
6

>  <SCORE.INTER.SOLV>
23.4314

>  <SCORE.INTER.VDW>
-14.2559

>  <SCORE.INTER.norm>
0.0509377

>  <SCORE.INTRA>
-1.47874

>  <SCORE.INTRA.DIHEDRAL>
-6.44553

>  <SCORE.INTRA.DIHEDRAL.0>
19.5869

>  <SCORE.INTRA.POLAR>
0

>  <SCORE.INTRA.POLAR.0>
0

>  <SCORE.INTRA.REPUL>
0

>  <SCORE.INTRA.REPUL.0>
0

>  <SCORE.INTRA.SOLV>
0.717497

>  <SCORE.INTRA.SOLV.lig_0>
-70.101

>  <SCORE.INTRA.VDW>
1.38527

>  <SCORE.INTRA.VDW.0>
-3.39718

>  <SCORE.INTRA.norm>
-0.0434924

>  <SCORE.RESTR>
9.5245

>  <SCORE.RESTR.CAVITY>
9.5245

>  <SCORE.RESTR.norm>
0.280132

>  <SCORE.SYSTEM>
0

>  <SCORE.SYSTEM.CONST>
0

>  <SCORE.SYSTEM.DIHEDRAL>
0

>  <SCORE.SYSTEM.SOLV>
0

>  <SCORE.SYSTEM.norm>
0

>  <SCORE.heavy>
34

>  <SCORE.norm>
0.287578

>  <RMSD>
12.258

$$$$
ligand
 OpenBabel11021811483D
libRbt.so/2013.1/901 2013/11/27
 34 36  0  0  0  0  0  0  0  0999 V2000
    1.0231    5.3144    6.0072 C   0  0  2  0  0  0  0  0  0  0  0  0
    0.2857    5.1408    7.2273 O   0  0  0  0  0  0  0  0  0  0  0  0
    1.4390    1.0643    7.7878 C   0  0  2  0  0  0  0  0  0  0  0  0
    1.5329   -0.2885    8.3254 N   0  0  0  0  0  0  0  0  0  0  0  0
   -0.8625   -0.8696    6.4206 C   0  0  2  0  0  0  0  0  0  0  0  0
    1.4975    6.8098    5.9360 C   0  0  2  0  0  0  0  0  0  0  0  0
    2.3715    7.1442    7.0712 N   0  0  0  0  0  0  0  0  0  0  0  0
    1.7240    2.0562    8.9644 C   0  0  0  0  0  0  0  0  0  0  0  0
   -0.2864   -1.8784    5.3635 C   0  0  2  0  0  0  0  0  0  0  0  0
    1.1248   -1.9487    5.4837 O   0  0  0  0  0  0  0  0  0  0  0  0
    0.2633    7.7377    5.9318 C   0  0  1  0  0  0  0  0  0  0  0  0
    0.6900    9.1079    5.8588 O   0  0  0  0  0  0  0  0  0  0  0  0
    1.6463    3.5084    8.3830 C   0  0  2  0  0  0  0  0  0  0  0  0
    1.9017    4.4950    9.4521 N   0  0  0  0  0  0  0  0  0  0  0  0
   -0.7090   -1.3957    3.9220 C   0  0  1  0  0  0  0  0  0  0  0  0
   -0.1705   -2.3161    2.8760 N   0  0  0  0  0  0  0  0  0  0  0  0
   -0.6415    7.3590    4.7353 C   0  0  2  0  0  0  0  0  0  0  0  0
   -1.8019    8.2087    4.7245 O   0  0  0  0  0  0  0  0  0  0  0  0
    0.2511    3.7855    7.7670 C   0  0  2  0  0  0  0  0  0  0  0  0
   -2.2729   -1.3362    3.8431 C   0  0  1  0  0  0  0  0  0  0  0  0
   -2.8122   -2.6379    4.0574 O   0  0  0  0  0  0  0  0  0  0  0  0
   -1.0671    5.8458    4.8527 C   0  0  2  0  0  0  0  0  0  0  0  0
    0.1330    4.9872    4.8828 O   0  0  0  0  0  0  0  0  0  0  0  0
   -0.0317    2.7503    6.6496 C   0  0  2  0  0  0  0  0  0  0  0  0
   -1.3238    3.0126    6.1120 O   0  0  0  0  0  0  0  0  0  0  0  0
   -2.7923   -0.3703    4.9543 C   0  0  0  0  0  0  0  0  0  0  0  0
   -2.3248   -0.8069    6.2920 O   0  0  0  0  0  0  0  0  0  0  0  0
   -1.9574    5.4005    3.6633 C   0  0  2  0  0  0  0  0  0  0  0  0
   -1.6750    4.0409    3.3423 O   0  0  0  0  0  0  0  0  0  0  0  0
   -0.0136    1.3071    7.2048 C   0  0  1  0  0  0  0  0  0  0  0  0
   -0.2797    0.4223    6.0910 O   0  0  0  0  0  0  0  0  0  0  0  0
   -1.6959    6.2401    2.4238 C   0  0  0  0  0  0  0  0  0  0  0  0
   -2.7593   -0.8532    2.4823 C   0  0  0  0  0  0  0  0  0  0  0  0
    0.2079   -1.5091    1.7002 C   0  0  0  0  0  0  0  0  0  0  0  0
  1  2  1  1  0  0  0
  1  6  1  0  0  0  0
  1 23  1  0  0  0  0
  3  4  1  1  0  0  0
  3  8  1  0  0  0  0
  3 30  1  0  0  0  0
  5  9  1  0  0  0  0
  5 27  1  0  0  0  0
  5 31  1  6  0  0  0
  6  7  1  1  0  0  0
  6 11  1  0  0  0  0
  8 13  1  0  0  0  0
  9 10  1  6  0  0  0
  9 15  1  0  0  0  0
 11 12  1  6  0  0  0
 11 17  1  0  0  0  0
 13 14  1  1  0  0  0
 13 19  1  0  0  0  0
 15 16  1  6  0  0  0
 15 20  1  0  0  0  0
 16 34  1  0  0  0  0
 17 18  1  1  0  0  0
 17 22  1  0  0  0  0
 19  2  1  6  0  0  0
 19 24  1  0  0  0  0
 20 21  1  1  0  0  0
 20 26  1  0  0  0  0
 20 33  1  0  0  0  0
 22 23  1  6  0  0  0
 22 28  1  0  0  0  0
 24 25  1  1  0  0  0
 24 30  1  0  0  0  0
 26 27  1  0  0  0  0
 28 29  1  6  0  0  0
 28 32  1  0  0  0  0
 30 31  1  6  0  0  0
M  END
>  <CHROM.1>
-154.72264349,74.42418670,-143.69855057,145.53000244,89.27973320,-146.92230648
-0.30565352,2.63385835,5.57629926,-1.30112612,0.99297416,3.06795573

>  <Name>
ligand

>  <RI>
0

>  <Rbt.Current_Directory>
/home/itssahil/PROJECTS/Mol_Feturizer/New_Systems/rnas/3TD1

>  <Rbt.Executable>
rbdock ($Id: //depot/dev/client3/rdock/2013.1/src/exe/rbdock.cxx#4 $)

>  <Rbt.Library>
libRbt.so (2013.1, Build901 2013/11/27)

>  <Rbt.Parameter_File>
/export/apps/rDock/src/rDock_2013.1_src/data/scripts/dock_solv.prm

>  <Rbt.Receptor>
prm/blind_docking_80.prm

>  <SCORE>
15.4465

>  <SCORE.INTER>
2.156

>  <SCORE.INTER.CONST>
1

>  <SCORE.INTER.POLAR>
0

>  <SCORE.INTER.ROT>
6

>  <SCORE.INTER.SOLV>
23.0972

>  <SCORE.INTER.VDW>
-13.8617

>  <SCORE.INTER.norm>
0.0634117

>  <SCORE.INTRA>
2.88822

>  <SCORE.INTRA.DIHEDRAL>
-4.14464

>  <SCORE.INTRA.DIHEDRAL.0>
19.5869

>  <SCORE.INTRA.POLAR>
0

>  <SCORE.INTRA.POLAR.0>
0

>  <SCORE.INTRA.REPUL>
0

>  <SCORE.INTRA.REPUL.0>
0

>  <SCORE.INTRA.SOLV>
0.415901

>  <SCORE.INTRA.SOLV.lig_0>
-70.101

>  <SCORE.INTRA.VDW>
4.75259

>  <SCORE.INTRA.VDW.0>
-3.39718

>  <SCORE.INTRA.norm>
0.0849476

>  <SCORE.RESTR>
10.4023

>  <SCORE.RESTR.CAVITY>
10.4023

>  <SCORE.RESTR.norm>
0.30595

>  <SCORE.SYSTEM>
0

>  <SCORE.SYSTEM.CONST>
0

>  <SCORE.SYSTEM.DIHEDRAL>
0

>  <SCORE.SYSTEM.SOLV>
0

>  <SCORE.SYSTEM.norm>
0

>  <SCORE.heavy>
34

>  <SCORE.norm>
0.45431

>  <RMSD>
12.275

$$$$
ligand
 OpenBabel11021811483D
libRbt.so/2013.1/901 2013/11/27
 34 36  0  0  0  0  0  0  0  0999 V2000
    0.9045    5.6582    7.2549 C   0  0  2  0  0  0  0  0  0  0  0  0
    1.1930    4.2581    7.1169 O   0  0  0  0  0  0  0  0  0  0  0  0
   -0.3068    0.6346    8.8148 C   0  0  2  0  0  0  0  0  0  0  0  0
   -1.1705   -0.3240    9.4954 N   0  0  0  0  0  0  0  0  0  0  0  0
    0.0390   -0.4635    5.8961 C   0  0  2  0  0  0  0  0  0  0  0  0
    0.7027    6.2556    5.8165 C   0  0  2  0  0  0  0  0  0  0  0  0
   -0.4205    5.6049    5.1241 N   0  0  0  0  0  0  0  0  0  0  0  0
   -0.0959    1.8450    9.7845 C   0  0  0  0  0  0  0  0  0  0  0  0
   -0.3559   -0.6943    4.3935 C   0  0  2  0  0  0  0  0  0  0  0  0
   -0.7586    0.5325    3.8073 O   0  0  0  0  0  0  0  0  0  0  0  0
    2.0005    6.0722    5.0003 C   0  0  1  0  0  0  0  0  0  0  0  0
    1.8255    6.6240    3.6851 O   0  0  0  0  0  0  0  0  0  0  0  0
    0.8501    2.8641    9.0638 C   0  0  2  0  0  0  0  0  0  0  0  0
    1.0832    4.0371    9.9306 N   0  0  0  0  0  0  0  0  0  0  0  0
   -1.5187   -1.7592    4.3347 C   0  0  1  0  0  0  0  0  0  0  0  0
   -1.9427   -2.0032    2.9233 N   0  0  0  0  0  0  0  0  0  0  0  0
    3.1650    6.7571    5.7543 C   0  0  2  0  0  0  0  0  0  0  0  0
    4.3840    6.5852    5.0106 O   0  0  0  0  0  0  0  0  0  0  0  0
    0.2324    3.3436    7.7254 C   0  0  2  0  0  0  0  0  0  0  0  0
   -1.0223   -3.0918    4.9930 C   0  0  1  0  0  0  0  0  0  0  0  0
    0.0905   -3.6005    4.2623 O   0  0  0  0  0  0  0  0  0  0  0  0
    3.3041    6.1298    7.1937 C   0  0  2  0  0  0  0  0  0  0  0  0
    2.0406    6.2955    7.9382 O   0  0  0  0  0  0  0  0  0  0  0  0
   -0.0250    2.1199    6.8109 C   0  0  2  0  0  0  0  0  0  0  0  0
   -0.6084    2.5821    5.5971 O   0  0  0  0  0  0  0  0  0  0  0  0
   -0.5848   -2.7905    6.4611 C   0  0  0  0  0  0  0  0  0  0  0  0
    0.4593   -1.7383    6.4938 O   0  0  0  0  0  0  0  0  0  0  0  0
    4.4430    6.7966    8.0086 C   0  0  2  0  0  0  0  0  0  0  0  0
    5.6848    6.5993    7.3375 O   0  0  0  0  0  0  0  0  0  0  0  0
   -0.9989    1.1189    7.4749 C   0  0  1  0  0  0  0  0  0  0  0  0
   -1.1678    0.0176    6.5514 O   0  0  0  0  0  0  0  0  0  0  0  0
    4.5603    6.1967    9.4000 C   0  0  0  0  0  0  0  0  0  0  0  0
   -2.1030   -4.1660    4.9955 C   0  0  0  0  0  0  0  0  0  0  0  0
   -2.9614   -0.9975    2.5660 C   0  0  0  0  0  0  0  0  0  0  0  0
  1  2  1  6  0  0  0
  1  6  1  0  0  0  0
  1 23  1  0  0  0  0
  3  4  1  1  0  0  0
  3  8  1  0  0  0  0
  3 30  1  0  0  0  0
  5  9  1  0  0  0  0
  5 27  1  0  0  0  0
  5 31  1  1  0  0  0
  6  7  1  6  0  0  0
  6 11  1  0  0  0  0
  8 13  1  0  0  0  0
  9 10  1  1  0  0  0
  9 15  1  0  0  0  0
 11 12  1  6  0  0  0
 11 17  1  0  0  0  0
 13 14  1  1  0  0  0
 13 19  1  0  0  0  0
 15 16  1  6  0  0  0
 15 20  1  0  0  0  0
 16 34  1  0  0  0  0
 17 18  1  6  0  0  0
 17 22  1  0  0  0  0
 19  2  1  6  0  0  0
 19 24  1  0  0  0  0
 20 21  1  6  0  0  0
 20 26  1  0  0  0  0
 20 33  1  0  0  0  0
 22 23  1  1  0  0  0
 22 28  1  0  0  0  0
 24 25  1  6  0  0  0
 24 30  1  0  0  0  0
 26 27  1  0  0  0  0
 28 29  1  6  0  0  0
 28 32  1  0  0  0  0
 30 31  1  6  0  0  0
M  END
>  <CHROM.1>
-117.92540393,-101.45862935,-86.55421937,-61.12935832,-73.28334301,-137.04434243
0.63802409,2.27891108,6.35065907,-0.05801187,1.10684088,1.86640332

>  <Name>
ligand

>  <RI>
0

>  <Rbt.Current_Directory>
/home/itssahil/PROJECTS/Mol_Feturizer/New_Systems/rnas/3TD1

>  <Rbt.Executable>
rbdock ($Id: //depot/dev/client3/rdock/2013.1/src/exe/rbdock.cxx#4 $)

>  <Rbt.Library>
libRbt.so (2013.1, Build901 2013/11/27)

>  <Rbt.Parameter_File>
/export/apps/rDock/src/rDock_2013.1_src/data/scripts/dock_solv.prm

>  <Rbt.Receptor>
prm/blind_docking_80.prm

>  <SCORE>
12.3106

>  <SCORE.INTER>
0.0297286

>  <SCORE.INTER.CONST>
1

>  <SCORE.INTER.POLAR>
0

>  <SCORE.INTER.ROT>
6

>  <SCORE.INTER.SOLV>
18.0756

>  <SCORE.INTER.VDW>
-13.6054

>  <SCORE.INTER.norm>
0.000874371

>  <SCORE.INTRA>
2.40414

>  <SCORE.INTRA.DIHEDRAL>
0.45339

>  <SCORE.INTRA.DIHEDRAL.0>
19.5869

>  <SCORE.INTRA.POLAR>
0

>  <SCORE.INTRA.POLAR.0>
0

>  <SCORE.INTRA.REPUL>
0

>  <SCORE.INTRA.REPUL.0>
0

>  <SCORE.INTRA.SOLV>
1.18463

>  <SCORE.INTRA.SOLV.lig_0>
-70.101

>  <SCORE.INTRA.VDW>
1.58513

>  <SCORE.INTRA.VDW.0>
-3.39718

>  <SCORE.INTRA.norm>
0.07071

>  <SCORE.RESTR>
9.87672

>  <SCORE.RESTR.CAVITY>
9.87672

>  <SCORE.RESTR.norm>
0.290492

>  <SCORE.SYSTEM>
0

>  <SCORE.SYSTEM.CONST>
0

>  <SCORE.SYSTEM.DIHEDRAL>
0

>  <SCORE.SYSTEM.SOLV>
0

>  <SCORE.SYSTEM.norm>
0

>  <SCORE.heavy>
34

>  <SCORE.norm>
0.362076

>  <RMSD>
12.277

$$$$
ligand
 OpenBabel11021811483D
libRbt.so/2013.1/901 2013/11/27
 34 36  0  0  0  0  0  0  0  0999 V2000
    1.0295    5.6725    7.3328 C   0  0  2  0  0  0  0  0  0  0  0  0
    1.3224    4.2695    7.2407 O   0  0  0  0  0  0  0  0  0  0  0  0
   -0.3197    0.6513    8.8135 C   0  0  2  0  0  0  0  0  0  0  0  0
   -1.2268   -0.2982    9.4489 N   0  0  0  0  0  0  0  0  0  0  0  0
    0.0757   -0.4100    5.9029 C   0  0  2  0  0  0  0  0  0  0  0  0
    0.3149    6.1069    6.0035 C   0  0  2  0  0  0  0  0  0  0  0  0
   -0.9440    5.3701    5.8123 N   0  0  0  0  0  0  0  0  0  0  0  0
   -0.1014    1.8327    9.8166 C   0  0  0  0  0  0  0  0  0  0  0  0
   -0.2864   -0.6731    4.3973 C   0  0  2  0  0  0  0  0  0  0  0  0
   -0.6509    0.5450    3.7694 O   0  0  0  0  0  0  0  0  0  0  0  0
    1.2595    5.8523    4.8088 C   0  0  1  0  0  0  0  0  0  0  0  0
    0.6147    6.2551    3.5895 O   0  0  0  0  0  0  0  0  0  0  0  0
    0.8906    2.8414    9.1447 C   0  0  2  0  0  0  0  0  0  0  0  0
    1.1327    3.9872   10.0447 N   0  0  0  0  0  0  0  0  0  0  0  0
   -1.4676   -1.7174    4.3369 C   0  0  1  0  0  0  0  0  0  0  0  0
   -1.8613   -1.9907    2.9221 N   0  0  0  0  0  0  0  0  0  0  0  0
    2.5767    6.6303    5.0398 C   0  0  2  0  0  0  0  0  0  0  0  0
    3.4718    6.3941    3.9391 O   0  0  0  0  0  0  0  0  0  0  0  0
    0.3216    3.3685    7.8027 C   0  0  2  0  0  0  0  0  0  0  0  0
   -1.0134   -3.0412    5.0419 C   0  0  1  0  0  0  0  0  0  0  0  0
    0.1071   -3.5895    4.3529 O   0  0  0  0  0  0  0  0  0  0  0  0
    3.2344    6.1656    6.3949 C   0  0  2  0  0  0  0  0  0  0  0  0
    2.2981    6.3951    7.5124 O   0  0  0  0  0  0  0  0  0  0  0  0
    0.0550    2.1738    6.8532 C   0  0  2  0  0  0  0  0  0  0  0  0
   -0.4835    2.6797    5.6360 O   0  0  0  0  0  0  0  0  0  0  0  0
   -0.6065   -2.7093    6.5122 C   0  0  0  0  0  0  0  0  0  0  0  0
    0.4565   -1.6762    6.5438 O   0  0  0  0  0  0  0  0  0  0  0  0
    4.5495    6.9319    6.6934 C   0  0  2  0  0  0  0  0  0  0  0  0
    5.5095    6.6385    5.6817 O   0  0  0  0  0  0  0  0  0  0  0  0
   -0.9629    1.1853    7.4682 C   0  0  1  0  0  0  0  0  0  0  0  0
   -1.1375    0.1106    6.5149 O   0  0  0  0  0  0  0  0  0  0  0  0
    5.1406    6.5274    8.0338 C   0  0  0  0  0  0  0  0  0  0  0  0
   -2.1143   -4.0946    5.0451 C   0  0  0  0  0  0  0  0  0  0  0  0
   -2.8962   -1.0138    2.5330 C   0  0  0  0  0  0  0  0  0  0  0  0
  1  2  1  6  0  0  0
  1  6  1  0  0  0  0
  1 23  1  0  0  0  0
  3  4  1  1  0  0  0
  3  8  1  0  0  0  0
  3 30  1  0  0  0  0
  5  9  1  0  0  0  0
  5 27  1  0  0  0  0
  5 31  1  1  0  0  0
  6  7  1  6  0  0  0
  6 11  1  0  0  0  0
  8 13  1  0  0  0  0
  9 10  1  1  0  0  0
  9 15  1  0  0  0  0
 11 12  1  6  0  0  0
 11 17  1  0  0  0  0
 13 14  1  1  0  0  0
 13 19  1  0  0  0  0
 15 16  1  6  0  0  0
 15 20  1  0  0  0  0
 16 34  1  0  0  0  0
 17 18  1  6  0  0  0
 17 22  1  0  0  0  0
 19  2  1  6  0  0  0
 19 24  1  0  0  0  0
 20 21  1  6  0  0  0
 20 26  1  0  0  0  0
 20 33  1  0  0  0  0
 22 23  1  1  0  0  0
 22 28  1  0  0  0  0
 24 25  1  6  0  0  0
 24 30  1  0  0  0  0
 26 27  1  0  0  0  0
 28 29  1  6  0  0  0
 28 32  1  0  0  0  0
 30 31  1  6  0  0  0
M  END
>  <CHROM.1>
-93.30306709,-105.07753406,-89.08421082,-63.31682918,-71.89077834,-140.25590850
0.55869138,2.28114227,6.16558076,0.00284011,1.12159547,1.71770862

>  <Name>
ligand

>  <RI>
0

>  <Rbt.Current_Directory>
/home/itssahil/PROJECTS/Mol_Feturizer/New_Systems/rnas/3TD1

>  <Rbt.Executable>
rbdock ($Id: //depot/dev/client3/rdock/2013.1/src/exe/rbdock.cxx#4 $)

>  <Rbt.Library>
libRbt.so (2013.1, Build901 2013/11/27)

>  <Rbt.Parameter_File>
/export/apps/rDock/src/rDock_2013.1_src/data/scripts/dock_solv.prm

>  <Rbt.Receptor>
prm/blind_docking_80.prm

>  <SCORE>
11.7626

>  <SCORE.INTER>
0.404423

>  <SCORE.INTER.CONST>
1

>  <SCORE.INTER.POLAR>
0

>  <SCORE.INTER.ROT>
6

>  <SCORE.INTER.SOLV>
18.8363

>  <SCORE.INTER.VDW>
-13.6092

>  <SCORE.INTER.norm>
0.0118948

>  <SCORE.INTRA>
0.751349

>  <SCORE.INTRA.DIHEDRAL>
-2.52765

>  <SCORE.INTRA.DIHEDRAL.0>
19.5869

>  <SCORE.INTRA.POLAR>
0

>  <SCORE.INTRA.POLAR.0>
0

>  <SCORE.INTRA.REPUL>
0

>  <SCORE.INTRA.REPUL.0>
0

>  <SCORE.INTRA.SOLV>
1.04387

>  <SCORE.INTRA.SOLV.lig_0>
-70.101

>  <SCORE.INTRA.VDW>
1.49324

>  <SCORE.INTRA.VDW.0>
-3.39718

>  <SCORE.INTRA.norm>
0.0220985

>  <SCORE.RESTR>
10.6068

>  <SCORE.RESTR.CAVITY>
10.6068

>  <SCORE.RESTR.norm>
0.311965

>  <SCORE.SYSTEM>
0

>  <SCORE.SYSTEM.CONST>
0

>  <SCORE.SYSTEM.DIHEDRAL>
0

>  <SCORE.SYSTEM.SOLV>
0

>  <SCORE.SYSTEM.norm>
0

>  <SCORE.heavy>
34

>  <SCORE.norm>
0.345958

>  <RMSD>
12.278

$$$$
ligand
 OpenBabel11021811483D
libRbt.so/2013.1/901 2013/11/27
 34 36  0  0  0  0  0  0  0  0999 V2000
    1.1416    5.4566    7.0177 C   0  0  2  0  0  0  0  0  0  0  0  0
    0.0490    4.9144    7.7759 O   0  0  0  0  0  0  0  0  0  0  0  0
    1.2175    0.8472    7.1811 C   0  0  2  0  0  0  0  0  0  0  0  0
    1.3435   -0.5970    7.3438 N   0  0  0  0  0  0  0  0  0  0  0  0
   -1.8841   -0.0897    5.4530 C   0  0  2  0  0  0  0  0  0  0  0  0
    1.1874    7.0056    7.2729 C   0  0  2  0  0  0  0  0  0  0  0  0
    1.4037    7.3027    8.6974 N   0  0  0  0  0  0  0  0  0  0  0  0
    1.5950    1.5068    8.5494 C   0  0  0  0  0  0  0  0  0  0  0  0
   -1.5213   -1.5867    5.7603 C   0  0  2  0  0  0  0  0  0  0  0  0
   -0.9668   -1.6907    7.0613 O   0  0  0  0  0  0  0  0  0  0  0  0
   -0.1377    7.6409    6.7988 C   0  0  1  0  0  0  0  0  0  0  0  0
   -0.0996    9.0598    7.0222 O   0  0  0  0  0  0  0  0  0  0  0  0
    1.4825    3.0585    8.3690 C   0  0  2  0  0  0  0  0  0  0  0  0
    1.8224    3.7402    9.6344 N   0  0  0  0  0  0  0  0  0  0  0  0
   -0.5023   -2.0940    4.6677 C   0  0  1  0  0  0  0  0  0  0  0  0
   -0.1123   -3.5128    4.9252 N   0  0  0  0  0  0  0  0  0  0  0  0
   -0.3444    7.3058    5.3026 C   0  0  2  0  0  0  0  0  0  0  0  0
   -1.5814    7.8825    4.8490 O   0  0  0  0  0  0  0  0  0  0  0  0
    0.0469    3.4656    7.9492 C   0  0  2  0  0  0  0  0  0  0  0  0
   -1.1631   -1.9583    3.2533 C   0  0  1  0  0  0  0  0  0  0  0  0
   -2.3311   -2.7725    3.1912 O   0  0  0  0  0  0  0  0  0  0  0  0
   -0.3614    5.7416    5.1088 C   0  0  2  0  0  0  0  0  0  0  0  0
    0.9049    5.1611    5.5963 O   0  0  0  0  0  0  0  0  0  0  0  0
   -0.3242    2.7490    6.6268 C   0  0  2  0  0  0  0  0  0  0  0  0
   -1.6512    3.1231    6.2712 O   0  0  0  0  0  0  0  0  0  0  0  0
   -1.5593   -0.4649    3.0287 C   0  0  0  0  0  0  0  0  0  0  0  0
   -2.4621    0.0078    4.1056 O   0  0  0  0  0  0  0  0  0  0  0  0
   -0.5405    5.3442    3.6202 C   0  0  2  0  0  0  0  0  0  0  0  0
   -1.0594    6.4541    2.8921 O   0  0  0  0  0  0  0  0  0  0  0  0
   -0.2730    1.2119    6.7886 C   0  0  1  0  0  0  0  0  0  0  0  0
   -0.6263    0.6399    5.5071 O   0  0  0  0  0  0  0  0  0  0  0  0
   -1.5104    4.1846    3.4637 C   0  0  0  0  0  0  0  0  0  0  0  0
   -0.2267   -2.4084    2.1387 C   0  0  0  0  0  0  0  0  0  0  0  0
    0.8955   -3.5272    6.0027 C   0  0  0  0  0  0  0  0  0  0  0  0
  1  2  1  1  0  0  0
  1  6  1  0  0  0  0
  1 23  1  0  0  0  0
  3  4  1  1  0  0  0
  3  8  1  0  0  0  0
  3 30  1  0  0  0  0
  5  9  1  0  0  0  0
  5 27  1  0  0  0  0
  5 31  1  6  0  0  0
  6  7  1  1  0  0  0
  6 11  1  0  0  0  0
  8 13  1  0  0  0  0
  9 10  1  1  0  0  0
  9 15  1  0  0  0  0
 11 12  1  6  0  0  0
 11 17  1  0  0  0  0
 13 14  1  1  0  0  0
 13 19  1  0  0  0  0
 15 16  1  1  0  0  0
 15 20  1  0  0  0  0
 16 34  1  0  0  0  0
 17 18  1  1  0  0  0
 17 22  1  0  0  0  0
 19  2  1  6  0  0  0
 19 24  1  0  0  0  0
 20 21  1  6  0  0  0
 20 26  1  0  0  0  0
 20 33  1  0  0  0  0
 22 23  1  6  0  0  0
 22 28  1  0  0  0  0
 24 25  1  1  0  0  0
 24 30  1  0  0  0  0
 26 27  1  0  0  0  0
 28 29  1  6  0  0  0
 28 32  1  0  0  0  0
 30 31  1  6  0  0  0
M  END
>  <CHROM.1>
-164.73375244,46.62142830,-78.78946703,-18.33230867,130.95284349,-91.81081443
-0.27190767,2.45304758,5.82779541,-1.36500449,1.07597027,-3.12793158

>  <Name>
ligand

>  <RI>
0

>  <Rbt.Current_Directory>
/home/itssahil/PROJECTS/Mol_Feturizer/New_Systems/rnas/3TD1

>  <Rbt.Executable>
rbdock ($Id: //depot/dev/client3/rdock/2013.1/src/exe/rbdock.cxx#4 $)

>  <Rbt.Library>
libRbt.so (2013.1, Build901 2013/11/27)

>  <Rbt.Parameter_File>
/export/apps/rDock/src/rDock_2013.1_src/data/scripts/dock_solv.prm

>  <Rbt.Receptor>
prm/blind_docking_80.prm

>  <SCORE>
14.694

>  <SCORE.INTER>
2.17542

>  <SCORE.INTER.CONST>
1

>  <SCORE.INTER.POLAR>
0

>  <SCORE.INTER.ROT>
6

>  <SCORE.INTER.SOLV>
19.0096

>  <SCORE.INTER.VDW>
-12.4863

>  <SCORE.INTER.norm>
0.063983

>  <SCORE.INTRA>
2.76885

>  <SCORE.INTRA.DIHEDRAL>
-2.59992

>  <SCORE.INTRA.DIHEDRAL.0>
19.5869

>  <SCORE.INTRA.POLAR>
0

>  <SCORE.INTRA.POLAR.0>
0

>  <SCORE.INTRA.REPUL>
0

>  <SCORE.INTRA.REPUL.0>
0

>  <SCORE.INTRA.SOLV>
2.80394

>  <SCORE.INTRA.SOLV.lig_0>
-70.101

>  <SCORE.INTRA.VDW>
2.66684

>  <SCORE.INTRA.VDW.0>
-3.39718

>  <SCORE.INTRA.norm>
0.0814368

>  <SCORE.RESTR>
9.7497

>  <SCORE.RESTR.CAVITY>
9.7497

>  <SCORE.RESTR.norm>
0.286756

>  <SCORE.SYSTEM>
0

>  <SCORE.SYSTEM.CONST>
0

>  <SCORE.SYSTEM.DIHEDRAL>
0

>  <SCORE.SYSTEM.SOLV>
0

>  <SCORE.SYSTEM.norm>
0

>  <SCORE.heavy>
34

>  <SCORE.norm>
0.432176

>  <RMSD>
12.295

$$$$
ligand
 OpenBabel11021811483D
libRbt.so/2013.1/901 2013/11/27
 34 36  0  0  0  0  0  0  0  0999 V2000
    1.2813    5.3975    6.0998 C   0  0  2  0  0  0  0  0  0  0  0  0
    0.2615    5.1906    7.0896 O   0  0  0  0  0  0  0  0  0  0  0  0
    1.4121    1.1549    7.8966 C   0  0  2  0  0  0  0  0  0  0  0  0
    1.4719   -0.1782    8.4860 N   0  0  0  0  0  0  0  0  0  0  0  0
   -0.8018   -0.8236    6.3554 C   0  0  2  0  0  0  0  0  0  0  0  0
    1.6835    6.9153    6.1281 C   0  0  2  0  0  0  0  0  0  0  0  0
    2.2146    7.2995    7.4451 N   0  0  0  0  0  0  0  0  0  0  0  0
    1.5656    2.1888    9.0616 C   0  0  0  0  0  0  0  0  0  0  0  0
   -0.3697   -1.8183    5.2192 C   0  0  2  0  0  0  0  0  0  0  0  0
    1.0336   -2.0177    5.2614 O   0  0  0  0  0  0  0  0  0  0  0  0
    0.4487    7.7776    5.7875 C   0  0  1  0  0  0  0  0  0  0  0  0
    0.8115    9.1678    5.8038 O   0  0  0  0  0  0  0  0  0  0  0  0
    1.5248    3.6201    8.4271 C   0  0  2  0  0  0  0  0  0  0  0  0
    1.6595    4.6446    9.4824 N   0  0  0  0  0  0  0  0  0  0  0  0
   -0.8157   -1.2212    3.8285 C   0  0  1  0  0  0  0  0  0  0  0  0
   -0.4126   -2.1254    2.7100 N   0  0  0  0  0  0  0  0  0  0  0  0
   -0.0940    7.3473    4.4040 C   0  0  2  0  0  0  0  0  0  0  0  0
   -1.2521    8.1352    4.0776 O   0  0  0  0  0  0  0  0  0  0  0  0
    0.1933    3.8528    7.6684 C   0  0  2  0  0  0  0  0  0  0  0  0
   -2.3699   -1.0215    3.8351 C   0  0  1  0  0  0  0  0  0  0  0  0
   -3.0130   -2.2812    4.0104 O   0  0  0  0  0  0  0  0  0  0  0  0
   -0.4603    5.8145    4.4333 C   0  0  2  0  0  0  0  0  0  0  0  0
    0.7315    5.0198    4.7888 O   0  0  0  0  0  0  0  0  0  0  0  0
    0.0366    2.7777    6.5640 C   0  0  2  0  0  0  0  0  0  0  0  0
   -1.1998    3.0000    5.8939 O   0  0  0  0  0  0  0  0  0  0  0  0
   -2.7468   -0.0774    5.0200 C   0  0  0  0  0  0  0  0  0  0  0  0
   -2.2571   -0.6267    6.3071 O   0  0  0  0  0  0  0  0  0  0  0  0
   -0.9876    5.3184    3.0615 C   0  0  2  0  0  0  0  0  0  0  0  0
   -1.7021    6.3711    2.4192 O   0  0  0  0  0  0  0  0  0  0  0  0
    0.0206    1.3535    7.1664 C   0  0  1  0  0  0  0  0  0  0  0  0
   -0.1218    0.4290    6.0622 O   0  0  0  0  0  0  0  0  0  0  0  0
   -1.9312    4.1376    3.2189 C   0  0  0  0  0  0  0  0  0  0  0  0
   -2.8755   -0.4230    2.5282 C   0  0  0  0  0  0  0  0  0  0  0  0
   -0.8359   -3.4976    3.0490 C   0  0  0  0  0  0  0  0  0  0  0  0
  1  2  1  1  0  0  0
  1  6  1  0  0  0  0
  1 23  1  0  0  0  0
  3  4  1  1  0  0  0
  3  8  1  0  0  0  0
  3 30  1  0  0  0  0
  5  9  1  0  0  0  0
  5 27  1  0  0  0  0
  5 31  1  6  0  0  0
  6  7  1  1  0  0  0
  6 11  1  0  0  0  0
  8 13  1  0  0  0  0
  9 10  1  6  0  0  0
  9 15  1  0  0  0  0
 11 12  1  6  0  0  0
 11 17  1  0  0  0  0
 13 14  1  1  0  0  0
 13 19  1  0  0  0  0
 15 16  1  6  0  0  0
 15 20  1  0  0  0  0
 16 34  1  0  0  0  0
 17 18  1  1  0  0  0
 17 22  1  0  0  0  0
 19  2  1  6  0  0  0
 19 24  1  0  0  0  0
 20 21  1  1  0  0  0
 20 26  1  0  0  0  0
 20 33  1  0  0  0  0
 22 23  1  6  0  0  0
 22 28  1  0  0  0  0
 24 25  1  1  0  0  0
 24 30  1  0  0  0  0
 26 27  1  0  0  0  0
 28 29  1  1  0  0  0
 28 32  1  0  0  0  0
 30 31  1  6  0  0  0
M  END
>  <CHROM.1>
-152.10915213,63.84089483,48.82129111,-32.89989986,93.51347181,-159.67971592
-0.26495588,2.67199928,5.53977439,-1.21146163,1.01222633,2.96859484

>  <Name>
ligand

>  <RI>
0

>  <Rbt.Current_Directory>
/home/itssahil/PROJECTS/Mol_Feturizer/New_Systems/rnas/3TD1

>  <Rbt.Executable>
rbdock ($Id: //depot/dev/client3/rdock/2013.1/src/exe/rbdock.cxx#4 $)

>  <Rbt.Library>
libRbt.so (2013.1, Build901 2013/11/27)

>  <Rbt.Parameter_File>
/export/apps/rDock/src/rDock_2013.1_src/data/scripts/dock_solv.prm

>  <Rbt.Receptor>
prm/blind_docking_80.prm

>  <SCORE>
16.6428

>  <SCORE.INTER>
3.85578

>  <SCORE.INTER.CONST>
1

>  <SCORE.INTER.POLAR>
0

>  <SCORE.INTER.ROT>
6

>  <SCORE.INTER.SOLV>
23.2373

>  <SCORE.INTER.VDW>
-12.7752

>  <SCORE.INTER.norm>
0.113405

>  <SCORE.INTRA>
2.75399

>  <SCORE.INTRA.DIHEDRAL>
-7.7909

>  <SCORE.INTRA.DIHEDRAL.0>
19.5869

>  <SCORE.INTRA.POLAR>
0

>  <SCORE.INTRA.POLAR.0>
0

>  <SCORE.INTRA.REPUL>
0

>  <SCORE.INTRA.REPUL.0>
0

>  <SCORE.INTRA.SOLV>
0.657445

>  <SCORE.INTRA.SOLV.lig_0>
-70.101

>  <SCORE.INTRA.VDW>
6.32071

>  <SCORE.INTRA.VDW.0>
-3.39718

>  <SCORE.INTRA.norm>
0.0809996

>  <SCORE.RESTR>
10.033

>  <SCORE.RESTR.CAVITY>
10.033

>  <SCORE.RESTR.norm>
0.295089

>  <SCORE.SYSTEM>
0

>  <SCORE.SYSTEM.CONST>
0

>  <SCORE.SYSTEM.DIHEDRAL>
0

>  <SCORE.SYSTEM.SOLV>
0

>  <SCORE.SYSTEM.norm>
0

>  <SCORE.heavy>
34

>  <SCORE.norm>
0.489494

>  <RMSD>
12.310

$$$$
ligand
 OpenBabel11021811483D
libRbt.so/2013.1/901 2013/11/27
 34 36  0  0  0  0  0  0  0  0999 V2000
    1.2146    5.4818    6.9711 C   0  0  2  0  0  0  0  0  0  0  0  0
    0.1333    4.9483    7.7514 O   0  0  0  0  0  0  0  0  0  0  0  0
    1.2625    0.8734    7.1336 C   0  0  2  0  0  0  0  0  0  0  0  0
    1.3760   -0.5727    7.2892 N   0  0  0  0  0  0  0  0  0  0  0  0
   -1.9583    0.2147    5.3363 C   0  0  2  0  0  0  0  0  0  0  0  0
    1.2760    7.0308    7.2229 C   0  0  2  0  0  0  0  0  0  0  0  0
    1.5220    7.3286    8.6424 N   0  0  0  0  0  0  0  0  0  0  0  0
    1.6511    1.5232    8.5034 C   0  0  0  0  0  0  0  0  0  0  0  0
   -1.9559   -1.2485    5.9072 C   0  0  2  0  0  0  0  0  0  0  0  0
   -1.5859   -1.2310    7.2760 O   0  0  0  0  0  0  0  0  0  0  0  0
   -0.0537    7.6745    6.7736 C   0  0  1  0  0  0  0  0  0  0  0  0
   -0.0015    9.0935    6.9939 O   0  0  0  0  0  0  0  0  0  0  0  0
    1.5521    3.0766    8.3305 C   0  0  2  0  0  0  0  0  0  0  0  0
    1.9028    3.7494    9.5978 N   0  0  0  0  0  0  0  0  0  0  0  0
   -0.9502   -2.1199    5.0594 C   0  0  1  0  0  0  0  0  0  0  0  0
   -0.8994   -3.5212    5.5741 N   0  0  0  0  0  0  0  0  0  0  0  0
   -0.2918    7.3385    5.2823 C   0  0  2  0  0  0  0  0  0  0  0  0
   -1.5334    7.9231    4.8519 O   0  0  0  0  0  0  0  0  0  0  0  0
    0.1187    3.4987    7.9181 C   0  0  2  0  0  0  0  0  0  0  0  0
   -1.4040   -2.1061    3.5595 C   0  0  1  0  0  0  0  0  0  0  0  0
   -2.7027   -2.6822    3.4477 O   0  0  0  0  0  0  0  0  0  0  0  0
   -0.3233    5.7742    5.0914 C   0  0  2  0  0  0  0  0  0  0  0  0
    0.9482    5.1857    5.5551 O   0  0  0  0  0  0  0  0  0  0  0  0
   -0.2639    2.7916    6.5938 C   0  0  2  0  0  0  0  0  0  0  0  0
   -1.5887    3.1794    6.2449 O   0  0  0  0  0  0  0  0  0  0  0  0
   -1.4489   -0.6259    3.0653 C   0  0  0  0  0  0  0  0  0  0  0  0
   -2.3473    0.1874    3.9196 O   0  0  0  0  0  0  0  0  0  0  0  0
   -0.5341    5.3757    3.6072 C   0  0  2  0  0  0  0  0  0  0  0  0
   -1.0787    6.4817    2.8920 O   0  0  0  0  0  0  0  0  0  0  0  0
   -0.2261    1.2534    6.7484 C   0  0  1  0  0  0  0  0  0  0  0  0
   -0.5893    0.6906    5.4656 O   0  0  0  0  0  0  0  0  0  0  0  0
   -1.4981    4.2085    3.4731 C   0  0  0  0  0  0  0  0  0  0  0  0
   -0.4640   -2.9103    2.6699 C   0  0  0  0  0  0  0  0  0  0  0  0
    0.4906   -3.8184    5.9700 C   0  0  0  0  0  0  0  0  0  0  0  0
  1  2  1  1  0  0  0
  1  6  1  0  0  0  0
  1 23  1  0  0  0  0
  3  4  1  1  0  0  0
  3  8  1  0  0  0  0
  3 30  1  0  0  0  0
  5  9  1  0  0  0  0
  5 27  1  0  0  0  0
  5 31  1  6  0  0  0
  6  7  1  1  0  0  0
  6 11  1  0  0  0  0
  8 13  1  0  0  0  0
  9 10  1  1  0  0  0
  9 15  1  0  0  0  0
 11 12  1  6  0  0  0
 11 17  1  0  0  0  0
 13 14  1  1  0  0  0
 13 19  1  0  0  0  0
 15 16  1  1  0  0  0
 15 20  1  0  0  0  0
 16 34  1  0  0  0  0
 17 18  1  1  0  0  0
 17 22  1  0  0  0  0
 19  2  1  6  0  0  0
 19 24  1  0  0  0  0
 20 21  1  6  0  0  0
 20 26  1  0  0  0  0
 20 33  1  0  0  0  0
 22 23  1  6  0  0  0
 22 28  1  0  0  0  0
 24 25  1  1  0  0  0
 24 30  1  0  0  0  0
 26 27  1  0  0  0  0
 28 29  1  6  0  0  0
 28 32  1  0  0  0  0
 30 31  1  6  0  0  0
M  END
>  <CHROM.1>
-165.21060167,47.70943053,-120.92865071,-19.21941798,143.02299436,-84.68084614
-0.33466015,2.48154863,5.87125063,-1.29727567,1.04326984,3.07345070

>  <Name>
ligand

>  <RI>
0

>  <Rbt.Current_Directory>
/home/itssahil/PROJECTS/Mol_Feturizer/New_Systems/rnas/3TD1

>  <Rbt.Executable>
rbdock ($Id: //depot/dev/client3/rdock/2013.1/src/exe/rbdock.cxx#4 $)

>  <Rbt.Library>
libRbt.so (2013.1, Build901 2013/11/27)

>  <Rbt.Parameter_File>
/export/apps/rDock/src/rDock_2013.1_src/data/scripts/dock_solv.prm

>  <Rbt.Receptor>
prm/blind_docking_80.prm

>  <SCORE>
13.676

>  <SCORE.INTER>
3.29272

>  <SCORE.INTER.CONST>
1

>  <SCORE.INTER.POLAR>
0

>  <SCORE.INTER.ROT>
6

>  <SCORE.INTER.SOLV>
18.3368

>  <SCORE.INTER.VDW>
-11.5171

>  <SCORE.INTER.norm>
0.0968447

>  <SCORE.INTRA>
-0.219422

>  <SCORE.INTRA.DIHEDRAL>
-5.00163

>  <SCORE.INTRA.DIHEDRAL.0>
19.5869

>  <SCORE.INTRA.POLAR>
0

>  <SCORE.INTRA.POLAR.0>
0

>  <SCORE.INTRA.REPUL>
0

>  <SCORE.INTRA.REPUL.0>
0

>  <SCORE.INTRA.SOLV>
1.99982

>  <SCORE.INTRA.SOLV.lig_0>
-70.101

>  <SCORE.INTRA.VDW>
1.28148

>  <SCORE.INTRA.VDW.0>
-3.39718

>  <SCORE.INTRA.norm>
-0.0064536

>  <SCORE.RESTR>
10.6027

>  <SCORE.RESTR.CAVITY>
10.6027

>  <SCORE.RESTR.norm>
0.311843

>  <SCORE.SYSTEM>
0

>  <SCORE.SYSTEM.CONST>
0

>  <SCORE.SYSTEM.DIHEDRAL>
0

>  <SCORE.SYSTEM.SOLV>
0

>  <SCORE.SYSTEM.norm>
0

>  <SCORE.heavy>
34

>  <SCORE.norm>
0.402234

>  <RMSD>
12.373

$$$$
ligand
 OpenBabel11021811483D
libRbt.so/2013.1/901 2013/11/27
 34 36  0  0  0  0  0  0  0  0999 V2000
    0.8677    4.4299    7.0212 C   0  0  2  0  0  0  0  0  0  0  0  0
   -0.4150    4.3839    7.6655 O   0  0  0  0  0  0  0  0  0  0  0  0
   -0.1956    0.1991    8.5028 C   0  0  2  0  0  0  0  0  0  0  0  0
   -0.5089   -1.1307    9.0142 N   0  0  0  0  0  0  0  0  0  0  0  0
   -0.1790   -0.1299    5.4213 C   0  0  2  0  0  0  0  0  0  0  0  0
    1.8006    5.3703    7.8649 C   0  0  2  0  0  0  0  0  0  0  0  0
    1.9740    4.8576    9.2329 N   0  0  0  0  0  0  0  0  0  0  0  0
   -0.1652    1.1755    9.7256 C   0  0  0  0  0  0  0  0  0  0  0  0
   -0.7751    0.0941    3.9854 C   0  0  2  0  0  0  0  0  0  0  0  0
   -1.5045    1.3097    3.9509 O   0  0  0  0  0  0  0  0  0  0  0  0
    1.1917    6.7886    7.9084 C   0  0  1  0  0  0  0  0  0  0  0  0
    2.0446    7.6566    8.6725 O   0  0  0  0  0  0  0  0  0  0  0  0
    0.1939    2.5991    9.1804 C   0  0  2  0  0  0  0  0  0  0  0  0
    0.2321    3.5710   10.2919 N   0  0  0  0  0  0  0  0  0  0  0  0
   -1.7002   -1.1323    3.6256 C   0  0  1  0  0  0  0  0  0  0  0  0
   -2.3060   -0.9595    2.2712 N   0  0  0  0  0  0  0  0  0  0  0  0
    1.0121    7.2991    6.4590 C   0  0  2  0  0  0  0  0  0  0  0  0
    0.4353    8.6163    6.4831 O   0  0  0  0  0  0  0  0  0  0  0  0
   -0.8486    3.0723    8.1354 C   0  0  2  0  0  0  0  0  0  0  0  0
   -0.8473   -2.4459    3.6778 C   0  0  1  0  0  0  0  0  0  0  0  0
    0.1999   -2.3746    2.7138 O   0  0  0  0  0  0  0  0  0  0  0  0
    0.0852    6.3057    5.6598 C   0  0  2  0  0  0  0  0  0  0  0  0
    0.6788    4.9544    5.6600 O   0  0  0  0  0  0  0  0  0  0  0  0
   -0.9039    2.0551    6.9682 C   0  0  2  0  0  0  0  0  0  0  0  0
   -1.8795    2.5001    6.0314 O   0  0  0  0  0  0  0  0  0  0  0  0
   -0.2298   -2.5836    5.1051 C   0  0  0  0  0  0  0  0  0  0  0  0
    0.5787   -1.3885    5.4464 O   0  0  0  0  0  0  0  0  0  0  0  0
   -0.1109    6.7536    4.1878 C   0  0  2  0  0  0  0  0  0  0  0  0
    1.1568    7.0570    3.6114 O   0  0  0  0  0  0  0  0  0  0  0  0
   -1.3081    0.6488    7.4688 C   0  0  1  0  0  0  0  0  0  0  0  0
   -1.3246   -0.2226    6.3136 O   0  0  0  0  0  0  0  0  0  0  0  0
   -0.9801    7.9966    4.0925 C   0  0  0  0  0  0  0  0  0  0  0  0
   -1.6808   -3.6822    3.3636 C   0  0  0  0  0  0  0  0  0  0  0  0
   -3.6963   -0.4961    2.4421 C   0  0  0  0  0  0  0  0  0  0  0  0
  1  2  1  1  0  0  0
  1  6  1  0  0  0  0
  1 23  1  0  0  0  0
  3  4  1  1  0  0  0
  3  8  1  0  0  0  0
  3 30  1  0  0  0  0
  5  9  1  0  0  0  0
  5 27  1  0  0  0  0
  5 31  1  1  0  0  0
  6  7  1  1  0  0  0
  6 11  1  0  0  0  0
  8 13  1  0  0  0  0
  9 10  1  1  0  0  0
  9 15  1  0  0  0  0
 11 12  1  1  0  0  0
 11 17  1  0  0  0  0
 13 14  1  1  0  0  0
 13 19  1  0  0  0  0
 15 16  1  6  0  0  0
 15 20  1  0  0  0  0
 16 34  1  0  0  0  0
 17 18  1  1  0  0  0
 17 22  1  0  0  0  0
 19  2  1  6  0  0  0
 19 24  1  0  0  0  0
 20 21  1  6  0  0  0
 20 26  1  0  0  0  0
 20 33  1  0  0  0  0
 22 23  1  6  0  0  0
 22 28  1  0  0  0  0
 24 25  1  6  0  0  0
 24 30  1  0  0  0  0
 26 27  1  0  0  0  0
 28 29  1  1  0  0  0
 28 32  1  0  0  0  0
 30 31  1  6  0  0  0
M  END
>  <CHROM.1>
-118.38299547,61.02838624,-101.09091079,48.77492382,-69.52568591,-127.73650197
-0.27225296,2.47045782,6.08146325,-0.65227541,1.28849625,2.55238708

>  <Name>
ligand

>  <RI>
0

>  <Rbt.Current_Directory>
/home/itssahil/PROJECTS/Mol_Feturizer/New_Systems/rnas/3TD1

>  <Rbt.Executable>
rbdock ($Id: //depot/dev/client3/rdock/2013.1/src/exe/rbdock.cxx#4 $)

>  <Rbt.Library>
libRbt.so (2013.1, Build901 2013/11/27)

>  <Rbt.Parameter_File>
/export/apps/rDock/src/rDock_2013.1_src/data/scripts/dock_solv.prm

>  <Rbt.Receptor>
prm/blind_docking_80.prm

>  <SCORE>
23.9602

>  <SCORE.INTER>
9.822

>  <SCORE.INTER.CONST>
1

>  <SCORE.INTER.POLAR>
0

>  <SCORE.INTER.ROT>
6

>  <SCORE.INTER.SOLV>
18.4792

>  <SCORE.INTER.VDW>
-7.21172

>  <SCORE.INTER.norm>
0.288882

>  <SCORE.INTRA>
4.32499

>  <SCORE.INTRA.DIHEDRAL>
-3.63338

>  <SCORE.INTRA.DIHEDRAL.0>
19.5869

>  <SCORE.INTRA.POLAR>
0

>  <SCORE.INTRA.POLAR.0>
0

>  <SCORE.INTRA.REPUL>
0

>  <SCORE.INTRA.REPUL.0>
0

>  <SCORE.INTRA.SOLV>
3.15491

>  <SCORE.INTRA.SOLV.lig_0>
-70.101

>  <SCORE.INTRA.VDW>
4.56423

>  <SCORE.INTRA.VDW.0>
-3.39718

>  <SCORE.INTRA.norm>
0.127206

>  <SCORE.RESTR>
9.81317

>  <SCORE.RESTR.CAVITY>
9.81317

>  <SCORE.RESTR.norm>
0.288623

>  <SCORE.SYSTEM>
0

>  <SCORE.SYSTEM.CONST>
0

>  <SCORE.SYSTEM.DIHEDRAL>
0

>  <SCORE.SYSTEM.SOLV>
0

>  <SCORE.SYSTEM.norm>
0

>  <SCORE.heavy>
34

>  <SCORE.norm>
0.704711

>  <RMSD>
12.405

$$$$
ligand
 OpenBabel11021811483D
libRbt.so/2013.1/901 2013/11/27
 34 36  0  0  0  0  0  0  0  0999 V2000
    0.4371    5.3222    7.8434 C   0  0  2  0  0  0  0  0  0  0  0  0
    0.5585    4.1554    7.0148 O   0  0  0  0  0  0  0  0  0  0  0  0
    0.2535    0.1913    8.5816 C   0  0  2  0  0  0  0  0  0  0  0  0
   -0.2876   -1.0293    9.1692 N   0  0  0  0  0  0  0  0  0  0  0  0
   -0.8202   -1.8614    6.3673 C   0  0  2  0  0  0  0  0  0  0  0  0
    0.3523    6.5775    6.9035 C   0  0  2  0  0  0  0  0  0  0  0  0
   -0.8198    6.4995    6.0178 N   0  0  0  0  0  0  0  0  0  0  0  0
   -0.0970    1.3712    9.5484 C   0  0  0  0  0  0  0  0  0  0  0  0
   -0.3552   -2.7746    5.1770 C   0  0  2  0  0  0  0  0  0  0  0  0
    1.0284   -3.0598    5.3006 O   0  0  0  0  0  0  0  0  0  0  0  0
    1.6426    6.6728    6.0606 C   0  0  1  0  0  0  0  0  0  0  0  0
    1.5751    7.8242    5.2036 O   0  0  0  0  0  0  0  0  0  0  0  0
    0.5037    2.6787    8.9300 C   0  0  2  0  0  0  0  0  0  0  0  0
    0.1993    3.8343    9.7980 N   0  0  0  0  0  0  0  0  0  0  0  0
   -0.6614   -2.0304    3.8199 C   0  0  1  0  0  0  0  0  0  0  0  0
   -0.2218   -2.8535    2.6534 N   0  0  0  0  0  0  0  0  0  0  0  0
    2.8579    6.7444    7.0152 C   0  0  2  0  0  0  0  0  0  0  0  0
    4.0691    6.8228    6.2436 O   0  0  0  0  0  0  0  0  0  0  0  0
   -0.0795    2.9436    7.5184 C   0  0  2  0  0  0  0  0  0  0  0  0
   -2.1990   -1.7404    3.7339 C   0  0  1  0  0  0  0  0  0  0  0  0
   -2.9188   -2.9704    3.7445 O   0  0  0  0  0  0  0  0  0  0  0  0
    2.8768    5.4705    7.9433 C   0  0  2  0  0  0  0  0  0  0  0  0
    1.6206    5.3917    8.7140 O   0  0  0  0  0  0  0  0  0  0  0  0
    0.2260    1.7332    6.6010 C   0  0  2  0  0  0  0  0  0  0  0  0
   -0.3342    1.9907    5.3175 O   0  0  0  0  0  0  0  0  0  0  0  0
   -2.6155   -0.8851    4.9718 C   0  0  0  0  0  0  0  0  0  0  0  0
   -2.2552   -1.5751    6.2338 O   0  0  0  0  0  0  0  0  0  0  0  0
    4.0628    5.4992    8.9426 C   0  0  2  0  0  0  0  0  0  0  0  0
    4.0754    4.2911    9.6986 O   0  0  0  0  0  0  0  0  0  0  0  0
   -0.4002    0.4342    7.1595 C   0  0  1  0  0  0  0  0  0  0  0  0
   -0.0551   -0.6301    6.2417 O   0  0  0  0  0  0  0  0  0  0  0  0
    3.9465    6.6612    9.9153 C   0  0  0  0  0  0  0  0  0  0  0  0
   -2.5709   -0.9987    2.4559 C   0  0  0  0  0  0  0  0  0  0  0  0
    0.2002   -1.9392    1.5750 C   0  0  0  0  0  0  0  0  0  0  0  0
  1  2  1  6  0  0  0
  1  6  1  0  0  0  0
  1 23  1  0  0  0  0
  3  4  1  1  0  0  0
  3  8  1  0  0  0  0
  3 30  1  0  0  0  0
  5  9  1  0  0  0  0
  5 27  1  0  0  0  0
  5 31  1  6  0  0  0
  6  7  1  6  0  0  0
  6 11  1  0  0  0  0
  8 13  1  0  0  0  0
  9 10  1  1  0  0  0
  9 15  1  0  0  0  0
 11 12  1  1  0  0  0
 11 17  1  0  0  0  0
 13 14  1  1  0  0  0
 13 19  1  0  0  0  0
 15 16  1  6  0  0  0
 15 20  1  0  0  0  0
 16 34  1  0  0  0  0
 17 18  1  6  0  0  0
 17 22  1  0  0  0  0
 19  2  1  6  0  0  0
 19 24  1  0  0  0  0
 20 21  1  1  0  0  0
 20 26  1  0  0  0  0
 20 33  1  0  0  0  0
 22 23  1  1  0  0  0
 22 28  1  0  0  0  0
 24 25  1  6  0  0  0
 24 30  1  0  0  0  0
 26 27  1  0  0  0  0
 28 29  1  1  0  0  0
 28 32  1  0  0  0  0
 30 31  1  6  0  0  0
M  END
>  <CHROM.1>
-146.32462479,-55.84534878,-148.16034271,-176.59935172,79.77926296,174.25618892
0.42006285,2.02214374,6.51929091,0.29762644,-1.17261583,-0.84493186

>  <Name>
ligand

>  <RI>
0

>  <Rbt.Current_Directory>
/home/itssahil/PROJECTS/Mol_Feturizer/New_Systems/rnas/3TD1

>  <Rbt.Executable>
rbdock ($Id: //depot/dev/client3/rdock/2013.1/src/exe/rbdock.cxx#4 $)

>  <Rbt.Library>
libRbt.so (2013.1, Build901 2013/11/27)

>  <Rbt.Parameter_File>
/export/apps/rDock/src/rDock_2013.1_src/data/scripts/dock_solv.prm

>  <Rbt.Receptor>
prm/blind_docking_80.prm

>  <SCORE>
9.51916

>  <SCORE.INTER>
0.644607

>  <SCORE.INTER.CONST>
1

>  <SCORE.INTER.POLAR>
0

>  <SCORE.INTER.ROT>
6

>  <SCORE.INTER.SOLV>
16.787

>  <SCORE.INTER.VDW>
-12.7659

>  <SCORE.INTER.norm>
0.018959

>  <SCORE.INTRA>
0.736476

>  <SCORE.INTRA.DIHEDRAL>
-12.5379

>  <SCORE.INTRA.DIHEDRAL.0>
19.5869

>  <SCORE.INTRA.POLAR>
0

>  <SCORE.INTRA.POLAR.0>
0

>  <SCORE.INTRA.REPUL>
0

>  <SCORE.INTRA.REPUL.0>
0

>  <SCORE.INTRA.SOLV>
0.514122

>  <SCORE.INTRA.SOLV.lig_0>
-70.101

>  <SCORE.INTRA.VDW>
6.74837

>  <SCORE.INTRA.VDW.0>
-3.39718

>  <SCORE.INTRA.norm>
0.0216611

>  <SCORE.RESTR>
8.13808

>  <SCORE.RESTR.CAVITY>
8.13808

>  <SCORE.RESTR.norm>
0.239355

>  <SCORE.SYSTEM>
0

>  <SCORE.SYSTEM.CONST>
0

>  <SCORE.SYSTEM.DIHEDRAL>
0

>  <SCORE.SYSTEM.SOLV>
0

>  <SCORE.SYSTEM.norm>
0

>  <SCORE.heavy>
34

>  <SCORE.norm>
0.279975

>  <RMSD>
12.443

$$$$
ligand
 OpenBabel11021811483D
libRbt.so/2013.1/901 2013/11/27
 34 36  0  0  0  0  0  0  0  0999 V2000
    0.2549    5.4681    7.2801 C   0  0  2  0  0  0  0  0  0  0  0  0
    0.5425    4.1613    6.7584 O   0  0  0  0  0  0  0  0  0  0  0  0
    0.1345    0.2140    8.3439 C   0  0  2  0  0  0  0  0  0  0  0  0
   -0.3650   -0.9353    9.0907 N   0  0  0  0  0  0  0  0  0  0  0  0
    0.0059   -0.6784    5.3912 C   0  0  2  0  0  0  0  0  0  0  0  0
    0.2599    6.4811    6.0800 C   0  0  2  0  0  0  0  0  0  0  0  0
   -0.7653    6.1304    5.0848 N   0  0  0  0  0  0  0  0  0  0  0  0
    0.3577    1.3763    9.3680 C   0  0  0  0  0  0  0  0  0  0  0  0
   -0.5486   -0.5118    3.9312 C   0  0  2  0  0  0  0  0  0  0  0  0
   -0.9975    0.8190    3.7353 O   0  0  0  0  0  0  0  0  0  0  0  0
    1.6553    6.4830    5.4188 C   0  0  1  0  0  0  0  0  0  0  0  0
    1.6694    7.4140    4.3244 O   0  0  0  0  0  0  0  0  0  0  0  0
    0.9160    2.6033    8.5707 C   0  0  2  0  0  0  0  0  0  0  0  0
    1.1425    3.7400    9.4861 N   0  0  0  0  0  0  0  0  0  0  0  0
   -1.7229   -1.5435    3.7161 C   0  0  1  0  0  0  0  0  0  0  0  0
   -2.2969   -1.4141    2.3431 N   0  0  0  0  0  0  0  0  0  0  0  0
    2.7134    6.8454    6.4878 C   0  0  2  0  0  0  0  0  0  0  0  0
    4.0208    6.8407    5.8885 O   0  0  0  0  0  0  0  0  0  0  0  0
   -0.0743    3.0414    7.4616 C   0  0  2  0  0  0  0  0  0  0  0  0
   -1.1745   -2.9937    3.9434 C   0  0  1  0  0  0  0  0  0  0  0  0
   -0.1512   -3.2725    2.9914 O   0  0  0  0  0  0  0  0  0  0  0  0
    2.6456    5.8071    7.6718 C   0  0  2  0  0  0  0  0  0  0  0  0
    1.2939    5.8081    8.2642 O   0  0  0  0  0  0  0  0  0  0  0  0
   -0.3267    1.8534    6.4998 C   0  0  2  0  0  0  0  0  0  0  0  0
   -1.2517    2.2730    5.5020 O   0  0  0  0  0  0  0  0  0  0  0  0
   -0.5804   -3.0825    5.3844 C   0  0  0  0  0  0  0  0  0  0  0  0
    0.4730   -2.0582    5.5836 O   0  0  0  0  0  0  0  0  0  0  0  0
    3.6698    6.1353    8.7895 C   0  0  2  0  0  0  0  0  0  0  0  0
    4.8808    6.6025    8.2010 O   0  0  0  0  0  0  0  0  0  0  0  0
   -0.9282    0.6425    7.2503 C   0  0  1  0  0  0  0  0  0  0  0  0
   -1.1191   -0.4080    6.2735 O   0  0  0  0  0  0  0  0  0  0  0  0
    3.9962    4.9095    9.6265 C   0  0  0  0  0  0  0  0  0  0  0  0
   -2.2608   -4.0491    3.7760 C   0  0  0  0  0  0  0  0  0  0  0  0
   -3.5435   -0.6301    2.4349 C   0  0  0  0  0  0  0  0  0  0  0  0
  1  2  1  6  0  0  0
  1  6  1  0  0  0  0
  1 23  1  0  0  0  0
  3  4  1  1  0  0  0
  3  8  1  0  0  0  0
  3 30  1  0  0  0  0
  5  9  1  0  0  0  0
  5 27  1  0  0  0  0
  5 31  1  1  0  0  0
  6  7  1  6  0  0  0
  6 11  1  0  0  0  0
  8 13  1  0  0  0  0
  9 10  1  1  0  0  0
  9 15  1  0  0  0  0
 11 12  1  6  0  0  0
 11 17  1  0  0  0  0
 13 14  1  1  0  0  0
 13 19  1  0  0  0  0
 15 16  1  6  0  0  0
 15 20  1  0  0  0  0
 16 34  1  0  0  0  0
 17 18  1  6  0  0  0
 17 22  1  0  0  0  0
 19  2  1  6  0  0  0
 19 24  1  0  0  0  0
 20 21  1  6  0  0  0
 20 26  1  0  0  0  0
 20 33  1  0  0  0  0
 22 23  1  1  0  0  0
 22 28  1  0  0  0  0
 24 25  1  6  0  0  0
 24 30  1  0  0  0  0
 26 27  1  0  0  0  0
 28 29  1  6  0  0  0
 28 32  1  0  0  0  0
 30 31  1  6  0  0  0
M  END
>  <CHROM.1>
-148.55758283,-89.82131514,-100.49616269,-38.25141676,-68.36257988,-123.55782403
0.38478072,2.18742141,6.17706212,0.54566523,-1.08273698,-0.60590486

>  <Name>
ligand

>  <RI>
0

>  <Rbt.Current_Directory>
/home/itssahil/PROJECTS/Mol_Feturizer/New_Systems/rnas/3TD1

>  <Rbt.Executable>
rbdock ($Id: //depot/dev/client3/rdock/2013.1/src/exe/rbdock.cxx#4 $)

>  <Rbt.Library>
libRbt.so (2013.1, Build901 2013/11/27)

>  <Rbt.Parameter_File>
/export/apps/rDock/src/rDock_2013.1_src/data/scripts/dock_solv.prm

>  <Rbt.Receptor>
prm/blind_docking_80.prm

>  <SCORE>
15.2887

>  <SCORE.INTER>
2.532

>  <SCORE.INTER.CONST>
1

>  <SCORE.INTER.POLAR>
0

>  <SCORE.INTER.ROT>
6

>  <SCORE.INTER.SOLV>
15.7405

>  <SCORE.INTER.VDW>
-11.1588

>  <SCORE.INTER.norm>
0.0744707

>  <SCORE.INTRA>
4.55463

>  <SCORE.INTRA.DIHEDRAL>
-2.13275

>  <SCORE.INTRA.DIHEDRAL.0>
19.5869

>  <SCORE.INTRA.POLAR>
0

>  <SCORE.INTRA.POLAR.0>
0

>  <SCORE.INTRA.REPUL>
0

>  <SCORE.INTRA.REPUL.0>
0

>  <SCORE.INTRA.SOLV>
2.3054

>  <SCORE.INTRA.SOLV.lig_0>
-70.101

>  <SCORE.INTRA.VDW>
4.4683

>  <SCORE.INTRA.VDW.0>
-3.39718

>  <SCORE.INTRA.norm>
0.13396

>  <SCORE.RESTR>
8.20211

>  <SCORE.RESTR.CAVITY>
8.20211

>  <SCORE.RESTR.norm>
0.241238

>  <SCORE.SYSTEM>
0

>  <SCORE.SYSTEM.CONST>
0

>  <SCORE.SYSTEM.DIHEDRAL>
0

>  <SCORE.SYSTEM.SOLV>
0

>  <SCORE.SYSTEM.norm>
0

>  <SCORE.heavy>
34

>  <SCORE.norm>
0.449669

>  <RMSD>
12.445

$$$$
ligand
 OpenBabel11021811483D
libRbt.so/2013.1/901 2013/11/27
 34 36  0  0  0  0  0  0  0  0999 V2000
    0.1851    5.3560    7.0397 C   0  0  2  0  0  0  0  0  0  0  0  0
    0.3971    4.0651    6.4471 O   0  0  0  0  0  0  0  0  0  0  0  0
    0.3194    0.1066    8.0553 C   0  0  2  0  0  0  0  0  0  0  0  0
   -0.0507   -1.0607    8.8480 N   0  0  0  0  0  0  0  0  0  0  0  0
    0.0344   -1.0746    5.4092 C   0  0  2  0  0  0  0  0  0  0  0  0
    0.1953    6.4251    5.8894 C   0  0  2  0  0  0  0  0  0  0  0  0
   -0.8768    6.1674    4.9155 N   0  0  0  0  0  0  0  0  0  0  0  0
    0.6050    1.2782    9.0530 C   0  0  0  0  0  0  0  0  0  0  0  0
   -0.3207   -0.9409    3.8850 C   0  0  2  0  0  0  0  0  0  0  0  0
   -0.5259    0.4231    3.5560 O   0  0  0  0  0  0  0  0  0  0  0  0
    1.5668    6.3996    5.1803 C   0  0  1  0  0  0  0  0  0  0  0  0
    1.5859    7.3814    4.1313 O   0  0  0  0  0  0  0  0  0  0  0  0
    1.0250    2.5255    8.2040 C   0  0  2  0  0  0  0  0  0  0  0  0
    1.3031    3.6715    9.0933 N   0  0  0  0  0  0  0  0  0  0  0  0
   -1.6140   -1.7956    3.5909 C   0  0  1  0  0  0  0  0  0  0  0  0
   -2.0038   -1.6888    2.1528 N   0  0  0  0  0  0  0  0  0  0  0  0
    2.6747    6.6640    6.2273 C   0  0  2  0  0  0  0  0  0  0  0  0
    3.9601    6.6326    5.5829 O   0  0  0  0  0  0  0  0  0  0  0  0
   -0.0955    2.9223    7.2091 C   0  0  2  0  0  0  0  0  0  0  0  0
   -1.3339   -3.2900    3.9704 C   0  0  1  0  0  0  0  0  0  0  0  0
   -0.2692   -3.7952    3.1689 O   0  0  0  0  0  0  0  0  0  0  0  0
    2.6002    5.5730    7.3626 C   0  0  2  0  0  0  0  0  0  0  0  0
    1.2702    5.6029    8.0016 O   0  0  0  0  0  0  0  0  0  0  0  0
   -0.4022    1.7240    6.2764 C   0  0  2  0  0  0  0  0  0  0  0  0
   -1.4452    2.1050    5.3851 O   0  0  0  0  0  0  0  0  0  0  0  0
   -0.9254   -3.3544    5.4758 C   0  0  0  0  0  0  0  0  0  0  0  0
    0.2498   -2.4899    5.7400 O   0  0  0  0  0  0  0  0  0  0  0  0
    3.6743    5.8024    8.4579 C   0  0  2  0  0  0  0  0  0  0  0  0
    4.0063    4.5564    9.0650 O   0  0  0  0  0  0  0  0  0  0  0  0
   -0.8709    0.4909    7.0836 C   0  0  1  0  0  0  0  0  0  0  0  0
   -1.1237   -0.5676    6.1297 O   0  0  0  0  0  0  0  0  0  0  0  0
    3.1725    6.7368    9.5464 C   0  0  0  0  0  0  0  0  0  0  0  0
   -2.5499   -4.1776    3.7356 C   0  0  0  0  0  0  0  0  0  0  0  0
   -0.8075   -1.9478    1.3290 C   0  0  0  0  0  0  0  0  0  0  0  0
  1  2  1  6  0  0  0
  1  6  1  0  0  0  0
  1 23  1  0  0  0  0
  3  4  1  1  0  0  0
  3  8  1  0  0  0  0
  3 30  1  0  0  0  0
  5  9  1  0  0  0  0
  5 27  1  0  0  0  0
  5 31  1  1  0  0  0
  6  7  1  6  0  0  0
  6 11  1  0  0  0  0
  8 13  1  0  0  0  0
  9 10  1  1  0  0  0
  9 15  1  0  0  0  0
 11 12  1  6  0  0  0
 11 17  1  0  0  0  0
 13 14  1  1  0  0  0
 13 19  1  0  0  0  0
 15 16  1  6  0  0  0
 15 20  1  0  0  0  0
 16 34  1  0  0  0  0
 17 18  1  6  0  0  0
 17 22  1  0  0  0  0
 19  2  1  6  0  0  0
 19 24  1  0  0  0  0
 20 21  1  6  0  0  0
 20 26  1  0  0  0  0
 20 33  1  0  0  0  0
 22 23  1  1  0  0  0
 22 28  1  0  0  0  0
 24 25  1  6  0  0  0
 24 30  1  0  0  0  0
 26 27  1  0  0  0  0
 28 29  1  1  0  0  0
 28 32  1  0  0  0  0
 30 31  1  6  0  0  0
M  END
>  <CHROM.1>
-156.26041187,-86.26734149,49.50725883,-152.59498821,-50.09146819,-125.15167965
0.41448616,1.95579785,6.01248253,0.46956771,-1.17785918,-0.71754531

>  <Name>
ligand

>  <RI>
0

>  <Rbt.Current_Directory>
/home/itssahil/PROJECTS/Mol_Feturizer/New_Systems/rnas/3TD1

>  <Rbt.Executable>
rbdock ($Id: //depot/dev/client3/rdock/2013.1/src/exe/rbdock.cxx#4 $)

>  <Rbt.Library>
libRbt.so (2013.1, Build901 2013/11/27)

>  <Rbt.Parameter_File>
/export/apps/rDock/src/rDock_2013.1_src/data/scripts/dock_solv.prm

>  <Rbt.Receptor>
prm/blind_docking_80.prm

>  <SCORE>
16.9419

>  <SCORE.INTER>
-1.13778

>  <SCORE.INTER.CONST>
1

>  <SCORE.INTER.POLAR>
0

>  <SCORE.INTER.ROT>
6

>  <SCORE.INTER.SOLV>
15.4452

>  <SCORE.INTER.VDW>
-13.5069

>  <SCORE.INTER.norm>
-0.0334641

>  <SCORE.INTRA>
10.4933

>  <SCORE.INTRA.DIHEDRAL>
-4.2237

>  <SCORE.INTRA.DIHEDRAL.0>
19.5869

>  <SCORE.INTRA.POLAR>
0

>  <SCORE.INTRA.POLAR.0>
0

>  <SCORE.INTRA.REPUL>
0

>  <SCORE.INTRA.REPUL.0>
0

>  <SCORE.INTRA.SOLV>
3.37729

>  <SCORE.INTRA.SOLV.lig_0>
-70.101

>  <SCORE.INTRA.VDW>
10.9165

>  <SCORE.INTRA.VDW.0>
-3.39718

>  <SCORE.INTRA.norm>
0.308627

>  <SCORE.RESTR>
7.58638

>  <SCORE.RESTR.CAVITY>
7.58638

>  <SCORE.RESTR.norm>
0.223129

>  <SCORE.SYSTEM>
0

>  <SCORE.SYSTEM.CONST>
0

>  <SCORE.SYSTEM.DIHEDRAL>
0

>  <SCORE.SYSTEM.SOLV>
0

>  <SCORE.SYSTEM.norm>
0

>  <SCORE.heavy>
34

>  <SCORE.norm>
0.498292

>  <RMSD>
12.456

$$$$
ligand
 OpenBabel11021811483D
libRbt.so/2013.1/901 2013/11/27
 34 36  0  0  0  0  0  0  0  0999 V2000
    1.3237    4.5687    7.2298 C   0  0  2  0  0  0  0  0  0  0  0  0
    0.1523    4.0572    7.8846 O   0  0  0  0  0  0  0  0  0  0  0  0
    0.9656   -0.0157    6.8788 C   0  0  2  0  0  0  0  0  0  0  0  0
    0.9453   -1.4743    6.8787 N   0  0  0  0  0  0  0  0  0  0  0  0
   -2.0755   -0.5016    4.9185 C   0  0  2  0  0  0  0  0  0  0  0  0
    1.9810    5.6360    8.1761 C   0  0  2  0  0  0  0  0  0  0  0  0
    2.3778    5.0353    9.4591 N   0  0  0  0  0  0  0  0  0  0  0  0
    1.3223    0.4472    8.3307 C   0  0  0  0  0  0  0  0  0  0  0  0
   -1.8198   -2.0307    5.1708 C   0  0  2  0  0  0  0  0  0  0  0  0
   -1.3746   -2.2315    6.5021 O   0  0  0  0  0  0  0  0  0  0  0  0
    0.9807    6.7865    8.4214 C   0  0  1  0  0  0  0  0  0  0  0  0
    1.5788    7.7709    9.2804 O   0  0  0  0  0  0  0  0  0  0  0  0
    1.3673    2.0127    8.3263 C   0  0  2  0  0  0  0  0  0  0  0  0
    1.6948    2.5126    9.6770 N   0  0  0  0  0  0  0  0  0  0  0  0
   -0.7481   -2.5418    4.1317 C   0  0  1  0  0  0  0  0  0  0  0  0
   -0.4572   -3.9919    4.3406 N   0  0  0  0  0  0  0  0  0  0  0  0
    0.5740    7.3932    7.0575 C   0  0  2  0  0  0  0  0  0  0  0  0
   -0.3668    8.4602    7.2694 O   0  0  0  0  0  0  0  0  0  0  0  0
    0.0036    2.6056    7.8885 C   0  0  2  0  0  0  0  0  0  0  0  0
   -1.2885   -2.2975    2.6812 C   0  0  1  0  0  0  0  0  0  0  0  0
   -2.4908   -3.0380    2.4880 O   0  0  0  0  0  0  0  0  0  0  0  0
   -0.0593    6.2722    6.1481 C   0  0  2  0  0  0  0  0  0  0  0  0
    0.9090    5.1751    5.9554 O   0  0  0  0  0  0  0  0  0  0  0  0
   -0.3549    2.0807    6.4757 C   0  0  2  0  0  0  0  0  0  0  0  0
   -1.6176    2.6230    6.1029 O   0  0  0  0  0  0  0  0  0  0  0  0
   -1.5841   -0.7743    2.5086 C   0  0  0  0  0  0  0  0  0  0  0  0
   -2.5409   -0.3037    3.5389 O   0  0  0  0  0  0  0  0  0  0  0  0
   -0.4644    6.8176    4.7537 C   0  0  2  0  0  0  0  0  0  0  0  0
   -1.1216    5.7908    4.0154 O   0  0  0  0  0  0  0  0  0  0  0  0
   -0.4583    0.5378    6.4605 C   0  0  1  0  0  0  0  0  0  0  0  0
   -0.7879    0.1496    5.1059 O   0  0  0  0  0  0  0  0  0  0  0  0
    0.7480    7.2679    3.9556 C   0  0  0  0  0  0  0  0  0  0  0  0
   -0.2942   -2.7457    1.6171 C   0  0  0  0  0  0  0  0  0  0  0  0
    0.4528   -4.1195    5.4950 C   0  0  0  0  0  0  0  0  0  0  0  0
  1  2  1  1  0  0  0
  1  6  1  0  0  0  0
  1 23  1  0  0  0  0
  3  4  1  1  0  0  0
  3  8  1  0  0  0  0
  3 30  1  0  0  0  0
  5  9  1  0  0  0  0
  5 27  1  0  0  0  0
  5 31  1  6  0  0  0
  6  7  1  1  0  0  0
  6 11  1  0  0  0  0
  8 13  1  0  0  0  0
  9 10  1  1  0  0  0
  9 15  1  0  0  0  0
 11 12  1  1  0  0  0
 11 17  1  0  0  0  0
 13 14  1  1  0  0  0
 13 19  1  0  0  0  0
 15 16  1  1  0  0  0
 15 20  1  0  0  0  0
 16 34  1  0  0  0  0
 17 18  1  1  0  0  0
 17 22  1  0  0  0  0
 19  2  1  6  0  0  0
 19 24  1  0  0  0  0
 20 21  1  6  0  0  0
 20 26  1  0  0  0  0
 20 33  1  0  0  0  0
 22 23  1  6  0  0  0
 22 28  1  0  0  0  0
 24 25  1  1  0  0  0
 24 30  1  0  0  0  0
 26 27  1  0  0  0  0
 28 29  1  6  0  0  0
 28 32  1  0  0  0  0
 30 31  1  6  0  0  0
M  END
>  <CHROM.1>
-132.87960102,47.52508466,-78.33330275,-175.58335088,127.93275454,-86.94434877
-0.10005272,2.01487071,6.00738828,-1.13595063,1.10363262,3.09739726

>  <Name>
ligand

>  <RI>
0

>  <Rbt.Current_Directory>
/home/itssahil/PROJECTS/Mol_Feturizer/New_Systems/rnas/3TD1

>  <Rbt.Executable>
rbdock ($Id: //depot/dev/client3/rdock/2013.1/src/exe/rbdock.cxx#4 $)

>  <Rbt.Library>
libRbt.so (2013.1, Build901 2013/11/27)

>  <Rbt.Parameter_File>
/export/apps/rDock/src/rDock_2013.1_src/data/scripts/dock_solv.prm

>  <Rbt.Receptor>
prm/blind_docking_80.prm

>  <SCORE>
16.2588

>  <SCORE.INTER>
2.87253

>  <SCORE.INTER.CONST>
1

>  <SCORE.INTER.POLAR>
0

>  <SCORE.INTER.ROT>
6

>  <SCORE.INTER.SOLV>
19.5571

>  <SCORE.INTER.VDW>
-12.204

>  <SCORE.INTER.norm>
0.0844861

>  <SCORE.INTRA>
4.6056

>  <SCORE.INTRA.DIHEDRAL>
-2.22239

>  <SCORE.INTRA.DIHEDRAL.0>
19.5869

>  <SCORE.INTRA.POLAR>
0

>  <SCORE.INTRA.POLAR.0>
0

>  <SCORE.INTRA.REPUL>
0

>  <SCORE.INTRA.REPUL.0>
0

>  <SCORE.INTRA.SOLV>
4.7859

>  <SCORE.INTRA.SOLV.lig_0>
-70.101

>  <SCORE.INTRA.VDW>
3.32385

>  <SCORE.INTRA.VDW.0>
-3.39718

>  <SCORE.INTRA.norm>
0.135459

>  <SCORE.RESTR>
8.78066

>  <SCORE.RESTR.CAVITY>
8.78066

>  <SCORE.RESTR.norm>
0.258255

>  <SCORE.SYSTEM>
0

>  <SCORE.SYSTEM.CONST>
0

>  <SCORE.SYSTEM.DIHEDRAL>
0

>  <SCORE.SYSTEM.SOLV>
0

>  <SCORE.SYSTEM.norm>
0

>  <SCORE.heavy>
34

>  <SCORE.norm>
0.4782

>  <RMSD>
12.472

$$$$
ligand
 OpenBabel11021811483D
libRbt.so/2013.1/901 2013/11/27
 34 36  0  0  0  0  0  0  0  0999 V2000
    0.0106    5.2778    7.4666 C   0  0  2  0  0  0  0  0  0  0  0  0
    0.4956    4.0394    6.9245 O   0  0  0  0  0  0  0  0  0  0  0  0
    0.2746    0.1032    8.5735 C   0  0  2  0  0  0  0  0  0  0  0  0
   -0.2404   -1.1158    9.1873 N   0  0  0  0  0  0  0  0  0  0  0  0
   -0.8219   -1.9842    6.3407 C   0  0  2  0  0  0  0  0  0  0  0  0
    0.0777    6.3626    6.3329 C   0  0  2  0  0  0  0  0  0  0  0  0
   -0.7624    5.9845    5.1859 N   0  0  0  0  0  0  0  0  0  0  0  0
   -0.0984    1.2954    9.5165 C   0  0  0  0  0  0  0  0  0  0  0  0
   -0.3787   -2.8773    5.1271 C   0  0  2  0  0  0  0  0  0  0  0  0
    0.9956   -3.2057    5.2471 O   0  0  0  0  0  0  0  0  0  0  0  0
    1.5428    6.5352    5.8769 C   0  0  1  0  0  0  0  0  0  0  0  0
    1.6126    7.5324    4.8447 O   0  0  0  0  0  0  0  0  0  0  0  0
    0.4743    2.6018    8.8698 C   0  0  2  0  0  0  0  0  0  0  0  0
    0.1477    3.7687    9.7144 N   0  0  0  0  0  0  0  0  0  0  0  0
   -0.6579   -2.0874    3.7901 C   0  0  1  0  0  0  0  0  0  0  0  0
   -0.2376   -2.8904    2.6027 N   0  0  0  0  0  0  0  0  0  0  0  0
    2.4042    6.9232    7.1021 C   0  0  2  0  0  0  0  0  0  0  0  0
    3.7749    7.0771    6.6946 O   0  0  0  0  0  0  0  0  0  0  0  0
   -0.1167    2.8255    7.4544 C   0  0  2  0  0  0  0  0  0  0  0  0
   -2.1862   -1.7508    3.7073 C   0  0  1  0  0  0  0  0  0  0  0  0
   -2.9411   -2.9592    3.6815 O   0  0  0  0  0  0  0  0  0  0  0  0
    2.2800    5.8086    8.2098 C   0  0  2  0  0  0  0  0  0  0  0  0
    0.8670    5.6472    8.6041 O   0  0  0  0  0  0  0  0  0  0  0  0
    0.2121    1.6029    6.5615 C   0  0  2  0  0  0  0  0  0  0  0  0
   -0.3554    1.8223    5.2742 O   0  0  0  0  0  0  0  0  0  0  0  0
   -2.5828   -0.9183    4.9671 C   0  0  0  0  0  0  0  0  0  0  0  0
   -2.2475   -1.6530    6.2106 O   0  0  0  0  0  0  0  0  0  0  0  0
    3.1047    6.1563    9.4766 C   0  0  2  0  0  0  0  0  0  0  0  0
    2.7621    7.4665    9.9207 O   0  0  0  0  0  0  0  0  0  0  0  0
   -0.3864    0.3032    7.1481 C   0  0  1  0  0  0  0  0  0  0  0  0
   -0.0211   -0.7726    6.2517 O   0  0  0  0  0  0  0  0  0  0  0  0
    4.5982    6.1305    9.1962 C   0  0  0  0  0  0  0  0  0  0  0  0
   -2.5314   -0.9637    2.4491 C   0  0  0  0  0  0  0  0  0  0  0  0
    0.1965   -1.9585    1.5443 C   0  0  0  0  0  0  0  0  0  0  0  0
  1  2  1  6  0  0  0
  1  6  1  0  0  0  0
  1 23  1  0  0  0  0
  3  4  1  1  0  0  0
  3  8  1  0  0  0  0
  3 30  1  0  0  0  0
  5  9  1  0  0  0  0
  5 27  1  0  0  0  0
  5 31  1  6  0  0  0
  6  7  1  6  0  0  0
  6 11  1  0  0  0  0
  8 13  1  0  0  0  0
  9 10  1  1  0  0  0
  9 15  1  0  0  0  0
 11 12  1  6  0  0  0
 11 17  1  0  0  0  0
 13 14  1  1  0  0  0
 13 19  1  0  0  0  0
 15 16  1  6  0  0  0
 15 20  1  0  0  0  0
 16 34  1  0  0  0  0
 17 18  1  6  0  0  0
 17 22  1  0  0  0  0
 19  2  1  6  0  0  0
 19 24  1  0  0  0  0
 20 21  1  6  0  0  0
 20 26  1  0  0  0  0
 20 33  1  0  0  0  0
 22 23  1  1  0  0  0
 22 28  1  0  0  0  0
 24 25  1  6  0  0  0
 24 30  1  0  0  0  0
 26 27  1  0  0  0  0
 28 29  1  6  0  0  0
 28 32  1  0  0  0  0
 30 31  1  6  0  0  0
M  END
>  <CHROM.1>
-147.29277251,-75.20952766,-148.96796753,52.17042107,83.90737988,170.99442264
0.28614218,2.07211266,6.45025776,0.19999340,-1.22269715,-0.96779707

>  <Name>
ligand

>  <RI>
0

>  <Rbt.Current_Directory>
/home/itssahil/PROJECTS/Mol_Feturizer/New_Systems/rnas/3TD1

>  <Rbt.Executable>
rbdock ($Id: //depot/dev/client3/rdock/2013.1/src/exe/rbdock.cxx#4 $)

>  <Rbt.Library>
libRbt.so (2013.1, Build901 2013/11/27)

>  <Rbt.Parameter_File>
/export/apps/rDock/src/rDock_2013.1_src/data/scripts/dock_solv.prm

>  <Rbt.Receptor>
prm/blind_docking_80.prm

>  <SCORE>
7.69186

>  <SCORE.INTER>
-0.938355

>  <SCORE.INTER.CONST>
1

>  <SCORE.INTER.POLAR>
0

>  <SCORE.INTER.ROT>
6

>  <SCORE.INTER.SOLV>
17.3385

>  <SCORE.INTER.VDW>
-14.0051

>  <SCORE.INTER.norm>
-0.0275987

>  <SCORE.INTRA>
0.49113

>  <SCORE.INTRA.DIHEDRAL>
-10.6494

>  <SCORE.INTRA.DIHEDRAL.0>
19.5869

>  <SCORE.INTRA.POLAR>
0

>  <SCORE.INTRA.POLAR.0>
0

>  <SCORE.INTRA.REPUL>
0

>  <SCORE.INTRA.REPUL.0>
0

>  <SCORE.INTRA.SOLV>
0.798615

>  <SCORE.INTRA.SOLV.lig_0>
-70.101

>  <SCORE.INTRA.VDW>
5.41651

>  <SCORE.INTRA.VDW.0>
-3.39718

>  <SCORE.INTRA.norm>
0.014445

>  <SCORE.RESTR>
8.13908

>  <SCORE.RESTR.CAVITY>
8.13908

>  <SCORE.RESTR.norm>
0.239385

>  <SCORE.SYSTEM>
0

>  <SCORE.SYSTEM.CONST>
0

>  <SCORE.SYSTEM.DIHEDRAL>
0

>  <SCORE.SYSTEM.SOLV>
0

>  <SCORE.SYSTEM.norm>
0

>  <SCORE.heavy>
34

>  <SCORE.norm>
0.226231

>  <RMSD>
12.491

$$$$
ligand
 OpenBabel11021811483D
libRbt.so/2013.1/901 2013/11/27
 34 36  0  0  0  0  0  0  0  0999 V2000
    0.0258    5.1889    7.5136 C   0  0  2  0  0  0  0  0  0  0  0  0
    0.5949    4.0700    6.8158 O   0  0  0  0  0  0  0  0  0  0  0  0
    1.1186   -0.1172    7.4900 C   0  0  2  0  0  0  0  0  0  0  0  0
    1.0496   -1.4436    8.0934 N   0  0  0  0  0  0  0  0  0  0  0  0
    0.0050   -0.7880    4.8880 C   0  0  2  0  0  0  0  0  0  0  0  0
   -0.0181    6.4067    6.5229 C   0  0  2  0  0  0  0  0  0  0  0  0
   -0.8509    6.1057    5.3481 N   0  0  0  0  0  0  0  0  0  0  0  0
    1.6951    0.8584    8.5696 C   0  0  0  0  0  0  0  0  0  0  0  0
   -0.8973   -0.6153    3.6139 C   0  0  2  0  0  0  0  0  0  0  0  0
   -1.3829    0.7151    3.5443 O   0  0  0  0  0  0  0  0  0  0  0  0
    1.4184    6.7524    6.0742 C   0  0  1  0  0  0  0  0  0  0  0  0
    1.3864    7.8713    5.1733 O   0  0  0  0  0  0  0  0  0  0  0  0
    1.7914    2.2781    7.9153 C   0  0  2  0  0  0  0  0  0  0  0  0
    2.3257    3.2492    8.8915 N   0  0  0  0  0  0  0  0  0  0  0  0
   -2.0864   -1.6493    3.6931 C   0  0  1  0  0  0  0  0  0  0  0  0
   -2.9856   -1.5144    2.5080 N   0  0  0  0  0  0  0  0  0  0  0  0
    2.2733    7.0552    7.3276 C   0  0  2  0  0  0  0  0  0  0  0  0
    3.6182    7.3687    6.9257 O   0  0  0  0  0  0  0  0  0  0  0  0
    0.3997    2.7631    7.4349 C   0  0  2  0  0  0  0  0  0  0  0  0
   -1.4963   -3.0991    3.7676 C   0  0  1  0  0  0  0  0  0  0  0  0
   -0.7431   -3.3697    2.5884 O   0  0  0  0  0  0  0  0  0  0  0  0
    2.2621    5.8064    8.2894 C   0  0  2  0  0  0  0  0  0  0  0  0
    0.8753    5.4838    8.6777 O   0  0  0  0  0  0  0  0  0  0  0  0
   -0.1749    1.7470    6.4165 C   0  0  2  0  0  0  0  0  0  0  0  0
   -1.4591    2.2031    6.0038 O   0  0  0  0  0  0  0  0  0  0  0  0
   -0.5607   -3.1938    5.0138 C   0  0  0  0  0  0  0  0  0  0  0  0
    0.5074   -2.1675    4.9494 O   0  0  0  0  0  0  0  0  0  0  0  0
    3.0846    6.0614    9.5795 C   0  0  2  0  0  0  0  0  0  0  0  0
    2.7718    7.3532   10.0939 O   0  0  0  0  0  0  0  0  0  0  0  0
   -0.3311    0.3452    7.0505 C   0  0  1  0  0  0  0  0  0  0  0  0
   -0.8643   -0.5257    6.0250 O   0  0  0  0  0  0  0  0  0  0  0  0
    4.5792    6.0126    9.3086 C   0  0  0  0  0  0  0  0  0  0  0  0
   -2.5884   -4.1568    3.8708 C   0  0  0  0  0  0  0  0  0  0  0  0
   -4.0046   -0.4923    2.8145 C   0  0  0  0  0  0  0  0  0  0  0  0
  1  2  1  6  0  0  0
  1  6  1  0  0  0  0
  1 23  1  0  0  0  0
  3  4  1  1  0  0  0
  3  8  1  0  0  0  0
  3 30  1  0  0  0  0
  5  9  1  0  0  0  0
  5 27  1  0  0  0  0
  5 31  1  1  0  0  0
  6  7  1  6  0  0  0
  6 11  1  0  0  0  0
  8 13  1  0  0  0  0
  9 10  1  1  0  0  0
  9 15  1  0  0  0  0
 11 12  1  6  0  0  0
 11 17  1  0  0  0  0
 13 14  1  1  0  0  0
 13 19  1  0  0  0  0
 15 16  1  6  0  0  0
 15 20  1  0  0  0  0
 16 34  1  0  0  0  0
 17 18  1  6  0  0  0
 17 22  1  0  0  0  0
 19  2  1  6  0  0  0
 19 24  1  0  0  0  0
 20 21  1  6  0  0  0
 20 26  1  0  0  0  0
 20 33  1  0  0  0  0
 22 23  1  1  0  0  0
 22 28  1  0  0  0  0
 24 25  1  1  0  0  0
 24 30  1  0  0  0  0
 26 27  1  0  0  0  0
 28 29  1  6  0  0  0
 28 32  1  0  0  0  0
 30 31  1  6  0  0  0
M  END
>  <CHROM.1>
-164.31809695,-111.92841387,-87.79174749,44.80686959,-49.76141317,-134.06536416
0.33420082,2.15318697,6.24299190,0.94471827,-0.89332410,-0.07899295

>  <Name>
ligand

>  <RI>
0

>  <Rbt.Current_Directory>
/home/itssahil/PROJECTS/Mol_Feturizer/New_Systems/rnas/3TD1

>  <Rbt.Executable>
rbdock ($Id: //depot/dev/client3/rdock/2013.1/src/exe/rbdock.cxx#4 $)

>  <Rbt.Library>
libRbt.so (2013.1, Build901 2013/11/27)

>  <Rbt.Parameter_File>
/export/apps/rDock/src/rDock_2013.1_src/data/scripts/dock_solv.prm

>  <Rbt.Receptor>
prm/blind_docking_80.prm

>  <SCORE>
9.734

>  <SCORE.INTER>
0.801397

>  <SCORE.INTER.CONST>
1

>  <SCORE.INTER.POLAR>
0

>  <SCORE.INTER.ROT>
6

>  <SCORE.INTER.SOLV>
19.7057

>  <SCORE.INTER.VDW>
-13.6343

>  <SCORE.INTER.norm>
0.0235705

>  <SCORE.INTRA>
1.59828

>  <SCORE.INTRA.DIHEDRAL>
-3.41746

>  <SCORE.INTRA.DIHEDRAL.0>
19.5869

>  <SCORE.INTRA.POLAR>
0

>  <SCORE.INTRA.POLAR.0>
0

>  <SCORE.INTRA.REPUL>
0

>  <SCORE.INTRA.REPUL.0>
0

>  <SCORE.INTRA.SOLV>
2.87363

>  <SCORE.INTRA.SOLV.lig_0>
-70.101

>  <SCORE.INTRA.VDW>
1.8702

>  <SCORE.INTRA.VDW.0>
-3.39718

>  <SCORE.INTRA.norm>
0.0470083

>  <SCORE.RESTR>
7.33432

>  <SCORE.RESTR.CAVITY>
7.33432

>  <SCORE.RESTR.norm>
0.215715

>  <SCORE.SYSTEM>
0

>  <SCORE.SYSTEM.CONST>
0

>  <SCORE.SYSTEM.DIHEDRAL>
0

>  <SCORE.SYSTEM.SOLV>
0

>  <SCORE.SYSTEM.norm>
0

>  <SCORE.heavy>
34

>  <SCORE.norm>
0.286294

>  <RMSD>
12.494

$$$$
ligand
 OpenBabel11021811483D
libRbt.so/2013.1/901 2013/11/27
 34 36  0  0  0  0  0  0  0  0999 V2000
    0.3895    5.1652    7.4431 C   0  0  2  0  0  0  0  0  0  0  0  0
    0.6893    3.9101    6.8126 O   0  0  0  0  0  0  0  0  0  0  0  0
    0.2620    0.0459    8.5866 C   0  0  2  0  0  0  0  0  0  0  0  0
   -0.3196   -1.1302    9.2243 N   0  0  0  0  0  0  0  0  0  0  0  0
   -0.8566   -2.0680    6.3758 C   0  0  2  0  0  0  0  0  0  0  0  0
    0.3528    6.2710    6.3285 C   0  0  2  0  0  0  0  0  0  0  0  0
   -0.6860    5.9818    5.3277 N   0  0  0  0  0  0  0  0  0  0  0  0
   -0.0937    1.2841    9.4756 C   0  0  0  0  0  0  0  0  0  0  0  0
   -0.4681   -2.9768    5.1551 C   0  0  2  0  0  0  0  0  0  0  0  0
    0.8878   -3.3773    5.2648 O   0  0  0  0  0  0  0  0  0  0  0  0
    1.7344    6.3523    5.6436 C   0  0  1  0  0  0  0  0  0  0  0  0
    1.7102    7.3681    4.6276 O   0  0  0  0  0  0  0  0  0  0  0  0
    0.5500    2.5441    8.8041 C   0  0  2  0  0  0  0  0  0  0  0  0
    0.2428    3.7516    9.5971 N   0  0  0  0  0  0  0  0  0  0  0  0
   -0.7137   -2.1665    3.8237 C   0  0  1  0  0  0  0  0  0  0  0  0
   -0.3431   -2.9842    2.6298 N   0  0  0  0  0  0  0  0  0  0  0  0
    2.8073    6.6479    6.7184 C   0  0  2  0  0  0  0  0  0  0  0  0
    4.1023    6.7160    6.0963 O   0  0  0  0  0  0  0  0  0  0  0  0
    0.0134    2.7398    7.3630 C   0  0  2  0  0  0  0  0  0  0  0  0
   -2.2227   -1.7500    3.7522 C   0  0  1  0  0  0  0  0  0  0  0  0
   -3.0400   -2.9171    3.7254 O   0  0  0  0  0  0  0  0  0  0  0  0
    2.7815    5.5170    7.8160 C   0  0  2  0  0  0  0  0  0  0  0  0
    1.4421    5.4449    8.4318 O   0  0  0  0  0  0  0  0  0  0  0  0
    0.3222    1.4749    6.5237 C   0  0  2  0  0  0  0  0  0  0  0  0
   -0.1952    1.6700    5.2116 O   0  0  0  0  0  0  0  0  0  0  0  0
   -2.5675   -0.9044    5.0185 C   0  0  0  0  0  0  0  0  0  0  0  0
   -2.2637   -1.6620    6.2563 O   0  0  0  0  0  0  0  0  0  0  0  0
    3.8220    5.7739    8.9372 C   0  0  2  0  0  0  0  0  0  0  0  0
    4.0223    4.5756    9.6822 O   0  0  0  0  0  0  0  0  0  0  0  0
   -0.3451    0.2204    7.1342 C   0  0  1  0  0  0  0  0  0  0  0  0
    0.0060   -0.8995    6.2876 O   0  0  0  0  0  0  0  0  0  0  0  0
    3.3525    6.8526    9.8994 C   0  0  0  0  0  0  0  0  0  0  0  0
   -2.5339   -0.9394    2.5001 C   0  0  0  0  0  0  0  0  0  0  0  0
    0.1232   -2.0700    1.5698 C   0  0  0  0  0  0  0  0  0  0  0  0
  1  2  1  6  0  0  0
  1  6  1  0  0  0  0
  1 23  1  0  0  0  0
  3  4  1  1  0  0  0
  3  8  1  0  0  0  0
  3 30  1  0  0  0  0
  5  9  1  0  0  0  0
  5 27  1  0  0  0  0
  5 31  1  6  0  0  0
  6  7  1  6  0  0  0
  6 11  1  0  0  0  0
  8 13  1  0  0  0  0
  9 10  1  1  0  0  0
  9 15  1  0  0  0  0
 11 12  1  6  0  0  0
 11 17  1  0  0  0  0
 13 14  1  1  0  0  0
 13 19  1  0  0  0  0
 15 16  1  6  0  0  0
 15 20  1  0  0  0  0
 16 34  1  0  0  0  0
 17 18  1  6  0  0  0
 17 22  1  0  0  0  0
 19  2  1  6  0  0  0
 19 24  1  0  0  0  0
 20 21  1  6  0  0  0
 20 26  1  0  0  0  0
 20 33  1  0  0  0  0
 22 23  1  1  0  0  0
 22 28  1  0  0  0  0
 24 25  1  6  0  0  0
 24 30  1  0  0  0  0
 26 27  1  0  0  0  0
 28 29  1  1  0  0  0
 28 32  1  0  0  0  0
 30 31  1  6  0  0  0
M  END
>  <CHROM.1>
-143.39191065,-65.72696911,-149.38150017,-163.96179455,84.84786108,167.41965771
0.39526690,1.89624318,6.39171144,0.20020311,-1.17982966,-0.97603894

>  <Name>
ligand

>  <RI>
0

>  <Rbt.Current_Directory>
/home/itssahil/PROJECTS/Mol_Feturizer/New_Systems/rnas/3TD1

>  <Rbt.Executable>
rbdock ($Id: //depot/dev/client3/rdock/2013.1/src/exe/rbdock.cxx#4 $)

>  <Rbt.Library>
libRbt.so (2013.1, Build901 2013/11/27)

>  <Rbt.Parameter_File>
/export/apps/rDock/src/rDock_2013.1_src/data/scripts/dock_solv.prm

>  <Rbt.Receptor>
prm/blind_docking_80.prm

>  <SCORE>
9.32348

>  <SCORE.INTER>
0.301869

>  <SCORE.INTER.CONST>
1

>  <SCORE.INTER.POLAR>
0

>  <SCORE.INTER.ROT>
6

>  <SCORE.INTER.SOLV>
16.407

>  <SCORE.INTER.VDW>
-12.8677

>  <SCORE.INTER.norm>
0.00887851

>  <SCORE.INTRA>
0.719983

>  <SCORE.INTRA.DIHEDRAL>
-9.65151

>  <SCORE.INTRA.DIHEDRAL.0>
19.5869

>  <SCORE.INTRA.POLAR>
0

>  <SCORE.INTRA.POLAR.0>
0

>  <SCORE.INTRA.REPUL>
0

>  <SCORE.INTRA.REPUL.0>
0

>  <SCORE.INTRA.SOLV>
0.603517

>  <SCORE.INTRA.SOLV.lig_0>
-70.101

>  <SCORE.INTRA.VDW>
5.24398

>  <SCORE.INTRA.VDW.0>
-3.39718

>  <SCORE.INTRA.norm>
0.021176

>  <SCORE.RESTR>
8.30163

>  <SCORE.RESTR.CAVITY>
8.30163

>  <SCORE.RESTR.norm>
0.244166

>  <SCORE.SYSTEM>
0

>  <SCORE.SYSTEM.CONST>
0

>  <SCORE.SYSTEM.DIHEDRAL>
0

>  <SCORE.SYSTEM.SOLV>
0

>  <SCORE.SYSTEM.norm>
0

>  <SCORE.heavy>
34

>  <SCORE.norm>
0.27422

>  <RMSD>
12.506

$$$$
ligand
 OpenBabel11021811483D
libRbt.so/2013.1/901 2013/11/27
 34 36  0  0  0  0  0  0  0  0999 V2000
    1.3188    4.7138    7.2463 C   0  0  2  0  0  0  0  0  0  0  0  0
    0.0432    4.1921    7.6502 O   0  0  0  0  0  0  0  0  0  0  0  0
    1.0362    0.0897    6.9824 C   0  0  2  0  0  0  0  0  0  0  0  0
    1.0753   -1.3639    7.0989 N   0  0  0  0  0  0  0  0  0  0  0  0
   -1.9369   -0.7085    5.0423 C   0  0  2  0  0  0  0  0  0  0  0  0
    1.7108    5.8622    8.2434 C   0  0  2  0  0  0  0  0  0  0  0  0
    1.8189    5.3557    9.6204 N   0  0  0  0  0  0  0  0  0  0  0  0
    1.3530    0.6810    8.3965 C   0  0  0  0  0  0  0  0  0  0  0  0
   -1.5347   -2.2227    5.1537 C   0  0  2  0  0  0  0  0  0  0  0  0
   -0.9670   -2.4779    6.4279 O   0  0  0  0  0  0  0  0  0  0  0  0
    0.6489    6.9812    8.1767 C   0  0  1  0  0  0  0  0  0  0  0  0
    1.0056    8.0393    9.0812 O   0  0  0  0  0  0  0  0  0  0  0  0
    1.3341    2.2417    8.2674 C   0  0  2  0  0  0  0  0  0  0  0  0
    1.6217    2.8606    9.5773 N   0  0  0  0  0  0  0  0  0  0  0  0
   -0.5126   -2.5600    4.0000 C   0  0  1  0  0  0  0  0  0  0  0  0
   -0.0855   -3.9896    4.0719 N   0  0  0  0  0  0  0  0  0  0  0  0
    0.5495    7.4885    6.7185 C   0  0  2  0  0  0  0  0  0  0  0  0
   -0.4445    8.5249    6.6386 O   0  0  0  0  0  0  0  0  0  0  0  0
   -0.0462    2.7405    7.7686 C   0  0  2  0  0  0  0  0  0  0  0  0
   -1.1882   -2.2616    2.6180 C   0  0  1  0  0  0  0  0  0  0  0  0
   -2.3362   -3.0908    2.4581 O   0  0  0  0  0  0  0  0  0  0  0  0
    0.1740    6.2897    5.7664 C   0  0  2  0  0  0  0  0  0  0  0  0
    1.1911    5.2256    5.8732 O   0  0  0  0  0  0  0  0  0  0  0  0
   -0.3628    2.0904    6.3985 C   0  0  2  0  0  0  0  0  0  0  0  0
   -1.6411    2.5482    5.9697 O   0  0  0  0  0  0  0  0  0  0  0  0
   -1.6230   -0.7625    2.5883 C   0  0  0  0  0  0  0  0  0  0  0  0
   -2.5283   -0.4544    3.7214 O   0  0  0  0  0  0  0  0  0  0  0  0
    0.0849    6.7341    4.2830 C   0  0  2  0  0  0  0  0  0  0  0  0
    1.2909    7.3976    3.9133 O   0  0  0  0  0  0  0  0  0  0  0  0
   -0.4030    0.5482    6.5056 C   0  0  1  0  0  0  0  0  0  0  0  0
   -0.6971    0.0401    5.1829 O   0  0  0  0  0  0  0  0  0  0  0  0
   -1.0695    7.6960    4.0557 C   0  0  0  0  0  0  0  0  0  0  0  0
   -0.2502   -2.5416    1.4502 C   0  0  0  0  0  0  0  0  0  0  0  0
   -1.2882   -4.8226    4.2633 C   0  0  0  0  0  0  0  0  0  0  0  0
  1  2  1  1  0  0  0
  1  6  1  0  0  0  0
  1 23  1  0  0  0  0
  3  4  1  1  0  0  0
  3  8  1  0  0  0  0
  3 30  1  0  0  0  0
  5  9  1  0  0  0  0
  5 27  1  0  0  0  0
  5 31  1  6  0  0  0
  6  7  1  1  0  0  0
  6 11  1  0  0  0  0
  8 13  1  0  0  0  0
  9 10  1  1  0  0  0
  9 15  1  0  0  0  0
 11 12  1  1  0  0  0
 11 17  1  0  0  0  0
 13 14  1  1  0  0  0
 13 19  1  0  0  0  0
 15 16  1  6  0  0  0
 15 20  1  0  0  0  0
 16 34  1  0  0  0  0
 17 18  1  1  0  0  0
 17 22  1  0  0  0  0
 19  2  1  6  0  0  0
 19 24  1  0  0  0  0
 20 21  1  6  0  0  0
 20 26  1  0  0  0  0
 20 33  1  0  0  0  0
 22 23  1  6  0  0  0
 22 28  1  0  0  0  0
 24 25  1  1  0  0  0
 24 30  1  0  0  0  0
 26 27  1  0  0  0  0
 28 29  1  1  0  0  0
 28 32  1  0  0  0  0
 30 31  1  6  0  0  0
M  END
>  <CHROM.1>
-130.55702510,34.14070851,46.30117612,53.25725234,126.31844601,-96.77372573
-0.10282445,2.11063517,5.88947940,-1.08125860,1.18447728,2.99883712

>  <Name>
ligand

>  <RI>
0

>  <Rbt.Current_Directory>
/home/itssahil/PROJECTS/Mol_Feturizer/New_Systems/rnas/3TD1

>  <Rbt.Executable>
rbdock ($Id: //depot/dev/client3/rdock/2013.1/src/exe/rbdock.cxx#4 $)

>  <Rbt.Library>
libRbt.so (2013.1, Build901 2013/11/27)

>  <Rbt.Parameter_File>
/export/apps/rDock/src/rDock_2013.1_src/data/scripts/dock_solv.prm

>  <Rbt.Receptor>
prm/blind_docking_80.prm

>  <SCORE>
24.5804

>  <SCORE.INTER>
3.10187

>  <SCORE.INTER.CONST>
1

>  <SCORE.INTER.POLAR>
0

>  <SCORE.INTER.ROT>
6

>  <SCORE.INTER.SOLV>
21.1471

>  <SCORE.INTER.VDW>
-12.5811

>  <SCORE.INTER.norm>
0.0912313

>  <SCORE.INTRA>
13.014

>  <SCORE.INTRA.DIHEDRAL>
2.01541

>  <SCORE.INTRA.DIHEDRAL.0>
19.5869

>  <SCORE.INTRA.POLAR>
0

>  <SCORE.INTRA.POLAR.0>
0

>  <SCORE.INTRA.REPUL>
0

>  <SCORE.INTRA.REPUL.0>
0

>  <SCORE.INTRA.SOLV>
4.14532

>  <SCORE.INTRA.SOLV.lig_0>
-70.101

>  <SCORE.INTRA.VDW>
9.93366

>  <SCORE.INTRA.VDW.0>
-3.39718

>  <SCORE.INTRA.norm>
0.382765

>  <SCORE.RESTR>
8.46452

>  <SCORE.RESTR.CAVITY>
8.46452

>  <SCORE.RESTR.norm>
0.248956

>  <SCORE.SYSTEM>
0

>  <SCORE.SYSTEM.CONST>
0

>  <SCORE.SYSTEM.DIHEDRAL>
0

>  <SCORE.SYSTEM.SOLV>
0

>  <SCORE.SYSTEM.norm>
0

>  <SCORE.heavy>
34

>  <SCORE.norm>
0.722953

>  <RMSD>
12.526

$$$$
ligand
 OpenBabel11021811483D
libRbt.so/2013.1/901 2013/11/27
 34 36  0  0  0  0  0  0  0  0999 V2000
    0.0253    5.3534    7.0119 C   0  0  2  0  0  0  0  0  0  0  0  0
    0.3453    4.0792    6.4316 O   0  0  0  0  0  0  0  0  0  0  0  0
    0.5619    0.0991    7.9724 C   0  0  2  0  0  0  0  0  0  0  0  0
    0.3070   -1.0933    8.7731 N   0  0  0  0  0  0  0  0  0  0  0  0
    0.0575   -0.9518    5.2369 C   0  0  2  0  0  0  0  0  0  0  0  0
   -0.0092    6.4171    5.8569 C   0  0  2  0  0  0  0  0  0  0  0  0
   -1.0329    6.0804    4.8554 N   0  0  0  0  0  0  0  0  0  0  0  0
    0.8837    1.2677    8.9627 C   0  0  0  0  0  0  0  0  0  0  0  0
   -0.5219   -0.6855    3.8015 C   0  0  2  0  0  0  0  0  0  0  0  0
   -0.8491    0.6871    3.6610 O   0  0  0  0  0  0  0  0  0  0  0  0
    1.3796    6.4877    5.1857 C   0  0  1  0  0  0  0  0  0  0  0  0
    1.3574    7.4652    4.1327 O   0  0  0  0  0  0  0  0  0  0  0  0
    1.1804    2.5428    8.1030 C   0  0  2  0  0  0  0  0  0  0  0  0
    1.4865    3.6870    8.9854 N   0  0  0  0  0  0  0  0  0  0  0  0
   -1.7939   -1.5955    3.5934 C   0  0  1  0  0  0  0  0  0  0  0  0
   -2.3935   -1.3674    2.2444 N   0  0  0  0  0  0  0  0  0  0  0  0
    2.4365    6.8339    6.2612 C   0  0  2  0  0  0  0  0  0  0  0  0
    3.7381    6.8927    5.6522 O   0  0  0  0  0  0  0  0  0  0  0  0
   -0.0351    2.9067    7.2125 C   0  0  2  0  0  0  0  0  0  0  0  0
   -1.3780   -3.0973    3.7583 C   0  0  1  0  0  0  0  0  0  0  0  0
   -0.4141   -3.4382    2.7654 O   0  0  0  0  0  0  0  0  0  0  0  0
    2.4089    5.7438    7.3994 C   0  0  2  0  0  0  0  0  0  0  0  0
    1.0631    5.6802    8.0018 O   0  0  0  0  0  0  0  0  0  0  0  0
   -0.3714    1.7097    6.2883 C   0  0  2  0  0  0  0  0  0  0  0  0
   -1.5002    2.0596    5.4942 O   0  0  0  0  0  0  0  0  0  0  0  0
   -0.7525   -3.2892    5.1758 C   0  0  0  0  0  0  0  0  0  0  0  0
    0.3981   -2.3748    5.3717 O   0  0  0  0  0  0  0  0  0  0  0  0
    3.4333    6.0527    8.5224 C   0  0  2  0  0  0  0  0  0  0  0  0
    4.4496    6.9128    8.0139 O   0  0  0  0  0  0  0  0  0  0  0  0
   -0.7205    0.4474    7.1106 C   0  0  1  0  0  0  0  0  0  0  0  0
   -1.0105   -0.6075    6.1632 O   0  0  0  0  0  0  0  0  0  0  0  0
    4.1012    4.7870    9.0338 C   0  0  0  0  0  0  0  0  0  0  0  0
   -2.5633   -4.0407    3.5942 C   0  0  0  0  0  0  0  0  0  0  0  0
   -3.6880   -0.6823    2.4235 C   0  0  0  0  0  0  0  0  0  0  0  0
  1  2  1  6  0  0  0
  1  6  1  0  0  0  0
  1 23  1  0  0  0  0
  3  4  1  1  0  0  0
  3  8  1  0  0  0  0
  3 30  1  0  0  0  0
  5  9  1  0  0  0  0
  5 27  1  0  0  0  0
  5 31  1  1  0  0  0
  6  7  1  6  0  0  0
  6 11  1  0  0  0  0
  8 13  1  0  0  0  0
  9 10  1  1  0  0  0
  9 15  1  0  0  0  0
 11 12  1  6  0  0  0
 11 17  1  0  0  0  0
 13 14  1  1  0  0  0
 13 19  1  0  0  0  0
 15 16  1  6  0  0  0
 15 20  1  0  0  0  0
 16 34  1  0  0  0  0
 17 18  1  6  0  0  0
 17 22  1  0  0  0  0
 19  2  1  6  0  0  0
 19 24  1  0  0  0  0
 20 21  1  6  0  0  0
 20 26  1  0  0  0  0
 20 33  1  0  0  0  0
 22 23  1  1  0  0  0
 22 28  1  0  0  0  0
 24 25  1  1  0  0  0
 24 30  1  0  0  0  0
 26 27  1  0  0  0  0
 28 29  1  6  0  0  0
 28 32  1  0  0  0  0
 30 31  1  6  0  0  0
M  END
>  <CHROM.1>
-158.74229969,-91.53103663,-110.59413886,-21.87407341,-56.81626149,-119.77985032
0.32245794,2.09722930,5.94642921,0.76832945,-1.00634482,-0.37822201

>  <Name>
ligand

>  <RI>
0

>  <Rbt.Current_Directory>
/home/itssahil/PROJECTS/Mol_Feturizer/New_Systems/rnas/3TD1

>  <Rbt.Executable>
rbdock ($Id: //depot/dev/client3/rdock/2013.1/src/exe/rbdock.cxx#4 $)

>  <Rbt.Library>
libRbt.so (2013.1, Build901 2013/11/27)

>  <Rbt.Parameter_File>
/export/apps/rDock/src/rDock_2013.1_src/data/scripts/dock_solv.prm

>  <Rbt.Receptor>
prm/blind_docking_80.prm

>  <SCORE>
16.9285

>  <SCORE.INTER>
2.0052

>  <SCORE.INTER.CONST>
1

>  <SCORE.INTER.POLAR>
0

>  <SCORE.INTER.ROT>
6

>  <SCORE.INTER.SOLV>
16.254

>  <SCORE.INTER.VDW>
-11.6812

>  <SCORE.INTER.norm>
0.0589763

>  <SCORE.INTRA>
7.10352

>  <SCORE.INTRA.DIHEDRAL>
-1.44099

>  <SCORE.INTRA.DIHEDRAL.0>
19.5869

>  <SCORE.INTRA.POLAR>
0

>  <SCORE.INTRA.POLAR.0>
0

>  <SCORE.INTRA.REPUL>
0

>  <SCORE.INTRA.REPUL.0>
0

>  <SCORE.INTRA.SOLV>
3.0805

>  <SCORE.INTRA.SOLV.lig_0>
-70.101

>  <SCORE.INTRA.VDW>
6.28377

>  <SCORE.INTRA.VDW.0>
-3.39718

>  <SCORE.INTRA.norm>
0.208927

>  <SCORE.RESTR>
7.81978

>  <SCORE.RESTR.CAVITY>
7.81978

>  <SCORE.RESTR.norm>
0.229994

>  <SCORE.SYSTEM>
0

>  <SCORE.SYSTEM.CONST>
0

>  <SCORE.SYSTEM.DIHEDRAL>
0

>  <SCORE.SYSTEM.SOLV>
0

>  <SCORE.SYSTEM.norm>
0

>  <SCORE.heavy>
34

>  <SCORE.norm>
0.497897

>  <RMSD>
12.528

$$$$
ligand
 OpenBabel11021811483D
libRbt.so/2013.1/901 2013/11/27
 34 36  0  0  0  0  0  0  0  0999 V2000
   -0.1620    5.2769    7.2670 C   0  0  2  0  0  0  0  0  0  0  0  0
    0.3273    4.0253    6.7604 O   0  0  0  0  0  0  0  0  0  0  0  0
    0.2824    0.0497    8.3270 C   0  0  2  0  0  0  0  0  0  0  0  0
   -0.1405   -1.1634    9.0181 N   0  0  0  0  0  0  0  0  0  0  0  0
   -1.8563   -1.1533    5.5240 C   0  0  2  0  0  0  0  0  0  0  0  0
   -0.0678    6.3374    6.1124 C   0  0  2  0  0  0  0  0  0  0  0  0
   -0.8874    5.9391    4.9575 N   0  0  0  0  0  0  0  0  0  0  0  0
    0.2086    1.2252    9.3577 C   0  0  0  0  0  0  0  0  0  0  0  0
   -1.6036   -2.6082    4.9888 C   0  0  2  0  0  0  0  0  0  0  0  0
   -1.2768   -3.4684    6.0678 O   0  0  0  0  0  0  0  0  0  0  0  0
    1.4067    6.4939    5.6815 C   0  0  1  0  0  0  0  0  0  0  0  0
    1.5013    7.4690    4.6303 O   0  0  0  0  0  0  0  0  0  0  0  0
    0.6846    2.5239    8.6230 C   0  0  2  0  0  0  0  0  0  0  0  0
    0.6313    3.6753    9.5466 N   0  0  0  0  0  0  0  0  0  0  0  0
   -0.4363   -2.5607    3.9283 C   0  0  1  0  0  0  0  0  0  0  0  0
   -0.1458   -3.9269    3.3988 N   0  0  0  0  0  0  0  0  0  0  0  0
    2.2461    6.9036    6.9149 C   0  0  2  0  0  0  0  0  0  0  0  0
    3.6251    7.0429    6.5309 O   0  0  0  0  0  0  0  0  0  0  0  0
   -0.2095    2.8250    7.3931 C   0  0  2  0  0  0  0  0  0  0  0  0
   -0.8478   -1.5997    2.7610 C   0  0  1  0  0  0  0  0  0  0  0  0
   -2.0179   -2.1003    2.1196 O   0  0  0  0  0  0  0  0  0  0  0  0
    2.0951    5.8130    8.0429 C   0  0  2  0  0  0  0  0  0  0  0  0
    0.6740    5.6663    8.4129 O   0  0  0  0  0  0  0  0  0  0  0  0
   -0.1685    1.6196    6.4208 C   0  0  2  0  0  0  0  0  0  0  0  0
   -1.0099    1.9108    5.3097 O   0  0  0  0  0  0  0  0  0  0  0  0
   -1.1473   -0.1886    3.3582 C   0  0  0  0  0  0  0  0  0  0  0  0
   -2.1988   -0.2705    4.4004 O   0  0  0  0  0  0  0  0  0  0  0  0
    2.8968    6.1835    9.3180 C   0  0  2  0  0  0  0  0  0  0  0  0
    2.5398    7.4980    9.7375 O   0  0  0  0  0  0  0  0  0  0  0  0
   -0.6833    0.3310    7.1035 C   0  0  1  0  0  0  0  0  0  0  0  0
   -0.5995   -0.7296    6.1224 O   0  0  0  0  0  0  0  0  0  0  0  0
    4.3948    6.1622    9.0626 C   0  0  0  0  0  0  0  0  0  0  0  0
    0.2438   -1.4827    1.7043 C   0  0  0  0  0  0  0  0  0  0  0  0
   -1.4214   -4.5455    2.9900 C   0  0  0  0  0  0  0  0  0  0  0  0
  1  2  1  6  0  0  0
  1  6  1  0  0  0  0
  1 23  1  0  0  0  0
  3  4  1  1  0  0  0
  3  8  1  0  0  0  0
  3 30  1  0  0  0  0
  5  9  1  0  0  0  0
  5 27  1  0  0  0  0
  5 31  1  6  0  0  0
  6  7  1  6  0  0  0
  6 11  1  0  0  0  0
  8 13  1  0  0  0  0
  9 10  1  1  0  0  0
  9 15  1  0  0  0  0
 11 12  1  6  0  0  0
 11 17  1  0  0  0  0
 13 14  1  1  0  0  0
 13 19  1  0  0  0  0
 15 16  1  6  0  0  0
 15 20  1  0  0  0  0
 16 34  1  0  0  0  0
 17 18  1  6  0  0  0
 17 22  1  0  0  0  0
 19  2  1  6  0  0  0
 19 24  1  0  0  0  0
 20 21  1  6  0  0  0
 20 26  1  0  0  0  0
 20 33  1  0  0  0  0
 22 23  1  1  0  0  0
 22 28  1  0  0  0  0
 24 25  1  6  0  0  0
 24 30  1  0  0  0  0
 26 27  1  0  0  0  0
 28 29  1  6  0  0  0
 28 32  1  0  0  0  0
 30 31  1  6  0  0  0
M  END
>  <CHROM.1>
-152.89307332,-87.19905364,49.45301014,52.88742729,139.23776976,-157.79435381
0.20696218,2.04480850,6.20959881,0.19329630,-1.25215568,-0.96957103

>  <Name>
ligand

>  <RI>
0

>  <Rbt.Current_Directory>
/home/itssahil/PROJECTS/Mol_Feturizer/New_Systems/rnas/3TD1

>  <Rbt.Executable>
rbdock ($Id: //depot/dev/client3/rdock/2013.1/src/exe/rbdock.cxx#4 $)

>  <Rbt.Library>
libRbt.so (2013.1, Build901 2013/11/27)

>  <Rbt.Parameter_File>
/export/apps/rDock/src/rDock_2013.1_src/data/scripts/dock_solv.prm

>  <Rbt.Receptor>
prm/blind_docking_80.prm

>  <SCORE>
15.261

>  <SCORE.INTER>
0.793081

>  <SCORE.INTER.CONST>
1

>  <SCORE.INTER.POLAR>
0

>  <SCORE.INTER.ROT>
6

>  <SCORE.INTER.SOLV>
16.2887

>  <SCORE.INTER.VDW>
-12.5008

>  <SCORE.INTER.norm>
0.0233259

>  <SCORE.INTRA>
6.71425

>  <SCORE.INTRA.DIHEDRAL>
-5.51309

>  <SCORE.INTRA.DIHEDRAL.0>
19.5869

>  <SCORE.INTRA.POLAR>
0

>  <SCORE.INTRA.POLAR.0>
0

>  <SCORE.INTRA.REPUL>
0

>  <SCORE.INTRA.REPUL.0>
0

>  <SCORE.INTRA.SOLV>
1.1667

>  <SCORE.INTRA.SOLV.lig_0>
-70.101

>  <SCORE.INTRA.VDW>
8.88745

>  <SCORE.INTRA.VDW.0>
-3.39718

>  <SCORE.INTRA.norm>
0.197478

>  <SCORE.RESTR>
7.7537

>  <SCORE.RESTR.CAVITY>
7.7537

>  <SCORE.RESTR.norm>
0.22805

>  <SCORE.SYSTEM>
0

>  <SCORE.SYSTEM.CONST>
0

>  <SCORE.SYSTEM.DIHEDRAL>
0

>  <SCORE.SYSTEM.SOLV>
0

>  <SCORE.SYSTEM.norm>
0

>  <SCORE.heavy>
34

>  <SCORE.norm>
0.448854

>  <RMSD>
12.569

$$$$
ligand
 OpenBabel11021811483D
libRbt.so/2013.1/901 2013/11/27
 34 36  0  0  0  0  0  0  0  0999 V2000
    0.2654    5.0492    7.3415 C   0  0  2  0  0  0  0  0  0  0  0  0
    0.7772    3.7526    6.9958 O   0  0  0  0  0  0  0  0  0  0  0  0
   -0.0448   -0.0947    8.6644 C   0  0  2  0  0  0  0  0  0  0  0  0
   -0.7549   -1.2459    9.2107 N   0  0  0  0  0  0  0  0  0  0  0  0
   -0.9201   -2.1793    6.3693 C   0  0  2  0  0  0  0  0  0  0  0  0
    0.0927    5.8717    6.0148 C   0  0  2  0  0  0  0  0  0  0  0  0
   -0.8555    5.2143    5.1020 N   0  0  0  0  0  0  0  0  0  0  0  0
   -0.4587    1.1551    9.5109 C   0  0  0  0  0  0  0  0  0  0  0  0
   -0.5219   -3.0437    5.1197 C   0  0  2  0  0  0  0  0  0  0  0  0
    0.8265   -3.4668    5.2366 O   0  0  0  0  0  0  0  0  0  0  0  0
    1.4661    6.0240    5.3256 C   0  0  1  0  0  0  0  0  0  0  0  0
    1.3167    6.7827    4.1145 O   0  0  0  0  0  0  0  0  0  0  0  0
    0.3211    2.3875    8.9400 C   0  0  2  0  0  0  0  0  0  0  0  0
   -0.0336    3.6049    9.6974 N   0  0  0  0  0  0  0  0  0  0  0  0
   -0.7332   -2.1773    3.8181 C   0  0  1  0  0  0  0  0  0  0  0  0
   -0.3523   -2.9515    2.5988 N   0  0  0  0  0  0  0  0  0  0  0  0
    2.4446    6.7088    6.3090 C   0  0  2  0  0  0  0  0  0  0  0  0
    3.7325    6.8478    5.6842 O   0  0  0  0  0  0  0  0  0  0  0  0
   -0.0147    2.6117    7.4434 C   0  0  2  0  0  0  0  0  0  0  0  0
   -2.2351   -1.7376    3.7376 C   0  0  1  0  0  0  0  0  0  0  0  0
   -3.0670   -2.8914    3.6496 O   0  0  0  0  0  0  0  0  0  0  0  0
    2.5599    5.8484    7.6248 C   0  0  2  0  0  0  0  0  0  0  0  0
    1.2290    5.6970    8.2444 O   0  0  0  0  0  0  0  0  0  0  0  0
    0.3450    1.3370    6.6397 C   0  0  2  0  0  0  0  0  0  0  0  0
    0.0114    1.5593    5.2735 O   0  0  0  0  0  0  0  0  0  0  0  0
   -2.5914   -0.9388    5.0308 C   0  0  0  0  0  0  0  0  0  0  0  0
   -2.3195   -1.7496    6.2420 O   0  0  0  0  0  0  0  0  0  0  0  0
    3.5110    6.5007    8.6620 C   0  0  2  0  0  0  0  0  0  0  0  0
    4.6709    6.9946    7.9972 O   0  0  0  0  0  0  0  0  0  0  0  0
   -0.4499    0.1114    7.1472 C   0  0  1  0  0  0  0  0  0  0  0  0
   -0.0409   -1.0202    6.3431 O   0  0  0  0  0  0  0  0  0  0  0  0
    3.9621    5.5006    9.7136 C   0  0  0  0  0  0  0  0  0  0  0  0
   -2.5135   -0.8733    2.5139 C   0  0  0  0  0  0  0  0  0  0  0  0
    0.2245   -2.0134    1.6168 C   0  0  0  0  0  0  0  0  0  0  0  0
  1  2  1  6  0  0  0
  1  6  1  0  0  0  0
  1 23  1  0  0  0  0
  3  4  1  1  0  0  0
  3  8  1  0  0  0  0
  3 30  1  0  0  0  0
  5  9  1  0  0  0  0
  5 27  1  0  0  0  0
  5 31  1  6  0  0  0
  6  7  1  6  0  0  0
  6 11  1  0  0  0  0
  8 13  1  0  0  0  0
  9 10  1  1  0  0  0
  9 15  1  0  0  0  0
 11 12  1  6  0  0  0
 11 17  1  0  0  0  0
 13 14  1  1  0  0  0
 13 19  1  0  0  0  0
 15 16  1  6  0  0  0
 15 20  1  0  0  0  0
 16 34  1  0  0  0  0
 17 18  1  6  0  0  0
 17 22  1  0  0  0  0
 19  2  1  6  0  0  0
 19 24  1  0  0  0  0
 20 21  1  6  0  0  0
 20 26  1  0  0  0  0
 20 33  1  0  0  0  0
 22 23  1  1  0  0  0
 22 28  1  0  0  0  0
 24 25  1  6  0  0  0
 24 30  1  0  0  0  0
 26 27  1  0  0  0  0
 28 29  1  6  0  0  0
 28 32  1  0  0  0  0
 30 31  1  6  0  0  0
M  END
>  <CHROM.1>
-123.64177624,-79.78040843,-145.83627377,-42.66133784,81.43822048,162.66536848
0.31044252,1.86442913,6.26414727,0.03377280,1.17867996,1.86185167

>  <Name>
ligand

>  <RI>
0

>  <Rbt.Current_Directory>
/home/itssahil/PROJECTS/Mol_Feturizer/New_Systems/rnas/3TD1

>  <Rbt.Executable>
rbdock ($Id: //depot/dev/client3/rdock/2013.1/src/exe/rbdock.cxx#4 $)

>  <Rbt.Library>
libRbt.so (2013.1, Build901 2013/11/27)

>  <Rbt.Parameter_File>
/export/apps/rDock/src/rDock_2013.1_src/data/scripts/dock_solv.prm

>  <Rbt.Receptor>
prm/blind_docking_80.prm

>  <SCORE>
7.51801

>  <SCORE.INTER>
-1.61016

>  <SCORE.INTER.CONST>
1

>  <SCORE.INTER.POLAR>
0

>  <SCORE.INTER.ROT>
6

>  <SCORE.INTER.SOLV>
15.8203

>  <SCORE.INTER.VDW>
-13.9469

>  <SCORE.INTER.norm>
-0.0473576

>  <SCORE.INTRA>
-0.306188

>  <SCORE.INTRA.DIHEDRAL>
-5.44674

>  <SCORE.INTRA.DIHEDRAL.0>
19.5869

>  <SCORE.INTRA.POLAR>
0

>  <SCORE.INTRA.POLAR.0>
0

>  <SCORE.INTRA.REPUL>
0

>  <SCORE.INTRA.REPUL.0>
0

>  <SCORE.INTRA.SOLV>
0.583155

>  <SCORE.INTRA.SOLV.lig_0>
-70.101

>  <SCORE.INTRA.VDW>
2.12561

>  <SCORE.INTRA.VDW.0>
-3.39718

>  <SCORE.INTRA.norm>
-0.00900552

>  <SCORE.RESTR>
9.43435

>  <SCORE.RESTR.CAVITY>
9.43435

>  <SCORE.RESTR.norm>
0.277481

>  <SCORE.SYSTEM>
0

>  <SCORE.SYSTEM.CONST>
0

>  <SCORE.SYSTEM.DIHEDRAL>
0

>  <SCORE.SYSTEM.SOLV>
0

>  <SCORE.SYSTEM.norm>
0

>  <SCORE.heavy>
34

>  <SCORE.norm>
0.221118

>  <RMSD>
12.585

$$$$
ligand
 OpenBabel11021811483D
libRbt.so/2013.1/901 2013/11/27
 34 36  0  0  0  0  0  0  0  0999 V2000
    0.3626    5.2566    7.9299 C   0  0  2  0  0  0  0  0  0  0  0  0
    0.8091    4.2266    7.0342 O   0  0  0  0  0  0  0  0  0  0  0  0
    0.8521   -0.0465    7.0056 C   0  0  2  0  0  0  0  0  0  0  0  0
    0.5714   -1.4380    7.3415 N   0  0  0  0  0  0  0  0  0  0  0  0
   -1.4568   -1.3147    5.3356 C   0  0  2  0  0  0  0  0  0  0  0  0
    0.2569    6.5952    7.1153 C   0  0  2  0  0  0  0  0  0  0  0  0
   -0.7102    6.4713    6.0137 N   0  0  0  0  0  0  0  0  0  0  0  0
    1.3272    0.6646    8.3164 C   0  0  0  0  0  0  0  0  0  0  0  0
   -1.0070   -2.0808    4.0402 C   0  0  2  0  0  0  0  0  0  0  0  0
    0.4079   -2.1631    3.9961 O   0  0  0  0  0  0  0  0  0  0  0  0
    1.6478    6.9633    6.5547 C   0  0  1  0  0  0  0  0  0  0  0  0
    1.5599    8.1918    5.8145 O   0  0  0  0  0  0  0  0  0  0  0  0
    1.6511    2.1529    7.9518 C   0  0  2  0  0  0  0  0  0  0  0  0
    2.1012    2.8814    9.1553 N   0  0  0  0  0  0  0  0  0  0  0  0
   -1.5698   -1.3160    2.7801 C   0  0  1  0  0  0  0  0  0  0  0  0
   -1.1550   -1.9982    1.5176 N   0  0  0  0  0  0  0  0  0  0  0  0
    2.6455    7.0782    7.7316 C   0  0  2  0  0  0  0  0  0  0  0  0
    3.9493    7.4105    7.2235 O   0  0  0  0  0  0  0  0  0  0  0  0
    0.4035    2.8659    7.3706 C   0  0  2  0  0  0  0  0  0  0  0  0
   -3.1325   -1.2539    2.8782 C   0  0  1  0  0  0  0  0  0  0  0  0
   -3.6645   -2.5760    2.8763 O   0  0  0  0  0  0  0  0  0  0  0  0
    2.6921    5.7140    8.5200 C   0  0  2  0  0  0  0  0  0  0  0  0
    1.3448    5.3755    9.0184 O   0  0  0  0  0  0  0  0  0  0  0  0
   -0.0834    2.1048    6.1122 C   0  0  2  0  0  0  0  0  0  0  0  0
   -1.2389    2.7660    5.6073 O   0  0  0  0  0  0  0  0  0  0  0  0
   -3.5209   -0.5405    4.2115 C   0  0  0  0  0  0  0  0  0  0  0  0
   -2.9236   -1.2384    5.3754 O   0  0  0  0  0  0  0  0  0  0  0  0
    3.6598    5.7774    9.7306 C   0  0  2  0  0  0  0  0  0  0  0  0
    3.4769    7.0112   10.4201 O   0  0  0  0  0  0  0  0  0  0  0  0
   -0.4613    0.6441    6.4516 C   0  0  1  0  0  0  0  0  0  0  0  0
   -0.8936    0.0218    5.2187 O   0  0  0  0  0  0  0  0  0  0  0  0
    5.1122    5.6957    9.2904 C   0  0  0  0  0  0  0  0  0  0  0  0
   -3.7504   -0.5059    1.7033 C   0  0  0  0  0  0  0  0  0  0  0  0
    0.1893   -1.5136    1.1501 C   0  0  0  0  0  0  0  0  0  0  0  0
  1  2  1  6  0  0  0
  1  6  1  0  0  0  0
  1 23  1  0  0  0  0
  3  4  1  1  0  0  0
  3  8  1  0  0  0  0
  3 30  1  0  0  0  0
  5  9  1  0  0  0  0
  5 27  1  0  0  0  0
  5 31  1  6  0  0  0
  6  7  1  6  0  0  0
  6 11  1  0  0  0  0
  8 13  1  0  0  0  0
  9 10  1  6  0  0  0
  9 15  1  0  0  0  0
 11 12  1  1  0  0  0
 11 17  1  0  0  0  0
 13 14  1  1  0  0  0
 13 19  1  0  0  0  0
 15 16  1  6  0  0  0
 15 20  1  0  0  0  0
 16 34  1  0  0  0  0
 17 18  1  6  0  0  0
 17 22  1  0  0  0  0
 19  2  1  6  0  0  0
 19 24  1  0  0  0  0
 20 21  1  1  0  0  0
 20 26  1  0  0  0  0
 20 33  1  0  0  0  0
 22 23  1  1  0  0  0
 22 28  1  0  0  0  0
 24 25  1  1  0  0  0
 24 30  1  0  0  0  0
 26 27  1  0  0  0  0
 28 29  1  6  0  0  0
 28 32  1  0  0  0  0
 30 31  1  6  0  0  0
M  END
>  <CHROM.1>
-152.80022306,-104.71577157,-84.95561744,43.42059726,71.48045920,-144.97395666
0.28205719,2.30654860,6.12823143,0.79185715,-0.89961156,-0.10101951

>  <Name>
ligand

>  <RI>
0

>  <Rbt.Current_Directory>
/home/itssahil/PROJECTS/Mol_Feturizer/New_Systems/rnas/3TD1

>  <Rbt.Executable>
rbdock ($Id: //depot/dev/client3/rdock/2013.1/src/exe/rbdock.cxx#4 $)

>  <Rbt.Library>
libRbt.so (2013.1, Build901 2013/11/27)

>  <Rbt.Parameter_File>
/export/apps/rDock/src/rDock_2013.1_src/data/scripts/dock_solv.prm

>  <Rbt.Receptor>
prm/blind_docking_80.prm

>  <SCORE>
5.28371

>  <SCORE.INTER>
-5.49792

>  <SCORE.INTER.CONST>
1

>  <SCORE.INTER.POLAR>
0

>  <SCORE.INTER.ROT>
6

>  <SCORE.INTER.SOLV>
20.0765

>  <SCORE.INTER.VDW>
-17.9575

>  <SCORE.INTER.norm>
-0.161704

>  <SCORE.INTRA>
0.164812

>  <SCORE.INTRA.DIHEDRAL>
-3.81021

>  <SCORE.INTRA.DIHEDRAL.0>
19.5869

>  <SCORE.INTRA.POLAR>
0

>  <SCORE.INTRA.POLAR.0>
0

>  <SCORE.INTRA.REPUL>
0

>  <SCORE.INTRA.REPUL.0>
0

>  <SCORE.INTRA.SOLV>
2.31628

>  <SCORE.INTRA.SOLV.lig_0>
-70.101

>  <SCORE.INTRA.VDW>
0.911773

>  <SCORE.INTRA.VDW.0>
-3.39718

>  <SCORE.INTRA.norm>
0.00484741

>  <SCORE.RESTR>
10.6168

>  <SCORE.RESTR.CAVITY>
10.6168

>  <SCORE.RESTR.norm>
0.312259

>  <SCORE.SYSTEM>
0

>  <SCORE.SYSTEM.CONST>
0

>  <SCORE.SYSTEM.DIHEDRAL>
0

>  <SCORE.SYSTEM.SOLV>
0

>  <SCORE.SYSTEM.norm>
0

>  <SCORE.heavy>
34

>  <SCORE.norm>
0.155403

>  <RMSD>
12.586

$$$$
ligand
 OpenBabel11021811483D
libRbt.so/2013.1/901 2013/11/27
 34 36  0  0  0  0  0  0  0  0999 V2000
    0.0099    5.1642    7.4661 C   0  0  2  0  0  0  0  0  0  0  0  0
    0.5207    3.9548    6.8838 O   0  0  0  0  0  0  0  0  0  0  0  0
    0.1060   -0.2313    7.6367 C   0  0  2  0  0  0  0  0  0  0  0  0
   -0.4024   -1.5083    8.1252 N   0  0  0  0  0  0  0  0  0  0  0  0
    0.0829   -1.1845    5.0362 C   0  0  2  0  0  0  0  0  0  0  0  0
    0.0745    6.2923    6.3753 C   0  0  2  0  0  0  0  0  0  0  0  0
   -0.7452    5.9457    5.2039 N   0  0  0  0  0  0  0  0  0  0  0  0
    0.2939    0.7033    8.8780 C   0  0  0  0  0  0  0  0  0  0  0  0
   -0.1617   -1.5564    3.5299 C   0  0  2  0  0  0  0  0  0  0  0  0
   -0.2671   -0.3749    2.7530 O   0  0  0  0  0  0  0  0  0  0  0  0
    1.5424    6.5041    5.9456 C   0  0  1  0  0  0  0  0  0  0  0  0
    1.6098    7.5409    4.9531 O   0  0  0  0  0  0  0  0  0  0  0  0
    0.8617    2.0667    8.3571 C   0  0  2  0  0  0  0  0  0  0  0  0
    1.0557    2.9980    9.4870 N   0  0  0  0  0  0  0  0  0  0  0  0
   -1.4787   -2.4196    3.4302 C   0  0  1  0  0  0  0  0  0  0  0  0
   -1.7652   -2.7870    2.0110 N   0  0  0  0  0  0  0  0  0  0  0  0
    2.3821    6.8579    7.1960 C   0  0  2  0  0  0  0  0  0  0  0  0
    3.7553    7.0477    6.8127 O   0  0  0  0  0  0  0  0  0  0  0  0
   -0.1042    2.7148    7.3325 C   0  0  2  0  0  0  0  0  0  0  0  0
   -1.3094   -3.7095    4.3038 C   0  0  1  0  0  0  0  0  0  0  0  0
   -0.2240   -4.4861    3.8041 O   0  0  0  0  0  0  0  0  0  0  0  0
    2.2613    5.7000    8.2588 C   0  0  2  0  0  0  0  0  0  0  0  0
    0.8460    5.5027    8.6280 O   0  0  0  0  0  0  0  0  0  0  0  0
   -0.3225    1.7426    6.1463 C   0  0  2  0  0  0  0  0  0  0  0  0
   -1.2257    2.3504    5.2286 O   0  0  0  0  0  0  0  0  0  0  0  0
   -1.0065   -3.2803    5.7740 C   0  0  0  0  0  0  0  0  0  0  0  0
    0.1955   -2.4142    5.8326 O   0  0  0  0  0  0  0  0  0  0  0  0
    3.0644    6.0115    9.5487 C   0  0  2  0  0  0  0  0  0  0  0  0
    2.7924    7.3468    9.9660 O   0  0  0  0  0  0  0  0  0  0  0  0
   -0.9325    0.4040    6.6234 C   0  0  1  0  0  0  0  0  0  0  0  0
   -1.0901   -0.4303    5.4516 O   0  0  0  0  0  0  0  0  0  0  0  0
    4.5616    5.8865    9.3191 C   0  0  0  0  0  0  0  0  0  0  0  0
   -2.5553   -4.5863    4.2771 C   0  0  0  0  0  0  0  0  0  0  0  0
   -3.1842   -2.4923    1.7343 C   0  0  0  0  0  0  0  0  0  0  0  0
  1  2  1  6  0  0  0
  1  6  1  0  0  0  0
  1 23  1  0  0  0  0
  3  4  1  1  0  0  0
  3  8  1  0  0  0  0
  3 30  1  0  0  0  0
  5  9  1  0  0  0  0
  5 27  1  0  0  0  0
  5 31  1  1  0  0  0
  6  7  1  6  0  0  0
  6 11  1  0  0  0  0
  8 13  1  0  0  0  0
  9 10  1  6  0  0  0
  9 15  1  0  0  0  0
 11 12  1  6  0  0  0
 11 17  1  0  0  0  0
 13 14  1  1  0  0  0
 13 19  1  0  0  0  0
 15 16  1  6  0  0  0
 15 20  1  0  0  0  0
 16 34  1  0  0  0  0
 17 18  1  6  0  0  0
 17 22  1  0  0  0  0
 19  2  1  6  0  0  0
 19 24  1  0  0  0  0
 20 21  1  6  0  0  0
 20 26  1  0  0  0  0
 20 33  1  0  0  0  0
 22 23  1  1  0  0  0
 22 28  1  0  0  0  0
 24 25  1  6  0  0  0
 24 30  1  0  0  0  0
 26 27  1  0  0  0  0
 28 29  1  6  0  0  0
 28 32  1  0  0  0  0
 30 31  1  6  0  0  0
M  END
>  <CHROM.1>
-145.69779211,-101.93736778,-132.00862689,46.65263586,-31.73332747,-159.79435932
0.28402703,1.81745176,6.22532305,0.62342860,-1.15852625,-0.50985016

>  <Name>
ligand

>  <RI>
0

>  <Rbt.Current_Directory>
/home/itssahil/PROJECTS/Mol_Feturizer/New_Systems/rnas/3TD1

>  <Rbt.Executable>
rbdock ($Id: //depot/dev/client3/rdock/2013.1/src/exe/rbdock.cxx#4 $)

>  <Rbt.Library>
libRbt.so (2013.1, Build901 2013/11/27)

>  <Rbt.Parameter_File>
/export/apps/rDock/src/rDock_2013.1_src/data/scripts/dock_solv.prm

>  <Rbt.Receptor>
prm/blind_docking_80.prm

>  <SCORE>
12.851

>  <SCORE.INTER>
0.356594

>  <SCORE.INTER.CONST>
1

>  <SCORE.INTER.POLAR>
0

>  <SCORE.INTER.ROT>
6

>  <SCORE.INTER.SOLV>
15.425

>  <SCORE.INTER.VDW>
-12.5039

>  <SCORE.INTER.norm>
0.0104881

>  <SCORE.INTRA>
2.4567

>  <SCORE.INTRA.DIHEDRAL>
-2.64935

>  <SCORE.INTRA.DIHEDRAL.0>
19.5869

>  <SCORE.INTRA.POLAR>
0

>  <SCORE.INTRA.POLAR.0>
0

>  <SCORE.INTRA.REPUL>
0

>  <SCORE.INTRA.REPUL.0>
0

>  <SCORE.INTRA.SOLV>
2.7086

>  <SCORE.INTRA.SOLV.lig_0>
-70.101

>  <SCORE.INTRA.VDW>
2.42707

>  <SCORE.INTRA.VDW.0>
-3.39718

>  <SCORE.INTRA.norm>
0.0722559

>  <SCORE.RESTR>
10.0377

>  <SCORE.RESTR.CAVITY>
10.0377

>  <SCORE.RESTR.norm>
0.295227

>  <SCORE.SYSTEM>
0

>  <SCORE.SYSTEM.CONST>
0

>  <SCORE.SYSTEM.DIHEDRAL>
0

>  <SCORE.SYSTEM.SOLV>
0

>  <SCORE.SYSTEM.norm>
0

>  <SCORE.heavy>
34

>  <SCORE.norm>
0.377971

>  <RMSD>
12.647

$$$$
ligand
 OpenBabel11021811483D
libRbt.so/2013.1/901 2013/11/27
 34 36  0  0  0  0  0  0  0  0999 V2000
   -0.1248    5.3409    6.2947 C   0  0  2  0  0  0  0  0  0  0  0  0
    0.1616    4.0264    5.7922 O   0  0  0  0  0  0  0  0  0  0  0  0
    0.3891    0.5436    8.2580 C   0  0  2  0  0  0  0  0  0  0  0  0
    0.0203   -0.5490    9.1516 N   0  0  0  0  0  0  0  0  0  0  0  0
   -0.8056   -1.9948    6.3482 C   0  0  2  0  0  0  0  0  0  0  0  0
   -0.7274    6.1890    5.1181 C   0  0  2  0  0  0  0  0  0  0  0  0
   -1.9738    5.5901    4.6160 N   0  0  0  0  0  0  0  0  0  0  0  0
   -0.0503    1.8791    8.9457 C   0  0  0  0  0  0  0  0  0  0  0  0
   -0.4579   -2.9471    5.1484 C   0  0  2  0  0  0  0  0  0  0  0  0
    0.8949   -3.3625    5.2395 O   0  0  0  0  0  0  0  0  0  0  0  0
    0.3070    6.2852    3.9757 C   0  0  1  0  0  0  0  0  0  0  0  0
   -0.2350    7.0669    2.8987 O   0  0  0  0  0  0  0  0  0  0  0  0
    0.3662    3.0541    7.9977 C   0  0  2  0  0  0  0  0  0  0  0  0
   -0.0294    4.3471    8.5919 N   0  0  0  0  0  0  0  0  0  0  0  0
   -0.7242   -2.1759    3.7979 C   0  0  1  0  0  0  0  0  0  0  0  0
   -0.3926   -3.0360    2.6225 N   0  0  0  0  0  0  0  0  0  0  0  0
    1.6087    6.9090    4.5326 C   0  0  2  0  0  0  0  0  0  0  0  0
    2.5864    6.9952    3.4813 O   0  0  0  0  0  0  0  0  0  0  0  0
   -0.3083    2.9124    6.6092 C   0  0  2  0  0  0  0  0  0  0  0  0
   -2.2289   -1.7410    3.7481 C   0  0  1  0  0  0  0  0  0  0  0  0
   -3.0618   -2.8971    3.7775 O   0  0  0  0  0  0  0  0  0  0  0  0
    2.1521    6.0260    5.7199 C   0  0  2  0  0  0  0  0  0  0  0  0
    1.1320    5.9296    6.7821 O   0  0  0  0  0  0  0  0  0  0  0  0
    0.0924    1.5548    5.9797 C   0  0  2  0  0  0  0  0  0  0  0  0
   -0.5524    1.4390    4.7155 O   0  0  0  0  0  0  0  0  0  0  0  0
   -2.5327   -0.8512    4.9944 C   0  0  0  0  0  0  0  0  0  0  0  0
   -2.2097   -1.5735    6.2483 O   0  0  0  0  0  0  0  0  0  0  0  0
    3.4462    6.6180    6.3369 C   0  0  2  0  0  0  0  0  0  0  0  0
    4.5271    6.4503    5.4232 O   0  0  0  0  0  0  0  0  0  0  0  0
   -0.3532    0.3710    6.8695 C   0  0  1  0  0  0  0  0  0  0  0  0
    0.0699   -0.8417    6.2028 O   0  0  0  0  0  0  0  0  0  0  0  0
    3.8162    5.9207    7.6357 C   0  0  0  0  0  0  0  0  0  0  0  0
   -2.5589   -0.9663    2.4782 C   0  0  0  0  0  0  0  0  0  0  0  0
    0.0903   -2.1651    1.5337 C   0  0  0  0  0  0  0  0  0  0  0  0
  1  2  1  6  0  0  0
  1  6  1  0  0  0  0
  1 23  1  0  0  0  0
  3  4  1  1  0  0  0
  3  8  1  0  0  0  0
  3 30  1  0  0  0  0
  5  9  1  0  0  0  0
  5 27  1  0  0  0  0
  5 31  1  6  0  0  0
  6  7  1  6  0  0  0
  6 11  1  0  0  0  0
  8 13  1  0  0  0  0
  9 10  1  1  0  0  0
  9 15  1  0  0  0  0
 11 12  1  6  0  0  0
 11 17  1  0  0  0  0
 13 14  1  1  0  0  0
 13 19  1  0  0  0  0
 15 16  1  6  0  0  0
 15 20  1  0  0  0  0
 16 34  1  0  0  0  0
 17 18  1  6  0  0  0
 17 22  1  0  0  0  0
 19  2  1  6  0  0  0
 19 24  1  0  0  0  0
 20 21  1  1  0  0  0
 20 26  1  0  0  0  0
 20 33  1  0  0  0  0
 22 23  1  1  0  0  0
 22 28  1  0  0  0  0
 24 25  1  6  0  0  0
 24 30  1  0  0  0  0
 26 27  1  0  0  0  0
 28 29  1  6  0  0  0
 28 32  1  0  0  0  0
 30 31  1  6  0  0  0
M  END
>  <CHROM.1>
-132.07082065,-59.35224010,-148.08843146,-71.34051836,98.40180836,158.78888813
0.08329199,2.06798546,5.49157569,-0.58535219,1.18364149,2.30647443

>  <Name>
ligand

>  <RI>
0

>  <Rbt.Current_Directory>
/home/itssahil/PROJECTS/Mol_Feturizer/New_Systems/rnas/3TD1

>  <Rbt.Executable>
rbdock ($Id: //depot/dev/client3/rdock/2013.1/src/exe/rbdock.cxx#4 $)

>  <Rbt.Library>
libRbt.so (2013.1, Build901 2013/11/27)

>  <Rbt.Parameter_File>
/export/apps/rDock/src/rDock_2013.1_src/data/scripts/dock_solv.prm

>  <Rbt.Receptor>
prm/blind_docking_80.prm

>  <SCORE>
11.0085

>  <SCORE.INTER>
-1.16144

>  <SCORE.INTER.CONST>
1

>  <SCORE.INTER.POLAR>
0

>  <SCORE.INTER.ROT>
6

>  <SCORE.INTER.SOLV>
16.9781

>  <SCORE.INTER.VDW>
-14.0336

>  <SCORE.INTER.norm>
-0.03416

>  <SCORE.INTRA>
2.39596

>  <SCORE.INTRA.DIHEDRAL>
-4.84584

>  <SCORE.INTRA.DIHEDRAL.0>
19.5869

>  <SCORE.INTRA.POLAR>
0

>  <SCORE.INTRA.POLAR.0>
0

>  <SCORE.INTRA.REPUL>
0

>  <SCORE.INTRA.REPUL.0>
0

>  <SCORE.INTRA.SOLV>
0.146419

>  <SCORE.INTRA.SOLV.lig_0>
-70.101

>  <SCORE.INTRA.VDW>
4.74567

>  <SCORE.INTRA.VDW.0>
-3.39718

>  <SCORE.INTRA.norm>
0.0704693

>  <SCORE.RESTR>
9.77399

>  <SCORE.RESTR.CAVITY>
9.77399

>  <SCORE.RESTR.norm>
0.28747

>  <SCORE.SYSTEM>
0

>  <SCORE.SYSTEM.CONST>
0

>  <SCORE.SYSTEM.DIHEDRAL>
0

>  <SCORE.SYSTEM.SOLV>
0

>  <SCORE.SYSTEM.norm>
0

>  <SCORE.heavy>
34

>  <SCORE.norm>
0.32378

>  <RMSD>
12.656

$$$$
ligand
 OpenBabel11021811483D
libRbt.so/2013.1/901 2013/11/27
 34 36  0  0  0  0  0  0  0  0999 V2000
    0.2306    4.9818    7.7909 C   0  0  2  0  0  0  0  0  0  0  0  0
    0.6763    3.9731    6.8709 O   0  0  0  0  0  0  0  0  0  0  0  0
    0.7273   -0.2829    7.2517 C   0  0  2  0  0  0  0  0  0  0  0  0
    0.3205   -1.6541    7.5390 N   0  0  0  0  0  0  0  0  0  0  0  0
   -0.9176   -0.1805    3.7867 C   0  0  2  0  0  0  0  0  0  0  0  0
    0.0867    6.3306    6.9993 C   0  0  2  0  0  0  0  0  0  0  0  0
   -0.8998    6.2071    5.9149 N   0  0  0  0  0  0  0  0  0  0  0  0
    0.5233    0.5497    8.5612 C   0  0  0  0  0  0  0  0  0  0  0  0
   -2.1774   -1.0533    4.1303 C   0  0  2  0  0  0  0  0  0  0  0  0
   -2.7277   -0.6381    5.3695 O   0  0  0  0  0  0  0  0  0  0  0  0
    1.4600    6.7306    6.4176 C   0  0  1  0  0  0  0  0  0  0  0  0
    1.3373    7.9685    5.6984 O   0  0  0  0  0  0  0  0  0  0  0  0
    0.9817    2.0168    8.2604 C   0  0  2  0  0  0  0  0  0  0  0  0
    0.8067    2.8572    9.4624 N   0  0  0  0  0  0  0  0  0  0  0  0
   -1.7426   -2.5691    4.1828 C   0  0  1  0  0  0  0  0  0  0  0  0
   -2.9058   -3.4424    4.5228 N   0  0  0  0  0  0  0  0  0  0  0  0
    2.4787    6.8444    7.5765 C   0  0  2  0  0  0  0  0  0  0  0  0
    3.7665    7.2063    7.0483 O   0  0  0  0  0  0  0  0  0  0  0  0
    0.1595    2.6274    7.0968 C   0  0  2  0  0  0  0  0  0  0  0  0
   -1.1437   -2.9754    2.7929 C   0  0  1  0  0  0  0  0  0  0  0  0
   -2.1378   -2.8275    1.7824 O   0  0  0  0  0  0  0  0  0  0  0  0
    2.5634    5.4694    8.3426 C   0  0  2  0  0  0  0  0  0  0  0  0
    1.2320    5.1007    8.8618 O   0  0  0  0  0  0  0  0  0  0  0  0
    0.3282    1.7486    5.8322 C   0  0  2  0  0  0  0  0  0  0  0  0
   -0.4491    2.3176    4.7837 O   0  0  0  0  0  0  0  0  0  0  0  0
    0.0623   -2.0362    2.4753 C   0  0  0  0  0  0  0  0  0  0  0  0
   -0.3572   -0.6142    2.4995 O   0  0  0  0  0  0  0  0  0  0  0  0
    3.5536    5.5307    9.5350 C   0  0  2  0  0  0  0  0  0  0  0  0
    4.6112    6.4350    9.2272 O   0  0  0  0  0  0  0  0  0  0  0  0
   -0.1657    0.3047    6.0829 C   0  0  1  0  0  0  0  0  0  0  0  0
    0.0390   -0.4315    4.8540 O   0  0  0  0  0  0  0  0  0  0  0  0
    4.1671    4.1704    9.8229 C   0  0  0  0  0  0  0  0  0  0  0  0
   -0.6770   -4.4257    2.7727 C   0  0  0  0  0  0  0  0  0  0  0  0
   -2.8642   -3.7255    5.9702 C   0  0  0  0  0  0  0  0  0  0  0  0
  1  2  1  6  0  0  0
  1  6  1  0  0  0  0
  1 23  1  0  0  0  0
  3  4  1  1  0  0  0
  3  8  1  0  0  0  0
  3 30  1  0  0  0  0
  5  9  1  0  0  0  0
  5 27  1  0  0  0  0
  5 31  1  1  0  0  0
  6  7  1  6  0  0  0
  6 11  1  0  0  0  0
  8 13  1  0  0  0  0
  9 10  1  1  0  0  0
  9 15  1  0  0  0  0
 11 12  1  1  0  0  0
 11 17  1  0  0  0  0
 13 14  1  1  0  0  0
 13 19  1  0  0  0  0
 15 16  1  6  0  0  0
 15 20  1  0  0  0  0
 16 34  1  0  0  0  0
 17 18  1  6  0  0  0
 17 22  1  0  0  0  0
 19  2  1  6  0  0  0
 19 24  1  0  0  0  0
 20 21  1  6  0  0  0
 20 26  1  0  0  0  0
 20 33  1  0  0  0  0
 22 23  1  1  0  0  0
 22 28  1  0  0  0  0
 24 25  1  6  0  0  0
 24 30  1  0  0  0  0
 26 27  1  0  0  0  0
 28 29  1  6  0  0  0
 28 32  1  0  0  0  0
 30 31  1  6  0  0  0
M  END
>  <CHROM.1>
-145.23987561,-78.75982730,-97.34536757,-31.87238845,167.48890412,-80.91524516
0.33244847,1.85369818,6.16022869,0.61428191,-1.09337933,-0.44619460

>  <Name>
ligand

>  <RI>
0

>  <Rbt.Current_Directory>
/home/itssahil/PROJECTS/Mol_Feturizer/New_Systems/rnas/3TD1

>  <Rbt.Executable>
rbdock ($Id: //depot/dev/client3/rdock/2013.1/src/exe/rbdock.cxx#4 $)

>  <Rbt.Library>
libRbt.so (2013.1, Build901 2013/11/27)

>  <Rbt.Parameter_File>
/export/apps/rDock/src/rDock_2013.1_src/data/scripts/dock_solv.prm

>  <Rbt.Receptor>
prm/blind_docking_80.prm

>  <SCORE>
9.53167

>  <SCORE.INTER>
-1.76496

>  <SCORE.INTER.CONST>
1

>  <SCORE.INTER.POLAR>
0

>  <SCORE.INTER.ROT>
6

>  <SCORE.INTER.SOLV>
15.7148

>  <SCORE.INTER.VDW>
-14.0149

>  <SCORE.INTER.norm>
-0.0519107

>  <SCORE.INTRA>
0.145675

>  <SCORE.INTRA.DIHEDRAL>
-7.4714

>  <SCORE.INTRA.DIHEDRAL.0>
19.5869

>  <SCORE.INTRA.POLAR>
0

>  <SCORE.INTRA.POLAR.0>
0

>  <SCORE.INTRA.REPUL>
0

>  <SCORE.INTRA.REPUL.0>
0

>  <SCORE.INTRA.SOLV>
1.84274

>  <SCORE.INTRA.SOLV.lig_0>
-70.101

>  <SCORE.INTRA.VDW>
2.96

>  <SCORE.INTRA.VDW.0>
-3.39718

>  <SCORE.INTRA.norm>
0.00428455

>  <SCORE.RESTR>
11.151

>  <SCORE.RESTR.CAVITY>
11.151

>  <SCORE.RESTR.norm>
0.327969

>  <SCORE.SYSTEM>
0

>  <SCORE.SYSTEM.CONST>
0

>  <SCORE.SYSTEM.DIHEDRAL>
0

>  <SCORE.SYSTEM.SOLV>
0

>  <SCORE.SYSTEM.norm>
0

>  <SCORE.heavy>
34

>  <SCORE.norm>
0.280343

>  <RMSD>
12.690

$$$$
ligand
 OpenBabel11021811483D
libRbt.so/2013.1/901 2013/11/27
 34 36  0  0  0  0  0  0  0  0999 V2000
    1.2086    4.5230    8.4617 C   0  0  2  0  0  0  0  0  0  0  0  0
    0.4650    3.8754    7.4176 O   0  0  0  0  0  0  0  0  0  0  0  0
    0.8817   -0.3461    6.9007 C   0  0  2  0  0  0  0  0  0  0  0  0
    0.7394   -1.7862    7.0853 N   0  0  0  0  0  0  0  0  0  0  0  0
   -1.5773   -1.5507    5.2119 C   0  0  2  0  0  0  0  0  0  0  0  0
    0.4090    5.7994    8.9064 C   0  0  2  0  0  0  0  0  0  0  0  0
   -0.9208    5.4397    9.4229 N   0  0  0  0  0  0  0  0  0  0  0  0
    1.3504    0.2566    8.2670 C   0  0  0  0  0  0  0  0  0  0  0  0
   -1.1433   -2.2530    3.8757 C   0  0  2  0  0  0  0  0  0  0  0  0
    0.2658   -2.4097    3.8494 O   0  0  0  0  0  0  0  0  0  0  0  0
    0.2643    6.7565    7.7033 C   0  0  1  0  0  0  0  0  0  0  0  0
   -0.4599    7.9308    8.1053 O   0  0  0  0  0  0  0  0  0  0  0  0
    1.5258    1.7996    8.0635 C   0  0  2  0  0  0  0  0  0  0  0  0
    1.9633    2.4292    9.3259 N   0  0  0  0  0  0  0  0  0  0  0  0
   -1.6388   -1.3770    2.6606 C   0  0  1  0  0  0  0  0  0  0  0  0
   -1.2359   -1.9959    1.3621 N   0  0  0  0  0  0  0  0  0  0  0  0
    1.6747    7.1108    7.1753 C   0  0  2  0  0  0  0  0  0  0  0  0
    1.5556    7.9942    6.0466 O   0  0  0  0  0  0  0  0  0  0  0  0
    0.1958    2.4542    7.6105 C   0  0  2  0  0  0  0  0  0  0  0  0
   -3.1976   -1.2359    2.7368 C   0  0  1  0  0  0  0  0  0  0  0  0
   -3.7995   -2.5239    2.6375 O   0  0  0  0  0  0  0  0  0  0  0  0
    2.4324    5.7909    6.7650 C   0  0  2  0  0  0  0  0  0  0  0  0
    2.5299    4.8858    7.9266 O   0  0  0  0  0  0  0  0  0  0  0  0
   -0.2778    1.7951    6.2909 C   0  0  2  0  0  0  0  0  0  0  0  0
   -1.5083    2.3986    5.9046 O   0  0  0  0  0  0  0  0  0  0  0  0
   -3.5739   -0.5919    4.1084 C   0  0  0  0  0  0  0  0  0  0  0  0
   -3.0384   -1.3969    5.2325 O   0  0  0  0  0  0  0  0  0  0  0  0
    3.8663    6.0822    6.2502 C   0  0  2  0  0  0  0  0  0  0  0  0
    4.3826    7.2344    6.9112 O   0  0  0  0  0  0  0  0  0  0  0  0
   -0.5106    0.2773    6.4745 C   0  0  1  0  0  0  0  0  0  0  0  0
   -0.9410   -0.2423    5.1942 O   0  0  0  0  0  0  0  0  0  0  0  0
    3.8793    6.3529    4.7548 C   0  0  0  0  0  0  0  0  0  0  0  0
   -3.7507   -0.3791    1.6047 C   0  0  0  0  0  0  0  0  0  0  0  0
    0.1426   -1.5691    1.0543 C   0  0  0  0  0  0  0  0  0  0  0  0
  1  2  1  6  0  0  0
  1  6  1  0  0  0  0
  1 23  1  0  0  0  0
  3  4  1  1  0  0  0
  3  8  1  0  0  0  0
  3 30  1  0  0  0  0
  5  9  1  0  0  0  0
  5 27  1  0  0  0  0
  5 31  1  6  0  0  0
  6  7  1  6  0  0  0
  6 11  1  0  0  0  0
  8 13  1  0  0  0  0
  9 10  1  1  0  0  0
  9 15  1  0  0  0  0
 11 12  1  1  0  0  0
 11 17  1  0  0  0  0
 13 14  1  1  0  0  0
 13 19  1  0  0  0  0
 15 16  1  6  0  0  0
 15 20  1  0  0  0  0
 16 34  1  0  0  0  0
 17 18  1  6  0  0  0
 17 22  1  0  0  0  0
 19  2  1  6  0  0  0
 19 24  1  0  0  0  0
 20 21  1  6  0  0  0
 20 26  1  0  0  0  0
 20 33  1  0  0  0  0
 22 23  1  1  0  0  0
 22 28  1  0  0  0  0
 24 25  1  1  0  0  0
 24 30  1  0  0  0  0
 26 27  1  0  0  0  0
 28 29  1  1  0  0  0
 28 32  1  0  0  0  0
 30 31  1  6  0  0  0
M  END
>  <CHROM.1>
-127.87582130,-46.26922995,-84.61685589,31.24773207,80.98580562,-145.45631006
0.05902230,2.12584830,5.89243941,-0.21660160,1.15929447,2.28767069

>  <Name>
ligand

>  <RI>
0

>  <Rbt.Current_Directory>
/home/itssahil/PROJECTS/Mol_Feturizer/New_Systems/rnas/3TD1

>  <Rbt.Executable>
rbdock ($Id: //depot/dev/client3/rdock/2013.1/src/exe/rbdock.cxx#4 $)

>  <Rbt.Library>
libRbt.so (2013.1, Build901 2013/11/27)

>  <Rbt.Parameter_File>
/export/apps/rDock/src/rDock_2013.1_src/data/scripts/dock_solv.prm

>  <Rbt.Receptor>
prm/blind_docking_80.prm

>  <SCORE>
21.4925

>  <SCORE.INTER>
4.00209

>  <SCORE.INTER.CONST>
1

>  <SCORE.INTER.POLAR>
0

>  <SCORE.INTER.ROT>
6

>  <SCORE.INTER.SOLV>
21.4138

>  <SCORE.INTER.VDW>
-12.0699

>  <SCORE.INTER.norm>
0.117709

>  <SCORE.INTRA>
5.63679

>  <SCORE.INTRA.DIHEDRAL>
-2.42452

>  <SCORE.INTRA.DIHEDRAL.0>
19.5869

>  <SCORE.INTRA.POLAR>
0

>  <SCORE.INTRA.POLAR.0>
0

>  <SCORE.INTRA.REPUL>
0

>  <SCORE.INTRA.REPUL.0>
0

>  <SCORE.INTRA.SOLV>
1.06184

>  <SCORE.INTRA.SOLV.lig_0>
-70.101

>  <SCORE.INTRA.VDW>
6.31813

>  <SCORE.INTRA.VDW.0>
-3.39718

>  <SCORE.INTRA.norm>
0.165788

>  <SCORE.RESTR>
11.8536

>  <SCORE.RESTR.CAVITY>
11.8536

>  <SCORE.RESTR.norm>
0.348635

>  <SCORE.SYSTEM>
0

>  <SCORE.SYSTEM.CONST>
0

>  <SCORE.SYSTEM.DIHEDRAL>
0

>  <SCORE.SYSTEM.SOLV>
0

>  <SCORE.SYSTEM.norm>
0

>  <SCORE.heavy>
34

>  <SCORE.norm>
0.632132

>  <RMSD>
12.702

$$$$
ligand
 OpenBabel11021811483D
libRbt.so/2013.1/901 2013/11/27
 34 36  0  0  0  0  0  0  0  0999 V2000
   -0.0519    5.2819    6.3757 C   0  0  2  0  0  0  0  0  0  0  0  0
    0.1668    3.9844    5.8002 O   0  0  0  0  0  0  0  0  0  0  0  0
    0.7552    0.2263    7.7475 C   0  0  2  0  0  0  0  0  0  0  0  0
    0.5833   -0.9143    8.6406 N   0  0  0  0  0  0  0  0  0  0  0  0
   -1.8430   -1.2065    5.3782 C   0  0  2  0  0  0  0  0  0  0  0  0
   -0.6826    6.2025    5.2706 C   0  0  2  0  0  0  0  0  0  0  0  0
   -1.9707    5.6661    4.8044 N   0  0  0  0  0  0  0  0  0  0  0  0
    0.8241    1.5115    8.6380 C   0  0  0  0  0  0  0  0  0  0  0  0
   -1.7521   -2.7270    4.9949 C   0  0  2  0  0  0  0  0  0  0  0  0
   -1.4705   -3.4991    6.1506 O   0  0  0  0  0  0  0  0  0  0  0  0
    0.2979    6.3209    4.0836 C   0  0  1  0  0  0  0  0  0  0  0  0
   -0.2697    7.1686    3.0716 O   0  0  0  0  0  0  0  0  0  0  0  0
    1.0320    2.7342    7.6817 C   0  0  2  0  0  0  0  0  0  0  0  0
    1.0992    3.9837    8.4664 N   0  0  0  0  0  0  0  0  0  0  0  0
   -0.6255   -2.9067    3.9050 C   0  0  1  0  0  0  0  0  0  0  0  0
   -0.4881   -4.3426    3.5169 N   0  0  0  0  0  0  0  0  0  0  0  0
    1.6447    6.8779    4.6027 C   0  0  2  0  0  0  0  0  0  0  0  0
    2.5727    6.9838    3.5090 O   0  0  0  0  0  0  0  0  0  0  0  0
   -0.1296    2.8442    6.6611 C   0  0  2  0  0  0  0  0  0  0  0  0
   -0.9848   -2.0355    2.6530 C   0  0  1  0  0  0  0  0  0  0  0  0
   -2.2206   -2.4803    2.0998 O   0  0  0  0  0  0  0  0  0  0  0  0
    2.2158    5.9238    5.7200 C   0  0  2  0  0  0  0  0  0  0  0  0
    1.2456    5.8085    6.8262 O   0  0  0  0  0  0  0  0  0  0  0  0
   -0.2155    1.5347    5.8378 C   0  0  2  0  0  0  0  0  0  0  0  0
   -1.2990    1.6515    4.9214 O   0  0  0  0  0  0  0  0  0  0  0  0
   -1.1242   -0.5473    3.1039 C   0  0  0  0  0  0  0  0  0  0  0  0
   -2.1396   -0.4151    4.1762 O   0  0  0  0  0  0  0  0  0  0  0  0
    3.5569    6.4464    6.2981 C   0  0  2  0  0  0  0  0  0  0  0  0
    4.5537    6.4226    5.2797 O   0  0  0  0  0  0  0  0  0  0  0  0
   -0.4732    0.3139    6.7515 C   0  0  1  0  0  0  0  0  0  0  0  0
   -0.5299   -0.8509    5.8946 O   0  0  0  0  0  0  0  0  0  0  0  0
    4.0425    5.5841    7.4514 C   0  0  0  0  0  0  0  0  0  0  0  0
    0.0734   -2.1384    1.5614 C   0  0  0  0  0  0  0  0  0  0  0  0
    0.1646   -5.0616    4.6277 C   0  0  0  0  0  0  0  0  0  0  0  0
  1  2  1  6  0  0  0
  1  6  1  0  0  0  0
  1 23  1  0  0  0  0
  3  4  1  1  0  0  0
  3  8  1  0  0  0  0
  3 30  1  0  0  0  0
  5  9  1  0  0  0  0
  5 27  1  0  0  0  0
  5 31  1  6  0  0  0
  6  7  1  6  0  0  0
  6 11  1  0  0  0  0
  8 13  1  0  0  0  0
  9 10  1  1  0  0  0
  9 15  1  0  0  0  0
 11 12  1  6  0  0  0
 11 17  1  0  0  0  0
 13 14  1  1  0  0  0
 13 19  1  0  0  0  0
 15 16  1  6  0  0  0
 15 20  1  0  0  0  0
 16 34  1  0  0  0  0
 17 18  1  6  0  0  0
 17 22  1  0  0  0  0
 19  2  1  6  0  0  0
 19 24  1  0  0  0  0
 20 21  1  6  0  0  0
 20 26  1  0  0  0  0
 20 33  1  0  0  0  0
 22 23  1  1  0  0  0
 22 28  1  0  0  0  0
 24 25  1  6  0  0  0
 24 30  1  0  0  0  0
 26 27  1  0  0  0  0
 28 29  1  6  0  0  0
 28 32  1  0  0  0  0
 30 31  1  6  0  0  0
M  END
>  <CHROM.1>
-140.14862752,-75.61249665,-72.97766276,-65.17359932,153.76535589,-158.19333944
0.19803918,1.89399367,5.33659289,-0.83761890,1.12527054,2.59896497

>  <Name>
ligand

>  <RI>
0

>  <Rbt.Current_Directory>
/home/itssahil/PROJECTS/Mol_Feturizer/New_Systems/rnas/3TD1

>  <Rbt.Executable>
rbdock ($Id: //depot/dev/client3/rdock/2013.1/src/exe/rbdock.cxx#4 $)

>  <Rbt.Library>
libRbt.so (2013.1, Build901 2013/11/27)

>  <Rbt.Parameter_File>
/export/apps/rDock/src/rDock_2013.1_src/data/scripts/dock_solv.prm

>  <Rbt.Receptor>
prm/blind_docking_80.prm

>  <SCORE>
8.58296

>  <SCORE.INTER>
-2.36023

>  <SCORE.INTER.CONST>
1

>  <SCORE.INTER.POLAR>
0

>  <SCORE.INTER.ROT>
6

>  <SCORE.INTER.SOLV>
17.925

>  <SCORE.INTER.VDW>
-15.1485

>  <SCORE.INTER.norm>
-0.0694186

>  <SCORE.INTRA>
1.38192

>  <SCORE.INTRA.DIHEDRAL>
-7.82762

>  <SCORE.INTRA.DIHEDRAL.0>
19.5869

>  <SCORE.INTRA.POLAR>
0

>  <SCORE.INTRA.POLAR.0>
0

>  <SCORE.INTRA.REPUL>
0

>  <SCORE.INTRA.REPUL.0>
0

>  <SCORE.INTRA.SOLV>
0.538279

>  <SCORE.INTRA.SOLV.lig_0>
-70.101

>  <SCORE.INTRA.VDW>
5.02659

>  <SCORE.INTRA.VDW.0>
-3.39718

>  <SCORE.INTRA.norm>
0.0406448

>  <SCORE.RESTR>
9.56127

>  <SCORE.RESTR.CAVITY>
9.56127

>  <SCORE.RESTR.norm>
0.281214

>  <SCORE.SYSTEM>
0

>  <SCORE.SYSTEM.CONST>
0

>  <SCORE.SYSTEM.DIHEDRAL>
0

>  <SCORE.SYSTEM.SOLV>
0

>  <SCORE.SYSTEM.norm>
0

>  <SCORE.heavy>
34

>  <SCORE.norm>
0.25244

>  <RMSD>
12.714

$$$$
ligand
 OpenBabel11021811483D
libRbt.so/2013.1/901 2013/11/27
 34 36  0  0  0  0  0  0  0  0999 V2000
   -0.2043    4.4775    7.4184 C   0  0  2  0  0  0  0  0  0  0  0  0
    0.1994    3.4099    6.5467 O   0  0  0  0  0  0  0  0  0  0  0  0
    1.0607   -0.7156    7.2542 C   0  0  2  0  0  0  0  0  0  0  0  0
    1.0054   -2.0713    7.7900 N   0  0  0  0  0  0  0  0  0  0  0  0
   -1.7400   -1.4890    4.7957 C   0  0  2  0  0  0  0  0  0  0  0  0
   -0.8647    5.5983    6.5386 C   0  0  2  0  0  0  0  0  0  0  0  0
   -2.0495    5.0887    5.8309 N   0  0  0  0  0  0  0  0  0  0  0  0
    1.1986    0.2621    8.4687 C   0  0  0  0  0  0  0  0  0  0  0  0
   -1.8157   -3.0093    4.4081 C   0  0  2  0  0  0  0  0  0  0  0  0
   -1.6069   -3.8108    5.5591 O   0  0  0  0  0  0  0  0  0  0  0  0
    0.1700    6.1244    5.5202 C   0  0  1  0  0  0  0  0  0  0  0  0
   -0.4254    7.1563    4.7168 O   0  0  0  0  0  0  0  0  0  0  0  0
    1.2814    1.7163    7.8931 C   0  0  2  0  0  0  0  0  0  0  0  0
    1.4070    2.6900    8.9965 N   0  0  0  0  0  0  0  0  0  0  0  0
   -0.7255   -3.3046    3.3065 C   0  0  1  0  0  0  0  0  0  0  0  0
   -0.7460   -4.7457    2.9138 N   0  0  0  0  0  0  0  0  0  0  0  0
    1.4072    6.6450    6.2896 C   0  0  2  0  0  0  0  0  0  0  0  0
    2.3852    7.1289    5.3527 O   0  0  0  0  0  0  0  0  0  0  0  0
    0.0170    2.0576    7.0638 C   0  0  2  0  0  0  0  0  0  0  0  0
   -1.0019   -2.3959    2.0601 C   0  0  1  0  0  0  0  0  0  0  0  0
   -2.2835   -2.7044    1.5184 O   0  0  0  0  0  0  0  0  0  0  0  0
    2.0115    5.4831    7.1668 C   0  0  2  0  0  0  0  0  0  0  0  0
    0.9919    4.9828    8.1094 O   0  0  0  0  0  0  0  0  0  0  0  0
   -0.1302    1.0367    5.9080 C   0  0  2  0  0  0  0  0  0  0  0  0
   -1.3062    1.3585    5.1725 O   0  0  0  0  0  0  0  0  0  0  0  0
   -0.9772   -0.9028    2.5157 C   0  0  0  0  0  0  0  0  0  0  0  0
   -1.9622   -0.6665    3.5985 O   0  0  0  0  0  0  0  0  0  0  0  0
    3.2432    5.9542    7.9834 C   0  0  2  0  0  0  0  0  0  0  0  0
    2.8926    7.1031    8.7504 O   0  0  0  0  0  0  0  0  0  0  0  0
   -0.2671   -0.4058    6.4482 C   0  0  1  0  0  0  0  0  0  0  0  0
   -0.3915   -1.2774    5.2997 O   0  0  0  0  0  0  0  0  0  0  0  0
    4.4041    6.3302    7.0775 C   0  0  0  0  0  0  0  0  0  0  0  0
    0.0285   -2.6076    0.9577 C   0  0  0  0  0  0  0  0  0  0  0  0
   -0.0664   -5.5222    3.9684 C   0  0  0  0  0  0  0  0  0  0  0  0
  1  2  1  6  0  0  0
  1  6  1  0  0  0  0
  1 23  1  0  0  0  0
  3  4  1  1  0  0  0
  3  8  1  0  0  0  0
  3 30  1  0  0  0  0
  5  9  1  0  0  0  0
  5 27  1  0  0  0  0
  5 31  1  6  0  0  0
  6  7  1  6  0  0  0
  6 11  1  0  0  0  0
  8 13  1  0  0  0  0
  9 10  1  1  0  0  0
  9 15  1  0  0  0  0
 11 12  1  1  0  0  0
 11 17  1  0  0  0  0
 13 14  1  1  0  0  0
 13 19  1  0  0  0  0
 15 16  1  6  0  0  0
 15 20  1  0  0  0  0
 16 34  1  0  0  0  0
 17 18  1  6  0  0  0
 17 22  1  0  0  0  0
 19  2  1  6  0  0  0
 19 24  1  0  0  0  0
 20 21  1  6  0  0  0
 20 26  1  0  0  0  0
 20 33  1  0  0  0  0
 22 23  1  1  0  0  0
 22 28  1  0  0  0  0
 24 25  1  1  0  0  0
 24 30  1  0  0  0  0
 26 27  1  0  0  0  0
 28 29  1  6  0  0  0
 28 32  1  0  0  0  0
 30 31  1  6  0  0  0
M  END
>  <CHROM.1>
-141.82188530,-86.02142435,-77.41403739,54.06857488,156.22692216,-140.17474608
0.14908295,1.45678778,5.66019503,-1.00706907,1.07613098,2.99837237

>  <Name>
ligand

>  <RI>
0

>  <Rbt.Current_Directory>
/home/itssahil/PROJECTS/Mol_Feturizer/New_Systems/rnas/3TD1

>  <Rbt.Executable>
rbdock ($Id: //depot/dev/client3/rdock/2013.1/src/exe/rbdock.cxx#4 $)

>  <Rbt.Library>
libRbt.so (2013.1, Build901 2013/11/27)

>  <Rbt.Parameter_File>
/export/apps/rDock/src/rDock_2013.1_src/data/scripts/dock_solv.prm

>  <Rbt.Receptor>
prm/blind_docking_80.prm

>  <SCORE>
13.5154

>  <SCORE.INTER>
0.365177

>  <SCORE.INTER.CONST>
1

>  <SCORE.INTER.POLAR>
0

>  <SCORE.INTER.ROT>
6

>  <SCORE.INTER.SOLV>
16.3449

>  <SCORE.INTER.VDW>
-12.8048

>  <SCORE.INTER.norm>
0.0107405

>  <SCORE.INTRA>
1.52268

>  <SCORE.INTRA.DIHEDRAL>
-3.44541

>  <SCORE.INTRA.DIHEDRAL.0>
19.5869

>  <SCORE.INTRA.POLAR>
0

>  <SCORE.INTRA.POLAR.0>
0

>  <SCORE.INTRA.REPUL>
0

>  <SCORE.INTRA.REPUL.0>
0

>  <SCORE.INTRA.SOLV>
0.34607

>  <SCORE.INTRA.SOLV.lig_0>
-70.101

>  <SCORE.INTRA.VDW>
3.07235

>  <SCORE.INTRA.VDW.0>
-3.39718

>  <SCORE.INTRA.norm>
0.0447847

>  <SCORE.RESTR>
11.6276

>  <SCORE.RESTR.CAVITY>
11.6276

>  <SCORE.RESTR.norm>
0.341987

>  <SCORE.SYSTEM>
0

>  <SCORE.SYSTEM.CONST>
0

>  <SCORE.SYSTEM.DIHEDRAL>
0

>  <SCORE.SYSTEM.SOLV>
0

>  <SCORE.SYSTEM.norm>
0

>  <SCORE.heavy>
34

>  <SCORE.norm>
0.397512

>  <RMSD>
12.860

$$$$
