@<TRIPOS>MOLECULE
3TD1_rdock.pdb
 402 447 0 0 0
SMALL
GASTEIGER

@<TRIPOS>ATOM
      1  P         10.8790    0.0630   17.6830 P.3    15  C15         0.1280
      2  C5'        8.7790   -1.4880   17.7570 C.3    15  C15         0.1795
      3  O5'        9.3690   -0.2750   17.3190 O.3    15  C15        -0.3259
      4  C4'        7.3160   -1.5110   17.3990 C.3    15  C15         0.1772
      5  O4'        6.5750   -0.5590   18.2140 O.3    15  C15        -0.3307
      6  C3'        6.9670   -1.1220   15.9720 C.3    15  C15         0.1860
      7  O3'        7.1990   -2.2050   15.0740 O.3    15  C15        -0.3112
      8  C2'        5.4880   -0.7960   16.1220 C.3    15  C15         0.2309
      9  O2'        4.6820   -1.9540   16.2060 O.3    15  C15        -0.2156
     10  C1'        5.4850   -0.0460   17.4620 C.3    15  C15         0.2420
     11  N1         5.6970    1.3950   17.2570 N.ar   15  C15        -0.2535
     12  C2         4.5900    2.2050   16.9900 C.ar   15  C15         0.3532
     13  O2         3.4650    1.6980   17.0110 O.2    15  C15        -0.2443
     14  N3         4.7790    3.5180   16.7140 N.ar   15  C15        -0.1739
     15  C4         6.0180    4.0230   16.6980 C.ar   15  C15         0.1759
     16  N4         6.1720    5.3140   16.3610 N.pl3  15  C15        -0.1070
     17  C5         7.1570    3.2290   17.0120 C.ar   15  C15         0.0566
     18  C6         6.9520    1.9330   17.2890 C.ar   15  C15         0.0850
     19  OP1       11.6740   -1.1400   17.3420 O.3    15  C15        -0.1955
     20  OP2       11.2200    1.3620   17.0560 O.co2  15  C15        -0.7863
     21  P          7.5640   -1.9050   13.5370 P.3    16  G16         0.2141
     22  C5'        5.0060   -2.1520   13.0270 C.3    16  G16         0.1812
     23  O5'        6.1970   -1.3810   12.9100 O.3    16  G16        -0.3114
     24  C4'        3.8120   -1.3400   12.5790 C.3    16  G16         0.1773
     25  O4'        3.4730   -0.3000   13.5350 O.3    16  G16        -0.3307
     26  C3'        4.0190   -0.5730   11.2910 C.3    16  G16         0.1860
     27  O3'        3.9150   -1.4650   10.2050 O.3    16  G16        -0.3112
     28  C2'        2.8720    0.4220   11.3520 C.3    16  G16         0.2309
     29  O2'        1.6320   -0.1220   10.9480 O.3    16  G16        -0.2156
     30  C1'        2.8900    0.7950   12.8400 C.3    16  G16         0.2408
     31  N1         2.9880    5.8600   12.6740 N.ar   16  G16        -0.1709
     32  C2         1.9220    4.9960   12.5340 C.ar   16  G16         0.2606
     33  N2         0.7250    5.5470   12.2710 N.pl3  16  G16        -0.0859
     34  N3         2.0230    3.6820   12.6430 N.ar   16  G16        -0.1918
     35  C4         3.2850    3.2900   12.9170 C.ar   16  G16         0.1723
     36  C5         4.4140    4.0640   13.0830 C.ar   16  G16         0.1748
     37  C6         4.3040    5.4720   12.9450 C.ar   16  G16         0.3023
     38  O6         5.1960    6.3250   13.0200 O.2    16  G16        -0.2633
     39  N7         5.5170    3.2690   13.3680 N.ar   16  G16        -0.2173
     40  C8         5.0510    2.0460   13.3560 C.ar   16  G16         0.1817
     41  N9         3.7110    1.9860   13.0540 N.ar   16  G16        -0.2693
     42  OP1        7.8730   -3.2000   12.8920 O.2    16  G16        -0.5172
     43  OP2        8.5610   -0.8110   13.4980 O.co2  16  G16        -0.4373
     44  P          4.8740   -1.2930    8.9290 P.3    17  A17         0.2141
     45  C5'        3.9470   -1.6780    6.5140 C.3    17  A17         0.1812
     46  O5'        3.7910   -1.0930    7.7790 O.3    17  A17        -0.3114
     47  C4'        4.3860   -0.6430    5.5150 C.3    17  A17         0.1773
     48  O4'        4.6810   -1.3820    4.3090 O.3    17  A17        -0.3307
     49  C3'        3.3890    0.4440    5.0880 C.3    17  A17         0.1860
     50  O3'        4.1240    1.5160    4.4720 O.3    17  A17        -0.3112
     51  C2'        2.6010   -0.2960    4.0130 C.3    17  A17         0.2309
     52  O2'        2.0050    0.5460    3.0540 O.3    17  A17        -0.2156
     53  C1'        3.7140   -1.0880    3.3310 C.3    17  A17         0.2408
     54  N1         3.7590   -3.9100   -0.9310 N.ar   17  A17        -0.2040
     55  C2         4.3250   -2.7360   -0.6160 C.ar   17  A17         0.2016
     56  N3         4.2870   -2.0630    0.5340 N.ar   17  A17        -0.2048
     57  C4         3.5620   -2.7330    1.4450 C.ar   17  A17         0.1692
     58  C5         2.9280   -3.9510    1.2760 C.ar   17  A17         0.1518
     59  C6         3.0370   -4.5560    0.0120 C.ar   17  A17         0.1919
     60  N6         2.4640   -5.7210   -0.3030 N.pl3  17  A17        -0.1054
     61  N7         2.2820   -4.3350    2.4440 N.ar   17  A17        -0.2193
     62  C8         2.5270   -3.3500    3.2740 C.ar   17  A17         0.1816
     63  N9         3.2830   -2.3430    2.7280 N.ar   17  A17        -0.2693
     64  OP1        5.5940   -2.5660    8.7680 O.2    17  A17        -0.5172
     65  OP2        5.6500   -0.0310    9.0140 O.co2  17  A17        -0.4373
     66  P          3.5830    3.0500    4.5170 P.3    18  A18         0.2141
     67  C5'        4.2280    3.4840    2.0210 C.3    18  A18         0.1812
     68  O5'        3.2090    3.3670    3.0060 O.3    18  A18        -0.3114
     69  C4'        3.6920    4.1950    0.8110 C.3    18  A18         0.1773
     70  O4'        2.7530    3.3330    0.1230 O.3    18  A18        -0.3307
     71  C3'        2.9370    5.4850    1.1030 C.3    18  A18         0.1860
     72  O3'        3.1220    6.3970    0.0320 O.3    18  A18        -0.3112
     73  C2'        1.4890    5.0200    1.1630 C.3    18  A18         0.2309
     74  O2'        0.5760    6.0520    0.8540 O.3    18  A18        -0.2156
     75  C1'        1.4820    3.9450    0.0780 C.3    18  A18         0.2408
     76  N1        -1.7950    0.7080   -2.1890 N.ar   18  A18        -0.2040
     77  C2        -0.9770    1.6480   -2.6750 C.ar   18  A18         0.2016
     78  N3        -0.1550    2.4690   -2.0240 N.ar   18  A18        -0.2048
     79  C4        -0.2230    2.2550   -0.6980 C.ar   18  A18         0.1692
     80  C5        -1.0160    1.3290   -0.0470 C.ar   18  A18         0.1518
     81  C6        -1.8400    0.5180   -0.8510 C.ar   18  A18         0.1919
     82  N6        -2.6570   -0.4210   -0.3680 N.pl3  18  A18        -0.1054
     83  N7        -0.8250    1.3990    1.3260 N.ar   18  A18        -0.2193
     84  C8         0.0730    2.3440    1.4700 C.ar   18  A18         0.1816
     85  N9         0.4850    2.8990    0.2850 N.ar   18  A18        -0.2693
     86  OP1        4.7880    3.8590    4.8460 O.2    18  A18        -0.5172
     87  OP2        2.3490    3.2240    5.3220 O.co2  18  A18        -0.4373
     88  P          4.0240    7.7020    0.2610 P.3    19  G19         0.2141
     89  C5'        1.9700    9.2960    0.6750 C.3    19  G19         0.1812
     90  O5'        3.1290    8.6410    1.1890 O.3    19  G19        -0.3114
     91  C4'        1.6950   10.5670    1.4570 C.3    19  G19         0.1773
     92  O4'        1.3880   10.2510    2.8480 O.3    19  G19        -0.3307
     93  C3'        2.8510   11.5530    1.5570 C.3    19  G19         0.1860
     94  O3'        2.9530   12.3620    0.3930 O.3    19  G19        -0.3112
     95  C2'        2.4580   12.3490    2.7920 C.3    19  G19         0.2309
     96  O2'        1.3880   13.2420    2.5710 O.3    19  G19        -0.2156
     97  C1'        1.9820   11.2220    3.7060 C.3    19  G19         0.2408
     98  N1         5.8920   11.9720    6.8540 N.ar   19  G19        -0.1709
     99  C2         4.9560   12.8670    6.3970 C.ar   19  G19         0.2606
    100  N2         5.0780   14.1300    6.8350 N.pl3  19  G19        -0.0859
    101  N3         3.9690   12.5470    5.5730 N.ar   19  G19        -0.1918
    102  C4         3.9900   11.2380    5.2400 C.ar   19  G19         0.1723
    103  C5         4.8740   10.2610    5.6440 C.ar   19  G19         0.1748
    104  C6         5.9280   10.6150    6.5270 C.ar   19  G19         0.3023
    105  O6         6.8070    9.8930    7.0050 O.2    19  G19        -0.2633
    106  N7         4.5460    9.0360    5.0790 N.ar   19  G19        -0.2173
    107  C8         3.4910    9.2860    4.3520 C.ar   19  G19         0.1817
    108  N9         3.1030   10.6030    4.4030 N.ar   19  G19        -0.2693
    109  OP1        4.2030    8.3470   -1.0590 O.2    19  G19        -0.5172
    110  OP2        5.2090    7.2910    1.0550 O.co2  19  G19        -0.4373
    111  P          4.3980   12.8500   -0.1090 P.3    20  U20         0.2141
    112  C5'        4.3080   15.0050    1.3870 C.3    20  U20         0.1812
    113  O5'        4.9380   13.7700    1.0750 O.3    20  U20        -0.3114
    114  C4'        5.1850   15.8210    2.3090 C.3    20  U20         0.1773
    115  O4'        5.3210   15.1630    3.5980 O.3    20  U20        -0.3307
    116  C3'        6.6220   16.0430    1.8640 C.3    20  U20         0.1860
    117  O3'        6.6980   17.1150    0.9350 O.3    20  U20        -0.3112
    118  C2'        7.2780   16.4200    3.1800 C.3    20  U20         0.2309
    119  O2'        6.9420   17.7320    3.5750 O.3    20  U20        -0.2156
    120  C1'        6.6080   15.4270    4.1290 C.3    20  U20         0.2420
    121  N1         7.3330   14.1550    4.2250 N.ar   20  U20        -0.2534
    122  C2         8.4690   14.1260    5.0020 C.ar   20  U20         0.3546
    123  O2         8.9240   15.1210    5.5480 O.2    20  U20        -0.2443
    124  N3         9.0640   12.8940    5.1070 N.ar   20  U20        -0.1530
    125  C4         8.6550   11.7240    4.5070 C.ar   20  U20         0.2846
    126  O4         9.2420   10.6760    4.7730 O.2    20  U20        -0.2650
    127  C5         7.4980   11.8470    3.6820 C.ar   20  U20         0.0814
    128  C6         6.8880   13.0290    3.5740 C.ar   20  U20         0.0870
    129  OP1        4.1650   13.7000   -1.2980 O.2    20  U20        -0.5172
    130  OP2        5.3110   11.6850   -0.2060 O.co2  20  U20        -0.4373
    131  P          7.7400   17.0420   -0.2840 P.3    21  C21         0.2141
    132  C5'        8.9830   19.0030    0.9210 C.3    21  C21         0.1812
    133  O5'        9.0520   17.7380    0.2770 O.3    21  C21        -0.3114
    134  C4'       10.0630   19.1030    1.9640 C.3    21  C21         0.1773
    135  O4'        9.8280   18.0860    2.9690 O.3    21  C21        -0.3307
    136  C3'       11.4720   18.7930    1.4860 C.3    21  C21         0.1860
    137  O3'       12.0590   19.9140    0.8430 O.3    21  C21        -0.3112
    138  C2'       12.1640   18.4450    2.7940 C.3    21  C21         0.2309
    139  O2'       12.4880   19.5860    3.5620 O.3    21  C21        -0.2156
    140  C1'       11.0660   17.6480    3.5000 C.3    21  C21         0.2420
    141  N1        11.1640   16.2000    3.2890 N.ar   21  C21        -0.2535
    142  C2        12.0200   15.4700    4.0970 C.ar   21  C21         0.3532
    143  O2        12.6880   16.0710    4.9510 O.2    21  C21        -0.2443
    144  N3        12.1100   14.1250    3.9320 N.ar   21  C21        -0.1739
    145  C4        11.3850   13.5200    2.9940 C.ar   21  C21         0.1759
    146  N4        11.5060   12.1970    2.8750 N.pl3  21  C21        -0.1070
    147  C5        10.5030   14.2470    2.1400 C.ar   21  C21         0.0566
    148  C6        10.4250   15.5750    2.3210 C.ar   21  C21         0.0850
    149  OP1        7.1770   17.9040   -1.3470 O.2    21  C21        -0.5172
    150  OP2        8.0810   15.6230   -0.5860 O.co2  21  C21        -0.4373
    151  P         13.4200   19.7320    0.0010 P.3    22  G22         0.2141
    152  C5'       14.9360   20.3940    2.0420 C.3    22  G22         0.1812
    153  O5'       14.5210   19.4100    1.1030 O.3    22  G22        -0.3114
    154  C4'       16.1400   19.8990    2.8070 C.3    22  G22         0.1773
    155  O4'       15.7700   18.7940    3.6770 O.3    22  G22        -0.3307
    156  C3'       17.2550   19.3240    1.9540 C.3    22  G22         0.1860
    157  O3'       18.0760   20.3430    1.4130 O.3    22  G22        -0.3112
    158  C2'       18.0010   18.4770    2.9690 C.3    22  G22         0.2309
    159  O2'       18.7780   19.2590    3.8500 O.3    22  G22        -0.2156
    160  C1'       16.8290   17.8430    3.7180 C.3    22  G22         0.2408
    161  N1        17.3960   12.7930    3.3780 N.ar   22  G22        -0.1709
    162  C2        18.1540   13.7040    4.0680 C.ar   22  G22         0.2606
    163  N2        19.1830   13.2010    4.7750 N.pl3  22  G22        -0.0859
    164  N3        17.9210   15.0130    4.0680 N.ar   22  G22        -0.1918
    165  C4        16.8610   15.3370    3.2980 C.ar   22  G22         0.1723
    166  C5        16.0500   14.5030    2.5610 C.ar   22  G22         0.1748
    167  C6        16.2940   13.1070    2.5900 C.ar   22  G22         0.3023
    168  O6        15.6570   12.2060    2.0350 O.2    22  G22        -0.2633
    169  N7        15.0770   15.2280    1.8890 N.ar   22  G22        -0.2173
    170  C8        15.3000   16.4690    2.2330 C.ar   22  G22         0.1817
    171  N9        16.3560   16.6040    3.1030 N.ar   22  G22        -0.2693
    172  OP1       13.7190   21.0500   -0.6030 O.3    22  G22        -0.4373
    173  OP2       13.3090   18.5390   -0.8750 O.co2  22  G22        -0.5172
    174  P         18.8320   20.0910    0.0210 P.3    23  C23         0.2141
    175  C5'       20.8810   19.0900    1.3300 C.3    23  C23         0.1813
    176  O5'       19.8660   18.9230    0.3470 O.3    23  C23        -0.3114
    177  C4'       21.5700   17.7730    1.5860 C.3    23  C23         0.1801
    178  O4'       20.5990   16.8030    2.0620 O.3    23  C23        -0.3306
    179  C3'       22.1650   17.0990    0.3610 C.3    23  C23         0.2161
    180  O3'       23.3920   17.6640   -0.1010 O.3    23  C23        -0.2175
    181  C2'       22.2670   15.6490    0.8110 C.3    23  C23         0.2338
    182  O2'       23.4000   15.4150    1.6240 O.3    23  C23        -0.2155
    183  C1'       20.9840   15.5020    1.6390 C.3    23  C23         0.2421
    184  N1        19.8580   14.9000    0.9000 N.ar   23  C23        -0.2535
    185  C2        19.7690   13.5090    0.8310 C.ar   23  C23         0.3532
    186  O2        20.6400   12.8280    1.3920 O.2    23  C23        -0.2443
    187  N3        18.7350   12.9420    0.1610 N.ar   23  C23        -0.1739
    188  C4        17.8130   13.7170   -0.4180 C.ar   23  C23         0.1759
    189  N4        16.8000   13.1220   -1.0640 N.pl3  23  C23        -0.1070
    190  C5        17.8840   15.1420   -0.3630 C.ar   23  C23         0.0566
    191  C6        18.9140   15.6840    0.2980 C.ar   23  C23         0.0850
    192  OP1       19.5910   21.3330   -0.2930 O.3    23  C23        -0.4373
    193  OP2       17.8440   19.5700   -0.9590 O.co2  23  C23        -0.5172
    194  C5'       11.3220   -0.7810    3.7610 C.3    24  U24         0.2141
    195  O5'       12.2710   -1.8380    3.6370 O.3    24  U24        -0.2176
    196  C4'       10.2960   -0.7970    2.6530 C.3    24  U24         0.1802
    197  O4'        9.5090   -2.0220    2.7340 O.3    24  U24        -0.3306
    198  C3'        9.2860    0.3470    2.6880 C.3    24  U24         0.1861
    199  O3'        8.9160    0.7110    1.3660 O.3    24  U24        -0.3112
    200  C2'        8.0940   -0.2880    3.3860 C.3    24  U24         0.2309
    201  O2'        6.8710    0.3500    3.0820 O.3    24  U24        -0.2156
    202  C1'        8.1360   -1.6920    2.7900 C.3    24  U24         0.2420
    203  N1         7.4420   -2.7030    3.5980 N.ar   24  U24        -0.2534
    204  C2         6.7840   -3.7150    2.9270 C.ar   24  U24         0.3546
    205  O2         6.7890   -3.8140    1.7100 O.2    24  U24        -0.2443
    206  N3         6.1220   -4.6070    3.7320 N.ar   24  U24        -0.1530
    207  C4         6.0590   -4.5940    5.1110 C.ar   24  U24         0.2846
    208  O4         5.3790   -5.4410    5.6930 O.2    24  U24        -0.2650
    209  C5         6.7830   -3.5280    5.7320 C.ar   24  U24         0.0814
    210  C6         7.4330   -2.6410    4.9740 C.ar   24  U24         0.0870
    211  P          9.1510    2.2150    0.8620 P.3    25  U25         0.2141
    212  C5'       11.2600    2.3690   -0.6860 C.3    25  U25         0.1812
    213  O5'       10.7250    2.2820    0.6290 O.3    25  U25        -0.3114
    214  C4'       12.6510    1.7850   -0.7250 C.3    25  U25         0.1773
    215  O4'       12.6080    0.3750   -0.3500 O.3    25  U25        -0.3307
    216  C3'       13.3310    1.8220   -2.0880 C.3    25  U25         0.1860
    217  O3'       14.7380    1.8970   -1.8870 O.3    25  U25        -0.3112
    218  C2'       12.9590    0.4580   -2.6580 C.3    25  U25         0.2309
    219  O2'       13.8200    0.0400   -3.6990 O.3    25  U25        -0.2156
    220  C1'       13.1190   -0.4130   -1.4130 C.3    25  U25         0.2420
    221  N1        12.4020   -1.7000   -1.4270 N.ar   25  U25        -0.2534
    222  C2        12.7960   -2.6620   -2.3490 C.ar   25  U25         0.3546
    223  O2        13.6850   -2.4800   -3.1640 O.2    25  U25        -0.2443
    224  N3        12.1060   -3.8490   -2.2800 N.ar   25  U25        -0.1530
    225  C4        11.0830   -4.1680   -1.4090 C.ar   25  U25         0.2846
    226  O4        10.5900   -5.2970   -1.4420 O.2    25  U25        -0.2650
    227  C5        10.7240   -3.1210   -0.5010 C.ar   25  U25         0.0814
    228  C6        11.3770   -1.9530   -0.5400 C.ar   25  U25         0.0870
    229  OP1        8.8020    3.1310    1.9790 O.3    25  U25        -0.4373
    230  OP2        8.4760    2.3700   -0.4520 O.co2  25  U25        -0.5172
    231  P         15.4710    3.3280   -1.8660 P.3    26  G26         0.2141
    232  C5'       16.7480    3.2930    0.4270 C.3    26  G26         0.1812
    233  O5'       16.7710    3.0670   -0.9780 O.3    26  G26        -0.3114
    234  C4'       18.1410    3.2200    1.0020 C.3    26  G26         0.1773
    235  O4'       19.0660    3.8680    0.0940 O.3    26  G26        -0.3307
    236  C3'       18.2840    3.9210    2.3500 C.3    26  G26         0.1860
    237  O3'       18.4420    2.9750    3.3980 O.3    26  G26        -0.3112
    238  C2'       19.5270    4.7970    2.1910 C.3    26  G26         0.2309
    239  O2'       20.7160    4.1500    2.5920 O.3    26  G26        -0.2156
    240  C1'       19.5500    5.0500    0.6870 C.3    26  G26         0.2408
    241  N1        19.0150   10.0970    0.4700 N.ar   26  G26        -0.1709
    242  C2        19.9760    9.3530    1.1110 C.ar   26  G26         0.2606
    243  N2        20.9280   10.0400    1.7640 N.pl3  26  G26        -0.0859
    244  N3        20.0010    8.0290    1.1160 N.ar   26  G26        -0.1918
    245  C4        18.9680    7.5030    0.4230 C.ar   26  G26         0.1723
    246  C5        17.9520    8.1610   -0.2430 C.ar   26  G26         0.1748
    247  C6        17.9390    9.5740   -0.2460 C.ar   26  G26         0.3023
    248  O6        17.1220   10.3330   -0.7860 O.2    26  G26        -0.2633
    249  N7        17.0770    7.2570   -0.8260 N.ar   26  G26        -0.2173
    250  C8        17.5710    6.0880   -0.5220 C.ar   26  G26         0.1817
    251  N9        18.7260    6.1640    0.2240 N.ar   26  G26        -0.2693
    252  OP1       14.5800    4.2650   -1.1320 O.3    26  G26        -0.4373
    253  OP2       15.9060    3.6600   -3.2480 O.co2  26  G26        -0.5172
    254  P         17.7710    3.2610    4.8270 P.3    27  C27         0.2141
    255  C5'       19.8560    4.3890    5.9440 C.3    27  C27         0.1812
    256  O5'       18.5610    4.5300    5.3740 O.3    27  C27        -0.3114
    257  C4'       20.3940    5.7360    6.3470 C.3    27  C27         0.1773
    258  O4'       20.6230    6.5470    5.1630 O.3    27  C27        -0.3307
    259  C3'       19.4540    6.5900    7.1760 C.3    27  C27         0.1860
    260  O3'       19.4460    6.2150    8.5370 O.3    27  C27        -0.3112
    261  C2'       20.0360    7.9730    6.9490 C.3    27  C27         0.2309
    262  O2'       21.2430    8.1930    7.6540 O.3    27  C27        -0.2156
    263  C1'       20.3050    7.9040    5.4490 C.3    27  C27         0.2420
    264  N1        19.1260    8.2850    4.6540 N.ar   27  C27        -0.2535
    265  C2        18.9290    9.6390    4.3640 C.ar   27  C27         0.3532
    266  O2        19.7380   10.4680    4.8130 O.2    27  C27        -0.2443
    267  N3        17.8680   10.0070    3.6100 N.ar   27  C27        -0.1739
    268  C4        17.0150    9.0820    3.1590 C.ar   27  C27         0.1759
    269  N4        15.9900    9.4890    2.4060 N.pl3  27  C27        -0.1070
    270  C5        17.1800    7.6970    3.4560 C.ar   27  C27         0.0566
    271  C6        18.2410    7.3460    4.1990 C.ar   27  C27         0.0850
    272  OP1       18.0900    2.1240    5.7270 O.3    27  C27        -0.4373
    273  OP2       16.3550    3.6400    4.5910 O.co2  27  C27        -0.5172
    274  P         18.1420    6.5070    9.4280 P.3    28  G28         0.2141
    275  C5'       19.0600    8.8320   10.2070 C.3    28  G28         0.1812
    276  O5'       18.0790    8.0970    9.4900 O.3    28  G28        -0.3114
    277  C4'       18.8650   10.3080    9.9860 C.3    28  G28         0.1773
    278  O4'       19.0220   10.6210    8.5750 O.3    28  G28        -0.3307
    279  C3'       17.4900   10.8640   10.3080 C.3    28  G28         0.1860
    280  O3'       17.3250   11.0500   11.7080 O.3    28  G28        -0.3112
    281  C2'       17.5520   12.1800    9.5540 C.3    28  G28         0.2309
    282  O2'       18.4010   13.1190   10.1880 O.3    28  G28        -0.2156
    283  C1'       18.1700   11.7110    8.2370 C.3    28  G28         0.2408
    284  N1        14.3130   12.9990    5.1990 N.ar   28  G28        -0.1709
    285  C2        15.1700   13.8020    5.9160 C.ar   28  G28         0.2606
    286  N2        14.9430   15.1310    5.8510 N.pl3  28  G28        -0.0859
    287  N3        16.1680   13.3450    6.6510 N.ar   28  G28        -0.1918
    288  C4        16.2400   11.9960    6.6300 C.ar   28  G28         0.1723
    289  C5        15.4350   11.1000    5.9560 C.ar   28  G28         0.1748
    290  C6        14.3650   11.6050    5.1600 C.ar   28  G28         0.3023
    291  O6        13.5350   10.9750    4.4890 O.2    28  G28        -0.2633
    292  N7        15.8440    9.7960    6.1950 N.ar   28  G28        -0.2173
    293  C8        16.8640    9.9200    7.0000 C.ar   28  G28         0.1817
    294  N9        17.1450   11.2260    7.3190 N.ar   28  G28        -0.2693
    295  OP1       18.4210    5.9870   10.7880 O.3    28  G28        -0.4373
    296  OP2       16.9480    6.0350    8.6860 O.co2  28  G28        -0.5172
    297  P         15.8440   11.1350   12.3390 P.3    29  U29         0.2141
    298  C5'       15.9930   13.7470   12.3360 C.3    29  U29         0.1812
    299  O5'       15.3260   12.5720   11.8900 O.3    29  U29        -0.3114
    300  C4'       15.3210   14.9680   11.7690 C.3    29  U29         0.1773
    301  O4'       15.4080   14.9360   10.3200 O.3    29  U29        -0.3307
    302  C3'       13.8240   15.0590   11.9950 C.3    29  U29         0.1860
    303  O3'       13.4910   15.4650   13.3120 O.3    29  U29        -0.3112
    304  C2'       13.4480   16.0910   10.9480 C.3    29  U29         0.2309
    305  O2'       13.8500   17.4010   11.3000 O.3    29  U29        -0.2156
    306  C1'       14.2830   15.5960    9.7680 C.3    29  U29         0.2420
    307  N1        13.5310   14.6390    8.9480 N.ar   29  U29        -0.2534
    308  C2        12.6600   15.1650    8.0280 C.ar   29  U29         0.3546
    309  O2        12.5240   16.3660    7.8630 O.2    29  U29        -0.2443
    310  N3        11.9550   14.2410    7.3030 N.ar   29  U29        -0.1530
    311  C4        12.0370   12.8680    7.4000 C.ar   29  U29         0.2846
    312  O4        11.3260   12.1730    6.6760 O.2    29  U29        -0.2650
    313  C5        12.9730   12.3920    8.3710 C.ar   29  U29         0.0814
    314  C6        13.6740   13.2740    9.0970 C.ar   29  U29         0.0870
    315  OP1       16.0130   11.1580   13.8090 O.3    29  U29        -0.4373
    316  OP2       14.9560   10.1190   11.7190 O.co2  29  U29        -0.5172
    317  P         12.1790   14.8570   14.0210 P.3    30  C30         0.2141
    318  C5'       10.7390   16.8070   13.0370 C.3    30  C30         0.1812
    319  O5'       10.9630   15.4120   13.1570 O.3    30  C30        -0.3114
    320  C4'        9.6800   17.0720   12.0040 C.3    30  C30         0.1773
    321  O4'       10.0960   16.5170   10.7270 O.3    30  C30        -0.3307
    322  C3'        8.3300   16.4110   12.2330 C.3    30  C30         0.1860
    323  O3'        7.5570   17.1440   13.1730 O.3    30  C30        -0.3112
    324  C2'        7.7290   16.4960   10.8390 C.3    30  C30         0.2309
    325  O2'        7.2790   17.7950   10.5180 O.3    30  C30        -0.2156
    326  C1'        8.9440   16.1550    9.9770 C.3    30  C30         0.2420
    327  N1         8.9960   14.7160    9.6870 N.ar   30  C30        -0.2535
    328  C2         8.0750   14.1940    8.7740 C.ar   30  C30         0.3532
    329  O2         7.2560   14.9700    8.2370 O.2    30  C30        -0.2443
    330  N3         8.0910   12.8650    8.5010 N.ar   30  C30        -0.1739
    331  C4         8.9760   12.0710    9.1080 C.ar   30  C30         0.1759
    332  N4         8.9390   10.7660    8.8210 N.pl3  30  C30        -0.1070
    333  C5         9.9340   12.5790   10.0380 C.ar   30  C30         0.0566
    334  C6         9.9090   13.8980   10.2950 C.ar   30  C30         0.0850
    335  OP1       12.1090   15.4650   15.3710 O.3    30  C30        -0.4373
    336  OP2       12.1940   13.3770   13.8760 O.co2  30  C30        -0.5172
    337  P          6.3860   16.4050   14.0000 P.3    31  G31         0.2141
    338  C5'        4.6380   16.9870   12.1490 C.3    31  G31         0.1812
    339  O5'        5.3110   15.9950   12.9070 O.3    31  G31        -0.3114
    340  C4'        3.6720   16.3380   11.2020 C.3    31  G31         0.1773
    341  O4'        4.4090   15.5540   10.2270 O.3    31  G31        -0.3307
    342  C3'        2.7270   15.3290   11.8300 C.3    31  G31         0.1860
    343  O3'        1.6150   15.9800   12.4370 O.3    31  G31        -0.3112
    344  C2'        2.3140   14.5070   10.6190 C.3    31  G31         0.2309
    345  O2'        1.3250   15.1210    9.8240 O.3    31  G31        -0.2156
    346  C1'        3.6300   14.4320    9.8420 C.3    31  G31         0.2408
    347  N1         4.0800    9.4420    8.9920 N.ar   31  G31        -0.1709
    348  C2         3.1160   10.3230    8.5510 C.ar   31  G31         0.2606
    349  N2         2.1410    9.8150    7.7930 N.pl3  31  G31        -0.0859
    350  N3         3.1040   11.6150    8.8470 N.ar   31  G31        -0.1918
    351  C4         4.1270   11.9580    9.6580 C.ar   31  G31         0.1723
    352  C5         5.1240   11.1570   10.1710 C.ar   31  G31         0.1748
    353  C6         5.1500    9.7790    9.8200 C.ar   31  G31         0.3023
    354  O6         5.9800    8.9180   10.1460 O.2    31  G31        -0.2633
    355  N7         5.9820   11.8960   10.9740 N.ar   31  G31        -0.2173
    356  C8         5.5070   13.1120   10.9250 C.ar   31  G31         0.1817
    357  N9         4.3900   13.2210   10.1360 N.ar   31  G31        -0.2693
    358  OP1        5.7840   17.4450   14.8650 O.3    31  G31        -0.4373
    359  OP2        6.9160   15.1590   14.5980 O.co2  31  G31        -0.5172
    360  P          0.9490   15.3530   13.7590 P.3    32  C32         0.2141
    361  C5'       -0.8730   14.2390   12.2310 C.3    32  C32         0.1812
    362  O5'        0.1450   14.0920   13.2150 O.3    32  C32        -0.3114
    363  C4'       -1.3610   12.8790   11.7910 C.3    32  C32         0.1773
    364  O4'       -0.3220   12.2060   11.0300 O.3    32  C32        -0.3307
    365  C3'       -1.6540   11.8990   12.9160 C.3    32  C32         0.1860
    366  O3'       -2.9190   12.1330   13.5200 O.3    32  C32        -0.3112
    367  C2'       -1.5960   10.5750   12.1750 C.3    32  C32         0.2309
    368  O2'       -2.7220   10.3880   11.3420 O.3    32  C32        -0.2156
    369  C1'       -0.3750   10.8070   11.2870 C.3    32  C32         0.2420
    370  N1         0.9030   10.3900   11.8940 N.ar   32  C32        -0.2535
    371  C2         1.2110    9.0220   11.9400 C.ar   32  C32         0.3532
    372  O2         0.3620    8.2010   11.5510 O.2    32  C32        -0.2443
    373  N3         2.4190    8.6310   12.4160 N.ar   32  C32        -0.1739
    374  C4         3.2920    9.5460   12.8540 C.ar   32  C32         0.1759
    375  N4         4.4840    9.1210   13.2860 N.pl3  32  C32        -0.1070
    376  C5         2.9830   10.9380   12.8630 C.ar   32  C32         0.0566
    377  C6         1.7900   11.3110   12.3800 C.ar   32  C32         0.0850
    378  OP1       -0.0230   16.3570   14.2620 O.2    32  C32        -0.5172
    379  OP2        2.0110   14.8580   14.6620 O.co2  32  C32        -0.4373
    380  P         -3.1040   11.8790   15.0940 P.3    33  G33         0.2141
    381  C5'       -4.2740    9.5950   14.5320 C.3    33  G33         0.1813
    382  O5'       -3.2470   10.2970   15.2230 O.3    33  G33        -0.3114
    383  C4'       -4.0470    8.1080   14.6370 C.3    33  G33         0.1801
    384  O4'       -2.8200    7.7510   13.9460 O.3    33  G33        -0.3306
    385  C3'       -3.8370    7.5750   16.0440 C.3    33  G33         0.2161
    386  O3'       -5.0850    7.3760   16.6890 O.3    33  G33        -0.2175
    387  C2'       -3.1100    6.2630   15.7750 C.3    33  G33         0.2337
    388  O2'       -3.9790    5.2450   15.3330 O.3    33  G33        -0.2155
    389  C1'       -2.2140    6.6530   14.6020 C.3    33  G33         0.2409
    390  N1         2.3230    4.9430   16.0760 N.ar   33  G33        -0.1709
    391  C2         1.1490    4.2550   15.8860 C.ar   33  G33         0.2606
    392  N2         1.2030    2.9260   16.0810 N.pl3  33  G33        -0.0859
    393  N3         0.0070    4.8250   15.5280 N.ar   33  G33        -0.1918
    394  C4         0.1340    6.1610   15.3810 C.ar   33  G33         0.1723
    395  C5         1.2570    6.9460   15.5570 C.ar   33  G33         0.1748
    396  C6         2.4800    6.3170   15.9210 C.ar   33  G33         0.3023
    397  O6         3.5880    6.8290   16.0860 O.2    33  G33        -0.2633
    398  N7         0.9630    8.2840   15.3270 N.ar   33  G33        -0.2173
    399  C8        -0.3040    8.2850   14.9980 C.ar   33  G33         0.1817
    400  N9        -0.8580    7.0270   14.9880 N.ar   33  G33        -0.2693
    401  OP1       -4.3970   12.4950   15.4790 O.2    33  G33        -0.5172
    402  OP2       -1.8590   12.2740   15.8020 O.co2  33  G33        -0.4373
@<TRIPOS>BOND
     1   219   218    1
     2   253   231    2
     3   223   222    2
     4    77    76   ar
     5    77    78   ar
     6   218   216    1
     7   218   220    1
     8   222   224   ar
     9   222   221   ar
    10   224   225   ar
    11    76    81   ar
    12   216   217    1
    13   216   214    1
    14    78    79   ar
    15   217   231    1
    16   231   252    1
    17   231   233    1
    18   226   225    2
    19   221   220    1
    20   221   228   ar
    21   220   215    1
    22   225   227   ar
    23   149   131    2
    24   129   111    2
    25   189   188    1
    26   109    88    2
    27   233   232    1
    28   193   174    2
    29    54    55   ar
    30    54    59   ar
    31   173   151    2
    32    81    82    1
    33    81    80   ar
    34   249   250   ar
    35   249   246   ar
    36   248   247    2
    37   214   212    1
    38   214   215    1
    39    79    80   ar
    40    79    85   ar
    41   212   213    1
    42    55    56   ar
    43   172   151    1
    44   150   131    1
    45   228   227   ar
    46   250   251   ar
    47   230   211    2
    48   188   190   ar
    49   188   187   ar
    50   190   191   ar
    51    60    59    1
    52   192   174    1
    53   131   133    1
    54   131   117    1
    55   247   246   ar
    56   247   241   ar
    57   246   245   ar
    58   130   111    1
    59   111    94    1
    60   111   113    1
    61   180   179    1
    62    80    83   ar
    63   151   137    1
    64   151   153    1
    65    59    58   ar
    66   174   176    1
    67   174   157    1
    68    72    88    1
    69    72    71    1
    70    75    70    1
    71    75    85    1
    72    75    73    1
    73   235   240    1
    74   235   234    1
    75    70    69    1
    76   187   185   ar
    77   251   245   ar
    78   251   240    1
    79    88   110    1
    80    88    90    1
    81   133   132    1
    82    85    84   ar
    83   191   184   ar
    84   176   175    1
    85   179   181    1
    86   179   177    1
    87    94    93    1
    88   245   244   ar
    89   232   234    1
    90   241   242   ar
    91    56    57   ar
    92   213   211    1
    93    89    90    1
    94    89    91    1
    95   240   238    1
    96    69    71    1
    97    69    67    1
    98   181   182    1
    99   181   183    1
   100   185   184   ar
   101   185   186    2
   102   137   136    1
   103    74    73    1
   104   211   199    1
   105   211   229    1
   106   184   183    1
   107   132   134    1
   108   117   116    1
   109   234   236    1
   110   113   112    1
   111    71    73    1
   112   153   152    1
   113   242   244   ar
   114   242   243    1
   115    58    57   ar
   116    58    61   ar
   117    83    84   ar
   118   175   177    1
   119   199   198    1
   120   112   114    1
   121   157   156    1
   122    57    63   ar
   123    91    93    1
   124    91    92    1
   125   136   134    1
   126   136   138    1
   127    93    95    1
   128   177   178    1
   129   183   178    1
   130   205   204    2
   131   116   114    1
   132   116   118    1
   133   169   170   ar
   134   169   166   ar
   135   156   154    1
   136   156   158    1
   137   134   135    1
   138    67    68    1
   139   168   167    2
   140   152   154    1
   141   147   148   ar
   142   147   145   ar
   143   238   236    1
   144   238   239    1
   145   170   171   ar
   146   114   115    1
   147   148   141   ar
   148   236   237    1
   149   269   268    1
   150    61    62   ar
   151   166   167   ar
   152   166   165   ar
   153    96    95    1
   154   167   161   ar
   155   196   198    1
   156   196   197    1
   157   196   194    1
   158   198   200    1
   159    63    62   ar
   160    63    53    1
   161   197   202    1
   162   202   200    1
   163   202   203    1
   164    95    97    1
   165   138   140    1
   166   138   139    1
   167   154   155    1
   168    92    97    1
   169   146   145    1
   170   204   203   ar
   171   204   206   ar
   172   158   160    1
   173   158   159    1
   174   135   140    1
   175   145   144   ar
   176    68    66    1
   177    52    51    1
   178   201   200    1
   179   171   165   ar
   180   171   160    1
   181   268   270   ar
   182   268   267   ar
   183   118   119    1
   184   118   120    1
   185   141   140    1
   186   141   142   ar
   187   165   164   ar
   188    53    51    1
   189    53    48    1
   190   161   162   ar
   191   237   254    1
   192   270   271   ar
   193   128   127   ar
   194   128   121   ar
   195   203   210   ar
   196   115   120    1
   197   267   265   ar
   198   195   194    1
   199   155   160    1
   200   127   125   ar
   201    97   108    1
   202   206   207   ar
   203   144   142   ar
   204    51    49    1
   205   164   162   ar
   206   162   163    1
   207   142   143    2
   208   120   121    1
   209   271   264   ar
   210   121   122   ar
   211    48    47    1
   212   107   108   ar
   213   107   106   ar
   214   265   264   ar
   215   265   266    2
   216   108   102   ar
   217    50    66    1
   218    50    49    1
   219   291   290    2
   220   125   126    2
   221   125   124   ar
   222    66    86    2
   223    66    87    1
   224   273   254    2
   225   264   263    1
   226   254   256    1
   227   254   272    1
   228   210   209   ar
   229   122   124   ar
   230   122   123    2
   231   106   103   ar
   232    49    47    1
   233   207   208    2
   234   207   209   ar
   235   290   284   ar
   236   290   289   ar
   237   258   263    1
   238   258   257    1
   239   284   285   ar
   240   102   101   ar
   241   102   103   ar
   242   256   255    1
   243   263   261    1
   244    47    45    1
   245   101    99   ar
   246   103   104   ar
   247   286   285    1
   248   285   287   ar
   249   255   257    1
   250   289   292   ar
   251   289   288   ar
   252   292   293   ar
   253   257   259    1
   254    99   100    1
   255    99    98   ar
   256    45    46    1
   257   104    98   ar
   258   104   105    2
   259   288   287   ar
   260   288   294   ar
   261   312   311    2
   262   261   259    1
   263   261   262    1
   264   293   294   ar
   265   259   260    1
   266   310   311   ar
   267   310   308   ar
   268   294   283    1
   269   311   313   ar
   270    46    44    1
   271   349   348    1
   272   309   308    2
   273   308   307   ar
   274   329   328    2
   275   283   278    1
   276   283   281    1
   277   313   314   ar
   278   330   328   ar
   279   330   331   ar
   280   260   274    1
   281   348   350   ar
   282   348   347   ar
   283   278   277    1
   284   296   274    2
   285    64    44    2
   286   328   327   ar
   287   332   331    1
   288   350   351   ar
   289    44    65    1
   290    44    27    1
   291   307   314   ar
   292   307   306    1
   293   347   353   ar
   294   331   333   ar
   295   274   276    1
   296   274   295    1
   297   276   275    1
   298   281   282    1
   299   281   279    1
   300   351   357   ar
   301   351   352   ar
   302   327   326    1
   303   327   334   ar
   304   306   301    1
   305   306   304    1
   306   353   354    2
   307   353   352   ar
   308   345   344    1
   309   346   357    1
   310   346   341    1
   311   346   344    1
   312   326   321    1
   313   326   324    1
   314   277   275    1
   315   277   279    1
   316   333   334   ar
   317   357   356   ar
   318   352   355   ar
   319    27    26    1
   320   341   340    1
   321   279   280    1
   322   301   300    1
   323   325   324    1
   324   344   342    1
   325   321   320    1
   326   324   322    1
   327   356   355   ar
   328   304   305    1
   329   304   302    1
   330    29    28    1
   331   364   369    1
   332   364   363    1
   333   340   342    1
   334   340   338    1
   335   369   370    1
   336   369   367    1
   337    26    28    1
   338    26    24    1
   339   368   367    1
   340    28    30    1
   341   372   371    2
   342   280   297    1
   343   316   297    2
   344   300   302    1
   345   300   298    1
   346   363   361    1
   347   363   365    1
   348   342   343    1
   349   299   298    1
   350   299   297    1
   351   370   371   ar
   352   370   377   ar
   353   371   373   ar
   354   302   303    1
   355   320   322    1
   356   320   318    1
   357   338   339    1
   358   367   365    1
   359   361   362    1
   360   322   323    1
   361    33    32    1
   362   297   315    1
   363   377   376   ar
   364   373   374   ar
   365   343   360    1
   366    32    34   ar
   367    32    31   ar
   368    24    22    1
   369    24    25    1
   370    34    35   ar
   371    31    37   ar
   372    30    41    1
   373    30    25    1
   374   374   376   ar
   375   374   375    1
   376    42    21    2
   377   339   337    1
   378    23    22    1
   379    23    21    1
   380   365   366    1
   381    35    41   ar
   382    35    36   ar
   383    37    38    2
   384    37    36   ar
   385   318   319    1
   386    41    40   ar
   387    36    39   ar
   388   319   317    1
   389   323   337    1
   390   362   360    1
   391   303   317    1
   392    40    39   ar
   393    43    21    1
   394   366   380    1
   395    21     7    1
   396   360   378    2
   397   360   379    1
   398   336   317    2
   399   384   389    1
   400   384   383    1
   401   337   359    2
   402   337   358    1
   403   317   335    1
   404   381   383    1
   405   381   382    1
   406   389   400    1
   407   389   387    1
   408   383   385    1
   409   400   399   ar
   410   400   394   ar
   411   399   398   ar
   412     7     6    1
   413   380   382    1
   414   380   401    2
   415   380   402    1
   416   398   395   ar
   417   388   387    1
   418   394   393   ar
   419   394   395   ar
   420   393   391   ar
   421   395   396   ar
   422   387   385    1
   423   391   390   ar
   424   391   392    1
   425   396   390   ar
   426   396   397    2
   427     6     8    1
   428     6     4    1
   429   385   386    1
   430     8     9    1
   431     8    10    1
   432    16    15    1
   433    15    14   ar
   434    15    17   ar
   435    14    12   ar
   436    12    13    2
   437    12    11   ar
   438    17    18   ar
   439    20     1    1
   440    11    18   ar
   441    11    10    1
   442     3     1    1
   443     3     2    1
   444    19     1    1
   445     4     2    1
   446     4     5    1
   447    10     5    1
