ligand
  PyMOL2.2          3D                             0

 27 29  0  0  0  0  0  0  0  0999 V2000
   48.6610   58.4420   29.2340 N   0  0  0  0  0  0  0  0  0  0  0  0
   48.8920   57.7670   27.9530 C   0  0  0  0  0  0  0  0  0  0  0  0
   47.7280   58.0430   27.0180 C   0  0  0  0  0  0  0  0  0  0  0  0
   47.7470   57.6080   25.8700 O   0  0  0  0  0  0  0  0  0  0  0  0
   49.0510   56.2470   28.1560 C   0  0  0  0  0  0  0  0  0  0  0  0
   49.9240   55.9930   29.3840 C   0  0  0  0  0  0  0  0  0  0  0  0
   50.1800   54.2220   29.8110 S   0  0  0  0  0  0  0  0  0  0  0  0
   49.5470   53.3210   28.3620 C   0  0  0  0  0  0  0  0  0  0  0  0
   48.7810   54.0970   30.9450 C   0  0  0  0  0  0  0  0  0  0  0  0
   49.1420   54.3930   32.4110 C   0  0  0  0  0  0  0  0  0  0  0  0
   49.8260   55.6790   32.4830 O   0  0  0  0  0  0  0  0  0  0  0  0
   47.7930   54.6040   33.0490 C   0  0  0  0  0  0  0  0  0  0  0  0
   47.3570   53.3950   33.6710 O   0  0  0  0  0  0  0  0  0  0  0  0
   48.0450   55.6800   34.0980 C   0  0  0  0  0  0  0  0  0  0  0  0
   48.2580   55.1280   35.3920 O   0  0  0  0  0  0  0  0  0  0  0  0
   49.3150   56.4730   33.6180 C   0  0  0  0  0  0  0  0  0  0  0  0
   46.7930   58.7550   27.3850 O   0  0  0  0  0  0  0  0  0  0  0  0
   45.7940   59.7700   31.5410 N   0  0  0  0  0  0  0  0  0  0  0  0
   45.5960   58.5120   31.9500 C   0  0  0  0  0  0  0  0  0  0  0  0
   46.5780   57.7970   32.4760 N   0  0  0  0  0  0  0  0  0  0  0  0
   47.8210   58.2930   32.5910 C   0  0  0  0  0  0  0  0  0  0  0  0
   48.0840   59.6180   32.1580 C   0  0  0  0  0  0  0  0  0  0  0  0
   47.0000   60.3560   31.6190 C   0  0  0  0  0  0  0  0  0  0  0  0
   47.1790   61.6490   31.1810 N   0  0  0  0  0  0  0  0  0  0  0  0
   49.3910   59.8630   32.3790 N   0  0  0  0  0  0  0  0  0  0  0  0
   49.9410   58.8040   32.8970 C   0  0  0  0  0  0  0  0  0  0  0  0
   49.0190   57.8070   33.0550 N   0  0  0  0  0  0  0  0  0  0  0  0
  1  2  1  0  0  0  0
  2  3  1  0  0  0  0
  2  5  1  0  0  0  0
  3  4  4  0  0  0  0
  3 17  4  0  0  0  0
  5  6  1  0  0  0  0
  6  7  1  0  0  0  0
  7  8  1  0  0  0  0
  7  9  1  0  0  0  0
  9 10  1  0  0  0  0
 10 11  1  0  0  0  0
 10 12  1  0  0  0  0
 11 16  1  0  0  0  0
 12 13  1  0  0  0  0
 12 14  1  0  0  0  0
 14 15  1  0  0  0  0
 14 16  1  0  0  0  0
 16 27  1  0  0  0  0
 18 19  4  0  0  0  0
 19 20  4  0  0  0  0
 20 21  4  0  0  0  0
 21 22  4  0  0  0  0
 22 23  4  0  0  0  0
 18 23  4  0  0  0  0
 23 24  1  0  0  0  0
 22 25  4  0  0  0  0
 25 26  4  0  0  0  0
 21 27  4  0  0  0  0
 26 27  4  0  0  0  0
M  END
$$$$
