ligand
 OpenBabel11021811433D
libRbt.so/2013.1/901 2013/11/27
 27 29  0  0  0  0  0  0  0  0999 V2000
   49.1332   58.3880   29.1645 N   0  0  0  0  0  0  0  0  0  0  0  0
   49.0620   57.3947   28.0883 C   0  0  2  0  0  0  0  0  0  0  0  0
   47.8292   57.6538   27.2407 C   0  0  0  0  0  0  0  0  0  0  0  0
   46.7744   57.9819   27.7765 O   0  0  0  0  0  0  0  0  0  0  0  0
   49.0098   55.9658   28.6647 C   0  0  0  0  0  0  0  0  0  0  0  0
   50.3392   55.6516   29.3493 C   0  0  0  0  0  0  0  0  0  0  0  0
   50.4168   54.0225   30.2003 S   0  0  2  0  0  0  0  0  0  0  0  0
   49.6638   52.8664   29.0134 C   0  0  0  0  0  0  0  0  0  0  0  0
   49.0356   54.3290   31.3214 C   0  0  0  0  0  0  0  0  0  0  0  0
   49.4671   54.7131   32.7474 C   0  0  1  0  0  0  0  0  0  0  0  0
   50.0604   56.0451   32.7232 O   0  0  0  0  0  0  0  0  0  0  0  0
   48.1499   54.8583   33.4651 C   0  0  1  0  0  0  0  0  0  0  0  0
   47.8422   53.6506   34.1617 O   0  0  0  0  0  0  0  0  0  0  0  0
   48.3905   55.9941   34.4520 C   0  0  1  0  0  0  0  0  0  0  0  0
   48.7245   55.5153   35.7496 O   0  0  0  0  0  0  0  0  0  0  0  0
   49.5672   56.8510   33.8577 C   0  0  2  0  0  0  0  0  0  0  0  0
   47.8649   57.4749   26.0231 O   0  0  0  0  0  0  0  0  0  0  0  0
   45.6950   59.8011   31.8868 N   0  0  0  0  0  0  0  0  0  0  0  0
   45.6143   58.5512   32.3562 C   0  0  0  0  0  0  0  0  0  0  0  0
   46.6761   57.9299   32.8448 N   0  0  0  0  0  0  0  0  0  0  0  0
   47.8847   58.5160   32.8598 C   0  0  0  0  0  0  0  0  0  0  0  0
   48.0237   59.8362   32.3598 C   0  0  0  0  0  0  0  0  0  0  0  0
   46.8578   60.4727   31.8639 C   0  0  0  0  0  0  0  0  0  0  0  0
   46.9153   61.7549   31.3655 N   0  0  0  0  0  0  0  0  0  0  0  0
   49.3207   60.1813   32.4861 N   0  0  0  0  0  0  0  0  0  0  0  0
   49.9769   59.1866   33.0080 C   0  0  0  0  0  0  0  0  0  0  0  0
   49.1411   58.1354   33.2638 N   0  0  0  0  0  0  0  0  0  0  0  0
  2  1  1  1  0  0  0
  2  3  1  0  0  0  0
  2  5  1  0  0  0  0
  3  4  1  0  0  0  0
  3 17  1  0  0  0  0
  5  6  1  0  0  0  0
  7  6  1  6  0  0  0
  7  8  1  0  0  0  0
  7  9  1  0  0  0  0
 10  9  1  6  0  0  0
 10 11  1  0  0  0  0
 10 12  1  0  0  0  0
 11 16  1  0  0  0  0
 12 13  1  1  0  0  0
 12 14  1  0  0  0  0
 14 15  1  1  0  0  0
 14 16  1  0  0  0  0
 16 27  1  6  0  0  0
 18 19  2  0  0  0  0
 18 23  1  0  0  0  0
 19 20  1  0  0  0  0
 20 21  2  0  0  0  0
 21 22  1  0  0  0  0
 21 27  1  0  0  0  0
 22 23  2  0  0  0  0
 22 25  1  0  0  0  0
 23 24  1  0  0  0  0
 25 26  2  0  0  0  0
 26 27  1  0  0  0  0
M  END
>  <CHROM.1>
-39.92828493,-66.75398486,175.94251418,44.55566392,-101.23370048,69.82310460
95.14522399,48.53070744,56.94911779,31.33201435,2.94694801,-1.18423384,1.63265924

>  <Name>
ligand

>  <RI>
0

>  <Rbt.Current_Directory>
/home/itssahil/PROJECTS/Mol_Feturizer/New_Systems/rnas/2GIS

>  <Rbt.Executable>
rbdock ($Id: //depot/dev/client3/rdock/2013.1/src/exe/rbdock.cxx#4 $)

>  <Rbt.Library>
libRbt.so (2013.1, Build901 2013/11/27)

>  <Rbt.Parameter_File>
/export/apps/rDock/src/rDock_2013.1_src/data/scripts/dock_solv.prm

>  <Rbt.Receptor>
prm/pocket_docking_3.prm

>  <SCORE>
-18.9753

>  <SCORE.INTER>
-15.3899

>  <SCORE.INTER.CONST>
1

>  <SCORE.INTER.POLAR>
0

>  <SCORE.INTER.ROT>
7

>  <SCORE.INTER.SOLV>
21.0138

>  <SCORE.INTER.VDW>
-25.5312

>  <SCORE.INTER.norm>
-0.569997

>  <SCORE.INTRA>
-3.58539

>  <SCORE.INTRA.DIHEDRAL>
-2.89409

>  <SCORE.INTRA.DIHEDRAL.0>
9.40024

>  <SCORE.INTRA.POLAR>
0

>  <SCORE.INTRA.POLAR.0>
0

>  <SCORE.INTRA.REPUL>
0

>  <SCORE.INTRA.REPUL.0>
0

>  <SCORE.INTRA.SOLV>
-1.9838

>  <SCORE.INTRA.SOLV.lig_0>
-47.1049

>  <SCORE.INTRA.VDW>
-1.14645

>  <SCORE.INTRA.VDW.0>
-1.50278

>  <SCORE.INTRA.norm>
-0.132792

>  <SCORE.RESTR>
0

>  <SCORE.RESTR.CAVITY>
0

>  <SCORE.RESTR.norm>
0

>  <SCORE.SYSTEM>
0

>  <SCORE.SYSTEM.CONST>
0

>  <SCORE.SYSTEM.DIHEDRAL>
0

>  <SCORE.SYSTEM.SOLV>
0

>  <SCORE.SYSTEM.norm>
0

>  <SCORE.heavy>
27

>  <SCORE.norm>
-0.70279

>  <RMSD>
0.514

$$$$
ligand
 OpenBabel11021811433D
libRbt.so/2013.1/901 2013/11/27
 27 29  0  0  0  0  0  0  0  0999 V2000
   49.0753   58.2304   29.0724 N   0  0  0  0  0  0  0  0  0  0  0  0
   49.1906   57.2519   27.9864 C   0  0  2  0  0  0  0  0  0  0  0  0
   48.0713   57.4730   26.9846 C   0  0  0  0  0  0  0  0  0  0  0  0
   47.1795   58.2806   27.2297 O   0  0  0  0  0  0  0  0  0  0  0  0
   49.1239   55.8132   28.5364 C   0  0  0  0  0  0  0  0  0  0  0  0
   50.3891   55.5248   29.3431 C   0  0  0  0  0  0  0  0  0  0  0  0
   50.4141   53.9015   30.2083 S   0  0  2  0  0  0  0  0  0  0  0  0
   49.6719   52.7497   29.0106 C   0  0  0  0  0  0  0  0  0  0  0  0
   49.0093   54.2422   31.2896 C   0  0  0  0  0  0  0  0  0  0  0  0
   49.4101   54.6504   32.7179 C   0  0  1  0  0  0  0  0  0  0  0  0
   50.0137   55.9775   32.6825 O   0  0  0  0  0  0  0  0  0  0  0  0
   48.0775   54.8185   33.4014 C   0  0  1  0  0  0  0  0  0  0  0  0
   47.7445   53.6264   34.1132 O   0  0  0  0  0  0  0  0  0  0  0  0
   48.3033   55.9712   34.3721 C   0  0  1  0  0  0  0  0  0  0  0  0
   48.6032   55.5148   35.6860 O   0  0  0  0  0  0  0  0  0  0  0  0
   49.5000   56.8083   33.7896 C   0  0  2  0  0  0  0  0  0  0  0  0
   48.0185   56.8000   25.9550 O   0  0  0  0  0  0  0  0  0  0  0  0
   45.6543   59.8491   31.9067 N   0  0  0  0  0  0  0  0  0  0  0  0
   45.5456   58.6262   32.4376 C   0  0  0  0  0  0  0  0  0  0  0  0
   46.6055   57.9774   32.8935 N   0  0  0  0  0  0  0  0  0  0  0  0
   47.8378   58.5057   32.8125 C   0  0  0  0  0  0  0  0  0  0  0  0
   48.0061   59.7946   32.2443 C   0  0  0  0  0  0  0  0  0  0  0  0
   46.8427   60.4632   31.7864 C   0  0  0  0  0  0  0  0  0  0  0  0
   46.9280   61.7181   31.2263 N   0  0  0  0  0  0  0  0  0  0  0  0
   49.3224   60.0830   32.2805 N   0  0  0  0  0  0  0  0  0  0  0  0
   49.9631   59.0823   32.8101 C   0  0  0  0  0  0  0  0  0  0  0  0
   49.0976   58.0842   33.1617 N   0  0  0  0  0  0  0  0  0  0  0  0
  2  1  1  1  0  0  0
  2  3  1  0  0  0  0
  2  5  1  0  0  0  0
  3  4  1  0  0  0  0
  3 17  1  0  0  0  0
  5  6  1  0  0  0  0
  7  6  1  6  0  0  0
  7  8  1  0  0  0  0
  7  9  1  0  0  0  0
 10  9  1  6  0  0  0
 10 11  1  0  0  0  0
 10 12  1  0  0  0  0
 11 16  1  0  0  0  0
 12 13  1  1  0  0  0
 12 14  1  0  0  0  0
 14 15  1  1  0  0  0
 14 16  1  0  0  0  0
 16 27  1  6  0  0  0
 18 19  2  0  0  0  0
 18 23  1  0  0  0  0
 19 20  1  0  0  0  0
 20 21  2  0  0  0  0
 21 22  1  0  0  0  0
 21 27  1  0  0  0  0
 22 23  2  0  0  0  0
 22 25  1  0  0  0  0
 23 24  1  0  0  0  0
 25 26  2  0  0  0  0
 26 27  1  0  0  0  0
M  END
>  <CHROM.1>
-7.08587684,-68.98395326,174.58183120,40.28406101,-100.37159004,69.93660790
100.53566647,48.53792661,56.87470795,31.24795214,0.69261191,1.18851838,-1.42309367

>  <Name>
ligand

>  <RI>
0

>  <Rbt.Current_Directory>
/home/itssahil/PROJECTS/Mol_Feturizer/New_Systems/rnas/2GIS

>  <Rbt.Executable>
rbdock ($Id: //depot/dev/client3/rdock/2013.1/src/exe/rbdock.cxx#4 $)

>  <Rbt.Library>
libRbt.so (2013.1, Build901 2013/11/27)

>  <Rbt.Parameter_File>
/export/apps/rDock/src/rDock_2013.1_src/data/scripts/dock_solv.prm

>  <Rbt.Receptor>
prm/pocket_docking_2.prm

>  <SCORE>
-18.7649

>  <SCORE.INTER>
-15.8242

>  <SCORE.INTER.CONST>
1

>  <SCORE.INTER.POLAR>
0

>  <SCORE.INTER.ROT>
7

>  <SCORE.INTER.SOLV>
20.5376

>  <SCORE.INTER.VDW>
-25.662

>  <SCORE.INTER.norm>
-0.58608

>  <SCORE.INTRA>
-2.94075

>  <SCORE.INTRA.DIHEDRAL>
-2.49295

>  <SCORE.INTRA.DIHEDRAL.0>
9.40024

>  <SCORE.INTRA.POLAR>
0

>  <SCORE.INTRA.POLAR.0>
0

>  <SCORE.INTRA.REPUL>
0

>  <SCORE.INTRA.REPUL.0>
0

>  <SCORE.INTRA.SOLV>
-1.9267

>  <SCORE.INTRA.SOLV.lig_0>
-47.1049

>  <SCORE.INTRA.VDW>
-0.730921

>  <SCORE.INTRA.VDW.0>
-1.50278

>  <SCORE.INTRA.norm>
-0.108917

>  <SCORE.RESTR>
0

>  <SCORE.RESTR.CAVITY>
0

>  <SCORE.RESTR.norm>
0

>  <SCORE.SYSTEM>
0

>  <SCORE.SYSTEM.CONST>
0

>  <SCORE.SYSTEM.DIHEDRAL>
0

>  <SCORE.SYSTEM.SOLV>
0

>  <SCORE.SYSTEM.norm>
0

>  <SCORE.heavy>
27

>  <SCORE.norm>
-0.694997

>  <RMSD>
0.515

$$$$
ligand
 OpenBabel11021811433D
libRbt.so/2013.1/901 2013/11/27
 27 29  0  0  0  0  0  0  0  0999 V2000
   49.0573   58.4359   29.4230 N   0  0  0  0  0  0  0  0  0  0  0  0
   49.2293   57.5537   28.2645 C   0  0  2  0  0  0  0  0  0  0  0  0
   48.1717   57.8734   27.2231 C   0  0  0  0  0  0  0  0  0  0  0  0
   48.0157   57.1294   26.2589 O   0  0  0  0  0  0  0  0  0  0  0  0
   49.1213   56.0737   28.6827 C   0  0  0  0  0  0  0  0  0  0  0  0
   50.3921   55.6684   29.4279 C   0  0  0  0  0  0  0  0  0  0  0  0
   50.3576   53.9905   30.1814 S   0  0  2  0  0  0  0  0  0  0  0  0
   49.5435   52.9569   28.9240 C   0  0  0  0  0  0  0  0  0  0  0  0
   48.9882   54.3189   31.3109 C   0  0  0  0  0  0  0  0  0  0  0  0
   49.4348   54.7147   32.7291 C   0  0  1  0  0  0  0  0  0  0  0  0
   50.0165   56.0514   32.6898 O   0  0  0  0  0  0  0  0  0  0  0  0
   48.1256   54.8531   33.4628 C   0  0  1  0  0  0  0  0  0  0  0  0
   47.8369   53.6468   34.1700 O   0  0  0  0  0  0  0  0  0  0  0  0
   48.3693   55.9964   34.4401 C   0  0  1  0  0  0  0  0  0  0  0  0
   48.7239   55.5278   35.7360 O   0  0  0  0  0  0  0  0  0  0  0  0
   49.5312   56.8596   33.8260 C   0  0  2  0  0  0  0  0  0  0  0  0
   47.5120   58.9095   27.3069 O   0  0  0  0  0  0  0  0  0  0  0  0
   45.5948   59.7987   31.9690 N   0  0  0  0  0  0  0  0  0  0  0  0
   45.5279   58.5563   32.4601 C   0  0  0  0  0  0  0  0  0  0  0  0
   46.6060   57.9373   32.9147 N   0  0  0  0  0  0  0  0  0  0  0  0
   47.8166   58.5177   32.8719 C   0  0  0  0  0  0  0  0  0  0  0  0
   47.9409   59.8296   32.3467 C   0  0  0  0  0  0  0  0  0  0  0  0
   46.7586   60.4642   31.8888 C   0  0  0  0  0  0  0  0  0  0  0  0
   46.8013   61.7385   31.3691 N   0  0  0  0  0  0  0  0  0  0  0  0
   49.2434   60.1701   32.4151 N   0  0  0  0  0  0  0  0  0  0  0  0
   49.9160   59.1803   32.9251 C   0  0  0  0  0  0  0  0  0  0  0  0
   49.0868   58.1371   33.2304 N   0  0  0  0  0  0  0  0  0  0  0  0
  2  1  1  1  0  0  0
  2  3  1  0  0  0  0
  2  5  1  0  0  0  0
  3  4  1  0  0  0  0
  3 17  1  0  0  0  0
  5  6  1  0  0  0  0
  7  6  1  6  0  0  0
  7  8  1  0  0  0  0
  7  9  1  0  0  0  0
 10  9  1  6  0  0  0
 10 11  1  0  0  0  0
 10 12  1  0  0  0  0
 11 16  1  0  0  0  0
 12 13  1  1  0  0  0
 12 14  1  0  0  0  0
 14 15  1  1  0  0  0
 14 16  1  0  0  0  0
 16 27  1  6  0  0  0
 18 19  2  0  0  0  0
 18 23  1  0  0  0  0
 19 20  1  0  0  0  0
 20 21  2  0  0  0  0
 21 22  1  0  0  0  0
 21 27  1  0  0  0  0
 22 23  2  0  0  0  0
 22 25  1  0  0  0  0
 23 24  1  0  0  0  0
 25 26  2  0  0  0  0
 26 27  1  0  0  0  0
M  END
>  <CHROM.1>
-169.69501894,-73.89718732,172.92770421,41.01625238,-96.00830305,70.79083558
96.97866025,48.54223749,56.99138429,31.33464493,-2.91517943,-1.18468417,1.78286771

>  <Name>
ligand

>  <RI>
0

>  <Rbt.Current_Directory>
/home/itssahil/PROJECTS/Mol_Feturizer/New_Systems/rnas/2GIS

>  <Rbt.Executable>
rbdock ($Id: //depot/dev/client3/rdock/2013.1/src/exe/rbdock.cxx#4 $)

>  <Rbt.Library>
libRbt.so (2013.1, Build901 2013/11/27)

>  <Rbt.Parameter_File>
/export/apps/rDock/src/rDock_2013.1_src/data/scripts/dock_solv.prm

>  <Rbt.Receptor>
prm/pocket_docking_3.prm

>  <SCORE>
-18.9901

>  <SCORE.INTER>
-16.1743

>  <SCORE.INTER.CONST>
1

>  <SCORE.INTER.POLAR>
0

>  <SCORE.INTER.ROT>
7

>  <SCORE.INTER.SOLV>
20.4015

>  <SCORE.INTER.VDW>
-25.85

>  <SCORE.INTER.norm>
-0.599048

>  <SCORE.INTRA>
-2.81577

>  <SCORE.INTRA.DIHEDRAL>
-2.52158

>  <SCORE.INTRA.DIHEDRAL.0>
9.40024

>  <SCORE.INTRA.POLAR>
0

>  <SCORE.INTRA.POLAR.0>
0

>  <SCORE.INTRA.REPUL>
0

>  <SCORE.INTRA.REPUL.0>
0

>  <SCORE.INTRA.SOLV>
-1.09978

>  <SCORE.INTRA.SOLV.lig_0>
-47.1049

>  <SCORE.INTRA.VDW>
-1.00509

>  <SCORE.INTRA.VDW.0>
-1.50278

>  <SCORE.INTRA.norm>
-0.104288

>  <SCORE.RESTR>
0

>  <SCORE.RESTR.CAVITY>
0

>  <SCORE.RESTR.norm>
0

>  <SCORE.SYSTEM>
0

>  <SCORE.SYSTEM.CONST>
0

>  <SCORE.SYSTEM.DIHEDRAL>
0

>  <SCORE.SYSTEM.SOLV>
0

>  <SCORE.SYSTEM.norm>
0

>  <SCORE.heavy>
27

>  <SCORE.norm>
-0.703335

>  <RMSD>
0.522

$$$$
ligand
 OpenBabel11021811433D
libRbt.so/2013.1/901 2013/11/27
 27 29  0  0  0  0  0  0  0  0999 V2000
   48.8978   58.1249   29.5800 N   0  0  0  0  0  0  0  0  0  0  0  0
   49.3596   57.4373   28.3700 C   0  0  2  0  0  0  0  0  0  0  0  0
   48.4364   57.7739   27.2126 C   0  0  0  0  0  0  0  0  0  0  0  0
   48.3863   57.0352   26.2332 O   0  0  0  0  0  0  0  0  0  0  0  0
   49.3924   55.9112   28.5864 C   0  0  0  0  0  0  0  0  0  0  0  0
   50.4518   55.5753   29.6349 C   0  0  0  0  0  0  0  0  0  0  0  0
   50.3741   53.8649   30.3078 S   0  0  2  0  0  0  0  0  0  0  0  0
   49.6101   52.8967   28.9695 C   0  0  0  0  0  0  0  0  0  0  0  0
   48.9582   54.1520   31.3903 C   0  0  0  0  0  0  0  0  0  0  0  0
   49.3446   54.5640   32.8214 C   0  0  1  0  0  0  0  0  0  0  0  0
   49.9671   55.8824   32.7860 O   0  0  0  0  0  0  0  0  0  0  0  0
   48.0050   54.7552   33.4849 C   0  0  1  0  0  0  0  0  0  0  0  0
   47.6454   53.5725   34.1996 O   0  0  0  0  0  0  0  0  0  0  0  0
   48.2332   55.9109   34.4512 C   0  0  1  0  0  0  0  0  0  0  0  0
   48.5082   55.4592   35.7721 O   0  0  0  0  0  0  0  0  0  0  0  0
   49.4496   56.7275   33.8804 C   0  0  2  0  0  0  0  0  0  0  0  0
   47.7841   58.8181   27.2230 O   0  0  0  0  0  0  0  0  0  0  0  0
   45.6739   59.8078   31.9214 N   0  0  0  0  0  0  0  0  0  0  0  0
   45.5407   58.5899   32.4582 C   0  0  0  0  0  0  0  0  0  0  0  0
   46.5848   57.9298   32.9339 N   0  0  0  0  0  0  0  0  0  0  0  0
   47.8253   58.4409   32.8680 C   0  0  0  0  0  0  0  0  0  0  0  0
   48.0195   59.7237   32.2945 C   0  0  0  0  0  0  0  0  0  0  0  0
   46.8722   60.4050   31.8151 C   0  0  0  0  0  0  0  0  0  0  0  0
   46.9828   61.6550   31.2486 N   0  0  0  0  0  0  0  0  0  0  0  0
   49.3389   59.9946   32.3485 N   0  0  0  0  0  0  0  0  0  0  0  0
   49.9580   58.9888   32.8938 C   0  0  0  0  0  0  0  0  0  0  0  0
   49.0739   58.0046   33.2386 N   0  0  0  0  0  0  0  0  0  0  0  0
  2  1  1  1  0  0  0
  2  3  1  0  0  0  0
  2  5  1  0  0  0  0
  3  4  1  0  0  0  0
  3 17  1  0  0  0  0
  5  6  1  0  0  0  0
  7  6  1  6  0  0  0
  7  8  1  0  0  0  0
  7  9  1  0  0  0  0
 10  9  1  6  0  0  0
 10 11  1  0  0  0  0
 10 12  1  0  0  0  0
 11 16  1  0  0  0  0
 12 13  1  1  0  0  0
 12 14  1  0  0  0  0
 14 15  1  1  0  0  0
 14 16  1  0  0  0  0
 16 27  1  6  0  0  0
 18 19  2  0  0  0  0
 18 23  1  0  0  0  0
 19 20  1  0  0  0  0
 20 21  2  0  0  0  0
 21 22  1  0  0  0  0
 21 27  1  0  0  0  0
 22 23  2  0  0  0  0
 22 25  1  0  0  0  0
 23 24  1  0  0  0  0
 25 26  2  0  0  0  0
 26 27  1  0  0  0  0
M  END
>  <CHROM.1>
-158.70431712,-65.83225834,166.47343570,26.91376728,-92.41940604,67.03739676
100.48270403,48.57649790,56.88324396,31.35813009,-2.56163635,-1.18772541
1.91921720

>  <Name>
ligand

>  <RI>
0

>  <Rbt.Current_Directory>
/home/itssahil/PROJECTS/Mol_Feturizer/New_Systems/rnas/2GIS

>  <Rbt.Executable>
rbdock ($Id: //depot/dev/client3/rdock/2013.1/src/exe/rbdock.cxx#4 $)

>  <Rbt.Library>
libRbt.so (2013.1, Build901 2013/11/27)

>  <Rbt.Parameter_File>
/export/apps/rDock/src/rDock_2013.1_src/data/scripts/dock_solv.prm

>  <Rbt.Receptor>
prm/pocket_docking_2.prm

>  <SCORE>
-18.2224

>  <SCORE.INTER>
-16.467

>  <SCORE.INTER.CONST>
1

>  <SCORE.INTER.POLAR>
0

>  <SCORE.INTER.ROT>
7

>  <SCORE.INTER.SOLV>
18.9011

>  <SCORE.INTER.VDW>
-25.545

>  <SCORE.INTER.norm>
-0.609889

>  <SCORE.INTRA>
-1.75546

>  <SCORE.INTRA.DIHEDRAL>
-2.08976

>  <SCORE.INTRA.DIHEDRAL.0>
9.40024

>  <SCORE.INTRA.POLAR>
0

>  <SCORE.INTRA.POLAR.0>
0

>  <SCORE.INTRA.REPUL>
0

>  <SCORE.INTRA.REPUL.0>
0

>  <SCORE.INTRA.SOLV>
-0.291459

>  <SCORE.INTRA.SOLV.lig_0>
-47.1049

>  <SCORE.INTRA.VDW>
-0.564844

>  <SCORE.INTRA.VDW.0>
-1.50278

>  <SCORE.INTRA.norm>
-0.0650169

>  <SCORE.RESTR>
0.000104236

>  <SCORE.RESTR.CAVITY>
0.000104236

>  <SCORE.RESTR.norm>
3.86059e-06

>  <SCORE.SYSTEM>
0

>  <SCORE.SYSTEM.CONST>
0

>  <SCORE.SYSTEM.DIHEDRAL>
0

>  <SCORE.SYSTEM.SOLV>
0

>  <SCORE.SYSTEM.norm>
0

>  <SCORE.heavy>
27

>  <SCORE.norm>
-0.674902

>  <RMSD>
0.549

$$$$
ligand
 OpenBabel11021811433D
libRbt.so/2013.1/901 2013/11/27
 27 29  0  0  0  0  0  0  0  0999 V2000
   49.0918   58.5374   29.5895 N   0  0  0  0  0  0  0  0  0  0  0  0
   49.1366   57.5871   28.4738 C   0  0  2  0  0  0  0  0  0  0  0  0
   48.0289   57.9116   27.4874 C   0  0  0  0  0  0  0  0  0  0  0  0
   47.0115   58.4805   27.8730 O   0  0  0  0  0  0  0  0  0  0  0  0
   48.9783   56.1397   28.9807 C   0  0  0  0  0  0  0  0  0  0  0  0
   50.2390   55.7338   29.7426 C   0  0  0  0  0  0  0  0  0  0  0  0
   50.2491   54.0074   30.3781 S   0  0  2  0  0  0  0  0  0  0  0  0
   49.4494   53.0445   29.0570 C   0  0  0  0  0  0  0  0  0  0  0  0
   48.8813   54.2244   31.5361 C   0  0  0  0  0  0  0  0  0  0  0  0
   49.3269   54.6054   32.9585 C   0  0  1  0  0  0  0  0  0  0  0  0
   49.9317   55.9322   32.9291 O   0  0  0  0  0  0  0  0  0  0  0  0
   48.0164   54.7626   33.6860 C   0  0  1  0  0  0  0  0  0  0  0  0
   47.7034   53.5579   34.3856 O   0  0  0  0  0  0  0  0  0  0  0  0
   48.2744   55.8966   34.6704 C   0  0  1  0  0  0  0  0  0  0  0  0
   48.6139   55.4156   35.9657 O   0  0  0  0  0  0  0  0  0  0  0  0
   49.4540   56.7429   34.0668 C   0  0  2  0  0  0  0  0  0  0  0  0
   48.1180   57.5504   26.3137 O   0  0  0  0  0  0  0  0  0  0  0  0
   45.6545   59.6328   31.8775 N   0  0  0  0  0  0  0  0  0  0  0  0
   45.5773   58.3682   32.3061 C   0  0  0  0  0  0  0  0  0  0  0  0
   46.6173   57.7647   32.8598 N   0  0  0  0  0  0  0  0  0  0  0  0
   47.8019   58.3856   32.9846 C   0  0  0  0  0  0  0  0  0  0  0  0
   47.9374   59.7231   32.5318 C   0  0  0  0  0  0  0  0  0  0  0  0
   46.7938   60.3388   31.9632 C   0  0  0  0  0  0  0  0  0  0  0  0
   46.8490   61.6359   31.5047 N   0  0  0  0  0  0  0  0  0  0  0  0
   49.2091   60.1024   32.7681 N   0  0  0  0  0  0  0  0  0  0  0  0
   49.8542   59.1130   33.3134 C   0  0  0  0  0  0  0  0  0  0  0  0
   49.0347   58.0307   33.4754 N   0  0  0  0  0  0  0  0  0  0  0  0
  2  1  1  1  0  0  0
  2  3  1  0  0  0  0
  2  5  1  0  0  0  0
  3  4  1  0  0  0  0
  3 17  1  0  0  0  0
  5  6  1  0  0  0  0
  7  6  1  6  0  0  0
  7  8  1  0  0  0  0
  7  9  1  0  0  0  0
 10  9  1  6  0  0  0
 10 11  1  0  0  0  0
 10 12  1  0  0  0  0
 11 16  1  0  0  0  0
 12 13  1  1  0  0  0
 12 14  1  0  0  0  0
 14 15  1  1  0  0  0
 14 16  1  0  0  0  0
 16 27  1  6  0  0  0
 18 19  2  0  0  0  0
 18 23  1  0  0  0  0
 19 20  1  0  0  0  0
 20 21  2  0  0  0  0
 21 22  1  0  0  0  0
 21 27  1  0  0  0  0
 22 23  2  0  0  0  0
 22 25  1  0  0  0  0
 23 24  1  0  0  0  0
 25 26  2  0  0  0  0
 26 27  1  0  0  0  0
M  END
>  <CHROM.1>
-26.44500655,-70.22155368,-178.13799246,38.40033216,-92.91759190,66.15617871
89.52592526,48.46752255,56.93494487,31.53114585,-2.17845557,-1.20056255,1.75784064

>  <Name>
ligand

>  <RI>
0

>  <Rbt.Current_Directory>
/home/itssahil/PROJECTS/Mol_Feturizer/New_Systems/rnas/2GIS

>  <Rbt.Executable>
rbdock ($Id: //depot/dev/client3/rdock/2013.1/src/exe/rbdock.cxx#4 $)

>  <Rbt.Library>
libRbt.so (2013.1, Build901 2013/11/27)

>  <Rbt.Parameter_File>
/export/apps/rDock/src/rDock_2013.1_src/data/scripts/dock_solv.prm

>  <Rbt.Receptor>
prm/pocket_docking_2.prm

>  <SCORE>
-19.302

>  <SCORE.INTER>
-15.3761

>  <SCORE.INTER.CONST>
1

>  <SCORE.INTER.POLAR>
0

>  <SCORE.INTER.ROT>
7

>  <SCORE.INTER.SOLV>
20.0901

>  <SCORE.INTER.VDW>
-25.2141

>  <SCORE.INTER.norm>
-0.569487

>  <SCORE.INTRA>
-3.92581

>  <SCORE.INTRA.DIHEDRAL>
-3.53441

>  <SCORE.INTRA.DIHEDRAL.0>
9.40024

>  <SCORE.INTRA.POLAR>
0

>  <SCORE.INTRA.POLAR.0>
0

>  <SCORE.INTRA.REPUL>
0

>  <SCORE.INTRA.REPUL.0>
0

>  <SCORE.INTRA.SOLV>
-1.11105

>  <SCORE.INTRA.SOLV.lig_0>
-47.1049

>  <SCORE.INTRA.VDW>
-1.60308

>  <SCORE.INTRA.VDW.0>
-1.50278

>  <SCORE.INTRA.norm>
-0.1454

>  <SCORE.RESTR>
0

>  <SCORE.RESTR.CAVITY>
0

>  <SCORE.RESTR.norm>
0

>  <SCORE.SYSTEM>
0

>  <SCORE.SYSTEM.CONST>
0

>  <SCORE.SYSTEM.DIHEDRAL>
0

>  <SCORE.SYSTEM.SOLV>
0

>  <SCORE.SYSTEM.norm>
0

>  <SCORE.heavy>
27

>  <SCORE.norm>
-0.714887

>  <RMSD>
0.577

$$$$
ligand
 OpenBabel11021811433D
libRbt.so/2013.1/901 2013/11/27
 27 29  0  0  0  0  0  0  0  0999 V2000
   49.0577   58.0412   29.2990 N   0  0  0  0  0  0  0  0  0  0  0  0
   49.0391   56.9933   28.2735 C   0  0  2  0  0  0  0  0  0  0  0  0
   47.9059   57.2588   27.2985 C   0  0  0  0  0  0  0  0  0  0  0  0
   46.7468   57.2981   27.7014 O   0  0  0  0  0  0  0  0  0  0  0  0
   48.8623   55.6026   28.9151 C   0  0  0  0  0  0  0  0  0  0  0  0
   50.1162   55.2562   29.7167 C   0  0  0  0  0  0  0  0  0  0  0  0
   50.0820   53.6203   30.5574 S   0  0  2  0  0  0  0  0  0  0  0  0
   49.1465   52.5552   29.4162 C   0  0  0  0  0  0  0  0  0  0  0  0
   48.8090   54.0535   31.7618 C   0  0  0  0  0  0  0  0  0  0  0  0
   49.3682   54.4739   33.1321 C   0  0  1  0  0  0  0  0  0  0  0  0
   50.0283   55.7677   33.0008 O   0  0  0  0  0  0  0  0  0  0  0  0
   48.1194   54.7247   33.9376 C   0  0  1  0  0  0  0  0  0  0  0  0
   47.8018   53.5677   34.7116 O   0  0  0  0  0  0  0  0  0  0  0  0
   48.4952   55.8866   34.8490 C   0  0  1  0  0  0  0  0  0  0  0  0
   48.9014   55.4462   36.1395 O   0  0  0  0  0  0  0  0  0  0  0  0
   49.6671   56.6486   34.1292 C   0  0  2  0  0  0  0  0  0  0  0  0
   48.1373   57.3721   26.0946 O   0  0  0  0  0  0  0  0  0  0  0  0
   45.8802   59.5822   31.9763 N   0  0  0  0  0  0  0  0  0  0  0  0
   45.7801   58.3359   32.4515 C   0  0  0  0  0  0  0  0  0  0  0  0
   46.8207   57.7188   32.9887 N   0  0  0  0  0  0  0  0  0  0  0  0
   48.0275   58.3054   33.0494 C   0  0  0  0  0  0  0  0  0  0  0  0
   48.1873   59.6217   32.5454 C   0  0  0  0  0  0  0  0  0  0  0  0
   47.0431   60.2540   31.9965 C   0  0  0  0  0  0  0  0  0  0  0  0
   47.1212   61.5323   31.4911 N   0  0  0  0  0  0  0  0  0  0  0  0
   49.4779   59.9681   32.7228 N   0  0  0  0  0  0  0  0  0  0  0  0
   50.1118   58.9778   33.2793 C   0  0  0  0  0  0  0  0  0  0  0  0
   49.2661   57.9283   33.5082 N   0  0  0  0  0  0  0  0  0  0  0  0
  2  1  1  1  0  0  0
  2  3  1  0  0  0  0
  2  5  1  0  0  0  0
  3  4  1  0  0  0  0
  3 17  1  0  0  0  0
  5  6  1  0  0  0  0
  7  6  1  6  0  0  0
  7  8  1  0  0  0  0
  7  9  1  0  0  0  0
 10  9  1  6  0  0  0
 10 11  1  0  0  0  0
 10 12  1  0  0  0  0
 11 16  1  0  0  0  0
 12 13  1  1  0  0  0
 12 14  1  0  0  0  0
 14 15  1  1  0  0  0
 14 16  1  0  0  0  0
 16 27  1  6  0  0  0
 18 19  2  0  0  0  0
 18 23  1  0  0  0  0
 19 20  1  0  0  0  0
 20 21  2  0  0  0  0
 21 22  1  0  0  0  0
 21 27  1  0  0  0  0
 22 23  2  0  0  0  0
 22 25  1  0  0  0  0
 23 24  1  0  0  0  0
 25 26  2  0  0  0  0
 26 27  1  0  0  0  0
M  END
>  <CHROM.1>
-60.10718802,-67.91609926,179.99689271,34.65115832,-97.27003763,69.83524828
87.41995093,48.53126984,56.68500487,31.58534819,1.82422203,1.26088069,-1.63796385

>  <Name>
ligand

>  <RI>
0

>  <Rbt.Current_Directory>
/home/itssahil/PROJECTS/Mol_Feturizer/New_Systems/rnas/2GIS

>  <Rbt.Executable>
rbdock ($Id: //depot/dev/client3/rdock/2013.1/src/exe/rbdock.cxx#4 $)

>  <Rbt.Library>
libRbt.so (2013.1, Build901 2013/11/27)

>  <Rbt.Parameter_File>
/export/apps/rDock/src/rDock_2013.1_src/data/scripts/dock_solv.prm

>  <Rbt.Receptor>
prm/pocket_docking_6.prm

>  <SCORE>
-18.8495

>  <SCORE.INTER>
-15.425

>  <SCORE.INTER.CONST>
1

>  <SCORE.INTER.POLAR>
0

>  <SCORE.INTER.ROT>
7

>  <SCORE.INTER.SOLV>
19.0297

>  <SCORE.INTER.VDW>
-24.8932

>  <SCORE.INTER.norm>
-0.571296

>  <SCORE.INTRA>
-3.42456

>  <SCORE.INTRA.DIHEDRAL>
-2.58263

>  <SCORE.INTRA.DIHEDRAL.0>
9.40024

>  <SCORE.INTRA.POLAR>
0

>  <SCORE.INTRA.POLAR.0>
0

>  <SCORE.INTRA.REPUL>
0

>  <SCORE.INTRA.REPUL.0>
0

>  <SCORE.INTRA.SOLV>
-2.18026

>  <SCORE.INTRA.SOLV.lig_0>
-47.1049

>  <SCORE.INTRA.VDW>
-1.04312

>  <SCORE.INTRA.VDW.0>
-1.50278

>  <SCORE.INTRA.norm>
-0.126836

>  <SCORE.RESTR>
0

>  <SCORE.RESTR.CAVITY>
0

>  <SCORE.RESTR.norm>
0

>  <SCORE.SYSTEM>
0

>  <SCORE.SYSTEM.CONST>
0

>  <SCORE.SYSTEM.DIHEDRAL>
0

>  <SCORE.SYSTEM.SOLV>
0

>  <SCORE.SYSTEM.norm>
0

>  <SCORE.heavy>
27

>  <SCORE.norm>
-0.698131

>  <RMSD>
0.794

$$$$
ligand
 OpenBabel11021811433D
libRbt.so/2013.1/901 2013/11/27
 27 29  0  0  0  0  0  0  0  0999 V2000
   47.5726   59.2892   29.2469 N   0  0  0  0  0  0  0  0  0  0  0  0
   48.1646   58.1369   28.5602 C   0  0  2  0  0  0  0  0  0  0  0  0
   47.0977   57.4322   27.7415 C   0  0  0  0  0  0  0  0  0  0  0  0
   45.9265   57.4568   28.1092 O   0  0  0  0  0  0  0  0  0  0  0  0
   48.7810   57.1527   29.5743 C   0  0  0  0  0  0  0  0  0  0  0  0
   49.4514   56.0067   28.8181 C   0  0  0  0  0  0  0  0  0  0  0  0
   50.4211   54.8412   29.8600 S   0  0  2  0  0  0  0  0  0  0  0  0
   50.4095   53.2866   28.9139 C   0  0  0  0  0  0  0  0  0  0  0  0
   49.1131   54.5324   31.0653 C   0  0  0  0  0  0  0  0  0  0  0  0
   49.5204   54.8421   32.5162 C   0  0  1  0  0  0  0  0  0  0  0  0
   50.0902   56.1832   32.5753 O   0  0  0  0  0  0  0  0  0  0  0  0
   48.1921   54.9238   33.2236 C   0  0  1  0  0  0  0  0  0  0  0  0
   47.8974   53.6733   33.8466 O   0  0  0  0  0  0  0  0  0  0  0  0
   48.4005   56.0055   34.2763 C   0  0  1  0  0  0  0  0  0  0  0  0
   48.7272   55.4595   35.5490 O   0  0  0  0  0  0  0  0  0  0  0  0
   49.5690   56.9147   33.7470 C   0  0  2  0  0  0  0  0  0  0  0  0
   47.4101   56.7819   26.7438 O   0  0  0  0  0  0  0  0  0  0  0  0
   45.6558   59.9267   31.9593 N   0  0  0  0  0  0  0  0  0  0  0  0
   45.5892   58.6545   32.3668 C   0  0  0  0  0  0  0  0  0  0  0  0
   46.6603   58.0186   32.8146 N   0  0  0  0  0  0  0  0  0  0  0  0
   47.8644   58.6132   32.8479 C   0  0  0  0  0  0  0  0  0  0  0  0
   47.9885   59.9576   32.4126 C   0  0  0  0  0  0  0  0  0  0  0  0
   46.8132   60.6082   31.9592 C   0  0  0  0  0  0  0  0  0  0  0  0
   46.8560   61.9139   31.5244 N   0  0  0  0  0  0  0  0  0  0  0  0
   49.2839   60.3066   32.5442 N   0  0  0  0  0  0  0  0  0  0  0  0
   49.9526   59.2928   33.0104 C   0  0  0  0  0  0  0  0  0  0  0  0
   49.1274   58.2234   33.2213 N   0  0  0  0  0  0  0  0  0  0  0  0
  2  1  1  1  0  0  0
  2  3  1  0  0  0  0
  2  5  1  0  0  0  0
  3  4  1  0  0  0  0
  3 17  1  0  0  0  0
  5  6  1  0  0  0  0
  7  6  1  6  0  0  0
  7  8  1  0  0  0  0
  7  9  1  0  0  0  0
 10  9  1  6  0  0  0
 10 11  1  0  0  0  0
 10 12  1  0  0  0  0
 11 16  1  0  0  0  0
 12 13  1  1  0  0  0
 12 14  1  0  0  0  0
 14 15  1  1  0  0  0
 14 16  1  0  0  0  0
 16 27  1  6  0  0  0
 18 19  2  0  0  0  0
 18 23  1  0  0  0  0
 19 20  1  0  0  0  0
 20 21  2  0  0  0  0
 21 22  1  0  0  0  0
 21 27  1  0  0  0  0
 22 23  2  0  0  0  0
 22 25  1  0  0  0  0
 23 24  1  0  0  0  0
 25 26  2  0  0  0  0
 26 27  1  0  0  0  0
M  END
>  <CHROM.1>
-29.92658432,-176.99768687,172.79373409,154.42600618,-123.62756677,50.91751895
96.56740731,48.35728920,57.14728974,31.34177982,2.87232675,-1.12893207,1.38555529

>  <Name>
ligand

>  <RI>
0

>  <Rbt.Current_Directory>
/home/itssahil/PROJECTS/Mol_Feturizer/New_Systems/rnas/2GIS

>  <Rbt.Executable>
rbdock ($Id: //depot/dev/client3/rdock/2013.1/src/exe/rbdock.cxx#4 $)

>  <Rbt.Library>
libRbt.so (2013.1, Build901 2013/11/27)

>  <Rbt.Parameter_File>
/export/apps/rDock/src/rDock_2013.1_src/data/scripts/dock_solv.prm

>  <Rbt.Receptor>
prm/pocket_docking_2.prm

>  <SCORE>
-15.5043

>  <SCORE.INTER>
-13.1771

>  <SCORE.INTER.CONST>
1

>  <SCORE.INTER.POLAR>
0

>  <SCORE.INTER.ROT>
7

>  <SCORE.INTER.SOLV>
19.5191

>  <SCORE.INTER.VDW>
-23.5578

>  <SCORE.INTER.norm>
-0.488042

>  <SCORE.INTRA>
-2.32719

>  <SCORE.INTRA.DIHEDRAL>
-0.616982

>  <SCORE.INTRA.DIHEDRAL.0>
9.40024

>  <SCORE.INTRA.POLAR>
0

>  <SCORE.INTRA.POLAR.0>
0

>  <SCORE.INTRA.REPUL>
0

>  <SCORE.INTRA.REPUL.0>
0

>  <SCORE.INTRA.SOLV>
0.19624

>  <SCORE.INTRA.SOLV.lig_0>
-47.1049

>  <SCORE.INTRA.VDW>
-2.11682

>  <SCORE.INTRA.VDW.0>
-1.50278

>  <SCORE.INTRA.norm>
-0.0861921

>  <SCORE.RESTR>
0

>  <SCORE.RESTR.CAVITY>
0

>  <SCORE.RESTR.norm>
0

>  <SCORE.SYSTEM>
0

>  <SCORE.SYSTEM.CONST>
0

>  <SCORE.SYSTEM.DIHEDRAL>
0

>  <SCORE.SYSTEM.SOLV>
0

>  <SCORE.SYSTEM.norm>
0

>  <SCORE.heavy>
27

>  <SCORE.norm>
-0.574234

>  <RMSD>
0.826

$$$$
ligand
 OpenBabel11021811433D
libRbt.so/2013.1/901 2013/11/27
 27 29  0  0  0  0  0  0  0  0999 V2000
   47.4449   56.1675   29.6695 N   0  0  0  0  0  0  0  0  0  0  0  0
   48.4499   56.8876   28.8812 C   0  0  2  0  0  0  0  0  0  0  0  0
   47.8081   57.4303   27.6168 C   0  0  0  0  0  0  0  0  0  0  0  0
   47.0294   56.7307   26.9752 O   0  0  0  0  0  0  0  0  0  0  0  0
   49.6256   55.9601   28.5147 C   0  0  0  0  0  0  0  0  0  0  0  0
   50.4297   55.6464   29.7755 C   0  0  0  0  0  0  0  0  0  0  0  0
   50.3553   53.8963   30.3373 S   0  0  2  0  0  0  0  0  0  0  0  0
   49.6020   53.0127   28.9359 C   0  0  0  0  0  0  0  0  0  0  0  0
   48.9329   54.1084   31.4284 C   0  0  0  0  0  0  0  0  0  0  0  0
   49.3098   54.4541   32.8795 C   0  0  1  0  0  0  0  0  0  0  0  0
   49.9474   55.7654   32.9068 O   0  0  0  0  0  0  0  0  0  0  0  0
   47.9660   54.6320   33.5381 C   0  0  1  0  0  0  0  0  0  0  0  0
   47.5862   53.4240   34.1978 O   0  0  0  0  0  0  0  0  0  0  0  0
   48.1977   55.7424   34.5555 C   0  0  1  0  0  0  0  0  0  0  0  0
   48.4546   55.2312   35.8582 O   0  0  0  0  0  0  0  0  0  0  0  0
   49.4286   56.5686   34.0317 C   0  0  2  0  0  0  0  0  0  0  0  0
   48.1134   58.5465   27.1961 O   0  0  0  0  0  0  0  0  0  0  0  0
   45.7420   59.6978   31.9827 N   0  0  0  0  0  0  0  0  0  0  0  0
   45.5963   58.4467   32.4328 C   0  0  0  0  0  0  0  0  0  0  0  0
   46.6164   57.7768   32.9454 N   0  0  0  0  0  0  0  0  0  0  0  0
   47.8466   58.3129   33.0051 C   0  0  0  0  0  0  0  0  0  0  0  0
   48.0544   59.6322   32.5270 C   0  0  0  0  0  0  0  0  0  0  0  0
   46.9313   60.3216   32.0042 C   0  0  0  0  0  0  0  0  0  0  0  0
   47.0560   61.6063   31.5248 N   0  0  0  0  0  0  0  0  0  0  0  0
   49.3597   59.9224   32.6974 N   0  0  0  0  0  0  0  0  0  0  0  0
   49.9587   58.8956   33.2260 C   0  0  0  0  0  0  0  0  0  0  0  0
   49.0735   57.8764   33.4422 N   0  0  0  0  0  0  0  0  0  0  0  0
  2  1  1  6  0  0  0
  2  3  1  0  0  0  0
  2  5  1  0  0  0  0
  3  4  1  0  0  0  0
  3 17  1  0  0  0  0
  5  6  1  0  0  0  0
  7  6  1  6  0  0  0
  7  8  1  0  0  0  0
  7  9  1  0  0  0  0
 10  9  1  6  0  0  0
 10 11  1  0  0  0  0
 10 12  1  0  0  0  0
 11 16  1  0  0  0  0
 12 13  1  1  0  0  0
 12 14  1  0  0  0  0
 14 15  1  1  0  0  0
 14 16  1  0  0  0  0
 16 27  1  6  0  0  0
 18 19  2  0  0  0  0
 18 23  1  0  0  0  0
 19 20  1  0  0  0  0
 20 21  2  0  0  0  0
 21 22  1  0  0  0  0
 21 27  1  0  0  0  0
 22 23  2  0  0  0  0
 22 25  1  0  0  0  0
 23 24  1  0  0  0  0
 25 26  2  0  0  0  0
 26 27  1  0  0  0  0
M  END
>  <CHROM.1>
-42.69006616,-70.10679691,112.63552946,12.31505024,-91.40037619,65.45326945
96.16708672,48.43984499,56.69640500,31.50471682,0.42038507,1.20835444,-1.49666058

>  <Name>
ligand

>  <RI>
0

>  <Rbt.Current_Directory>
/home/itssahil/PROJECTS/Mol_Feturizer/New_Systems/rnas/2GIS

>  <Rbt.Executable>
rbdock ($Id: //depot/dev/client3/rdock/2013.1/src/exe/rbdock.cxx#4 $)

>  <Rbt.Library>
libRbt.so (2013.1, Build901 2013/11/27)

>  <Rbt.Parameter_File>
/export/apps/rDock/src/rDock_2013.1_src/data/scripts/dock_solv.prm

>  <Rbt.Receptor>
prm/pocket_docking_4.prm

>  <SCORE>
-13.7493

>  <SCORE.INTER>
-15.2052

>  <SCORE.INTER.CONST>
1

>  <SCORE.INTER.POLAR>
0

>  <SCORE.INTER.ROT>
7

>  <SCORE.INTER.SOLV>
15.9399

>  <SCORE.INTER.VDW>
-23.7168

>  <SCORE.INTER.norm>
-0.563155

>  <SCORE.INTRA>
1.45589

>  <SCORE.INTRA.DIHEDRAL>
4.27082

>  <SCORE.INTRA.DIHEDRAL.0>
9.40024

>  <SCORE.INTRA.POLAR>
0

>  <SCORE.INTRA.POLAR.0>
0

>  <SCORE.INTRA.REPUL>
0

>  <SCORE.INTRA.REPUL.0>
0

>  <SCORE.INTRA.SOLV>
0.73874

>  <SCORE.INTRA.SOLV.lig_0>
-47.1049

>  <SCORE.INTRA.VDW>
-1.04889

>  <SCORE.INTRA.VDW.0>
-1.50278

>  <SCORE.INTRA.norm>
0.053922

>  <SCORE.RESTR>
0

>  <SCORE.RESTR.CAVITY>
0

>  <SCORE.RESTR.norm>
0

>  <SCORE.SYSTEM>
0

>  <SCORE.SYSTEM.CONST>
0

>  <SCORE.SYSTEM.DIHEDRAL>
0

>  <SCORE.SYSTEM.SOLV>
0

>  <SCORE.SYSTEM.norm>
0

>  <SCORE.heavy>
27

>  <SCORE.norm>
-0.509233

>  <RMSD>
0.846

$$$$
ligand
 OpenBabel11021811433D
libRbt.so/2013.1/901 2013/11/27
 27 29  0  0  0  0  0  0  0  0999 V2000
   46.9693   57.5583   29.0942 N   0  0  0  0  0  0  0  0  0  0  0  0
   48.2017   57.5816   28.3001 C   0  0  2  0  0  0  0  0  0  0  0  0
   47.9008   57.1218   26.8847 C   0  0  0  0  0  0  0  0  0  0  0  0
   48.7347   57.2810   25.9977 O   0  0  0  0  0  0  0  0  0  0  0  0
   49.2754   56.6712   28.9288 C   0  0  0  0  0  0  0  0  0  0  0  0
   48.8271   55.2148   28.8169 C   0  0  0  0  0  0  0  0  0  0  0  0
   49.6511   54.0496   29.9778 S   0  0  2  0  0  0  0  0  0  0  0  0
   49.2258   52.4033   29.3292 C   0  0  0  0  0  0  0  0  0  0  0  0
   48.4467   54.2275   31.3106 C   0  0  0  0  0  0  0  0  0  0  0  0
   49.0734   54.5818   32.6703 C   0  0  1  0  0  0  0  0  0  0  0  0
   49.7669   55.8597   32.5568 O   0  0  0  0  0  0  0  0  0  0  0  0
   47.8664   54.8398   33.5351 C   0  0  1  0  0  0  0  0  0  0  0  0
   47.5450   53.6655   34.2809 O   0  0  0  0  0  0  0  0  0  0  0  0
   48.3140   55.9567   34.4699 C   0  0  1  0  0  0  0  0  0  0  0  0
   48.7584   55.4586   35.7264 O   0  0  0  0  0  0  0  0  0  0  0  0
   49.4787   56.7096   33.7291 C   0  0  2  0  0  0  0  0  0  0  0  0
   46.7990   56.6472   26.6077 O   0  0  0  0  0  0  0  0  0  0  0  0
   45.6772   59.8774   31.9697 N   0  0  0  0  0  0  0  0  0  0  0  0
   45.5542   58.6267   32.4276 C   0  0  0  0  0  0  0  0  0  0  0  0
   46.6039   57.9462   32.8605 N   0  0  0  0  0  0  0  0  0  0  0  0
   47.8401   58.4707   32.8277 C   0  0  0  0  0  0  0  0  0  0  0  0
   48.0235   59.7891   32.3373 C   0  0  0  0  0  0  0  0  0  0  0  0
   46.8705   60.4901   31.9020 C   0  0  0  0  0  0  0  0  0  0  0  0
   46.9707   61.7746   31.4165 N   0  0  0  0  0  0  0  0  0  0  0  0
   49.3406   60.0668   32.4088 N   0  0  0  0  0  0  0  0  0  0  0  0
   49.9682   59.0334   32.8890 C   0  0  0  0  0  0  0  0  0  0  0  0
   49.0923   58.0220   33.1701 N   0  0  0  0  0  0  0  0  0  0  0  0
  2  1  1  1  0  0  0
  2  3  1  0  0  0  0
  2  5  1  0  0  0  0
  3  4  1  0  0  0  0
  3 17  1  0  0  0  0
  5  6  1  0  0  0  0
  7  6  1  6  0  0  0
  7  8  1  0  0  0  0
  7  9  1  0  0  0  0
 10  9  1  6  0  0  0
 10 11  1  0  0  0  0
 10 12  1  0  0  0  0
 11 16  1  0  0  0  0
 12 13  1  1  0  0  0
 12 14  1  0  0  0  0
 14 15  1  1  0  0  0
 14 16  1  0  0  0  0
 16 27  1  6  0  0  0
 18 19  2  0  0  0  0
 18 23  1  0  0  0  0
 19 20  1  0  0  0  0
 20 21  2  0  0  0  0
 21 22  1  0  0  0  0
 21 27  1  0  0  0  0
 22 23  2  0  0  0  0
 22 25  1  0  0  0  0
 23 24  1  0  0  0  0
 25 26  2  0  0  0  0
 26 27  1  0  0  0  0
M  END
>  <CHROM.1>
167.57940715,67.43768851,-160.07225982,-166.50272973,-127.34949949,60.92933523
90.38441429,48.26125688,56.80783764,31.25097427,1.30522537,1.28317394,-1.65331599

>  <Name>
ligand

>  <RI>
0

>  <Rbt.Current_Directory>
/home/itssahil/PROJECTS/Mol_Feturizer/New_Systems/rnas/2GIS

>  <Rbt.Executable>
rbdock ($Id: //depot/dev/client3/rdock/2013.1/src/exe/rbdock.cxx#4 $)

>  <Rbt.Library>
libRbt.so (2013.1, Build901 2013/11/27)

>  <Rbt.Parameter_File>
/export/apps/rDock/src/rDock_2013.1_src/data/scripts/dock_solv.prm

>  <Rbt.Receptor>
prm/pocket_docking_2.prm

>  <SCORE>
-15.2887

>  <SCORE.INTER>
-13.4877

>  <SCORE.INTER.CONST>
1

>  <SCORE.INTER.POLAR>
0

>  <SCORE.INTER.ROT>
7

>  <SCORE.INTER.SOLV>
16.1677

>  <SCORE.INTER.VDW>
-22.6477

>  <SCORE.INTER.norm>
-0.499544

>  <SCORE.INTRA>
-1.81175

>  <SCORE.INTRA.DIHEDRAL>
1.17816

>  <SCORE.INTRA.DIHEDRAL.0>
9.40024

>  <SCORE.INTRA.POLAR>
0

>  <SCORE.INTRA.POLAR.0>
0

>  <SCORE.INTRA.REPUL>
0

>  <SCORE.INTRA.REPUL.0>
0

>  <SCORE.INTRA.SOLV>
-1.69782

>  <SCORE.INTRA.SOLV.lig_0>
-47.1049

>  <SCORE.INTRA.VDW>
-1.55192

>  <SCORE.INTRA.VDW.0>
-1.50278

>  <SCORE.INTRA.norm>
-0.0671019

>  <SCORE.RESTR>
0.010718

>  <SCORE.RESTR.CAVITY>
0.010718

>  <SCORE.RESTR.norm>
0.000396963

>  <SCORE.SYSTEM>
0

>  <SCORE.SYSTEM.CONST>
0

>  <SCORE.SYSTEM.DIHEDRAL>
0

>  <SCORE.SYSTEM.SOLV>
0

>  <SCORE.SYSTEM.norm>
0

>  <SCORE.heavy>
27

>  <SCORE.norm>
-0.566249

>  <RMSD>
0.855

$$$$
ligand
 OpenBabel11021811433D
libRbt.so/2013.1/901 2013/11/27
 27 29  0  0  0  0  0  0  0  0999 V2000
   49.9263   57.1218   27.7216 N   0  0  0  0  0  0  0  0  0  0  0  0
   48.5310   56.9910   27.2904 C   0  0  2  0  0  0  0  0  0  0  0  0
   47.8744   58.3599   27.2780 C   0  0  0  0  0  0  0  0  0  0  0  0
   47.2533   58.7333   26.2868 O   0  0  0  0  0  0  0  0  0  0  0  0
   47.7541   56.0465   28.2292 C   0  0  0  0  0  0  0  0  0  0  0  0
   48.5933   54.7968   28.4910 C   0  0  0  0  0  0  0  0  0  0  0  0
   49.8598   54.9662   29.8145 S   0  0  2  0  0  0  0  0  0  0  0  0
   50.9277   53.5090   29.5948 C   0  0  0  0  0  0  0  0  0  0  0  0
   48.7938   54.4237   31.1666 C   0  0  0  0  0  0  0  0  0  0  0  0
   49.3546   54.7394   32.5640 C   0  0  1  0  0  0  0  0  0  0  0  0
   49.9813   56.0560   32.5398 O   0  0  0  0  0  0  0  0  0  0  0  0
   48.1071   54.8886   33.3964 C   0  0  1  0  0  0  0  0  0  0  0  0
   47.8250   53.6619   34.0705 O   0  0  0  0  0  0  0  0  0  0  0  0
   48.4621   55.9774   34.4015 C   0  0  1  0  0  0  0  0  0  0  0  0
   48.8905   55.4387   35.6468 O   0  0  0  0  0  0  0  0  0  0  0  0
   49.6084   56.8277   33.7420 C   0  0  2  0  0  0  0  0  0  0  0  0
   48.0150   59.1239   28.2332 O   0  0  0  0  0  0  0  0  0  0  0  0
   45.7378   59.8300   31.8482 N   0  0  0  0  0  0  0  0  0  0  0  0
   45.6738   58.5442   32.2112 C   0  0  0  0  0  0  0  0  0  0  0  0
   46.7319   57.9122   32.6940 N   0  0  0  0  0  0  0  0  0  0  0  0
   47.9214   58.5256   32.8092 C   0  0  0  0  0  0  0  0  0  0  0  0
   48.0429   59.8854   32.4239 C   0  0  0  0  0  0  0  0  0  0  0  0
   46.8807   60.5306   31.9305 C   0  0  0  0  0  0  0  0  0  0  0  0
   46.9217   61.8503   31.5402 N   0  0  0  0  0  0  0  0  0  0  0  0
   49.3229   60.2518   32.6342 N   0  0  0  0  0  0  0  0  0  0  0  0
   49.9854   59.2348   33.1023 C   0  0  0  0  0  0  0  0  0  0  0  0
   49.1704   58.1453   33.2356 N   0  0  0  0  0  0  0  0  0  0  0  0
  2  1  1  1  0  0  0
  2  3  1  0  0  0  0
  2  5  1  0  0  0  0
  3  4  1  0  0  0  0
  3 17  1  0  0  0  0
  5  6  1  0  0  0  0
  7  6  1  6  0  0  0
  7  8  1  0  0  0  0
  7  9  1  0  0  0  0
 10  9  1  6  0  0  0
 10 11  1  0  0  0  0
 10 12  1  0  0  0  0
 11 16  1  0  0  0  0
 12 13  1  1  0  0  0
 12 14  1  0  0  0  0
 14 15  1  1  0  0  0
 14 16  1  0  0  0  0
 16 27  1  6  0  0  0
 18 19  2  0  0  0  0
 18 23  1  0  0  0  0
 19 20  1  0  0  0  0
 20 21  2  0  0  0  0
 21 22  1  0  0  0  0
 21 27  1  0  0  0  0
 22 23  2  0  0  0  0
 22 25  1  0  0  0  0
 23 24  1  0  0  0  0
 25 26  2  0  0  0  0
 26 27  1  0  0  0  0
M  END
>  <CHROM.1>
130.00239014,-45.68446808,82.92427453,-166.37708980,-165.52241146,39.29034362
86.84799211,48.46588335,57.09806976,31.19823133,-1.85747048,-1.20718217,1.63647304

>  <Name>
ligand

>  <RI>
0

>  <Rbt.Current_Directory>
/home/itssahil/PROJECTS/Mol_Feturizer/New_Systems/rnas/2GIS

>  <Rbt.Executable>
rbdock ($Id: //depot/dev/client3/rdock/2013.1/src/exe/rbdock.cxx#4 $)

>  <Rbt.Library>
libRbt.so (2013.1, Build901 2013/11/27)

>  <Rbt.Parameter_File>
/export/apps/rDock/src/rDock_2013.1_src/data/scripts/dock_solv.prm

>  <Rbt.Receptor>
prm/pocket_docking_2.prm

>  <SCORE>
-14.8906

>  <SCORE.INTER>
-13.4915

>  <SCORE.INTER.CONST>
1

>  <SCORE.INTER.POLAR>
0

>  <SCORE.INTER.ROT>
7

>  <SCORE.INTER.SOLV>
20.511

>  <SCORE.INTER.VDW>
-24.098

>  <SCORE.INTER.norm>
-0.499686

>  <SCORE.INTRA>
-1.47887

>  <SCORE.INTRA.DIHEDRAL>
0.24344

>  <SCORE.INTRA.DIHEDRAL.0>
9.40024

>  <SCORE.INTRA.POLAR>
0

>  <SCORE.INTRA.POLAR.0>
0

>  <SCORE.INTRA.REPUL>
0

>  <SCORE.INTRA.REPUL.0>
0

>  <SCORE.INTRA.SOLV>
-0.501727

>  <SCORE.INTRA.SOLV.lig_0>
-47.1049

>  <SCORE.INTRA.VDW>
-1.34973

>  <SCORE.INTRA.VDW.0>
-1.50278

>  <SCORE.INTRA.norm>
-0.0547731

>  <SCORE.RESTR>
0.0798325

>  <SCORE.RESTR.CAVITY>
0.0798325

>  <SCORE.RESTR.norm>
0.00295676

>  <SCORE.SYSTEM>
0

>  <SCORE.SYSTEM.CONST>
0

>  <SCORE.SYSTEM.DIHEDRAL>
0

>  <SCORE.SYSTEM.SOLV>
0

>  <SCORE.SYSTEM.norm>
0

>  <SCORE.heavy>
27

>  <SCORE.norm>
-0.551503

>  <RMSD>
0.958

$$$$
ligand
 OpenBabel11021811433D
libRbt.so/2013.1/901 2013/11/27
 27 29  0  0  0  0  0  0  0  0999 V2000
   49.1197   58.1170   28.9459 N   0  0  0  0  0  0  0  0  0  0  0  0
   49.4764   57.1134   27.9382 C   0  0  2  0  0  0  0  0  0  0  0  0
   48.2176   56.6199   27.2473 C   0  0  0  0  0  0  0  0  0  0  0  0
   48.0700   55.4216   27.0243 O   0  0  0  0  0  0  0  0  0  0  0  0
   50.2172   55.9265   28.5859 C   0  0  0  0  0  0  0  0  0  0  0  0
   49.3981   55.4073   29.7666 C   0  0  0  0  0  0  0  0  0  0  0  0
   49.9793   53.8162   30.4844 S   0  0  2  0  0  0  0  0  0  0  0  0
   49.3957   52.5589   29.3051 C   0  0  0  0  0  0  0  0  0  0  0  0
   48.7130   53.7140   31.7669 C   0  0  0  0  0  0  0  0  0  0  0  0
   49.1898   54.1919   33.1494 C   0  0  1  0  0  0  0  0  0  0  0  0
   49.8145   55.5024   33.0112 O   0  0  0  0  0  0  0  0  0  0  0  0
   47.8951   54.4247   33.8849 C   0  0  1  0  0  0  0  0  0  0  0  0
   47.5759   53.2806   34.6774 O   0  0  0  0  0  0  0  0  0  0  0  0
   48.1883   55.6241   34.7777 C   0  0  1  0  0  0  0  0  0  0  0  0
   48.5434   55.2348   36.0994 O   0  0  0  0  0  0  0  0  0  0  0  0
   49.3700   56.4032   34.0932 C   0  0  2  0  0  0  0  0  0  0  0  0
   47.3718   57.4226   26.8520 O   0  0  0  0  0  0  0  0  0  0  0  0
   45.5013   59.3671   32.1363 N   0  0  0  0  0  0  0  0  0  0  0  0
   45.3984   58.1699   32.7237 C   0  0  0  0  0  0  0  0  0  0  0  0
   46.4641   57.5393   33.1916 N   0  0  0  0  0  0  0  0  0  0  0  0
   47.6961   58.0597   33.0669 C   0  0  0  0  0  0  0  0  0  0  0  0
   47.8581   59.3209   32.4383 C   0  0  0  0  0  0  0  0  0  0  0  0
   46.6890   59.9716   31.9692 C   0  0  0  0  0  0  0  0  0  0  0  0
   46.7681   61.1996   31.3516 N   0  0  0  0  0  0  0  0  0  0  0  0
   49.1755   59.6068   32.4403 N   0  0  0  0  0  0  0  0  0  0  0  0
   49.8224   58.6292   33.0043 C   0  0  0  0  0  0  0  0  0  0  0  0
   48.9604   57.6505   33.4146 N   0  0  0  0  0  0  0  0  0  0  0  0
  2  1  1  1  0  0  0
  2  3  1  0  0  0  0
  2  5  1  0  0  0  0
  3  4  1  0  0  0  0
  3 17  1  0  0  0  0
  5  6  1  0  0  0  0
  7  6  1  6  0  0  0
  7  8  1  0  0  0  0
  7  9  1  0  0  0  0
 10  9  1  6  0  0  0
 10 11  1  0  0  0  0
 10 12  1  0  0  0  0
 11 16  1  0  0  0  0
 12 13  1  1  0  0  0
 12 14  1  0  0  0  0
 14 15  1  1  0  0  0
 14 16  1  0  0  0  0
 16 27  1  6  0  0  0
 18 19  2  0  0  0  0
 18 23  1  0  0  0  0
 19 20  1  0  0  0  0
 20 21  2  0  0  0  0
 21 22  1  0  0  0  0
 21 27  1  0  0  0  0
 22 23  2  0  0  0  0
 22 25  1  0  0  0  0
 23 24  1  0  0  0  0
 25 26  2  0  0  0  0
 26 27  1  0  0  0  0
M  END
>  <CHROM.1>
-136.97063768,51.83411904,170.00101686,-76.97166108,-98.70011244,50.46013900
98.39280642,48.42211164,56.46031101,31.52654216,1.11821747,1.21054314,-1.28955258

>  <Name>
ligand

>  <RI>
0

>  <Rbt.Current_Directory>
/home/itssahil/PROJECTS/Mol_Feturizer/New_Systems/rnas/2GIS

>  <Rbt.Executable>
rbdock ($Id: //depot/dev/client3/rdock/2013.1/src/exe/rbdock.cxx#4 $)

>  <Rbt.Library>
libRbt.so (2013.1, Build901 2013/11/27)

>  <Rbt.Parameter_File>
/export/apps/rDock/src/rDock_2013.1_src/data/scripts/dock_solv.prm

>  <Rbt.Receptor>
prm/pocket_docking_2.prm

>  <SCORE>
-16.601

>  <SCORE.INTER>
-13.7398

>  <SCORE.INTER.CONST>
1

>  <SCORE.INTER.POLAR>
0

>  <SCORE.INTER.ROT>
7

>  <SCORE.INTER.SOLV>
18.0418

>  <SCORE.INTER.VDW>
-23.4405

>  <SCORE.INTER.norm>
-0.50888

>  <SCORE.INTRA>
-2.87865

>  <SCORE.INTRA.DIHEDRAL>
-2.76761

>  <SCORE.INTRA.DIHEDRAL.0>
9.40024

>  <SCORE.INTRA.POLAR>
0

>  <SCORE.INTRA.POLAR.0>
0

>  <SCORE.INTRA.REPUL>
0

>  <SCORE.INTRA.REPUL.0>
0

>  <SCORE.INTRA.SOLV>
-2.11393

>  <SCORE.INTRA.SOLV.lig_0>
-47.1049

>  <SCORE.INTRA.VDW>
-0.43788

>  <SCORE.INTRA.VDW.0>
-1.50278

>  <SCORE.INTRA.norm>
-0.106617

>  <SCORE.RESTR>
0.0174088

>  <SCORE.RESTR.CAVITY>
0.0174088

>  <SCORE.RESTR.norm>
0.00064477

>  <SCORE.SYSTEM>
0

>  <SCORE.SYSTEM.CONST>
0

>  <SCORE.SYSTEM.DIHEDRAL>
0

>  <SCORE.SYSTEM.SOLV>
0

>  <SCORE.SYSTEM.norm>
0

>  <SCORE.heavy>
27

>  <SCORE.norm>
-0.614852

>  <RMSD>
0.964

$$$$
ligand
 OpenBabel11021811433D
libRbt.so/2013.1/901 2013/11/27
 27 29  0  0  0  0  0  0  0  0999 V2000
   47.0019   56.8996   28.5171 N   0  0  0  0  0  0  0  0  0  0  0  0
   48.1219   57.1130   27.5951 C   0  0  2  0  0  0  0  0  0  0  0  0
   47.6518   57.9367   26.4094 C   0  0  0  0  0  0  0  0  0  0  0  0
   47.3725   59.1229   26.5588 O   0  0  0  0  0  0  0  0  0  0  0  0
   48.6910   55.7668   27.1043 C   0  0  0  0  0  0  0  0  0  0  0  0
   48.6706   54.7631   28.2561 C   0  0  0  0  0  0  0  0  0  0  0  0
   49.9137   55.0625   29.5788 S   0  0  2  0  0  0  0  0  0  0  0  0
   51.0035   53.6071   29.5000 C   0  0  0  0  0  0  0  0  0  0  0  0
   48.8334   54.6222   30.9564 C   0  0  0  0  0  0  0  0  0  0  0  0
   49.4414   54.9132   32.3394 C   0  0  1  0  0  0  0  0  0  0  0  0
   50.0421   56.2420   32.3259 O   0  0  0  0  0  0  0  0  0  0  0  0
   48.2242   55.0168   33.2221 C   0  0  1  0  0  0  0  0  0  0  0  0
   47.9910   53.7681   33.8740 O   0  0  0  0  0  0  0  0  0  0  0  0
   48.5971   56.0864   34.2411 C   0  0  1  0  0  0  0  0  0  0  0  0
   49.0829   55.5247   35.4548 O   0  0  0  0  0  0  0  0  0  0  0  0
   49.7013   56.9755   33.5611 C   0  0  2  0  0  0  0  0  0  0  0  0
   47.4881   57.4053   25.3109 O   0  0  0  0  0  0  0  0  0  0  0  0
   45.7059   59.9482   31.8932 N   0  0  0  0  0  0  0  0  0  0  0  0
   45.6799   58.6525   32.2243 C   0  0  0  0  0  0  0  0  0  0  0  0
   46.7673   58.0294   32.6505 N   0  0  0  0  0  0  0  0  0  0  0  0
   47.9485   58.6631   32.7370 C   0  0  0  0  0  0  0  0  0  0  0  0
   48.0297   60.0344   32.3833 C   0  0  0  0  0  0  0  0  0  0  0  0
   46.8378   60.6689   31.9509 C   0  0  0  0  0  0  0  0  0  0  0  0
   46.8392   61.9987   31.5942 N   0  0  0  0  0  0  0  0  0  0  0  0
   49.3098   60.4205   32.5551 N   0  0  0  0  0  0  0  0  0  0  0  0
   50.0085   59.4051   32.9712 C   0  0  0  0  0  0  0  0  0  0  0  0
   49.2197   58.2967   33.1063 N   0  0  0  0  0  0  0  0  0  0  0  0
  2  1  1  1  0  0  0
  2  3  1  0  0  0  0
  2  5  1  0  0  0  0
  3  4  1  0  0  0  0
  3 17  1  0  0  0  0
  5  6  1  0  0  0  0
  7  6  1  6  0  0  0
  7  8  1  0  0  0  0
  7  9  1  0  0  0  0
 10  9  1  6  0  0  0
 10 11  1  0  0  0  0
 10 12  1  0  0  0  0
 11 16  1  0  0  0  0
 12 13  1  1  0  0  0
 12 14  1  0  0  0  0
 14 15  1  1  0  0  0
 14 16  1  0  0  0  0
 16 27  1  6  0  0  0
 18 19  2  0  0  0  0
 18 23  1  0  0  0  0
 19 20  1  0  0  0  0
 20 21  2  0  0  0  0
 21 22  1  0  0  0  0
 21 27  1  0  0  0  0
 22 23  2  0  0  0  0
 22 25  1  0  0  0  0
 23 24  1  0  0  0  0
 25 26  2  0  0  0  0
 26 27  1  0  0  0  0
M  END
>  <CHROM.1>
70.22858369,-37.91552270,-72.17282197,-115.73463850,-172.35178793,45.36361065
86.82338461,48.39901590,57.11526655,30.96083474,1.70013816,1.17285705,-1.76945315

>  <Name>
ligand

>  <RI>
0

>  <Rbt.Current_Directory>
/home/itssahil/PROJECTS/Mol_Feturizer/New_Systems/rnas/2GIS

>  <Rbt.Executable>
rbdock ($Id: //depot/dev/client3/rdock/2013.1/src/exe/rbdock.cxx#4 $)

>  <Rbt.Library>
libRbt.so (2013.1, Build901 2013/11/27)

>  <Rbt.Parameter_File>
/export/apps/rDock/src/rDock_2013.1_src/data/scripts/dock_solv.prm

>  <Rbt.Receptor>
prm/pocket_docking_2.prm

>  <SCORE>
-13.664

>  <SCORE.INTER>
-13.8334

>  <SCORE.INTER.CONST>
1

>  <SCORE.INTER.POLAR>
0

>  <SCORE.INTER.ROT>
7

>  <SCORE.INTER.SOLV>
17.2194

>  <SCORE.INTER.VDW>
-23.2287

>  <SCORE.INTER.norm>
-0.512349

>  <SCORE.INTRA>
0.0848208

>  <SCORE.INTRA.DIHEDRAL>
1.17651

>  <SCORE.INTRA.DIHEDRAL.0>
9.40024

>  <SCORE.INTRA.POLAR>
0

>  <SCORE.INTRA.POLAR.0>
0

>  <SCORE.INTRA.REPUL>
0

>  <SCORE.INTRA.REPUL.0>
0

>  <SCORE.INTRA.SOLV>
-0.811805

>  <SCORE.INTRA.SOLV.lig_0>
-47.1049

>  <SCORE.INTRA.VDW>
-0.0975298

>  <SCORE.INTRA.VDW.0>
-1.50278

>  <SCORE.INTRA.norm>
0.00314151

>  <SCORE.RESTR>
0.084542

>  <SCORE.RESTR.CAVITY>
0.084542

>  <SCORE.RESTR.norm>
0.00313118

>  <SCORE.SYSTEM>
0

>  <SCORE.SYSTEM.CONST>
0

>  <SCORE.SYSTEM.DIHEDRAL>
0

>  <SCORE.SYSTEM.SOLV>
0

>  <SCORE.SYSTEM.norm>
0

>  <SCORE.heavy>
27

>  <SCORE.norm>
-0.506076

>  <RMSD>
0.964

$$$$
ligand
 OpenBabel11021811433D
libRbt.so/2013.1/901 2013/11/27
 27 29  0  0  0  0  0  0  0  0999 V2000
   48.6470   59.0212   27.9515 N   0  0  0  0  0  0  0  0  0  0  0  0
   47.8385   57.7985   27.9871 C   0  0  2  0  0  0  0  0  0  0  0  0
   46.3667   58.1662   28.0489 C   0  0  0  0  0  0  0  0  0  0  0  0
   46.0151   59.1955   28.6185 O   0  0  0  0  0  0  0  0  0  0  0  0
   48.2125   56.9302   29.2050 C   0  0  0  0  0  0  0  0  0  0  0  0
   49.0921   55.7695   28.7429 C   0  0  0  0  0  0  0  0  0  0  0  0
   50.2679   55.1270   30.0035 S   0  0  2  0  0  0  0  0  0  0  0  0
   50.7893   53.5139   29.3415 C   0  0  0  0  0  0  0  0  0  0  0  0
   49.0100   54.6296   31.1990 C   0  0  0  0  0  0  0  0  0  0  0  0
   49.4018   54.9019   32.6617 C   0  0  1  0  0  0  0  0  0  0  0  0
   49.9691   56.2417   32.7616 O   0  0  0  0  0  0  0  0  0  0  0  0
   48.0662   54.9636   33.3571 C   0  0  1  0  0  0  0  0  0  0  0  0
   47.7668   53.6970   33.9442 O   0  0  0  0  0  0  0  0  0  0  0  0
   48.2621   56.0177   34.4398 C   0  0  1  0  0  0  0  0  0  0  0  0
   48.5764   55.4391   35.7011 O   0  0  0  0  0  0  0  0  0  0  0  0
   49.4348   56.9418   33.9465 C   0  0  2  0  0  0  0  0  0  0  0  0
   45.5172   57.4049   27.5857 O   0  0  0  0  0  0  0  0  0  0  0  0
   45.7492   59.8290   31.5670 N   0  0  0  0  0  0  0  0  0  0  0  0
   45.7176   58.5185   31.8329 C   0  0  0  0  0  0  0  0  0  0  0  0
   46.7173   57.9196   32.4607 N   0  0  0  0  0  0  0  0  0  0  0  0
   47.8185   58.5956   32.8278 C   0  0  0  0  0  0  0  0  0  0  0  0
   47.9050   59.9850   32.5551 C   0  0  0  0  0  0  0  0  0  0  0  0
   46.8041   60.5913   31.8987 C   0  0  0  0  0  0  0  0  0  0  0  0
   46.8155   61.9362   31.6040 N   0  0  0  0  0  0  0  0  0  0  0  0
   49.0966   60.4137   33.0170 N   0  0  0  0  0  0  0  0  0  0  0  0
   49.7392   59.4081   33.5348 C   0  0  0  0  0  0  0  0  0  0  0  0
   48.9968   58.2632   33.4506 N   0  0  0  0  0  0  0  0  0  0  0  0
  2  1  1  1  0  0  0
  2  3  1  0  0  0  0
  2  5  1  0  0  0  0
  3  4  1  0  0  0  0
  3 17  1  0  0  0  0
  5  6  1  0  0  0  0
  7  6  1  6  0  0  0
  7  8  1  0  0  0  0
  7  9  1  0  0  0  0
 10  9  1  6  0  0  0
 10 11  1  0  0  0  0
 10 12  1  0  0  0  0
 11 16  1  0  0  0  0
 12 13  1  1  0  0  0
 12 14  1  0  0  0  0
 14 15  1  1  0  0  0
 14 16  1  0  0  0  0
 16 27  1  6  0  0  0
 18 19  2  0  0  0  0
 18 23  1  0  0  0  0
 19 20  1  0  0  0  0
 20 21  2  0  0  0  0
 21 22  1  0  0  0  0
 21 27  1  0  0  0  0
 22 23  2  0  0  0  0
 22 25  1  0  0  0  0
 23 24  1  0  0  0  0
 25 26  2  0  0  0  0
 26 27  1  0  0  0  0
M  END
>  <CHROM.1>
-31.47609979,-102.56258391,151.79230286,164.25708847,-141.30064360,45.08684551
82.25798024,48.20543622,57.27028225,31.40026865,-2.80230944,-1.11089102,1.32344220

>  <Name>
ligand

>  <RI>
0

>  <Rbt.Current_Directory>
/home/itssahil/PROJECTS/Mol_Feturizer/New_Systems/rnas/2GIS

>  <Rbt.Executable>
rbdock ($Id: //depot/dev/client3/rdock/2013.1/src/exe/rbdock.cxx#4 $)

>  <Rbt.Library>
libRbt.so (2013.1, Build901 2013/11/27)

>  <Rbt.Parameter_File>
/export/apps/rDock/src/rDock_2013.1_src/data/scripts/dock_solv.prm

>  <Rbt.Receptor>
prm/pocket_docking_2.prm

>  <SCORE>
-12.8501

>  <SCORE.INTER>
-11.5547

>  <SCORE.INTER.CONST>
1

>  <SCORE.INTER.POLAR>
0

>  <SCORE.INTER.ROT>
7

>  <SCORE.INTER.SOLV>
24.1629

>  <SCORE.INTER.VDW>
-24.0241

>  <SCORE.INTER.norm>
-0.42795

>  <SCORE.INTRA>
-1.31541

>  <SCORE.INTRA.DIHEDRAL>
5.61591

>  <SCORE.INTRA.DIHEDRAL.0>
9.40024

>  <SCORE.INTRA.POLAR>
0

>  <SCORE.INTRA.POLAR.0>
0

>  <SCORE.INTRA.REPUL>
0

>  <SCORE.INTRA.REPUL.0>
0

>  <SCORE.INTRA.SOLV>
-2.68999

>  <SCORE.INTRA.SOLV.lig_0>
-47.1049

>  <SCORE.INTRA.VDW>
-2.77837

>  <SCORE.INTRA.VDW.0>
-1.50278

>  <SCORE.INTRA.norm>
-0.0487188

>  <SCORE.RESTR>
0.0199239

>  <SCORE.RESTR.CAVITY>
0.0199239

>  <SCORE.RESTR.norm>
0.000737922

>  <SCORE.SYSTEM>
0

>  <SCORE.SYSTEM.CONST>
0

>  <SCORE.SYSTEM.DIHEDRAL>
0

>  <SCORE.SYSTEM.SOLV>
0

>  <SCORE.SYSTEM.norm>
0

>  <SCORE.heavy>
27

>  <SCORE.norm>
-0.475931

>  <RMSD>
1.036

$$$$
ligand
 OpenBabel11021811433D
libRbt.so/2013.1/901 2013/11/27
 27 29  0  0  0  0  0  0  0  0999 V2000
   46.8388   57.3872   28.6594 N   0  0  0  0  0  0  0  0  0  0  0  0
   47.9153   56.9229   27.7788 C   0  0  2  0  0  0  0  0  0  0  0  0
   47.7326   57.5227   26.3960 C   0  0  0  0  0  0  0  0  0  0  0  0
   48.0235   56.8669   25.3996 O   0  0  0  0  0  0  0  0  0  0  0  0
   47.9205   55.3840   27.6850 C   0  0  0  0  0  0  0  0  0  0  0  0
   47.7354   54.7952   29.0828 C   0  0  0  0  0  0  0  0  0  0  0  0
   49.2356   54.8162   30.1473 S   0  0  2  0  0  0  0  0  0  0  0  0
   50.2711   53.4766   29.4800 C   0  0  0  0  0  0  0  0  0  0  0  0
   48.4723   54.0012   31.5656 C   0  0  0  0  0  0  0  0  0  0  0  0
   49.1844   54.2820   32.9002 C   0  0  1  0  0  0  0  0  0  0  0  0
   49.9088   55.5436   32.7975 O   0  0  0  0  0  0  0  0  0  0  0  0
   48.0359   54.5382   33.8419 C   0  0  1  0  0  0  0  0  0  0  0  0
   47.7213   53.3439   34.5582 O   0  0  0  0  0  0  0  0  0  0  0  0
   48.5686   55.6031   34.7927 C   0  0  1  0  0  0  0  0  0  0  0  0
   49.0672   55.0418   36.0013 O   0  0  0  0  0  0  0  0  0  0  0  0
   49.7124   56.3527   34.0167 C   0  0  2  0  0  0  0  0  0  0  0  0
   47.3536   58.6874   26.2703 O   0  0  0  0  0  0  0  0  0  0  0  0
   46.1421   59.4363   31.7089 N   0  0  0  0  0  0  0  0  0  0  0  0
   46.0472   58.1281   31.9710 C   0  0  0  0  0  0  0  0  0  0  0  0
   47.0249   57.4758   32.5800 N   0  0  0  0  0  0  0  0  0  0  0  0
   48.1655   58.0925   32.9308 C   0  0  0  0  0  0  0  0  0  0  0  0
   48.3192   59.4767   32.6611 C   0  0  0  0  0  0  0  0  0  0  0  0
   47.2404   60.1417   32.0253 C   0  0  0  0  0  0  0  0  0  0  0  0
   47.3164   61.4854   31.7348 N   0  0  0  0  0  0  0  0  0  0  0  0
   49.5389   59.8413   33.1044 N   0  0  0  0  0  0  0  0  0  0  0  0
   50.1371   58.8018   33.6080 C   0  0  0  0  0  0  0  0  0  0  0  0
   49.3352   57.6971   33.5325 N   0  0  0  0  0  0  0  0  0  0  0  0
  2  1  1  1  0  0  0
  2  3  1  0  0  0  0
  2  5  1  0  0  0  0
  3  4  1  0  0  0  0
  3 17  1  0  0  0  0
  5  6  1  0  0  0  0
  7  6  1  6  0  0  0
  7  8  1  0  0  0  0
  7  9  1  0  0  0  0
 10  9  1  6  0  0  0
 10 11  1  0  0  0  0
 10 12  1  0  0  0  0
 11 16  1  0  0  0  0
 12 13  1  1  0  0  0
 12 14  1  0  0  0  0
 14 15  1  1  0  0  0
 14 16  1  0  0  0  0
 16 27  1  6  0  0  0
 18 19  2  0  0  0  0
 18 23  1  0  0  0  0
 19 20  1  0  0  0  0
 20 21  2  0  0  0  0
 21 22  1  0  0  0  0
 21 27  1  0  0  0  0
 22 23  2  0  0  0  0
 22 25  1  0  0  0  0
 23 24  1  0  0  0  0
 25 26  2  0  0  0  0
 26 27  1  0  0  0  0
M  END
>  <CHROM.1>
-144.38115785,-44.19369016,-77.57180485,-75.18688775,-157.26511443,24.37245000
70.36039370,48.31678729,56.68932371,31.28407377,2.18928849,1.31430625,-2.01103842

>  <Name>
ligand

>  <RI>
0

>  <Rbt.Current_Directory>
/home/itssahil/PROJECTS/Mol_Feturizer/New_Systems/rnas/2GIS

>  <Rbt.Executable>
rbdock ($Id: //depot/dev/client3/rdock/2013.1/src/exe/rbdock.cxx#4 $)

>  <Rbt.Library>
libRbt.so (2013.1, Build901 2013/11/27)

>  <Rbt.Parameter_File>
/export/apps/rDock/src/rDock_2013.1_src/data/scripts/dock_solv.prm

>  <Rbt.Receptor>
prm/pocket_docking_2.prm

>  <SCORE>
-13.4095

>  <SCORE.INTER>
-13.3775

>  <SCORE.INTER.CONST>
1

>  <SCORE.INTER.POLAR>
0

>  <SCORE.INTER.ROT>
7

>  <SCORE.INTER.SOLV>
16.2118

>  <SCORE.INTER.VDW>
-22.5889

>  <SCORE.INTER.norm>
-0.495462

>  <SCORE.INTRA>
-0.575191

>  <SCORE.INTRA.DIHEDRAL>
1.21281

>  <SCORE.INTRA.DIHEDRAL.0>
9.40024

>  <SCORE.INTRA.POLAR>
0

>  <SCORE.INTRA.POLAR.0>
0

>  <SCORE.INTRA.REPUL>
0

>  <SCORE.INTRA.REPUL.0>
0

>  <SCORE.INTRA.SOLV>
-1.09027

>  <SCORE.INTRA.SOLV.lig_0>
-47.1049

>  <SCORE.INTRA.VDW>
-0.63646

>  <SCORE.INTRA.VDW.0>
-1.50278

>  <SCORE.INTRA.norm>
-0.0213034

>  <SCORE.RESTR>
0.5432

>  <SCORE.RESTR.CAVITY>
0.5432

>  <SCORE.RESTR.norm>
0.0201185

>  <SCORE.SYSTEM>
0

>  <SCORE.SYSTEM.CONST>
0

>  <SCORE.SYSTEM.DIHEDRAL>
0

>  <SCORE.SYSTEM.SOLV>
0

>  <SCORE.SYSTEM.norm>
0

>  <SCORE.heavy>
27

>  <SCORE.norm>
-0.496647

>  <RMSD>
1.044

$$$$
ligand
 OpenBabel11021811433D
libRbt.so/2013.1/901 2013/11/27
 27 29  0  0  0  0  0  0  0  0999 V2000
   47.9429   55.5019   27.7212 N   0  0  0  0  0  0  0  0  0  0  0  0
   48.0773   56.8281   28.3319 C   0  0  2  0  0  0  0  0  0  0  0  0
   48.1281   57.8845   27.2426 C   0  0  0  0  0  0  0  0  0  0  0  0
   48.0168   59.0720   27.5341 O   0  0  0  0  0  0  0  0  0  0  0  0
   49.3516   56.9061   29.1962 C   0  0  0  0  0  0  0  0  0  0  0  0
   49.1356   56.1100   30.4824 C   0  0  0  0  0  0  0  0  0  0  0  0
   50.1881   54.6121   30.6632 S   0  0  2  0  0  0  0  0  0  0  0  0
   49.9163   53.6905   29.1176 C   0  0  0  0  0  0  0  0  0  0  0  0
   49.0836   53.7406   31.7943 C   0  0  0  0  0  0  0  0  0  0  0  0
   49.2706   54.1335   33.2701 C   0  0  1  0  0  0  0  0  0  0  0  0
   49.8736   55.4596   33.3374 O   0  0  0  0  0  0  0  0  0  0  0  0
   47.8521   54.2974   33.7522 C   0  0  1  0  0  0  0  0  0  0  0  0
   47.4176   53.0989   34.3951 O   0  0  0  0  0  0  0  0  0  0  0  0
   47.9336   55.4397   34.7574 C   0  0  1  0  0  0  0  0  0  0  0  0
   48.0371   54.9694   36.0963 O   0  0  0  0  0  0  0  0  0  0  0  0
   49.2034   56.2802   34.3657 C   0  0  2  0  0  0  0  0  0  0  0  0
   48.2168   57.5525   26.0603 O   0  0  0  0  0  0  0  0  0  0  0  0
   45.6676   59.3639   32.0054 N   0  0  0  0  0  0  0  0  0  0  0  0
   45.4797   58.1387   32.5080 C   0  0  0  0  0  0  0  0  0  0  0  0
   46.4640   57.4785   33.0974 N   0  0  0  0  0  0  0  0  0  0  0  0
   47.6999   57.9972   33.1865 C   0  0  0  0  0  0  0  0  0  0  0  0
   47.9523   59.2882   32.6555 C   0  0  0  0  0  0  0  0  0  0  0  0
   46.8658   59.9691   32.0503 C   0  0  0  0  0  0  0  0  0  0  0  0
   47.0347   61.2267   31.5159 N   0  0  0  0  0  0  0  0  0  0  0  0
   49.2538   59.5656   32.8702 N   0  0  0  0  0  0  0  0  0  0  0  0
   49.8103   58.5564   33.4737 C   0  0  0  0  0  0  0  0  0  0  0  0
   48.8982   57.5632   33.6987 N   0  0  0  0  0  0  0  0  0  0  0  0
  2  1  1  6  0  0  0
  2  3  1  0  0  0  0
  2  5  1  0  0  0  0
  3  4  1  0  0  0  0
  3 17  1  0  0  0  0
  5  6  1  0  0  0  0
  7  6  1  6  0  0  0
  7  8  1  0  0  0  0
  7  9  1  0  0  0  0
 10  9  1  6  0  0  0
 10 11  1  0  0  0  0
 10 12  1  0  0  0  0
 11 16  1  0  0  0  0
 12 13  1  1  0  0  0
 12 14  1  0  0  0  0
 14 15  1  1  0  0  0
 14 16  1  0  0  0  0
 16 27  1  6  0  0  0
 18 19  2  0  0  0  0
 18 23  1  0  0  0  0
 19 20  1  0  0  0  0
 20 21  2  0  0  0  0
 21 22  1  0  0  0  0
 21 27  1  0  0  0  0
 22 23  2  0  0  0  0
 22 25  1  0  0  0  0
 23 24  1  0  0  0  0
 25 26  2  0  0  0  0
 26 27  1  0  0  0  0
M  END
>  <CHROM.1>
167.97032316,-73.52997434,113.94298007,-52.54469168,-84.55726959,23.20708883
101.37102983,48.36199310,56.67249626,31.59390554,-1.64610287,-1.20225768
1.87379112

>  <Name>
ligand

>  <RI>
0

>  <Rbt.Current_Directory>
/home/itssahil/PROJECTS/Mol_Feturizer/New_Systems/rnas/2GIS

>  <Rbt.Executable>
rbdock ($Id: //depot/dev/client3/rdock/2013.1/src/exe/rbdock.cxx#4 $)

>  <Rbt.Library>
libRbt.so (2013.1, Build901 2013/11/27)

>  <Rbt.Parameter_File>
/export/apps/rDock/src/rDock_2013.1_src/data/scripts/dock_solv.prm

>  <Rbt.Receptor>
prm/pocket_docking_2.prm

>  <SCORE>
-14.3767

>  <SCORE.INTER>
-14.863

>  <SCORE.INTER.CONST>
1

>  <SCORE.INTER.POLAR>
0

>  <SCORE.INTER.ROT>
7

>  <SCORE.INTER.SOLV>
14.7057

>  <SCORE.INTER.VDW>
-23.0772

>  <SCORE.INTER.norm>
-0.55048

>  <SCORE.INTRA>
0.48626

>  <SCORE.INTRA.DIHEDRAL>
4.82002

>  <SCORE.INTRA.DIHEDRAL.0>
9.40024

>  <SCORE.INTRA.POLAR>
0

>  <SCORE.INTRA.POLAR.0>
0

>  <SCORE.INTRA.REPUL>
0

>  <SCORE.INTRA.REPUL.0>
0

>  <SCORE.INTRA.SOLV>
-0.366746

>  <SCORE.INTRA.SOLV.lig_0>
-47.1049

>  <SCORE.INTRA.VDW>
-1.74038

>  <SCORE.INTRA.VDW.0>
-1.50278

>  <SCORE.INTRA.norm>
0.0180096

>  <SCORE.RESTR>
0

>  <SCORE.RESTR.CAVITY>
0

>  <SCORE.RESTR.norm>
0

>  <SCORE.SYSTEM>
0

>  <SCORE.SYSTEM.CONST>
0

>  <SCORE.SYSTEM.DIHEDRAL>
0

>  <SCORE.SYSTEM.SOLV>
0

>  <SCORE.SYSTEM.norm>
0

>  <SCORE.heavy>
27

>  <SCORE.norm>
-0.53247

>  <RMSD>
1.053

$$$$
ligand
 OpenBabel11021811433D
libRbt.so/2013.1/901 2013/11/27
 27 29  0  0  0  0  0  0  0  0999 V2000
   50.1120   56.7219   28.1356 N   0  0  0  0  0  0  0  0  0  0  0  0
   48.7698   56.9283   27.5826 C   0  0  2  0  0  0  0  0  0  0  0  0
   48.4212   58.4051   27.6370 C   0  0  0  0  0  0  0  0  0  0  0  0
   48.9414   59.1273   28.4827 O   0  0  0  0  0  0  0  0  0  0  0  0
   47.7227   56.1143   28.3686 C   0  0  0  0  0  0  0  0  0  0  0  0
   48.1475   54.6469   28.3997 C   0  0  0  0  0  0  0  0  0  0  0  0
   49.4031   54.2212   29.6751 S   0  0  2  0  0  0  0  0  0  0  0  0
   49.5086   52.4057   29.6042 C   0  0  0  0  0  0  0  0  0  0  0  0
   48.3161   54.4578   31.0967 C   0  0  0  0  0  0  0  0  0  0  0  0
   49.0645   54.7565   32.4073 C   0  0  1  0  0  0  0  0  0  0  0  0
   49.7649   56.0290   32.2767 O   0  0  0  0  0  0  0  0  0  0  0  0
   47.9417   54.9989   33.3830 C   0  0  1  0  0  0  0  0  0  0  0  0
   47.6687   53.8032   34.1140 O   0  0  0  0  0  0  0  0  0  0  0  0
   48.4862   56.0768   34.3121 C   0  0  1  0  0  0  0  0  0  0  0  0
   49.0309   55.5296   35.5072 O   0  0  0  0  0  0  0  0  0  0  0  0
   49.5932   56.8409   33.4978 C   0  0  2  0  0  0  0  0  0  0  0  0
   47.5710   58.8701   26.8775 O   0  0  0  0  0  0  0  0  0  0  0  0
   45.7214   60.0422   31.9674 N   0  0  0  0  0  0  0  0  0  0  0  0
   45.6235   58.7656   32.3542 C   0  0  0  0  0  0  0  0  0  0  0  0
   46.6889   58.0785   32.7351 N   0  0  0  0  0  0  0  0  0  0  0  0
   47.9163   58.6239   32.7181 C   0  0  0  0  0  0  0  0  0  0  0  0
   48.0732   59.9710   32.3020 C   0  0  0  0  0  0  0  0  0  0  0  0
   46.9041   60.6770   31.9212 C   0  0  0  0  0  0  0  0  0  0  0  0
   46.9783   61.9886   31.5090 N   0  0  0  0  0  0  0  0  0  0  0  0
   49.3867   60.2654   32.3741 N   0  0  0  0  0  0  0  0  0  0  0  0
   50.0361   59.2165   32.7868 C   0  0  0  0  0  0  0  0  0  0  0  0
   49.1796   58.1766   33.0196 N   0  0  0  0  0  0  0  0  0  0  0  0
  2  1  1  1  0  0  0
  2  3  1  0  0  0  0
  2  5  1  0  0  0  0
  3  4  1  0  0  0  0
  3 17  1  0  0  0  0
  5  6  1  0  0  0  0
  7  6  1  6  0  0  0
  7  8  1  0  0  0  0
  7  9  1  0  0  0  0
 10  9  1  6  0  0  0
 10 11  1  0  0  0  0
 10 12  1  0  0  0  0
 11 16  1  0  0  0  0
 12 13  1  1  0  0  0
 12 14  1  0  0  0  0
 14 15  1  1  0  0  0
 14 16  1  0  0  0  0
 16 27  1  6  0  0  0
 18 19  2  0  0  0  0
 18 23  1  0  0  0  0
 19 20  1  0  0  0  0
 20 21  2  0  0  0  0
 21 22  1  0  0  0  0
 21 27  1  0  0  0  0
 22 23  2  0  0  0  0
 22 25  1  0  0  0  0
 23 24  1  0  0  0  0
 25 26  2  0  0  0  0
 26 27  1  0  0  0  0
M  END
>  <CHROM.1>
-26.41170326,-54.39519078,81.38711877,172.33496012,-156.64273764,64.13959110
85.55232167,48.40146551,57.03634332,31.20033419,0.00684943,1.33000803,-1.36231652

>  <Name>
ligand

>  <RI>
0

>  <Rbt.Current_Directory>
/home/itssahil/PROJECTS/Mol_Feturizer/New_Systems/rnas/2GIS

>  <Rbt.Executable>
rbdock ($Id: //depot/dev/client3/rdock/2013.1/src/exe/rbdock.cxx#4 $)

>  <Rbt.Library>
libRbt.so (2013.1, Build901 2013/11/27)

>  <Rbt.Parameter_File>
/export/apps/rDock/src/rDock_2013.1_src/data/scripts/dock_solv.prm

>  <Rbt.Receptor>
prm/pocket_docking_2.prm

>  <SCORE>
-14.5799

>  <SCORE.INTER>
-11.8342

>  <SCORE.INTER.CONST>
1

>  <SCORE.INTER.POLAR>
0

>  <SCORE.INTER.ROT>
7

>  <SCORE.INTER.SOLV>
19.5822

>  <SCORE.INTER.VDW>
-22.6835

>  <SCORE.INTER.norm>
-0.438303

>  <SCORE.INTRA>
-3.05655

>  <SCORE.INTRA.DIHEDRAL>
-2.30913

>  <SCORE.INTRA.DIHEDRAL.0>
9.40024

>  <SCORE.INTRA.POLAR>
0

>  <SCORE.INTRA.POLAR.0>
0

>  <SCORE.INTRA.REPUL>
0

>  <SCORE.INTRA.REPUL.0>
0

>  <SCORE.INTRA.SOLV>
-0.584517

>  <SCORE.INTRA.SOLV.lig_0>
-47.1049

>  <SCORE.INTRA.VDW>
-1.60972

>  <SCORE.INTRA.VDW.0>
-1.50278

>  <SCORE.INTRA.norm>
-0.113206

>  <SCORE.RESTR>
0.310819

>  <SCORE.RESTR.CAVITY>
0.310819

>  <SCORE.RESTR.norm>
0.0115118

>  <SCORE.SYSTEM>
0

>  <SCORE.SYSTEM.CONST>
0

>  <SCORE.SYSTEM.DIHEDRAL>
0

>  <SCORE.SYSTEM.SOLV>
0

>  <SCORE.SYSTEM.norm>
0

>  <SCORE.heavy>
27

>  <SCORE.norm>
-0.539996

>  <RMSD>
1.092

$$$$
ligand
 OpenBabel11021811433D
libRbt.so/2013.1/901 2013/11/27
 27 29  0  0  0  0  0  0  0  0999 V2000
   48.0322   56.6777   25.9453 N   0  0  0  0  0  0  0  0  0  0  0  0
   47.4908   56.9056   27.2888 C   0  0  2  0  0  0  0  0  0  0  0  0
   47.1097   58.3675   27.4400 C   0  0  0  0  0  0  0  0  0  0  0  0
   47.1624   59.1185   26.4701 O   0  0  0  0  0  0  0  0  0  0  0  0
   48.5225   56.5196   28.3675 C   0  0  0  0  0  0  0  0  0  0  0  0
   48.7595   55.0109   28.3187 C   0  0  0  0  0  0  0  0  0  0  0  0
   49.8175   54.3397   29.6657 S   0  0  2  0  0  0  0  0  0  0  0  0
   49.7378   52.5363   29.4347 C   0  0  0  0  0  0  0  0  0  0  0  0
   48.6138   54.5810   30.9893 C   0  0  0  0  0  0  0  0  0  0  0  0
   49.2487   54.8752   32.3595 C   0  0  1  0  0  0  0  0  0  0  0  0
   49.8850   56.1867   32.3182 O   0  0  0  0  0  0  0  0  0  0  0  0
   48.0471   55.0249   33.2568 C   0  0  1  0  0  0  0  0  0  0  0  0
   47.7890   53.7926   33.9303 O   0  0  0  0  0  0  0  0  0  0  0  0
   48.4631   56.0986   34.2547 C   0  0  1  0  0  0  0  0  0  0  0  0
   48.9501   55.5414   35.4700 O   0  0  0  0  0  0  0  0  0  0  0  0
   49.5815   56.9471   33.5468 C   0  0  2  0  0  0  0  0  0  0  0  0
   46.8085   58.8189   28.5451 O   0  0  0  0  0  0  0  0  0  0  0  0
   45.6370   60.0171   31.9351 N   0  0  0  0  0  0  0  0  0  0  0  0
   45.5787   58.7298   32.2937 C   0  0  0  0  0  0  0  0  0  0  0  0
   46.6575   58.0795   32.7007 N   0  0  0  0  0  0  0  0  0  0  0  0
   47.8607   58.6752   32.7395 C   0  0  0  0  0  0  0  0  0  0  0  0
   47.9760   60.0359   32.3552 C   0  0  0  0  0  0  0  0  0  0  0  0
   46.7930   60.7008   31.9447 C   0  0  0  0  0  0  0  0  0  0  0  0
   46.8270   62.0226   31.5606 N   0  0  0  0  0  0  0  0  0  0  0  0
   49.2725   60.3826   32.4814 N   0  0  0  0  0  0  0  0  0  0  0  0
   49.9499   59.3530   32.8979 C   0  0  0  0  0  0  0  0  0  0  0  0
   49.1299   58.2742   33.0790 N   0  0  0  0  0  0  0  0  0  0  0  0
  2  1  1  6  0  0  0
  2  3  1  0  0  0  0
  2  5  1  0  0  0  0
  3  4  1  0  0  0  0
  3 17  1  0  0  0  0
  5  6  1  0  0  0  0
  7  6  1  6  0  0  0
  7  8  1  0  0  0  0
  7  9  1  0  0  0  0
 10  9  1  6  0  0  0
 10 11  1  0  0  0  0
 10 12  1  0  0  0  0
 11 16  1  0  0  0  0
 12 13  1  1  0  0  0
 12 14  1  0  0  0  0
 14 15  1  1  0  0  0
 14 16  1  0  0  0  0
 16 27  1  6  0  0  0
 18 19  2  0  0  0  0
 18 23  1  0  0  0  0
 19 20  1  0  0  0  0
 20 21  2  0  0  0  0
 21 22  1  0  0  0  0
 21 27  1  0  0  0  0
 22 23  2  0  0  0  0
 22 25  1  0  0  0  0
 23 24  1  0  0  0  0
 25 26  2  0  0  0  0
 26 27  1  0  0  0  0
M  END
>  <CHROM.1>
6.64938389,-66.17293205,-173.21846077,173.58612116,-148.68790122,68.04296896
87.84275765,48.23138072,57.10828683,31.07420617,1.64621179,1.21912039,-1.81550046

>  <Name>
ligand

>  <RI>
0

>  <Rbt.Current_Directory>
/home/itssahil/PROJECTS/Mol_Feturizer/New_Systems/rnas/2GIS

>  <Rbt.Executable>
rbdock ($Id: //depot/dev/client3/rdock/2013.1/src/exe/rbdock.cxx#4 $)

>  <Rbt.Library>
libRbt.so (2013.1, Build901 2013/11/27)

>  <Rbt.Parameter_File>
/export/apps/rDock/src/rDock_2013.1_src/data/scripts/dock_solv.prm

>  <Rbt.Receptor>
prm/pocket_docking_2.prm

>  <SCORE>
-15.6372

>  <SCORE.INTER>
-11.9776

>  <SCORE.INTER.CONST>
1

>  <SCORE.INTER.POLAR>
0

>  <SCORE.INTER.ROT>
7

>  <SCORE.INTER.SOLV>
21.0357

>  <SCORE.INTER.VDW>
-23.2637

>  <SCORE.INTER.norm>
-0.443616

>  <SCORE.INTRA>
-3.65956

>  <SCORE.INTRA.DIHEDRAL>
-2.40625

>  <SCORE.INTRA.DIHEDRAL.0>
9.40024

>  <SCORE.INTRA.POLAR>
0

>  <SCORE.INTRA.POLAR.0>
0

>  <SCORE.INTRA.REPUL>
0

>  <SCORE.INTRA.REPUL.0>
0

>  <SCORE.INTRA.SOLV>
-2.44213

>  <SCORE.INTRA.SOLV.lig_0>
-47.1049

>  <SCORE.INTRA.VDW>
-1.23537

>  <SCORE.INTRA.VDW.0>
-1.50278

>  <SCORE.INTRA.norm>
-0.135539

>  <SCORE.RESTR>
0

>  <SCORE.RESTR.CAVITY>
0

>  <SCORE.RESTR.norm>
0

>  <SCORE.SYSTEM>
0

>  <SCORE.SYSTEM.CONST>
0

>  <SCORE.SYSTEM.DIHEDRAL>
0

>  <SCORE.SYSTEM.SOLV>
0

>  <SCORE.SYSTEM.norm>
0

>  <SCORE.heavy>
27

>  <SCORE.norm>
-0.579155

>  <RMSD>
1.115

$$$$
ligand
 OpenBabel11021811433D
libRbt.so/2013.1/901 2013/11/27
 27 29  0  0  0  0  0  0  0  0999 V2000
   47.8403   58.8690   28.0884 N   0  0  0  0  0  0  0  0  0  0  0  0
   47.9172   57.4172   27.8978 C   0  0  2  0  0  0  0  0  0  0  0  0
   46.5223   56.8221   27.9718 C   0  0  0  0  0  0  0  0  0  0  0  0
   46.1771   55.9658   27.1623 O   0  0  0  0  0  0  0  0  0  0  0  0
   48.8189   56.7715   28.9688 C   0  0  0  0  0  0  0  0  0  0  0  0
   48.9365   55.2738   28.6897 C   0  0  0  0  0  0  0  0  0  0  0  0
   49.9011   54.3185   29.9311 S   0  0  2  0  0  0  0  0  0  0  0  0
   49.5798   52.5800   29.4994 C   0  0  0  0  0  0  0  0  0  0  0  0
   48.7465   54.5638   31.2969 C   0  0  0  0  0  0  0  0  0  0  0  0
   49.4300   54.8866   32.6370 C   0  0  1  0  0  0  0  0  0  0  0  0
   49.9965   56.2288   32.5719 O   0  0  0  0  0  0  0  0  0  0  0  0
   48.2663   54.9729   33.5908 C   0  0  1  0  0  0  0  0  0  0  0  0
   48.1033   53.7275   34.2699 O   0  0  0  0  0  0  0  0  0  0  0  0
   48.6743   56.0639   34.5731 C   0  0  1  0  0  0  0  0  0  0  0  0
   49.2461   55.5293   35.7613 O   0  0  0  0  0  0  0  0  0  0  0  0
   49.7135   56.9699   33.8171 C   0  0  2  0  0  0  0  0  0  0  0  0
   45.7130   57.2396   28.8004 O   0  0  0  0  0  0  0  0  0  0  0  0
   45.9625   59.6318   31.2822 N   0  0  0  0  0  0  0  0  0  0  0  0
   46.0595   58.3077   31.4445 C   0  0  0  0  0  0  0  0  0  0  0  0
   47.0570   57.7696   32.1285 N   0  0  0  0  0  0  0  0  0  0  0  0
   48.0303   58.5277   32.6599 C   0  0  0  0  0  0  0  0  0  0  0  0
   47.9790   59.9365   32.5024 C   0  0  0  0  0  0  0  0  0  0  0  0
   46.8834   60.4733   31.7800 C   0  0  0  0  0  0  0  0  0  0  0  0
   46.7652   61.8317   31.5895 N   0  0  0  0  0  0  0  0  0  0  0  0
   49.0615   60.4513   33.1190 N   0  0  0  0  0  0  0  0  0  0  0  0
   49.7646   59.4810   33.6255 C   0  0  0  0  0  0  0  0  0  0  0  0
   49.1735   58.2735   33.3776 N   0  0  0  0  0  0  0  0  0  0  0  0
  2  1  1  1  0  0  0
  2  3  1  0  0  0  0
  2  5  1  0  0  0  0
  3  4  1  0  0  0  0
  3 17  1  0  0  0  0
  5  6  1  0  0  0  0
  7  6  1  6  0  0  0
  7  8  1  0  0  0  0
  7  9  1  0  0  0  0
 10  9  1  6  0  0  0
 10 11  1  0  0  0  0
 10 12  1  0  0  0  0
 11 16  1  0  0  0  0
 12 13  1  1  0  0  0
 12 14  1  0  0  0  0
 14 15  1  1  0  0  0
 14 16  1  0  0  0  0
 16 27  1  6  0  0  0
 18 19  2  0  0  0  0
 18 23  1  0  0  0  0
 19 20  1  0  0  0  0
 20 21  2  0  0  0  0
 21 22  1  0  0  0  0
 21 27  1  0  0  0  0
 22 23  2  0  0  0  0
 22 25  1  0  0  0  0
 23 24  1  0  0  0  0
 25 26  2  0  0  0  0
 26 27  1  0  0  0  0
M  END
>  <CHROM.1>
136.74552787,-176.84130841,-176.56345819,169.34674878,-137.37360490,70.48001856
62.27055726,48.24726259,56.92410593,31.35711259,1.39837860,1.14656997,-2.25510319

>  <Name>
ligand

>  <RI>
0

>  <Rbt.Current_Directory>
/home/itssahil/PROJECTS/Mol_Feturizer/New_Systems/rnas/2GIS

>  <Rbt.Executable>
rbdock ($Id: //depot/dev/client3/rdock/2013.1/src/exe/rbdock.cxx#4 $)

>  <Rbt.Library>
libRbt.so (2013.1, Build901 2013/11/27)

>  <Rbt.Parameter_File>
/export/apps/rDock/src/rDock_2013.1_src/data/scripts/dock_solv.prm

>  <Rbt.Receptor>
prm/pocket_docking_4.prm

>  <SCORE>
-15.9017

>  <SCORE.INTER>
-11.0637

>  <SCORE.INTER.CONST>
1

>  <SCORE.INTER.POLAR>
0

>  <SCORE.INTER.ROT>
7

>  <SCORE.INTER.SOLV>
20.9667

>  <SCORE.INTER.VDW>
-22.6314

>  <SCORE.INTER.norm>
-0.409768

>  <SCORE.INTRA>
-4.83796

>  <SCORE.INTRA.DIHEDRAL>
-1.46603

>  <SCORE.INTRA.DIHEDRAL.0>
9.40024

>  <SCORE.INTRA.POLAR>
0

>  <SCORE.INTRA.POLAR.0>
0

>  <SCORE.INTRA.REPUL>
0

>  <SCORE.INTRA.REPUL.0>
0

>  <SCORE.INTRA.SOLV>
-2.83023

>  <SCORE.INTRA.SOLV.lig_0>
-47.1049

>  <SCORE.INTRA.VDW>
-2.68983

>  <SCORE.INTRA.VDW.0>
-1.50278

>  <SCORE.INTRA.norm>
-0.179184

>  <SCORE.RESTR>
0

>  <SCORE.RESTR.CAVITY>
0

>  <SCORE.RESTR.norm>
0

>  <SCORE.SYSTEM>
0

>  <SCORE.SYSTEM.CONST>
0

>  <SCORE.SYSTEM.DIHEDRAL>
0

>  <SCORE.SYSTEM.SOLV>
0

>  <SCORE.SYSTEM.norm>
0

>  <SCORE.heavy>
27

>  <SCORE.norm>
-0.588952

>  <RMSD>
1.116

$$$$
ligand
 OpenBabel11021811433D
libRbt.so/2013.1/901 2013/11/27
 27 29  0  0  0  0  0  0  0  0999 V2000
   47.7518   56.5942   26.0851 N   0  0  0  0  0  0  0  0  0  0  0  0
   47.2991   56.9836   27.4243 C   0  0  2  0  0  0  0  0  0  0  0  0
   46.7796   58.4098   27.3885 C   0  0  0  0  0  0  0  0  0  0  0  0
   47.1432   59.1728   26.4980 O   0  0  0  0  0  0  0  0  0  0  0  0
   48.4490   56.8711   28.4451 C   0  0  0  0  0  0  0  0  0  0  0  0
   48.8325   55.4012   28.6095 C   0  0  0  0  0  0  0  0  0  0  0  0
   50.1184   55.0641   29.8812 S   0  0  2  0  0  0  0  0  0  0  0  0
   50.8561   53.4850   29.3574 C   0  0  0  0  0  0  0  0  0  0  0  0
   48.9749   54.5127   31.1645 C   0  0  0  0  0  0  0  0  0  0  0  0
   49.4552   54.8137   32.5949 C   0  0  1  0  0  0  0  0  0  0  0  0
   50.0530   56.1435   32.6268 O   0  0  0  0  0  0  0  0  0  0  0  0
   48.1631   54.9208   33.3633 C   0  0  1  0  0  0  0  0  0  0  0  0
   47.8736   53.6759   33.9998 O   0  0  0  0  0  0  0  0  0  0  0  0
   48.4412   55.9977   34.4047 C   0  0  1  0  0  0  0  0  0  0  0  0
   48.8161   55.4448   35.6610 O   0  0  0  0  0  0  0  0  0  0  0  0
   49.6012   56.8844   33.8213 C   0  0  2  0  0  0  0  0  0  0  0  0
   46.0444   58.8248   28.2847 O   0  0  0  0  0  0  0  0  0  0  0  0
   45.7646   59.8429   31.7941 N   0  0  0  0  0  0  0  0  0  0  0  0
   45.7096   58.5500   32.1326 C   0  0  0  0  0  0  0  0  0  0  0  0
   46.7562   57.9305   32.6550 N   0  0  0  0  0  0  0  0  0  0  0  0
   47.9262   58.5650   32.8368 C   0  0  0  0  0  0  0  0  0  0  0  0
   48.0382   59.9333   32.4799 C   0  0  0  0  0  0  0  0  0  0  0  0
   46.8879   60.5641   31.9421 C   0  0  0  0  0  0  0  0  0  0  0  0
   46.9206   61.8909   31.5758 N   0  0  0  0  0  0  0  0  0  0  0  0
   49.2992   60.3208   32.7570 N   0  0  0  0  0  0  0  0  0  0  0  0
   49.9592   59.3090   33.2396 C   0  0  0  0  0  0  0  0  0  0  0  0
   49.1611   58.2017   33.3161 N   0  0  0  0  0  0  0  0  0  0  0  0
  2  1  1  6  0  0  0
  2  3  1  0  0  0  0
  2  5  1  0  0  0  0
  3  4  1  0  0  0  0
  3 17  1  0  0  0  0
  5  6  1  0  0  0  0
  7  6  1  6  0  0  0
  7  8  1  0  0  0  0
  7  9  1  0  0  0  0
 10  9  1  6  0  0  0
 10 11  1  0  0  0  0
 10 12  1  0  0  0  0
 11 16  1  0  0  0  0
 12 13  1  1  0  0  0
 12 14  1  0  0  0  0
 14 15  1  1  0  0  0
 14 16  1  0  0  0  0
 16 27  1  6  0  0  0
 18 19  2  0  0  0  0
 18 23  1  0  0  0  0
 19 20  1  0  0  0  0
 20 21  2  0  0  0  0
 21 22  1  0  0  0  0
 21 27  1  0  0  0  0
 22 23  2  0  0  0  0
 22 25  1  0  0  0  0
 23 24  1  0  0  0  0
 25 26  2  0  0  0  0
 26 27  1  0  0  0  0
M  END
>  <CHROM.1>
-22.32390997,-66.55083377,-176.01740332,-156.02260179,-149.33899262,40.81966490
87.14645167,48.29365686,57.17162585,31.18031203,-2.24775156,-1.13709281,1.33473345

>  <Name>
ligand

>  <RI>
0

>  <Rbt.Current_Directory>
/home/itssahil/PROJECTS/Mol_Feturizer/New_Systems/rnas/2GIS

>  <Rbt.Executable>
rbdock ($Id: //depot/dev/client3/rdock/2013.1/src/exe/rbdock.cxx#4 $)

>  <Rbt.Library>
libRbt.so (2013.1, Build901 2013/11/27)

>  <Rbt.Parameter_File>
/export/apps/rDock/src/rDock_2013.1_src/data/scripts/dock_solv.prm

>  <Rbt.Receptor>
prm/pocket_docking_2.prm

>  <SCORE>
-16.7991

>  <SCORE.INTER>
-14.1061

>  <SCORE.INTER.CONST>
1

>  <SCORE.INTER.POLAR>
0

>  <SCORE.INTER.ROT>
7

>  <SCORE.INTER.SOLV>
21.0433

>  <SCORE.INTER.VDW>
-24.6851

>  <SCORE.INTER.norm>
-0.522446

>  <SCORE.INTRA>
-2.70221

>  <SCORE.INTRA.DIHEDRAL>
0.566094

>  <SCORE.INTRA.DIHEDRAL.0>
9.40024

>  <SCORE.INTRA.POLAR>
0

>  <SCORE.INTRA.POLAR.0>
0

>  <SCORE.INTRA.REPUL>
0

>  <SCORE.INTRA.REPUL.0>
0

>  <SCORE.INTRA.SOLV>
-2.40956

>  <SCORE.INTRA.SOLV.lig_0>
-47.1049

>  <SCORE.INTRA.VDW>
-1.78048

>  <SCORE.INTRA.VDW.0>
-1.50278

>  <SCORE.INTRA.norm>
-0.100082

>  <SCORE.RESTR>
0.00917836

>  <SCORE.RESTR.CAVITY>
0.00917836

>  <SCORE.RESTR.norm>
0.000339939

>  <SCORE.SYSTEM>
0

>  <SCORE.SYSTEM.CONST>
0

>  <SCORE.SYSTEM.DIHEDRAL>
0

>  <SCORE.SYSTEM.SOLV>
0

>  <SCORE.SYSTEM.norm>
0

>  <SCORE.heavy>
27

>  <SCORE.norm>
-0.622188

>  <RMSD>
1.131

$$$$
ligand
 OpenBabel11021811433D
libRbt.so/2013.1/901 2013/11/27
 27 29  0  0  0  0  0  0  0  0999 V2000
   50.1058   56.4139   27.7269 N   0  0  0  0  0  0  0  0  0  0  0  0
   48.8152   56.8204   28.2917 C   0  0  2  0  0  0  0  0  0  0  0  0
   48.2799   58.0155   27.5232 C   0  0  0  0  0  0  0  0  0  0  0  0
   47.7774   57.8565   26.4143 O   0  0  0  0  0  0  0  0  0  0  0  0
   48.9596   57.1800   29.7839 C   0  0  0  0  0  0  0  0  0  0  0  0
   48.6877   55.9362   30.6287 C   0  0  0  0  0  0  0  0  0  0  0  0
   50.1288   54.8167   30.8621 S   0  0  2  0  0  0  0  0  0  0  0  0
   50.1946   53.8520   29.3203 C   0  0  0  0  0  0  0  0  0  0  0  0
   49.2927   53.6607   31.9681 C   0  0  0  0  0  0  0  0  0  0  0  0
   49.3152   54.0888   33.4457 C   0  0  1  0  0  0  0  0  0  0  0  0
   49.8726   55.4329   33.5439 O   0  0  0  0  0  0  0  0  0  0  0  0
   47.8506   54.2216   33.7752 C   0  0  1  0  0  0  0  0  0  0  0  0
   47.3838   53.0244   34.3977 O   0  0  0  0  0  0  0  0  0  0  0  0
   47.7971   55.3861   34.7565 C   0  0  1  0  0  0  0  0  0  0  0  0
   47.7737   54.9465   36.1095 O   0  0  0  0  0  0  0  0  0  0  0  0
   49.0778   56.2547   34.4782 C   0  0  2  0  0  0  0  0  0  0  0  0
   48.4045   59.1524   27.9790 O   0  0  0  0  0  0  0  0  0  0  0  0
   45.6177   59.3576   32.0326 N   0  0  0  0  0  0  0  0  0  0  0  0
   45.3923   58.1672   32.5993 C   0  0  0  0  0  0  0  0  0  0  0  0
   46.3619   57.4979   33.2027 N   0  0  0  0  0  0  0  0  0  0  0  0
   47.6187   57.9704   33.2426 C   0  0  0  0  0  0  0  0  0  0  0  0
   47.9105   59.2224   32.6430 C   0  0  0  0  0  0  0  0  0  0  0  0
   46.8393   59.9157   32.0248 C   0  0  0  0  0  0  0  0  0  0  0  0
   47.0462   61.1376   31.4250 N   0  0  0  0  0  0  0  0  0  0  0  0
   49.2260   59.4577   32.8193 N   0  0  0  0  0  0  0  0  0  0  0  0
   49.7549   58.4580   33.4622 C   0  0  0  0  0  0  0  0  0  0  0  0
   48.8094   57.5144   33.7535 N   0  0  0  0  0  0  0  0  0  0  0  0
  2  1  1  6  0  0  0
  2  3  1  0  0  0  0
  2  5  1  0  0  0  0
  3  4  1  0  0  0  0
  3 17  1  0  0  0  0
  5  6  1  0  0  0  0
  7  6  1  6  0  0  0
  7  8  1  0  0  0  0
  7  9  1  0  0  0  0
 10  9  1  6  0  0  0
 10 11  1  0  0  0  0
 10 12  1  0  0  0  0
 11 16  1  0  0  0  0
 12 13  1  1  0  0  0
 12 14  1  0  0  0  0
 14 15  1  1  0  0  0
 14 16  1  0  0  0  0
 16 27  1  6  0  0  0
 18 19  2  0  0  0  0
 18 23  1  0  0  0  0
 19 20  1  0  0  0  0
 20 21  2  0  0  0  0
 21 22  1  0  0  0  0
 21 27  1  0  0  0  0
 22 23  2  0  0  0  0
 22 25  1  0  0  0  0
 23 24  1  0  0  0  0
 25 26  2  0  0  0  0
 26 27  1  0  0  0  0
M  END
>  <CHROM.1>
76.53583644,-91.76863199,84.23717895,-80.35375266,-85.06566594,7.30378071
109.57021290,48.41219000,56.72177035,31.71500183,-1.54996614,-1.11490463
2.07489536

>  <Name>
ligand

>  <RI>
0

>  <Rbt.Current_Directory>
/home/itssahil/PROJECTS/Mol_Feturizer/New_Systems/rnas/2GIS

>  <Rbt.Executable>
rbdock ($Id: //depot/dev/client3/rdock/2013.1/src/exe/rbdock.cxx#4 $)

>  <Rbt.Library>
libRbt.so (2013.1, Build901 2013/11/27)

>  <Rbt.Parameter_File>
/export/apps/rDock/src/rDock_2013.1_src/data/scripts/dock_solv.prm

>  <Rbt.Receptor>
prm/pocket_docking_2.prm

>  <SCORE>
-14.2239

>  <SCORE.INTER>
-14.4935

>  <SCORE.INTER.CONST>
1

>  <SCORE.INTER.POLAR>
0

>  <SCORE.INTER.ROT>
7

>  <SCORE.INTER.SOLV>
17.23

>  <SCORE.INTER.VDW>
-23.6723

>  <SCORE.INTER.norm>
-0.536795

>  <SCORE.INTRA>
0.266487

>  <SCORE.INTRA.DIHEDRAL>
4.94249

>  <SCORE.INTRA.DIHEDRAL.0>
9.40024

>  <SCORE.INTRA.POLAR>
0

>  <SCORE.INTRA.POLAR.0>
0

>  <SCORE.INTRA.REPUL>
0

>  <SCORE.INTRA.REPUL.0>
0

>  <SCORE.INTRA.SOLV>
-0.321282

>  <SCORE.INTRA.SOLV.lig_0>
-47.1049

>  <SCORE.INTRA.VDW>
-2.04412

>  <SCORE.INTRA.VDW.0>
-1.50278

>  <SCORE.INTRA.norm>
0.00986989

>  <SCORE.RESTR>
0.00311926

>  <SCORE.RESTR.CAVITY>
0.00311926

>  <SCORE.RESTR.norm>
0.000115528

>  <SCORE.SYSTEM>
0

>  <SCORE.SYSTEM.CONST>
0

>  <SCORE.SYSTEM.DIHEDRAL>
0

>  <SCORE.SYSTEM.SOLV>
0

>  <SCORE.SYSTEM.norm>
0

>  <SCORE.heavy>
27

>  <SCORE.norm>
-0.52681

>  <RMSD>
1.147

$$$$
ligand
 OpenBabel11021811433D
libRbt.so/2013.1/901 2013/11/27
 27 29  0  0  0  0  0  0  0  0999 V2000
   48.1529   56.8350   25.7854 N   0  0  0  0  0  0  0  0  0  0  0  0
   47.6431   56.7745   27.1588 C   0  0  2  0  0  0  0  0  0  0  0  0
   47.0982   58.1345   27.5572 C   0  0  0  0  0  0  0  0  0  0  0  0
   46.1687   58.2130   28.3555 O   0  0  0  0  0  0  0  0  0  0  0  0
   48.7559   56.3495   28.1376 C   0  0  0  0  0  0  0  0  0  0  0  0
   48.6821   54.8391   28.3566 C   0  0  0  0  0  0  0  0  0  0  0  0
   49.7518   54.1894   29.7049 S   0  0  2  0  0  0  0  0  0  0  0  0
   49.6165   52.3816   29.5455 C   0  0  0  0  0  0  0  0  0  0  0  0
   48.5864   54.5154   31.0444 C   0  0  0  0  0  0  0  0  0  0  0  0
   49.2607   54.8295   32.3911 C   0  0  1  0  0  0  0  0  0  0  0  0
   49.8780   56.1488   32.3186 O   0  0  0  0  0  0  0  0  0  0  0  0
   48.0865   54.9714   33.3252 C   0  0  1  0  0  0  0  0  0  0  0  0
   47.8664   53.7418   34.0167 O   0  0  0  0  0  0  0  0  0  0  0  0
   48.5199   56.0590   34.3004 C   0  0  1  0  0  0  0  0  0  0  0  0
   49.0529   55.5187   35.5040 O   0  0  0  0  0  0  0  0  0  0  0  0
   49.6038   56.9158   33.5500 C   0  0  2  0  0  0  0  0  0  0  0  0
   47.5419   59.1575   27.0353 O   0  0  0  0  0  0  0  0  0  0  0  0
   45.5818   59.8990   31.9672 N   0  0  0  0  0  0  0  0  0  0  0  0
   45.5543   58.6106   32.3256 C   0  0  0  0  0  0  0  0  0  0  0  0
   46.6498   57.9840   32.7247 N   0  0  0  0  0  0  0  0  0  0  0  0
   47.8400   58.6060   32.7556 C   0  0  0  0  0  0  0  0  0  0  0  0
   47.9227   59.9690   32.3711 C   0  0  0  0  0  0  0  0  0  0  0  0
   46.7225   60.6080   31.9692 C   0  0  0  0  0  0  0  0  0  0  0  0
   46.7249   61.9303   31.5856 N   0  0  0  0  0  0  0  0  0  0  0  0
   49.2121   60.3440   32.4886 N   0  0  0  0  0  0  0  0  0  0  0  0
   49.9148   59.3294   32.8999 C   0  0  0  0  0  0  0  0  0  0  0  0
   49.1199   58.2329   33.0860 N   0  0  0  0  0  0  0  0  0  0  0  0
  2  1  1  6  0  0  0
  2  3  1  0  0  0  0
  2  5  1  0  0  0  0
  3  4  1  0  0  0  0
  3 17  1  0  0  0  0
  5  6  1  0  0  0  0
  7  6  1  6  0  0  0
  7  8  1  0  0  0  0
  7  9  1  0  0  0  0
 10  9  1  6  0  0  0
 10 11  1  0  0  0  0
 10 12  1  0  0  0  0
 11 16  1  0  0  0  0
 12 13  1  1  0  0  0
 12 14  1  0  0  0  0
 14 15  1  1  0  0  0
 14 16  1  0  0  0  0
 16 27  1  6  0  0  0
 18 19  2  0  0  0  0
 18 23  1  0  0  0  0
 19 20  1  0  0  0  0
 20 21  2  0  0  0  0
 21 22  1  0  0  0  0
 21 27  1  0  0  0  0
 22 23  2  0  0  0  0
 22 25  1  0  0  0  0
 23 24  1  0  0  0  0
 25 26  2  0  0  0  0
 26 27  1  0  0  0  0
M  END
>  <CHROM.1>
149.40663315,-94.88629558,-170.34081882,-172.16132971,-149.25020406,71.20245861
86.23534519,48.22104049,57.01069277,31.10182910,1.21041781,1.21380709,-1.81848112

>  <Name>
ligand

>  <RI>
0

>  <Rbt.Current_Directory>
/home/itssahil/PROJECTS/Mol_Feturizer/New_Systems/rnas/2GIS

>  <Rbt.Executable>
rbdock ($Id: //depot/dev/client3/rdock/2013.1/src/exe/rbdock.cxx#4 $)

>  <Rbt.Library>
libRbt.so (2013.1, Build901 2013/11/27)

>  <Rbt.Parameter_File>
/export/apps/rDock/src/rDock_2013.1_src/data/scripts/dock_solv.prm

>  <Rbt.Receptor>
prm/pocket_docking_2.prm

>  <SCORE>
-13.2697

>  <SCORE.INTER>
-11.1585

>  <SCORE.INTER.CONST>
1

>  <SCORE.INTER.POLAR>
0

>  <SCORE.INTER.ROT>
7

>  <SCORE.INTER.SOLV>
21.4436

>  <SCORE.INTER.VDW>
-22.8535

>  <SCORE.INTER.norm>
-0.413277

>  <SCORE.INTRA>
-2.11351

>  <SCORE.INTRA.DIHEDRAL>
2.24828

>  <SCORE.INTRA.DIHEDRAL.0>
9.40024

>  <SCORE.INTRA.POLAR>
0

>  <SCORE.INTRA.POLAR.0>
0

>  <SCORE.INTRA.REPUL>
0

>  <SCORE.INTRA.REPUL.0>
0

>  <SCORE.INTRA.SOLV>
-2.71341

>  <SCORE.INTRA.SOLV.lig_0>
-47.1049

>  <SCORE.INTRA.VDW>
-1.88094

>  <SCORE.INTRA.VDW.0>
-1.50278

>  <SCORE.INTRA.norm>
-0.078278

>  <SCORE.RESTR>
0.00228819

>  <SCORE.RESTR.CAVITY>
0.00228819

>  <SCORE.RESTR.norm>
8.47477e-05

>  <SCORE.SYSTEM>
0

>  <SCORE.SYSTEM.CONST>
0

>  <SCORE.SYSTEM.DIHEDRAL>
0

>  <SCORE.SYSTEM.SOLV>
0

>  <SCORE.SYSTEM.norm>
0

>  <SCORE.heavy>
27

>  <SCORE.norm>
-0.49147

>  <RMSD>
1.151

$$$$
ligand
 OpenBabel11021811433D
libRbt.so/2013.1/901 2013/11/27
 27 29  0  0  0  0  0  0  0  0999 V2000
   47.1625   57.5130   29.6074 N   0  0  0  0  0  0  0  0  0  0  0  0
   48.6069   57.6938   29.4320 C   0  0  2  0  0  0  0  0  0  0  0  0
   48.9445   57.6681   27.9519 C   0  0  0  0  0  0  0  0  0  0  0  0
   49.9740   57.1209   27.5670 O   0  0  0  0  0  0  0  0  0  0  0  0
   49.3903   56.5876   30.1666 C   0  0  0  0  0  0  0  0  0  0  0  0
   49.0555   55.2347   29.5402 C   0  0  0  0  0  0  0  0  0  0  0  0
   49.7579   53.7733   30.4092 S   0  0  2  0  0  0  0  0  0  0  0  0
   49.2036   52.3559   29.4113 C   0  0  0  0  0  0  0  0  0  0  0  0
   48.5517   53.7545   31.7522 C   0  0  0  0  0  0  0  0  0  0  0  0
   49.1390   54.1454   33.1194 C   0  0  1  0  0  0  0  0  0  0  0  0
   49.8325   55.4220   32.9927 O   0  0  0  0  0  0  0  0  0  0  0  0
   47.9074   54.4219   33.9430 C   0  0  1  0  0  0  0  0  0  0  0  0
   47.5678   53.2660   34.7094 O   0  0  0  0  0  0  0  0  0  0  0  0
   48.3259   55.5637   34.8610 C   0  0  1  0  0  0  0  0  0  0  0  0
   48.7358   55.0992   36.1419 O   0  0  0  0  0  0  0  0  0  0  0  0
   49.5094   56.3009   34.1342 C   0  0  2  0  0  0  0  0  0  0  0  0
   48.2227   58.2489   27.1410 O   0  0  0  0  0  0  0  0  0  0  0  0
   45.7709   59.3711   32.0900 N   0  0  0  0  0  0  0  0  0  0  0  0
   45.6412   58.1254   32.5596 C   0  0  0  0  0  0  0  0  0  0  0  0
   46.6734   57.4710   33.0681 N   0  0  0  0  0  0  0  0  0  0  0  0
   47.8999   58.0177   33.1040 C   0  0  0  0  0  0  0  0  0  0  0  0
   48.0907   59.3316   32.6046 C   0  0  0  0  0  0  0  0  0  0  0  0
   46.9552   60.0046   32.0869 C   0  0  0  0  0  0  0  0  0  0  0  0
   47.0631   61.2833   31.5878 N   0  0  0  0  0  0  0  0  0  0  0  0
   49.3957   59.6347   32.7537 N   0  0  0  0  0  0  0  0  0  0  0  0
   50.0098   58.6203   33.2887 C   0  0  0  0  0  0  0  0  0  0  0  0
   49.1359   57.5973   33.5310 N   0  0  0  0  0  0  0  0  0  0  0  0
  2  1  1  6  0  0  0
  2  3  1  0  0  0  0
  2  5  1  0  0  0  0
  3  4  1  0  0  0  0
  3 17  1  0  0  0  0
  5  6  1  0  0  0  0
  7  6  1  6  0  0  0
  7  8  1  0  0  0  0
  7  9  1  0  0  0  0
 10  9  1  6  0  0  0
 10 11  1  0  0  0  0
 10 12  1  0  0  0  0
 11 16  1  0  0  0  0
 12 13  1  1  0  0  0
 12 14  1  0  0  0  0
 14 15  1  1  0  0  0
 14 16  1  0  0  0  0
 16 27  1  6  0  0  0
 18 19  2  0  0  0  0
 18 23  1  0  0  0  0
 19 20  1  0  0  0  0
 20 21  2  0  0  0  0
 21 22  1  0  0  0  0
 21 27  1  0  0  0  0
 22 23  2  0  0  0  0
 22 25  1  0  0  0  0
 23 24  1  0  0  0  0
 25 26  2  0  0  0  0
 26 27  1  0  0  0  0
M  END
>  <CHROM.1>
-141.81698454,63.59336792,-173.55066906,-179.15454390,-110.68750786,52.76220056
88.15401468,48.47782206,56.58310570,31.74066340,-1.98399080,-1.25830952,2.05027947

>  <Name>
ligand

>  <RI>
0

>  <Rbt.Current_Directory>
/home/itssahil/PROJECTS/Mol_Feturizer/New_Systems/rnas/2GIS

>  <Rbt.Executable>
rbdock ($Id: //depot/dev/client3/rdock/2013.1/src/exe/rbdock.cxx#4 $)

>  <Rbt.Library>
libRbt.so (2013.1, Build901 2013/11/27)

>  <Rbt.Parameter_File>
/export/apps/rDock/src/rDock_2013.1_src/data/scripts/dock_solv.prm

>  <Rbt.Receptor>
prm/pocket_docking_2.prm

>  <SCORE>
-18.2544

>  <SCORE.INTER>
-15.2923

>  <SCORE.INTER.CONST>
1

>  <SCORE.INTER.POLAR>
0

>  <SCORE.INTER.ROT>
7

>  <SCORE.INTER.SOLV>
14.7615

>  <SCORE.INTER.VDW>
-23.382

>  <SCORE.INTER.norm>
-0.56638

>  <SCORE.INTRA>
-3.05845

>  <SCORE.INTRA.DIHEDRAL>
-2.04024

>  <SCORE.INTRA.DIHEDRAL.0>
9.40024

>  <SCORE.INTRA.POLAR>
0

>  <SCORE.INTRA.POLAR.0>
0

>  <SCORE.INTRA.REPUL>
0

>  <SCORE.INTRA.REPUL.0>
0

>  <SCORE.INTRA.SOLV>
-0.0990373

>  <SCORE.INTRA.SOLV.lig_0>
-47.1049

>  <SCORE.INTRA.VDW>
-1.98881

>  <SCORE.INTRA.VDW.0>
-1.50278

>  <SCORE.INTRA.norm>
-0.113276

>  <SCORE.RESTR>
0.0963624

>  <SCORE.RESTR.CAVITY>
0.0963624

>  <SCORE.RESTR.norm>
0.00356898

>  <SCORE.SYSTEM>
0

>  <SCORE.SYSTEM.CONST>
0

>  <SCORE.SYSTEM.DIHEDRAL>
0

>  <SCORE.SYSTEM.SOLV>
0

>  <SCORE.SYSTEM.norm>
0

>  <SCORE.heavy>
27

>  <SCORE.norm>
-0.676087

>  <RMSD>
1.153

$$$$
ligand
 OpenBabel11021811433D
libRbt.so/2013.1/901 2013/11/27
 27 29  0  0  0  0  0  0  0  0999 V2000
   48.2723   56.4025   26.4357 N   0  0  0  0  0  0  0  0  0  0  0  0
   47.9475   56.9108   27.7721 C   0  0  2  0  0  0  0  0  0  0  0  0
   48.1485   58.4154   27.8044 C   0  0  0  0  0  0  0  0  0  0  0  0
   47.5361   59.1329   27.0185 O   0  0  0  0  0  0  0  0  0  0  0  0
   48.8327   56.2416   28.8424 C   0  0  0  0  0  0  0  0  0  0  0  0
   48.6259   54.7286   28.7908 C   0  0  0  0  0  0  0  0  0  0  0  0
   49.6549   53.7563   29.9655 S   0  0  2  0  0  0  0  0  0  0  0  0
   49.3993   52.0287   29.4533 C   0  0  0  0  0  0  0  0  0  0  0  0
   48.5184   53.8836   31.3623 C   0  0  0  0  0  0  0  0  0  0  0  0
   49.1997   54.2838   32.6823 C   0  0  1  0  0  0  0  0  0  0  0  0
   49.8308   55.5881   32.5165 O   0  0  0  0  0  0  0  0  0  0  0  0
   48.0297   54.5033   33.6066 C   0  0  1  0  0  0  0  0  0  0  0  0
   47.7986   53.3274   34.3829 O   0  0  0  0  0  0  0  0  0  0  0  0
   48.4773   55.6516   34.5026 C   0  0  1  0  0  0  0  0  0  0  0  0
   49.0079   55.1910   35.7398 O   0  0  0  0  0  0  0  0  0  0  0  0
   49.5682   56.4422   33.6919 C   0  0  2  0  0  0  0  0  0  0  0  0
   48.9707   58.9149   28.5726 O   0  0  0  0  0  0  0  0  0  0  0  0
   45.5459   59.4251   32.1091 N   0  0  0  0  0  0  0  0  0  0  0  0
   45.5007   58.1779   32.5903 C   0  0  0  0  0  0  0  0  0  0  0  0
   46.6003   57.5474   32.9719 N   0  0  0  0  0  0  0  0  0  0  0  0
   47.8099   58.1209   32.8615 C   0  0  0  0  0  0  0  0  0  0  0  0
   47.9108   59.4376   32.3434 C   0  0  0  0  0  0  0  0  0  0  0  0
   46.7072   60.0844   31.9651 C   0  0  0  0  0  0  0  0  0  0  0  0
   46.7266   61.3640   31.4572 N   0  0  0  0  0  0  0  0  0  0  0  0
   49.2173   59.7695   32.3360 N   0  0  0  0  0  0  0  0  0  0  0  0
   49.9131   58.7701   32.7936 C   0  0  0  0  0  0  0  0  0  0  0  0
   49.0970   57.7287   33.1379 N   0  0  0  0  0  0  0  0  0  0  0  0
  2  1  1  6  0  0  0
  2  3  1  0  0  0  0
  2  5  1  0  0  0  0
  3  4  1  0  0  0  0
  3 17  1  0  0  0  0
  5  6  1  0  0  0  0
  7  6  1  6  0  0  0
  7  8  1  0  0  0  0
  7  9  1  0  0  0  0
 10  9  1  6  0  0  0
 10 11  1  0  0  0  0
 10 12  1  0  0  0  0
 11 16  1  0  0  0  0
 12 13  1  1  0  0  0
 12 14  1  0  0  0  0
 14 15  1  1  0  0  0
 14 16  1  0  0  0  0
 16 27  1  6  0  0  0
 18 19  2  0  0  0  0
 18 23  1  0  0  0  0
 19 20  1  0  0  0  0
 20 21  2  0  0  0  0
 21 22  1  0  0  0  0
 21 27  1  0  0  0  0
 22 23  2  0  0  0  0
 22 25  1  0  0  0  0
 23 24  1  0  0  0  0
 25 26  2  0  0  0  0
 26 27  1  0  0  0  0
M  END
>  <CHROM.1>
57.65509506,-58.54563653,177.88433209,-170.23204286,-132.59613799,60.24961694
90.64748947,48.34417295,56.67022381,31.30786281,-2.36997495,-1.27955148,1.72605099

>  <Name>
ligand

>  <RI>
0

>  <Rbt.Current_Directory>
/home/itssahil/PROJECTS/Mol_Feturizer/New_Systems/rnas/2GIS

>  <Rbt.Executable>
rbdock ($Id: //depot/dev/client3/rdock/2013.1/src/exe/rbdock.cxx#4 $)

>  <Rbt.Library>
libRbt.so (2013.1, Build901 2013/11/27)

>  <Rbt.Parameter_File>
/export/apps/rDock/src/rDock_2013.1_src/data/scripts/dock_solv.prm

>  <Rbt.Receptor>
prm/pocket_docking_2.prm

>  <SCORE>
-15.5032

>  <SCORE.INTER>
-12.9843

>  <SCORE.INTER.CONST>
1

>  <SCORE.INTER.POLAR>
0

>  <SCORE.INTER.ROT>
7

>  <SCORE.INTER.SOLV>
17.6299

>  <SCORE.INTER.VDW>
-22.7995

>  <SCORE.INTER.norm>
-0.480899

>  <SCORE.INTRA>
-2.51894

>  <SCORE.INTRA.DIHEDRAL>
-0.910055

>  <SCORE.INTRA.DIHEDRAL.0>
9.40024

>  <SCORE.INTRA.POLAR>
0

>  <SCORE.INTRA.POLAR.0>
0

>  <SCORE.INTRA.REPUL>
0

>  <SCORE.INTRA.REPUL.0>
0

>  <SCORE.INTRA.SOLV>
-2.34308

>  <SCORE.INTRA.SOLV.lig_0>
-47.1049

>  <SCORE.INTRA.VDW>
-0.892376

>  <SCORE.INTRA.VDW.0>
-1.50278

>  <SCORE.INTRA.norm>
-0.0932942

>  <SCORE.RESTR>
0

>  <SCORE.RESTR.CAVITY>
0

>  <SCORE.RESTR.norm>
0

>  <SCORE.SYSTEM>
0

>  <SCORE.SYSTEM.CONST>
0

>  <SCORE.SYSTEM.DIHEDRAL>
0

>  <SCORE.SYSTEM.SOLV>
0

>  <SCORE.SYSTEM.norm>
0

>  <SCORE.heavy>
27

>  <SCORE.norm>
-0.574193

>  <RMSD>
1.170

$$$$
ligand
 OpenBabel11021811433D
libRbt.so/2013.1/901 2013/11/27
 27 29  0  0  0  0  0  0  0  0999 V2000
   47.1114   57.5784   28.5900 N   0  0  0  0  0  0  0  0  0  0  0  0
   48.0061   56.6896   27.8419 C   0  0  2  0  0  0  0  0  0  0  0  0
   48.1178   57.1741   26.4073 C   0  0  0  0  0  0  0  0  0  0  0  0
   48.8865   56.6158   25.6295 O   0  0  0  0  0  0  0  0  0  0  0  0
   47.4824   55.2398   27.8652 C   0  0  0  0  0  0  0  0  0  0  0  0
   47.3856   54.7640   29.3139 C   0  0  0  0  0  0  0  0  0  0  0  0
   48.9946   54.5715   30.1848 S   0  0  2  0  0  0  0  0  0  0  0  0
   49.5802   52.9255   29.6749 C   0  0  0  0  0  0  0  0  0  0  0  0
   48.2894   54.2100   31.8068 C   0  0  0  0  0  0  0  0  0  0  0  0
   49.2110   54.5820   32.9812 C   0  0  1  0  0  0  0  0  0  0  0  0
   49.8989   55.8298   32.6704 O   0  0  0  0  0  0  0  0  0  0  0  0
   48.2329   54.9098   34.0799 C   0  0  1  0  0  0  0  0  0  0  0  0
   48.0504   53.7709   34.9216 O   0  0  0  0  0  0  0  0  0  0  0  0
   48.9081   56.0373   34.8510 C   0  0  1  0  0  0  0  0  0  0  0  0
   49.6045   55.5613   35.9969 O   0  0  0  0  0  0  0  0  0  0  0  0
   49.9016   56.7246   33.8447 C   0  0  2  0  0  0  0  0  0  0  0  0
   47.4882   58.1650   26.0365 O   0  0  0  0  0  0  0  0  0  0  0  0
   45.9569   59.6741   32.0222 N   0  0  0  0  0  0  0  0  0  0  0  0
   45.9133   58.3921   32.4011 C   0  0  0  0  0  0  0  0  0  0  0  0
   46.9892   57.7741   32.8624 N   0  0  0  0  0  0  0  0  0  0  0  0
   48.1761   58.3983   32.9386 C   0  0  0  0  0  0  0  0  0  0  0  0
   48.2760   59.7545   32.5350 C   0  0  0  0  0  0  0  0  0  0  0  0
   47.0958   60.3846   32.0658 C   0  0  0  0  0  0  0  0  0  0  0  0
   47.1154   61.7001   31.6598 N   0  0  0  0  0  0  0  0  0  0  0  0
   49.5582   60.1334   32.7067 N   0  0  0  0  0  0  0  0  0  0  0  0
   50.2414   59.1271   33.1682 C   0  0  0  0  0  0  0  0  0  0  0  0
   49.4393   58.0327   33.3356 N   0  0  0  0  0  0  0  0  0  0  0  0
  2  1  1  1  0  0  0
  2  3  1  0  0  0  0
  2  5  1  0  0  0  0
  3  4  1  0  0  0  0
  3 17  1  0  0  0  0
  5  6  1  0  0  0  0
  7  6  1  6  0  0  0
  7  8  1  0  0  0  0
  7  9  1  0  0  0  0
 10  9  1  6  0  0  0
 10 11  1  0  0  0  0
 10 12  1  0  0  0  0
 11 16  1  0  0  0  0
 12 13  1  1  0  0  0
 12 14  1  0  0  0  0
 14 15  1  1  0  0  0
 14 16  1  0  0  0  0
 16 27  1  6  0  0  0
 18 19  2  0  0  0  0
 18 23  1  0  0  0  0
 19 20  1  0  0  0  0
 20 21  2  0  0  0  0
 21 22  1  0  0  0  0
 21 27  1  0  0  0  0
 22 23  2  0  0  0  0
 22 25  1  0  0  0  0
 23 24  1  0  0  0  0
 25 26  2  0  0  0  0
 26 27  1  0  0  0  0
M  END
>  <CHROM.1>
175.52096812,-59.33323963,-67.16566348,-82.92268390,-153.98446514,38.27179231
72.00051849,48.34416234,56.79868047,31.32892496,2.06120982,1.31916026,-2.06150034

>  <Name>
ligand

>  <RI>
0

>  <Rbt.Current_Directory>
/home/itssahil/PROJECTS/Mol_Feturizer/New_Systems/rnas/2GIS

>  <Rbt.Executable>
rbdock ($Id: //depot/dev/client3/rdock/2013.1/src/exe/rbdock.cxx#4 $)

>  <Rbt.Library>
libRbt.so (2013.1, Build901 2013/11/27)

>  <Rbt.Parameter_File>
/export/apps/rDock/src/rDock_2013.1_src/data/scripts/dock_solv.prm

>  <Rbt.Receptor>
prm/pocket_docking_3.prm

>  <SCORE>
-16.8383

>  <SCORE.INTER>
-13.7334

>  <SCORE.INTER.CONST>
1

>  <SCORE.INTER.POLAR>
0

>  <SCORE.INTER.ROT>
7

>  <SCORE.INTER.SOLV>
17.0301

>  <SCORE.INTER.VDW>
-23.099

>  <SCORE.INTER.norm>
-0.508645

>  <SCORE.INTRA>
-3.10487

>  <SCORE.INTRA.DIHEDRAL>
-1.40173

>  <SCORE.INTRA.DIHEDRAL.0>
9.40024

>  <SCORE.INTRA.POLAR>
0

>  <SCORE.INTRA.POLAR.0>
0

>  <SCORE.INTRA.REPUL>
0

>  <SCORE.INTRA.REPUL.0>
0

>  <SCORE.INTRA.SOLV>
-1.73895

>  <SCORE.INTRA.SOLV.lig_0>
-47.1049

>  <SCORE.INTRA.VDW>
-1.53453

>  <SCORE.INTRA.VDW.0>
-1.50278

>  <SCORE.INTRA.norm>
-0.114995

>  <SCORE.RESTR>
0

>  <SCORE.RESTR.CAVITY>
0

>  <SCORE.RESTR.norm>
0

>  <SCORE.SYSTEM>
0

>  <SCORE.SYSTEM.CONST>
0

>  <SCORE.SYSTEM.DIHEDRAL>
0

>  <SCORE.SYSTEM.SOLV>
0

>  <SCORE.SYSTEM.norm>
0

>  <SCORE.heavy>
27

>  <SCORE.norm>
-0.62364

>  <RMSD>
1.197

$$$$
ligand
 OpenBabel11021811433D
libRbt.so/2013.1/901 2013/11/27
 27 29  0  0  0  0  0  0  0  0999 V2000
   47.8511   56.9244   25.7197 N   0  0  0  0  0  0  0  0  0  0  0  0
   47.5736   57.0782   27.1513 C   0  0  2  0  0  0  0  0  0  0  0  0
   47.0095   58.4636   27.4118 C   0  0  0  0  0  0  0  0  0  0  0  0
   46.4795   58.7172   28.4899 O   0  0  0  0  0  0  0  0  0  0  0  0
   48.8551   56.8702   27.9828 C   0  0  0  0  0  0  0  0  0  0  0  0
   49.3546   55.4397   27.7862 C   0  0  0  0  0  0  0  0  0  0  0  0
   50.4330   54.7944   29.1297 S   0  0  2  0  0  0  0  0  0  0  0  0
   50.6287   53.0294   28.7314 C   0  0  0  0  0  0  0  0  0  0  0  0
   49.1445   54.7320   30.3925 C   0  0  0  0  0  0  0  0  0  0  0  0
   49.6644   54.9649   31.8217 C   0  0  1  0  0  0  0  0  0  0  0  0
   50.2283   56.3068   31.9109 O   0  0  0  0  0  0  0  0  0  0  0  0
   48.3965   54.9924   32.6359 C   0  0  1  0  0  0  0  0  0  0  0  0
   48.1607   53.7060   33.2087 O   0  0  0  0  0  0  0  0  0  0  0  0
   48.6812   56.0160   33.7281 C   0  0  1  0  0  0  0  0  0  0  0  0
   49.1122   55.4035   34.9379 O   0  0  0  0  0  0  0  0  0  0  0  0
   49.7977   56.9661   33.1598 C   0  0  2  0  0  0  0  0  0  0  0  0
   47.0238   59.3162   26.5237 O   0  0  0  0  0  0  0  0  0  0  0  0
   45.7338   60.0311   31.8665 N   0  0  0  0  0  0  0  0  0  0  0  0
   45.7083   58.7377   32.2066 C   0  0  0  0  0  0  0  0  0  0  0  0
   46.8161   58.0893   32.5297 N   0  0  0  0  0  0  0  0  0  0  0  0
   48.0153   58.6937   32.4982 C   0  0  0  0  0  0  0  0  0  0  0  0
   48.0955   60.0613   32.1299 C   0  0  0  0  0  0  0  0  0  0  0  0
   46.8833   60.7236   31.8105 C   0  0  0  0  0  0  0  0  0  0  0  0
   46.8827   62.0516   31.4472 N   0  0  0  0  0  0  0  0  0  0  0  0
   49.3952   60.4160   32.1752 N   0  0  0  0  0  0  0  0  0  0  0  0
   50.1058   59.3851   32.5283 C   0  0  0  0  0  0  0  0  0  0  0  0
   49.3069   58.2971   32.7455 N   0  0  0  0  0  0  0  0  0  0  0  0
  2  1  1  6  0  0  0
  2  3  1  0  0  0  0
  2  5  1  0  0  0  0
  3  4  1  0  0  0  0
  3 17  1  0  0  0  0
  5  6  1  0  0  0  0
  7  6  1  6  0  0  0
  7  8  1  0  0  0  0
  7  9  1  0  0  0  0
 10  9  1  6  0  0  0
 10 11  1  0  0  0  0
 10 12  1  0  0  0  0
 11 16  1  0  0  0  0
 12 13  1  1  0  0  0
 12 14  1  0  0  0  0
 14 15  1  1  0  0  0
 14 16  1  0  0  0  0
 16 27  1  6  0  0  0
 18 19  2  0  0  0  0
 18 23  1  0  0  0  0
 19 20  1  0  0  0  0
 20 21  2  0  0  0  0
 21 22  1  0  0  0  0
 21 27  1  0  0  0  0
 22 23  2  0  0  0  0
 22 25  1  0  0  0  0
 23 24  1  0  0  0  0
 25 26  2  0  0  0  0
 26 27  1  0  0  0  0
M  END
>  <CHROM.1>
166.46858466,-62.88812881,-157.32992419,171.39515020,-149.14426637,62.68768869
96.67947063,48.46051144,57.22226427,30.72974425,0.56568408,1.11549636,-1.75212690

>  <Name>
ligand

>  <RI>
0

>  <Rbt.Current_Directory>
/home/itssahil/PROJECTS/Mol_Feturizer/New_Systems/rnas/2GIS

>  <Rbt.Executable>
rbdock ($Id: //depot/dev/client3/rdock/2013.1/src/exe/rbdock.cxx#4 $)

>  <Rbt.Library>
libRbt.so (2013.1, Build901 2013/11/27)

>  <Rbt.Parameter_File>
/export/apps/rDock/src/rDock_2013.1_src/data/scripts/dock_solv.prm

>  <Rbt.Receptor>
prm/pocket_docking_2.prm

>  <SCORE>
-15.5948

>  <SCORE.INTER>
-12.4342

>  <SCORE.INTER.CONST>
1

>  <SCORE.INTER.POLAR>
0

>  <SCORE.INTER.ROT>
7

>  <SCORE.INTER.SOLV>
22.6833

>  <SCORE.INTER.VDW>
-24.1172

>  <SCORE.INTER.norm>
-0.460525

>  <SCORE.INTRA>
-3.1893

>  <SCORE.INTRA.DIHEDRAL>
-1.21301

>  <SCORE.INTRA.DIHEDRAL.0>
9.40024

>  <SCORE.INTRA.POLAR>
0

>  <SCORE.INTRA.POLAR.0>
0

>  <SCORE.INTRA.REPUL>
0

>  <SCORE.INTRA.REPUL.0>
0

>  <SCORE.INTRA.SOLV>
-2.40098

>  <SCORE.INTRA.SOLV.lig_0>
-47.1049

>  <SCORE.INTRA.VDW>
-1.38231

>  <SCORE.INTRA.VDW.0>
-1.50278

>  <SCORE.INTRA.norm>
-0.118122

>  <SCORE.RESTR>
0.028673

>  <SCORE.RESTR.CAVITY>
0.028673

>  <SCORE.RESTR.norm>
0.00106196

>  <SCORE.SYSTEM>
0

>  <SCORE.SYSTEM.CONST>
0

>  <SCORE.SYSTEM.DIHEDRAL>
0

>  <SCORE.SYSTEM.SOLV>
0

>  <SCORE.SYSTEM.norm>
0

>  <SCORE.heavy>
27

>  <SCORE.norm>
-0.577585

>  <RMSD>
1.208

$$$$
ligand
 OpenBabel11021811433D
libRbt.so/2013.1/901 2013/11/27
 27 29  0  0  0  0  0  0  0  0999 V2000
   48.0888   57.8076   26.9125 N   0  0  0  0  0  0  0  0  0  0  0  0
   47.4398   57.4358   28.1736 C   0  0  2  0  0  0  0  0  0  0  0  0
   46.7584   58.6541   28.7709 C   0  0  0  0  0  0  0  0  0  0  0  0
   47.3723   59.3817   29.5463 O   0  0  0  0  0  0  0  0  0  0  0  0
   48.4685   56.8694   29.1725 C   0  0  0  0  0  0  0  0  0  0  0  0
   48.9912   55.5318   28.6508 C   0  0  0  0  0  0  0  0  0  0  0  0
   50.0917   54.6159   29.8059 S   0  0  2  0  0  0  0  0  0  0  0  0
   50.1258   52.9237   29.1371 C   0  0  0  0  0  0  0  0  0  0  0  0
   48.8774   54.4488   31.1311 C   0  0  0  0  0  0  0  0  0  0  0  0
   49.4290   54.7934   32.5254 C   0  0  1  0  0  0  0  0  0  0  0  0
   50.0171   56.1274   32.4889 O   0  0  0  0  0  0  0  0  0  0  0  0
   48.1778   54.9139   33.3569 C   0  0  1  0  0  0  0  0  0  0  0  0
   47.9316   53.6858   34.0423 O   0  0  0  0  0  0  0  0  0  0  0  0
   48.5011   56.0218   34.3519 C   0  0  1  0  0  0  0  0  0  0  0  0
   48.9451   55.5072   35.6019 O   0  0  0  0  0  0  0  0  0  0  0  0
   49.6221   56.8990   33.6841 C   0  0  2  0  0  0  0  0  0  0  0  0
   45.5723   58.8813   28.5311 O   0  0  0  0  0  0  0  0  0  0  0  0
   45.6183   59.8362   31.9742 N   0  0  0  0  0  0  0  0  0  0  0  0
   45.5834   58.5637   32.3848 C   0  0  0  0  0  0  0  0  0  0  0  0
   46.6750   57.9482   32.8110 N   0  0  0  0  0  0  0  0  0  0  0  0
   47.8684   58.5646   32.8184 C   0  0  0  0  0  0  0  0  0  0  0  0
   47.9589   59.9103   32.3787 C   0  0  0  0  0  0  0  0  0  0  0  0
   46.7628   60.5386   31.9491 C   0  0  0  0  0  0  0  0  0  0  0  0
   46.7727   61.8441   31.5118 N   0  0  0  0  0  0  0  0  0  0  0  0
   49.2502   60.2830   32.4829 N   0  0  0  0  0  0  0  0  0  0  0  0
   49.9469   59.2824   32.9364 C   0  0  0  0  0  0  0  0  0  0  0  0
   49.1459   58.1985   33.1659 N   0  0  0  0  0  0  0  0  0  0  0  0
  2  1  1  6  0  0  0
  2  3  1  0  0  0  0
  2  5  1  0  0  0  0
  3  4  1  0  0  0  0
  3 17  1  0  0  0  0
  5  6  1  0  0  0  0
  7  6  1  6  0  0  0
  7  8  1  0  0  0  0
  7  9  1  0  0  0  0
 10  9  1  6  0  0  0
 10 11  1  0  0  0  0
 10 12  1  0  0  0  0
 11 16  1  0  0  0  0
 12 13  1  1  0  0  0
 12 14  1  0  0  0  0
 14 15  1  1  0  0  0
 14 16  1  0  0  0  0
 16 27  1  6  0  0  0
 18 19  2  0  0  0  0
 18 23  1  0  0  0  0
 19 20  1  0  0  0  0
 20 21  2  0  0  0  0
 21 22  1  0  0  0  0
 21 27  1  0  0  0  0
 22 23  2  0  0  0  0
 22 25  1  0  0  0  0
 23 24  1  0  0  0  0
 25 26  2  0  0  0  0
 26 27  1  0  0  0  0
M  END
>  <CHROM.1>
-90.35252766,-67.36115743,-173.46329511,163.69756450,-133.79508864,54.17707209
91.53225968,48.25282223,57.19058014,31.39860662,-3.11704408,-1.14086250,1.39897680

>  <Name>
ligand

>  <RI>
0

>  <Rbt.Current_Directory>
/home/itssahil/PROJECTS/Mol_Feturizer/New_Systems/rnas/2GIS

>  <Rbt.Executable>
rbdock ($Id: //depot/dev/client3/rdock/2013.1/src/exe/rbdock.cxx#4 $)

>  <Rbt.Library>
libRbt.so (2013.1, Build901 2013/11/27)

>  <Rbt.Parameter_File>
/export/apps/rDock/src/rDock_2013.1_src/data/scripts/dock_solv.prm

>  <Rbt.Receptor>
prm/pocket_docking_2.prm

>  <SCORE>
-16.3314

>  <SCORE.INTER>
-12.6344

>  <SCORE.INTER.CONST>
1

>  <SCORE.INTER.POLAR>
0

>  <SCORE.INTER.ROT>
7

>  <SCORE.INTER.SOLV>
19.8716

>  <SCORE.INTER.VDW>
-23.3135

>  <SCORE.INTER.norm>
-0.467943

>  <SCORE.INTRA>
-3.697

>  <SCORE.INTRA.DIHEDRAL>
-1.09792

>  <SCORE.INTRA.DIHEDRAL.0>
9.40024

>  <SCORE.INTRA.POLAR>
0

>  <SCORE.INTRA.POLAR.0>
0

>  <SCORE.INTRA.REPUL>
0

>  <SCORE.INTRA.REPUL.0>
0

>  <SCORE.INTRA.SOLV>
-1.68924

>  <SCORE.INTRA.SOLV.lig_0>
-47.1049

>  <SCORE.INTRA.VDW>
-2.30342

>  <SCORE.INTRA.VDW.0>
-1.50278

>  <SCORE.INTRA.norm>
-0.136926

>  <SCORE.RESTR>
0

>  <SCORE.RESTR.CAVITY>
0

>  <SCORE.RESTR.norm>
0

>  <SCORE.SYSTEM>
0

>  <SCORE.SYSTEM.CONST>
0

>  <SCORE.SYSTEM.DIHEDRAL>
0

>  <SCORE.SYSTEM.SOLV>
0

>  <SCORE.SYSTEM.norm>
0

>  <SCORE.heavy>
27

>  <SCORE.norm>
-0.604868

>  <RMSD>
1.234

$$$$
ligand
 OpenBabel11021811433D
libRbt.so/2013.1/901 2013/11/27
 27 29  0  0  0  0  0  0  0  0999 V2000
   48.2246   57.6235   26.5804 N   0  0  0  0  0  0  0  0  0  0  0  0
   48.0011   57.1756   27.9586 C   0  0  2  0  0  0  0  0  0  0  0  0
   48.0008   58.3766   28.8876 C   0  0  0  0  0  0  0  0  0  0  0  0
   46.9373   58.8469   29.2817 O   0  0  0  0  0  0  0  0  0  0  0  0
   49.0927   56.1777   28.3938 C   0  0  0  0  0  0  0  0  0  0  0  0
   48.7676   55.6565   29.7928 C   0  0  0  0  0  0  0  0  0  0  0  0
   49.7681   54.2145   30.3441 S   0  0  2  0  0  0  0  0  0  0  0  0
   49.3823   52.9168   29.1279 C   0  0  0  0  0  0  0  0  0  0  0  0
   48.6887   53.7484   31.7140 C   0  0  0  0  0  0  0  0  0  0  0  0
   49.1979   54.2106   33.0903 C   0  0  1  0  0  0  0  0  0  0  0  0
   49.8212   55.5219   32.9521 O   0  0  0  0  0  0  0  0  0  0  0  0
   47.9208   54.4369   33.8579 C   0  0  1  0  0  0  0  0  0  0  0  0
   47.6183   53.2846   34.6450 O   0  0  0  0  0  0  0  0  0  0  0  0
   48.2361   55.6261   34.7568 C   0  0  1  0  0  0  0  0  0  0  0  0
   48.6210   55.2220   36.0656 O   0  0  0  0  0  0  0  0  0  0  0  0
   49.4030   56.4113   34.0538 C   0  0  2  0  0  0  0  0  0  0  0  0
   49.0606   58.9212   29.1975 O   0  0  0  0  0  0  0  0  0  0  0  0
   45.5030   59.3636   32.1419 N   0  0  0  0  0  0  0  0  0  0  0  0
   45.4135   58.1538   32.7053 C   0  0  0  0  0  0  0  0  0  0  0  0
   46.4857   57.5277   33.1644 N   0  0  0  0  0  0  0  0  0  0  0  0
   47.7113   58.0662   33.0544 C   0  0  0  0  0  0  0  0  0  0  0  0
   47.8592   59.3416   32.4513 C   0  0  0  0  0  0  0  0  0  0  0  0
   46.6834   59.9864   31.9910 C   0  0  0  0  0  0  0  0  0  0  0  0
   46.7487   61.2273   31.3979 N   0  0  0  0  0  0  0  0  0  0  0  0
   49.1728   59.6441   32.4636 N   0  0  0  0  0  0  0  0  0  0  0  0
   49.8303   58.6639   33.0106 C   0  0  0  0  0  0  0  0  0  0  0  0
   48.9796   57.6664   33.3985 N   0  0  0  0  0  0  0  0  0  0  0  0
  2  1  1  6  0  0  0
  2  3  1  0  0  0  0
  2  5  1  0  0  0  0
  3  4  1  0  0  0  0
  3 17  1  0  0  0  0
  5  6  1  0  0  0  0
  7  6  1  6  0  0  0
  7  8  1  0  0  0  0
  7  9  1  0  0  0  0
 10  9  1  6  0  0  0
 10 11  1  0  0  0  0
 10 12  1  0  0  0  0
 11 16  1  0  0  0  0
 12 13  1  1  0  0  0
 12 14  1  0  0  0  0
 14 15  1  1  0  0  0
 14 16  1  0  0  0  0
 16 27  1  6  0  0  0
 18 19  2  0  0  0  0
 18 23  1  0  0  0  0
 19 20  1  0  0  0  0
 20 21  2  0  0  0  0
 21 22  1  0  0  0  0
 21 27  1  0  0  0  0
 22 23  2  0  0  0  0
 22 25  1  0  0  0  0
 23 24  1  0  0  0  0
 25 26  2  0  0  0  0
 26 27  1  0  0  0  0
M  END
>  <CHROM.1>
100.59817990,-175.81586727,168.40832804,-60.86053762,-100.78973491,36.92071660
96.60322790,48.28590399,56.77228522,31.64668923,-2.12655038,-1.21488291,1.88822883

>  <Name>
ligand

>  <RI>
0

>  <Rbt.Current_Directory>
/home/itssahil/PROJECTS/Mol_Feturizer/New_Systems/rnas/2GIS

>  <Rbt.Executable>
rbdock ($Id: //depot/dev/client3/rdock/2013.1/src/exe/rbdock.cxx#4 $)

>  <Rbt.Library>
libRbt.so (2013.1, Build901 2013/11/27)

>  <Rbt.Parameter_File>
/export/apps/rDock/src/rDock_2013.1_src/data/scripts/dock_solv.prm

>  <Rbt.Receptor>
prm/pocket_docking_2.prm

>  <SCORE>
-16.8195

>  <SCORE.INTER>
-12.414

>  <SCORE.INTER.CONST>
1

>  <SCORE.INTER.POLAR>
0

>  <SCORE.INTER.ROT>
7

>  <SCORE.INTER.SOLV>
18.5287

>  <SCORE.INTER.VDW>
-22.7189

>  <SCORE.INTER.norm>
-0.459779

>  <SCORE.INTRA>
-4.42069

>  <SCORE.INTRA.DIHEDRAL>
-1.38533

>  <SCORE.INTRA.DIHEDRAL.0>
9.40024

>  <SCORE.INTRA.POLAR>
0

>  <SCORE.INTRA.POLAR.0>
0

>  <SCORE.INTRA.REPUL>
0

>  <SCORE.INTRA.REPUL.0>
0

>  <SCORE.INTRA.SOLV>
-2.22649

>  <SCORE.INTRA.SOLV.lig_0>
-47.1049

>  <SCORE.INTRA.VDW>
-2.61478

>  <SCORE.INTRA.VDW.0>
-1.50278

>  <SCORE.INTRA.norm>
-0.163729

>  <SCORE.RESTR>
0.0152067

>  <SCORE.RESTR.CAVITY>
0.0152067

>  <SCORE.RESTR.norm>
0.000563212

>  <SCORE.SYSTEM>
0

>  <SCORE.SYSTEM.CONST>
0

>  <SCORE.SYSTEM.DIHEDRAL>
0

>  <SCORE.SYSTEM.SOLV>
0

>  <SCORE.SYSTEM.norm>
0

>  <SCORE.heavy>
27

>  <SCORE.norm>
-0.622946

>  <RMSD>
1.243

$$$$
ligand
 OpenBabel11021811433D
libRbt.so/2013.1/901 2013/11/27
 27 29  0  0  0  0  0  0  0  0999 V2000
   47.2149   56.6591   28.1801 N   0  0  0  0  0  0  0  0  0  0  0  0
   48.4495   56.9677   28.9085 C   0  0  2  0  0  0  0  0  0  0  0  0
   48.6445   58.4726   28.9598 C   0  0  0  0  0  0  0  0  0  0  0  0
   48.4373   59.1524   27.9586 O   0  0  0  0  0  0  0  0  0  0  0  0
   49.6654   56.3055   28.2303 C   0  0  0  0  0  0  0  0  0  0  0  0
   49.4634   54.7911   28.2054 C   0  0  0  0  0  0  0  0  0  0  0  0
   50.0956   53.8916   29.6803 S   0  0  2  0  0  0  0  0  0  0  0  0
   49.4815   52.1927   29.4600 C   0  0  0  0  0  0  0  0  0  0  0  0
   48.8848   54.5583   30.8415 C   0  0  0  0  0  0  0  0  0  0  0  0
   49.4564   54.8370   32.2424 C   0  0  1  0  0  0  0  0  0  0  0  0
   50.0620   56.1636   32.2548 O   0  0  0  0  0  0  0  0  0  0  0  0
   48.2163   54.9388   33.0928 C   0  0  1  0  0  0  0  0  0  0  0  0
   47.9611   53.6863   33.7290 O   0  0  0  0  0  0  0  0  0  0  0  0
   48.5654   55.9996   34.1293 C   0  0  1  0  0  0  0  0  0  0  0  0
   49.0164   55.4274   35.3514 O   0  0  0  0  0  0  0  0  0  0  0  0
   49.6907   56.8894   33.4857 C   0  0  2  0  0  0  0  0  0  0  0  0
   49.0707   59.0082   29.9832 O   0  0  0  0  0  0  0  0  0  0  0  0
   45.7231   59.9244   31.8645 N   0  0  0  0  0  0  0  0  0  0  0  0
   45.6783   58.6325   32.2079 C   0  0  0  0  0  0  0  0  0  0  0  0
   46.7612   57.9921   32.6196 N   0  0  0  0  0  0  0  0  0  0  0  0
   47.9558   58.6034   32.6787 C   0  0  0  0  0  0  0  0  0  0  0  0
   48.0569   59.9698   32.3110 C   0  0  0  0  0  0  0  0  0  0  0  0
   46.8696   60.6235   31.8948 C   0  0  0  0  0  0  0  0  0  0  0  0
   46.8900   61.9498   31.5260 N   0  0  0  0  0  0  0  0  0  0  0  0
   49.3471   60.3324   32.4557 N   0  0  0  0  0  0  0  0  0  0  0  0
   50.0337   59.3073   32.8681 C   0  0  0  0  0  0  0  0  0  0  0  0
   49.2264   58.2156   33.0278 N   0  0  0  0  0  0  0  0  0  0  0  0
  2  1  1  6  0  0  0
  2  3  1  0  0  0  0
  2  5  1  0  0  0  0
  3  4  1  0  0  0  0
  3 17  1  0  0  0  0
  5  6  1  0  0  0  0
  7  6  1  6  0  0  0
  7  8  1  0  0  0  0
  7  9  1  0  0  0  0
 10  9  1  6  0  0  0
 10 11  1  0  0  0  0
 10 12  1  0  0  0  0
 11 16  1  0  0  0  0
 12 13  1  1  0  0  0
 12 14  1  0  0  0  0
 14 15  1  1  0  0  0
 14 16  1  0  0  0  0
 16 27  1  6  0  0  0
 18 19  2  0  0  0  0
 18 23  1  0  0  0  0
 19 20  1  0  0  0  0
 20 21  2  0  0  0  0
 21 22  1  0  0  0  0
 21 27  1  0  0  0  0
 22 23  2  0  0  0  0
 22 25  1  0  0  0  0
 23 24  1  0  0  0  0
 25 26  2  0  0  0  0
 26 27  1  0  0  0  0
M  END
>  <CHROM.1>
-43.00738361,-59.75603987,-89.21843305,171.60998945,-143.02519956,85.42747251
89.72739298,48.58055562,57.01228837,31.31391076,0.00810252,1.27583441,-1.34676576

>  <Name>
ligand

>  <RI>
0

>  <Rbt.Current_Directory>
/home/itssahil/PROJECTS/Mol_Feturizer/New_Systems/rnas/2GIS

>  <Rbt.Executable>
rbdock ($Id: //depot/dev/client3/rdock/2013.1/src/exe/rbdock.cxx#4 $)

>  <Rbt.Library>
libRbt.so (2013.1, Build901 2013/11/27)

>  <Rbt.Parameter_File>
/export/apps/rDock/src/rDock_2013.1_src/data/scripts/dock_solv.prm

>  <Rbt.Receptor>
prm/pocket_docking_2.prm

>  <SCORE>
-16.3591

>  <SCORE.INTER>
-13.7181

>  <SCORE.INTER.CONST>
1

>  <SCORE.INTER.POLAR>
0

>  <SCORE.INTER.ROT>
7

>  <SCORE.INTER.SOLV>
16.939

>  <SCORE.INTER.VDW>
-23.0584

>  <SCORE.INTER.norm>
-0.508079

>  <SCORE.INTRA>
-2.64094

>  <SCORE.INTRA.DIHEDRAL>
1.99907

>  <SCORE.INTRA.DIHEDRAL.0>
9.40024

>  <SCORE.INTRA.POLAR>
0

>  <SCORE.INTRA.POLAR.0>
0

>  <SCORE.INTRA.REPUL>
0

>  <SCORE.INTRA.REPUL.0>
0

>  <SCORE.INTRA.SOLV>
-1.33434

>  <SCORE.INTRA.SOLV.lig_0>
-47.1049

>  <SCORE.INTRA.VDW>
-2.9733

>  <SCORE.INTRA.VDW.0>
-1.50278

>  <SCORE.INTRA.norm>
-0.0978124

>  <SCORE.RESTR>
0

>  <SCORE.RESTR.CAVITY>
0

>  <SCORE.RESTR.norm>
0

>  <SCORE.SYSTEM>
0

>  <SCORE.SYSTEM.CONST>
0

>  <SCORE.SYSTEM.DIHEDRAL>
0

>  <SCORE.SYSTEM.SOLV>
0

>  <SCORE.SYSTEM.norm>
0

>  <SCORE.heavy>
27

>  <SCORE.norm>
-0.605891

>  <RMSD>
1.261

$$$$
ligand
 OpenBabel11021811433D
libRbt.so/2013.1/901 2013/11/27
 27 29  0  0  0  0  0  0  0  0999 V2000
   48.8846   56.6716   26.8501 N   0  0  0  0  0  0  0  0  0  0  0  0
   48.0531   56.8243   28.0481 C   0  0  2  0  0  0  0  0  0  0  0  0
   48.4809   58.0682   28.8063 C   0  0  0  0  0  0  0  0  0  0  0  0
   48.1078   58.2398   29.9634 O   0  0  0  0  0  0  0  0  0  0  0  0
   48.1753   55.5875   28.9605 C   0  0  0  0  0  0  0  0  0  0  0  0
   49.6368   55.4060   29.3673 C   0  0  0  0  0  0  0  0  0  0  0  0
   49.9964   53.8882   30.3426 S   0  0  2  0  0  0  0  0  0  0  0  0
   49.1671   52.5594   29.4160 C   0  0  0  0  0  0  0  0  0  0  0  0
   48.7933   54.2136   31.6487 C   0  0  0  0  0  0  0  0  0  0  0  0
   49.4237   54.6923   32.9679 C   0  0  1  0  0  0  0  0  0  0  0  0
   50.0526   55.9903   32.7521 O   0  0  0  0  0  0  0  0  0  0  0  0
   48.2195   54.9537   33.8357 C   0  0  1  0  0  0  0  0  0  0  0  0
   47.9672   53.8211   34.6678 O   0  0  0  0  0  0  0  0  0  0  0  0
   48.6273   56.1537   34.6813 C   0  0  1  0  0  0  0  0  0  0  0  0
   49.1151   55.7672   35.9608 O   0  0  0  0  0  0  0  0  0  0  0  0
   49.7423   56.9065   33.8675 C   0  0  2  0  0  0  0  0  0  0  0  0
   49.1484   58.9375   28.2455 O   0  0  0  0  0  0  0  0  0  0  0  0
   45.7611   59.7693   31.9869 N   0  0  0  0  0  0  0  0  0  0  0  0
   45.7055   58.5515   32.5373 C   0  0  0  0  0  0  0  0  0  0  0  0
   46.7948   57.9507   32.9897 N   0  0  0  0  0  0  0  0  0  0  0  0
   48.0049   58.5242   32.8857 C   0  0  0  0  0  0  0  0  0  0  0  0
   48.1171   59.8097   32.2964 C   0  0  0  0  0  0  0  0  0  0  0  0
   46.9237   60.4264   31.8429 C   0  0  0  0  0  0  0  0  0  0  0  0
   46.9543   61.6749   31.2632 N   0  0  0  0  0  0  0  0  0  0  0  0
   49.4217   60.1485   32.3121 N   0  0  0  0  0  0  0  0  0  0  0  0
   50.1064   59.1812   32.8486 C   0  0  0  0  0  0  0  0  0  0  0  0
   49.2839   58.1563   33.2256 N   0  0  0  0  0  0  0  0  0  0  0  0
  2  1  1  6  0  0  0
  2  3  1  0  0  0  0
  2  5  1  0  0  0  0
  3  4  1  0  0  0  0
  3 17  1  0  0  0  0
  5  6  1  0  0  0  0
  7  6  1  6  0  0  0
  7  8  1  0  0  0  0
  7  9  1  0  0  0  0
 10  9  1  6  0  0  0
 10 11  1  0  0  0  0
 10 12  1  0  0  0  0
 11 16  1  0  0  0  0
 12 13  1  1  0  0  0
 12 14  1  0  0  0  0
 14 15  1  1  0  0  0
 14 16  1  0  0  0  0
 16 27  1  6  0  0  0
 18 19  2  0  0  0  0
 18 23  1  0  0  0  0
 19 20  1  0  0  0  0
 20 21  2  0  0  0  0
 21 22  1  0  0  0  0
 21 27  1  0  0  0  0
 22 23  2  0  0  0  0
 22 25  1  0  0  0  0
 23 24  1  0  0  0  0
 25 26  2  0  0  0  0
 26 27  1  0  0  0  0
M  END
>  <CHROM.1>
-165.37766694,59.05630193,-174.90848945,47.88931217,-105.01486160,64.97254913
90.90302360,48.56545949,56.92126355,31.58140737,-0.06279702,1.28006735,-1.41571826

>  <Name>
ligand

>  <RI>
0

>  <Rbt.Current_Directory>
/home/itssahil/PROJECTS/Mol_Feturizer/New_Systems/rnas/2GIS

>  <Rbt.Executable>
rbdock ($Id: //depot/dev/client3/rdock/2013.1/src/exe/rbdock.cxx#4 $)

>  <Rbt.Library>
libRbt.so (2013.1, Build901 2013/11/27)

>  <Rbt.Parameter_File>
/export/apps/rDock/src/rDock_2013.1_src/data/scripts/dock_solv.prm

>  <Rbt.Receptor>
prm/pocket_docking_3.prm

>  <SCORE>
-18.0043

>  <SCORE.INTER>
-14.3134

>  <SCORE.INTER.CONST>
1

>  <SCORE.INTER.POLAR>
0

>  <SCORE.INTER.ROT>
7

>  <SCORE.INTER.SOLV>
19.2713

>  <SCORE.INTER.VDW>
-24.2327

>  <SCORE.INTER.norm>
-0.530126

>  <SCORE.INTRA>
-3.69089

>  <SCORE.INTRA.DIHEDRAL>
-2.95535

>  <SCORE.INTRA.DIHEDRAL.0>
9.40024

>  <SCORE.INTRA.POLAR>
0

>  <SCORE.INTRA.POLAR.0>
0

>  <SCORE.INTRA.REPUL>
0

>  <SCORE.INTRA.REPUL.0>
0

>  <SCORE.INTRA.SOLV>
-2.20755

>  <SCORE.INTRA.SOLV.lig_0>
-47.1049

>  <SCORE.INTRA.VDW>
-1.10944

>  <SCORE.INTRA.VDW.0>
-1.50278

>  <SCORE.INTRA.norm>
-0.136699

>  <SCORE.RESTR>
0

>  <SCORE.RESTR.CAVITY>
0

>  <SCORE.RESTR.norm>
0

>  <SCORE.SYSTEM>
0

>  <SCORE.SYSTEM.CONST>
0

>  <SCORE.SYSTEM.DIHEDRAL>
0

>  <SCORE.SYSTEM.SOLV>
0

>  <SCORE.SYSTEM.norm>
0

>  <SCORE.heavy>
27

>  <SCORE.norm>
-0.666825

>  <RMSD>
1.291

$$$$
ligand
 OpenBabel11021811433D
libRbt.so/2013.1/901 2013/11/27
 27 29  0  0  0  0  0  0  0  0999 V2000
   49.8685   55.9321   27.2318 N   0  0  0  0  0  0  0  0  0  0  0  0
   48.7511   55.6132   28.1259 C   0  0  2  0  0  0  0  0  0  0  0  0
   47.5248   56.4039   27.7059 C   0  0  0  0  0  0  0  0  0  0  0  0
   46.4325   55.8482   27.6319 O   0  0  0  0  0  0  0  0  0  0  0  0
   49.1096   55.9418   29.5889 C   0  0  0  0  0  0  0  0  0  0  0  0
   50.3207   55.1098   30.0081 C   0  0  0  0  0  0  0  0  0  0  0  0
   49.9362   53.4159   30.6140 S   0  0  2  0  0  0  0  0  0  0  0  0
   48.8646   52.7154   29.3206 C   0  0  0  0  0  0  0  0  0  0  0  0
   48.7184   53.9273   31.8446 C   0  0  0  0  0  0  0  0  0  0  0  0
   49.3366   54.3788   33.1792 C   0  0  1  0  0  0  0  0  0  0  0  0
   49.9675   55.6808   32.9958 O   0  0  0  0  0  0  0  0  0  0  0  0
   48.1245   54.6225   34.0409 C   0  0  1  0  0  0  0  0  0  0  0  0
   47.8645   53.4732   34.8473 O   0  0  0  0  0  0  0  0  0  0  0  0
   48.5245   55.8049   34.9148 C   0  0  1  0  0  0  0  0  0  0  0  0
   49.0005   55.3921   36.1905 O   0  0  0  0  0  0  0  0  0  0  0  0
   49.6469   56.5740   34.1269 C   0  0  2  0  0  0  0  0  0  0  0  0
   47.6314   57.5856   27.3773 O   0  0  0  0  0  0  0  0  0  0  0  0
   45.7277   59.3798   32.0414 N   0  0  0  0  0  0  0  0  0  0  0  0
   45.6750   58.1347   32.5272 C   0  0  0  0  0  0  0  0  0  0  0  0
   46.7452   57.5522   33.0445 N   0  0  0  0  0  0  0  0  0  0  0  0
   47.9353   58.1742   33.0737 C   0  0  0  0  0  0  0  0  0  0  0  0
   48.0449   59.4908   32.5573 C   0  0  0  0  0  0  0  0  0  0  0  0
   46.8705   60.0854   32.0305 C   0  0  0  0  0  0  0  0  0  0  0  0
   46.8996   61.3616   31.5147 N   0  0  0  0  0  0  0  0  0  0  0  0
   49.3285   59.8761   32.7028 N   0  0  0  0  0  0  0  0  0  0  0  0
   50.0037   58.9088   33.2513 C   0  0  0  0  0  0  0  0  0  0  0  0
   49.1945   57.8368   33.5066 N   0  0  0  0  0  0  0  0  0  0  0  0
  2  1  1  6  0  0  0
  2  3  1  0  0  0  0
  2  5  1  0  0  0  0
  3  4  1  0  0  0  0
  3 17  1  0  0  0  0
  5  6  1  0  0  0  0
  7  6  1  6  0  0  0
  7  8  1  0  0  0  0
  7  9  1  0  0  0  0
 10  9  1  6  0  0  0
 10 11  1  0  0  0  0
 10 12  1  0  0  0  0
 11 16  1  0  0  0  0
 12 13  1  1  0  0  0
 12 14  1  0  0  0  0
 14 15  1  1  0  0  0
 14 16  1  0  0  0  0
 16 27  1  6  0  0  0
 18 19  2  0  0  0  0
 18 23  1  0  0  0  0
 19 20  1  0  0  0  0
 20 21  2  0  0  0  0
 21 22  1  0  0  0  0
 21 27  1  0  0  0  0
 22 23  2  0  0  0  0
 22 25  1  0  0  0  0
 23 24  1  0  0  0  0
 25 26  2  0  0  0  0
 26 27  1  0  0  0  0
M  END
>  <CHROM.1>
134.56998429,-60.48163271,-85.14100745,50.69414911,-83.01358059,72.75430372
85.68298058,48.45597118,56.40914058,31.62975023,1.24777373,1.22240843,-1.76065993

>  <Name>
ligand

>  <RI>
0

>  <Rbt.Current_Directory>
/home/itssahil/PROJECTS/Mol_Feturizer/New_Systems/rnas/2GIS

>  <Rbt.Executable>
rbdock ($Id: //depot/dev/client3/rdock/2013.1/src/exe/rbdock.cxx#4 $)

>  <Rbt.Library>
libRbt.so (2013.1, Build901 2013/11/27)

>  <Rbt.Parameter_File>
/export/apps/rDock/src/rDock_2013.1_src/data/scripts/dock_solv.prm

>  <Rbt.Receptor>
prm/pocket_docking_7.prm

>  <SCORE>
-16.6569

>  <SCORE.INTER>
-13.8309

>  <SCORE.INTER.CONST>
1

>  <SCORE.INTER.POLAR>
0

>  <SCORE.INTER.ROT>
7

>  <SCORE.INTER.SOLV>
16.9144

>  <SCORE.INTER.VDW>
-23.1254

>  <SCORE.INTER.norm>
-0.512254

>  <SCORE.INTRA>
-2.82607

>  <SCORE.INTRA.DIHEDRAL>
-2.76875

>  <SCORE.INTRA.DIHEDRAL.0>
9.40024

>  <SCORE.INTRA.POLAR>
0

>  <SCORE.INTRA.POLAR.0>
0

>  <SCORE.INTRA.REPUL>
0

>  <SCORE.INTRA.REPUL.0>
0

>  <SCORE.INTRA.SOLV>
-1.31405

>  <SCORE.INTRA.SOLV.lig_0>
-47.1049

>  <SCORE.INTRA.VDW>
-0.784674

>  <SCORE.INTRA.VDW.0>
-1.50278

>  <SCORE.INTRA.norm>
-0.104669

>  <SCORE.RESTR>
0

>  <SCORE.RESTR.CAVITY>
0

>  <SCORE.RESTR.norm>
0

>  <SCORE.SYSTEM>
0

>  <SCORE.SYSTEM.CONST>
0

>  <SCORE.SYSTEM.DIHEDRAL>
0

>  <SCORE.SYSTEM.SOLV>
0

>  <SCORE.SYSTEM.norm>
0

>  <SCORE.heavy>
27

>  <SCORE.norm>
-0.616923

>  <RMSD>
1.306

$$$$
ligand
 OpenBabel11021811433D
libRbt.so/2013.1/901 2013/11/27
 27 29  0  0  0  0  0  0  0  0999 V2000
   47.6856   56.0450   27.8258 N   0  0  0  0  0  0  0  0  0  0  0  0
   47.7163   57.1844   28.7483 C   0  0  2  0  0  0  0  0  0  0  0  0
   47.8755   58.4713   27.9584 C   0  0  0  0  0  0  0  0  0  0  0  0
   47.0004   58.8198   27.1709 O   0  0  0  0  0  0  0  0  0  0  0  0
   48.8746   57.0421   29.7557 C   0  0  0  0  0  0  0  0  0  0  0  0
   48.6281   55.8167   30.6345 C   0  0  0  0  0  0  0  0  0  0  0  0
   50.1267   54.8310   31.0431 S   0  0  2  0  0  0  0  0  0  0  0  0
   50.4594   53.8814   29.5267 C   0  0  0  0  0  0  0  0  0  0  0  0
   49.2740   53.6004   32.0519 C   0  0  0  0  0  0  0  0  0  0  0  0
   49.1146   54.0092   33.5265 C   0  0  1  0  0  0  0  0  0  0  0  0
   49.6748   55.3425   33.7146 O   0  0  0  0  0  0  0  0  0  0  0  0
   47.6221   54.1620   33.6692 C   0  0  1  0  0  0  0  0  0  0  0  0
   47.0621   52.9649   34.2095 O   0  0  0  0  0  0  0  0  0  0  0  0
   47.4614   55.3145   34.6529 C   0  0  1  0  0  0  0  0  0  0  0  0
   47.2594   54.8581   35.9853 O   0  0  0  0  0  0  0  0  0  0  0  0
   48.7799   56.1652   34.5525 C   0  0  2  0  0  0  0  0  0  0  0  0
   48.9075   59.1355   28.0564 O   0  0  0  0  0  0  0  0  0  0  0  0
   45.6262   59.5015   32.0019 N   0  0  0  0  0  0  0  0  0  0  0  0
   45.2988   58.3326   32.5636 C   0  0  0  0  0  0  0  0  0  0  0  0
   46.1995   57.5970   33.1961 N   0  0  0  0  0  0  0  0  0  0  0  0
   47.4854   57.9775   33.2721 C   0  0  0  0  0  0  0  0  0  0  0  0
   47.8845   59.2030   32.6794 C   0  0  0  0  0  0  0  0  0  0  0  0
   46.8847   59.9697   32.0290 C   0  0  0  0  0  0  0  0  0  0  0  0
   47.1970   61.1712   31.4337 N   0  0  0  0  0  0  0  0  0  0  0  0
   49.2079   59.3431   32.8938 N   0  0  0  0  0  0  0  0  0  0  0  0
   49.6440   58.3101   33.5534 C   0  0  0  0  0  0  0  0  0  0  0  0
   48.6246   57.4385   33.8184 N   0  0  0  0  0  0  0  0  0  0  0  0
  2  1  1  6  0  0  0
  2  3  1  0  0  0  0
  2  5  1  0  0  0  0
  3  4  1  0  0  0  0
  3 17  1  0  0  0  0
  5  6  1  0  0  0  0
  7  6  1  6  0  0  0
  7  8  1  0  0  0  0
  7  9  1  0  0  0  0
 10  9  1  6  0  0  0
 10 11  1  0  0  0  0
 10 12  1  0  0  0  0
 11 16  1  0  0  0  0
 12 13  1  1  0  0  0
 12 14  1  0  0  0  0
 14 15  1  1  0  0  0
 14 16  1  0  0  0  0
 16 27  1  6  0  0  0
 18 19  2  0  0  0  0
 18 23  1  0  0  0  0
 19 20  1  0  0  0  0
 20 21  2  0  0  0  0
 21 22  1  0  0  0  0
 21 27  1  0  0  0  0
 22 23  2  0  0  0  0
 22 25  1  0  0  0  0
 23 24  1  0  0  0  0
 25 26  2  0  0  0  0
 26 27  1  0  0  0  0
M  END
>  <CHROM.1>
63.49608652,-64.40281827,141.27595065,-77.22735471,-86.47031146,1.83444756
116.13813922,48.17420284,56.74948990,31.80659231,-1.82500393,-1.13791619
2.04820786

>  <Name>
ligand

>  <RI>
0

>  <Rbt.Current_Directory>
/home/itssahil/PROJECTS/Mol_Feturizer/New_Systems/rnas/2GIS

>  <Rbt.Executable>
rbdock ($Id: //depot/dev/client3/rdock/2013.1/src/exe/rbdock.cxx#4 $)

>  <Rbt.Library>
libRbt.so (2013.1, Build901 2013/11/27)

>  <Rbt.Parameter_File>
/export/apps/rDock/src/rDock_2013.1_src/data/scripts/dock_solv.prm

>  <Rbt.Receptor>
prm/pocket_docking_2.prm

>  <SCORE>
-15.0662

>  <SCORE.INTER>
-14.5518

>  <SCORE.INTER.CONST>
1

>  <SCORE.INTER.POLAR>
0

>  <SCORE.INTER.ROT>
7

>  <SCORE.INTER.SOLV>
15.1769

>  <SCORE.INTER.VDW>
-23.0268

>  <SCORE.INTER.norm>
-0.538954

>  <SCORE.INTRA>
-0.514382

>  <SCORE.INTRA.DIHEDRAL>
4.05035

>  <SCORE.INTRA.DIHEDRAL.0>
9.40024

>  <SCORE.INTRA.POLAR>
0

>  <SCORE.INTRA.POLAR.0>
0

>  <SCORE.INTRA.REPUL>
0

>  <SCORE.INTRA.REPUL.0>
0

>  <SCORE.INTRA.SOLV>
-1.30976

>  <SCORE.INTRA.SOLV.lig_0>
-47.1049

>  <SCORE.INTRA.VDW>
-1.88468

>  <SCORE.INTRA.VDW.0>
-1.50278

>  <SCORE.INTRA.norm>
-0.0190512

>  <SCORE.RESTR>
0

>  <SCORE.RESTR.CAVITY>
0

>  <SCORE.RESTR.norm>
0

>  <SCORE.SYSTEM>
0

>  <SCORE.SYSTEM.CONST>
0

>  <SCORE.SYSTEM.DIHEDRAL>
0

>  <SCORE.SYSTEM.SOLV>
0

>  <SCORE.SYSTEM.norm>
0

>  <SCORE.heavy>
27

>  <SCORE.norm>
-0.558006

>  <RMSD>
1.312

$$$$
ligand
 OpenBabel11021811433D
libRbt.so/2013.1/901 2013/11/27
 27 29  0  0  0  0  0  0  0  0999 V2000
   49.2074   58.1127   29.4944 N   0  0  0  0  0  0  0  0  0  0  0  0
   48.5613   57.2501   28.5002 C   0  0  2  0  0  0  0  0  0  0  0  0
   47.0568   57.4442   28.5626 C   0  0  0  0  0  0  0  0  0  0  0  0
   46.3652   57.1980   27.5784 O   0  0  0  0  0  0  0  0  0  0  0  0
   48.9087   55.7692   28.7519 C   0  0  0  0  0  0  0  0  0  0  0  0
   48.5167   55.3974   30.1811 C   0  0  0  0  0  0  0  0  0  0  0  0
   48.7952   53.6372   30.6375 S   0  0  2  0  0  0  0  0  0  0  0  0
   47.4951   52.7354   29.7383 C   0  0  0  0  0  0  0  0  0  0  0  0
   48.0704   53.7528   32.2868 C   0  0  0  0  0  0  0  0  0  0  0  0
   49.0647   54.2017   33.3717 C   0  0  1  0  0  0  0  0  0  0  0  0
   49.7390   55.4160   32.9270 O   0  0  0  0  0  0  0  0  0  0  0  0
   48.1580   54.6199   34.5005 C   0  0  1  0  0  0  0  0  0  0  0  0
   48.0215   53.5485   35.4344 O   0  0  0  0  0  0  0  0  0  0  0  0
   48.8856   55.7947   35.1425 C   0  0  1  0  0  0  0  0  0  0  0  0
   49.6487   55.3981   36.2760 O   0  0  0  0  0  0  0  0  0  0  0  0
   49.8189   56.3954   34.0289 C   0  0  2  0  0  0  0  0  0  0  0  0
   46.5327   57.9080   29.5756 O   0  0  0  0  0  0  0  0  0  0  0  0
   45.8005   59.2104   32.1554 N   0  0  0  0  0  0  0  0  0  0  0  0
   45.7760   57.9554   32.6174 C   0  0  0  0  0  0  0  0  0  0  0  0
   46.8699   57.3714   33.0806 N   0  0  0  0  0  0  0  0  0  0  0  0
   48.0557   58.0024   33.0761 C   0  0  0  0  0  0  0  0  0  0  0  0
   48.1352   59.3300   32.5828 C   0  0  0  0  0  0  0  0  0  0  0  0
   46.9367   59.9254   32.1145 C   0  0  0  0  0  0  0  0  0  0  0  0
   46.9362   61.2120   31.6242 N   0  0  0  0  0  0  0  0  0  0  0  0
   49.4206   59.7228   32.6861 N   0  0  0  0  0  0  0  0  0  0  0  0
   50.1239   58.7502   33.1880 C   0  0  0  0  0  0  0  0  0  0  0  0
   49.3333   57.6667   33.4526 N   0  0  0  0  0  0  0  0  0  0  0  0
  2  1  1  1  0  0  0
  2  3  1  0  0  0  0
  2  5  1  0  0  0  0
  3  4  1  0  0  0  0
  3 17  1  0  0  0  0
  5  6  1  0  0  0  0
  7  6  1  6  0  0  0
  7  8  1  0  0  0  0
  7  9  1  0  0  0  0
 10  9  1  6  0  0  0
 10 11  1  0  0  0  0
 10 12  1  0  0  0  0
 11 16  1  0  0  0  0
 12 13  1  1  0  0  0
 12 14  1  0  0  0  0
 14 15  1  1  0  0  0
 14 16  1  0  0  0  0
 16 27  1  6  0  0  0
 18 19  2  0  0  0  0
 18 23  1  0  0  0  0
 19 20  1  0  0  0  0
 20 21  2  0  0  0  0
 21 22  1  0  0  0  0
 21 27  1  0  0  0  0
 22 23  2  0  0  0  0
 22 25  1  0  0  0  0
 23 24  1  0  0  0  0
 25 26  2  0  0  0  0
 26 27  1  0  0  0  0
M  END
>  <CHROM.1>
155.47990185,55.92105343,177.51651144,-72.62637294,-86.93956313,51.13310890
70.19148544,48.18743891,56.58441617,31.90959086,-3.13504569,-1.29772193,0.70215802

>  <Name>
ligand

>  <RI>
0

>  <Rbt.Current_Directory>
/home/itssahil/PROJECTS/Mol_Feturizer/New_Systems/rnas/2GIS

>  <Rbt.Executable>
rbdock ($Id: //depot/dev/client3/rdock/2013.1/src/exe/rbdock.cxx#4 $)

>  <Rbt.Library>
libRbt.so (2013.1, Build901 2013/11/27)

>  <Rbt.Parameter_File>
/export/apps/rDock/src/rDock_2013.1_src/data/scripts/dock_solv.prm

>  <Rbt.Receptor>
prm/pocket_docking_7.prm

>  <SCORE>
-18.5647

>  <SCORE.INTER>
-12.3884

>  <SCORE.INTER.CONST>
1

>  <SCORE.INTER.POLAR>
0

>  <SCORE.INTER.ROT>
7

>  <SCORE.INTER.SOLV>
17.6171

>  <SCORE.INTER.VDW>
-22.398

>  <SCORE.INTER.norm>
-0.45883

>  <SCORE.INTRA>
-6.17625

>  <SCORE.INTRA.DIHEDRAL>
-4.6151

>  <SCORE.INTRA.DIHEDRAL.0>
9.40024

>  <SCORE.INTRA.POLAR>
0

>  <SCORE.INTRA.POLAR.0>
0

>  <SCORE.INTRA.REPUL>
0

>  <SCORE.INTRA.REPUL.0>
0

>  <SCORE.INTRA.SOLV>
-1.32931

>  <SCORE.INTRA.SOLV.lig_0>
-47.1049

>  <SCORE.INTRA.VDW>
-3.20405

>  <SCORE.INTRA.VDW.0>
-1.50278

>  <SCORE.INTRA.norm>
-0.22875

>  <SCORE.RESTR>
0

>  <SCORE.RESTR.CAVITY>
0

>  <SCORE.RESTR.norm>
0

>  <SCORE.SYSTEM>
0

>  <SCORE.SYSTEM.CONST>
0

>  <SCORE.SYSTEM.DIHEDRAL>
0

>  <SCORE.SYSTEM.SOLV>
0

>  <SCORE.SYSTEM.norm>
0

>  <SCORE.heavy>
27

>  <SCORE.norm>
-0.68758

>  <RMSD>
1.313

$$$$
ligand
 OpenBabel11021811433D
libRbt.so/2013.1/901 2013/11/27
 27 29  0  0  0  0  0  0  0  0999 V2000
   47.1089   58.7739   27.3302 N   0  0  0  0  0  0  0  0  0  0  0  0
   48.0682   57.7264   26.9663 C   0  0  2  0  0  0  0  0  0  0  0  0
   47.3173   56.4684   26.5676 C   0  0  0  0  0  0  0  0  0  0  0  0
   47.7366   55.7688   25.6498 O   0  0  0  0  0  0  0  0  0  0  0  0
   49.0159   57.4192   28.1430 C   0  0  0  0  0  0  0  0  0  0  0  0
   49.9860   56.3130   27.7308 C   0  0  0  0  0  0  0  0  0  0  0  0
   51.0430   55.6530   29.0840 S   0  0  2  0  0  0  0  0  0  0  0  0
   51.7609   54.1339   28.3847 C   0  0  0  0  0  0  0  0  0  0  0  0
   49.6887   54.9829   30.0718 C   0  0  0  0  0  0  0  0  0  0  0  0
   49.9434   55.0316   31.5883 C   0  0  1  0  0  0  0  0  0  0  0  0
   50.3872   56.3717   31.9542 O   0  0  0  0  0  0  0  0  0  0  0  0
   48.5580   54.8818   32.1625 C   0  0  1  0  0  0  0  0  0  0  0  0
   48.3218   53.5166   32.5076 O   0  0  0  0  0  0  0  0  0  0  0  0
   48.5817   55.7496   33.4147 C   0  0  1  0  0  0  0  0  0  0  0  0
   48.8459   54.9902   34.5886 O   0  0  0  0  0  0  0  0  0  0  0  0
   49.7070   56.8232   33.1844 C   0  0  2  0  0  0  0  0  0  0  0  0
   46.2545   56.1797   27.1180 O   0  0  0  0  0  0  0  0  0  0  0  0
   45.6483   59.8798   31.8559 N   0  0  0  0  0  0  0  0  0  0  0  0
   45.6474   58.5566   32.0508 C   0  0  0  0  0  0  0  0  0  0  0  0
   46.7485   57.9124   32.4040 N   0  0  0  0  0  0  0  0  0  0  0  0
   47.9191   58.5550   32.5496 C   0  0  0  0  0  0  0  0  0  0  0  0
   47.9738   59.9569   32.3397 C   0  0  0  0  0  0  0  0  0  0  0  0
   46.7678   60.6111   31.9820 C   0  0  0  0  0  0  0  0  0  0  0  0
   46.7434   61.9705   31.7653 N   0  0  0  0  0  0  0  0  0  0  0  0
   49.2481   60.3462   32.5438 N   0  0  0  0  0  0  0  0  0  0  0  0
   49.9675   59.3060   32.8484 C   0  0  0  0  0  0  0  0  0  0  0  0
   49.1992   58.1754   32.8719 N   0  0  0  0  0  0  0  0  0  0  0  0
  2  1  1  1  0  0  0
  2  3  1  0  0  0  0
  2  5  1  0  0  0  0
  3  4  1  0  0  0  0
  3 17  1  0  0  0  0
  5  6  1  0  0  0  0
  7  6  1  6  0  0  0
  7  8  1  0  0  0  0
  7  9  1  0  0  0  0
 10  9  1  6  0  0  0
 10 11  1  0  0  0  0
 10 12  1  0  0  0  0
 11 16  1  0  0  0  0
 12 13  1  1  0  0  0
 12 14  1  0  0  0  0
 14 15  1  1  0  0  0
 14 16  1  0  0  0  0
 16 27  1  6  0  0  0
 18 19  2  0  0  0  0
 18 23  1  0  0  0  0
 19 20  1  0  0  0  0
 20 21  2  0  0  0  0
 21 22  1  0  0  0  0
 21 27  1  0  0  0  0
 22 23  2  0  0  0  0
 22 25  1  0  0  0  0
 23 24  1  0  0  0  0
 25 26  2  0  0  0  0
 26 27  1  0  0  0  0
M  END
>  <CHROM.1>
142.67062248,179.28552461,-171.97501625,166.91216403,-147.40114690,49.29671222
101.85953944,48.59607933,57.09496814,30.60664642,1.15323255,0.99397808,-1.77705444

>  <Name>
ligand

>  <RI>
0

>  <Rbt.Current_Directory>
/home/itssahil/PROJECTS/Mol_Feturizer/New_Systems/rnas/2GIS

>  <Rbt.Executable>
rbdock ($Id: //depot/dev/client3/rdock/2013.1/src/exe/rbdock.cxx#4 $)

>  <Rbt.Library>
libRbt.so (2013.1, Build901 2013/11/27)

>  <Rbt.Parameter_File>
/export/apps/rDock/src/rDock_2013.1_src/data/scripts/dock_solv.prm

>  <Rbt.Receptor>
prm/pocket_docking_3.prm

>  <SCORE>
-17.6911

>  <SCORE.INTER>
-14.2427

>  <SCORE.INTER.CONST>
1

>  <SCORE.INTER.POLAR>
0

>  <SCORE.INTER.ROT>
7

>  <SCORE.INTER.SOLV>
22.5529

>  <SCORE.INTER.VDW>
-25.2794

>  <SCORE.INTER.norm>
-0.527507

>  <SCORE.INTRA>
-3.44842

>  <SCORE.INTRA.DIHEDRAL>
-2.11136

>  <SCORE.INTRA.DIHEDRAL.0>
9.40024

>  <SCORE.INTRA.POLAR>
0

>  <SCORE.INTRA.POLAR.0>
0

>  <SCORE.INTRA.REPUL>
0

>  <SCORE.INTRA.REPUL.0>
0

>  <SCORE.INTRA.SOLV>
-3.06467

>  <SCORE.INTRA.SOLV.lig_0>
-47.1049

>  <SCORE.INTRA.VDW>
-0.86041

>  <SCORE.INTRA.VDW.0>
-1.50278

>  <SCORE.INTRA.norm>
-0.127719

>  <SCORE.RESTR>
0

>  <SCORE.RESTR.CAVITY>
0

>  <SCORE.RESTR.norm>
0

>  <SCORE.SYSTEM>
0

>  <SCORE.SYSTEM.CONST>
0

>  <SCORE.SYSTEM.DIHEDRAL>
0

>  <SCORE.SYSTEM.SOLV>
0

>  <SCORE.SYSTEM.norm>
0

>  <SCORE.heavy>
27

>  <SCORE.norm>
-0.655226

>  <RMSD>
1.325

$$$$
ligand
 OpenBabel11021811433D
libRbt.so/2013.1/901 2013/11/27
 27 29  0  0  0  0  0  0  0  0999 V2000
   49.0601   56.9738   27.2914 N   0  0  0  0  0  0  0  0  0  0  0  0
   47.9995   56.7633   28.2818 C   0  0  2  0  0  0  0  0  0  0  0  0
   48.0343   57.8829   29.3068 C   0  0  0  0  0  0  0  0  0  0  0  0
   49.1048   58.3986   29.6156 O   0  0  0  0  0  0  0  0  0  0  0  0
   48.1711   55.4030   28.9868 C   0  0  0  0  0  0  0  0  0  0  0  0
   49.5978   55.2912   29.5221 C   0  0  0  0  0  0  0  0  0  0  0  0
   49.9873   53.7182   30.3929 S   0  0  2  0  0  0  0  0  0  0  0  0
   49.2924   52.4296   29.3119 C   0  0  0  0  0  0  0  0  0  0  0  0
   48.6931   53.8685   31.6424 C   0  0  0  0  0  0  0  0  0  0  0  0
   49.2178   54.2549   33.0361 C   0  0  1  0  0  0  0  0  0  0  0  0
   49.8718   55.5559   32.9553 O   0  0  0  0  0  0  0  0  0  0  0  0
   47.9491   54.4760   33.8189 C   0  0  1  0  0  0  0  0  0  0  0  0
   47.6216   53.2963   34.5538 O   0  0  0  0  0  0  0  0  0  0  0  0
   48.2958   55.6149   34.7699 C   0  0  1  0  0  0  0  0  0  0  0  0
   48.6752   55.1421   36.0571 O   0  0  0  0  0  0  0  0  0  0  0  0
   49.4787   56.4035   34.0984 C   0  0  2  0  0  0  0  0  0  0  0  0
   47.0012   58.2336   29.8774 O   0  0  0  0  0  0  0  0  0  0  0  0
   45.6856   59.4283   32.0873 N   0  0  0  0  0  0  0  0  0  0  0  0
   45.5765   58.1787   32.5517 C   0  0  0  0  0  0  0  0  0  0  0  0
   46.6207   57.5371   33.0520 N   0  0  0  0  0  0  0  0  0  0  0  0
   47.8392   58.1014   33.0843 C   0  0  0  0  0  0  0  0  0  0  0  0
   48.0083   59.4203   32.5901 C   0  0  0  0  0  0  0  0  0  0  0  0
   46.8605   60.0790   32.0813 C   0  0  0  0  0  0  0  0  0  0  0  0
   46.9473   61.3614   31.5877 N   0  0  0  0  0  0  0  0  0  0  0  0
   49.3095   59.7416   32.7341 N   0  0  0  0  0  0  0  0  0  0  0  0
   49.9411   58.7339   33.2613 C   0  0  0  0  0  0  0  0  0  0  0  0
   49.0833   57.6971   33.5031 N   0  0  0  0  0  0  0  0  0  0  0  0
  2  1  1  6  0  0  0
  2  3  1  0  0  0  0
  2  5  1  0  0  0  0
  3  4  1  0  0  0  0
  3 17  1  0  0  0  0
  5  6  1  0  0  0  0
  7  6  1  6  0  0  0
  7  8  1  0  0  0  0
  7  9  1  0  0  0  0
 10  9  1  6  0  0  0
 10 11  1  0  0  0  0
 10 12  1  0  0  0  0
 11 16  1  0  0  0  0
 12 13  1  1  0  0  0
 12 14  1  0  0  0  0
 14 15  1  1  0  0  0
 14 16  1  0  0  0  0
 16 27  1  6  0  0  0
 18 19  2  0  0  0  0
 18 23  1  0  0  0  0
 19 20  1  0  0  0  0
 20 21  2  0  0  0  0
 21 22  1  0  0  0  0
 21 27  1  0  0  0  0
 22 23  2  0  0  0  0
 22 25  1  0  0  0  0
 23 24  1  0  0  0  0
 25 26  2  0  0  0  0
 26 27  1  0  0  0  0
M  END
>  <CHROM.1>
-32.64128579,51.88894748,-179.73099931,45.35479722,-105.55868582,61.13966019
90.83058330,48.39279985,56.59940463,31.77763128,-0.18712659,1.25637557,-1.31485441

>  <Name>
ligand

>  <RI>
0

>  <Rbt.Current_Directory>
/home/itssahil/PROJECTS/Mol_Feturizer/New_Systems/rnas/2GIS

>  <Rbt.Executable>
rbdock ($Id: //depot/dev/client3/rdock/2013.1/src/exe/rbdock.cxx#4 $)

>  <Rbt.Library>
libRbt.so (2013.1, Build901 2013/11/27)

>  <Rbt.Parameter_File>
/export/apps/rDock/src/rDock_2013.1_src/data/scripts/dock_solv.prm

>  <Rbt.Receptor>
prm/pocket_docking_2.prm

>  <SCORE>
-17.3022

>  <SCORE.INTER>
-12.7239

>  <SCORE.INTER.CONST>
1

>  <SCORE.INTER.POLAR>
0

>  <SCORE.INTER.ROT>
7

>  <SCORE.INTER.SOLV>
17.4505

>  <SCORE.INTER.VDW>
-22.5661

>  <SCORE.INTER.norm>
-0.471255

>  <SCORE.INTRA>
-4.5819

>  <SCORE.INTRA.DIHEDRAL>
-2.78056

>  <SCORE.INTRA.DIHEDRAL.0>
9.40024

>  <SCORE.INTRA.POLAR>
0

>  <SCORE.INTRA.POLAR.0>
0

>  <SCORE.INTRA.REPUL>
0

>  <SCORE.INTRA.REPUL.0>
0

>  <SCORE.INTRA.SOLV>
-1.88228

>  <SCORE.INTRA.SOLV.lig_0>
-47.1049

>  <SCORE.INTRA.VDW>
-2.25048

>  <SCORE.INTRA.VDW.0>
-1.50278

>  <SCORE.INTRA.norm>
-0.1697

>  <SCORE.RESTR>
0.00358052

>  <SCORE.RESTR.CAVITY>
0.00358052

>  <SCORE.RESTR.norm>
0.000132612

>  <SCORE.SYSTEM>
0

>  <SCORE.SYSTEM.CONST>
0

>  <SCORE.SYSTEM.DIHEDRAL>
0

>  <SCORE.SYSTEM.SOLV>
0

>  <SCORE.SYSTEM.norm>
0

>  <SCORE.heavy>
27

>  <SCORE.norm>
-0.640822

>  <RMSD>
1.342

$$$$
ligand
 OpenBabel11021811433D
libRbt.so/2013.1/901 2013/11/27
 27 29  0  0  0  0  0  0  0  0999 V2000
   49.7163   56.1294   26.8942 N   0  0  0  0  0  0  0  0  0  0  0  0
   48.5822   56.4377   27.7710 C   0  0  2  0  0  0  0  0  0  0  0  0
   48.7865   57.8035   28.4020 C   0  0  0  0  0  0  0  0  0  0  0  0
   49.3040   57.8952   29.5116 O   0  0  0  0  0  0  0  0  0  0  0  0
   48.4356   55.3691   28.8726 C   0  0  0  0  0  0  0  0  0  0  0  0
   49.8036   55.1024   29.4987 C   0  0  0  0  0  0  0  0  0  0  0  0
   49.9143   53.5758   30.5194 S   0  0  2  0  0  0  0  0  0  0  0  0
   48.9339   52.3527   29.5948 C   0  0  0  0  0  0  0  0  0  0  0  0
   48.7301   54.1025   31.7760 C   0  0  0  0  0  0  0  0  0  0  0  0
   49.3844   54.5809   33.0837 C   0  0  1  0  0  0  0  0  0  0  0  0
   50.0162   55.8753   32.8547 O   0  0  0  0  0  0  0  0  0  0  0  0
   48.1959   54.8501   33.9705 C   0  0  1  0  0  0  0  0  0  0  0  0
   47.9517   53.7206   34.8091 O   0  0  0  0  0  0  0  0  0  0  0  0
   48.6235   56.0499   34.8067 C   0  0  1  0  0  0  0  0  0  0  0  0
   49.1303   55.6637   36.0789 O   0  0  0  0  0  0  0  0  0  0  0  0
   49.7287   56.7954   33.9730 C   0  0  2  0  0  0  0  0  0  0  0  0
   48.3779   58.8165   27.8339 O   0  0  0  0  0  0  0  0  0  0  0  0
   45.7414   59.6407   32.0790 N   0  0  0  0  0  0  0  0  0  0  0  0
   45.6906   58.4187   32.6204 C   0  0  0  0  0  0  0  0  0  0  0  0
   46.7807   57.8230   33.0778 N   0  0  0  0  0  0  0  0  0  0  0  0
   47.9872   58.4066   32.9879 C   0  0  0  0  0  0  0  0  0  0  0  0
   48.0943   59.6969   32.4085 C   0  0  0  0  0  0  0  0  0  0  0  0
   46.9000   60.3076   31.9493 C   0  0  0  0  0  0  0  0  0  0  0  0
   46.9258   61.5603   31.3785 N   0  0  0  0  0  0  0  0  0  0  0  0
   49.3961   60.0457   32.4375 N   0  0  0  0  0  0  0  0  0  0  0  0
   50.0837   59.0799   32.9730 C   0  0  0  0  0  0  0  0  0  0  0  0
   49.2661   58.0461   33.3360 N   0  0  0  0  0  0  0  0  0  0  0  0
  2  1  1  6  0  0  0
  2  3  1  0  0  0  0
  2  5  1  0  0  0  0
  3  4  1  0  0  0  0
  3 17  1  0  0  0  0
  5  6  1  0  0  0  0
  7  6  1  6  0  0  0
  7  8  1  0  0  0  0
  7  9  1  0  0  0  0
 10  9  1  6  0  0  0
 10 11  1  0  0  0  0
 10 12  1  0  0  0  0
 11 16  1  0  0  0  0
 12 13  1  1  0  0  0
 12 14  1  0  0  0  0
 14 15  1  1  0  0  0
 14 16  1  0  0  0  0
 16 27  1  6  0  0  0
 18 19  2  0  0  0  0
 18 23  1  0  0  0  0
 19 20  1  0  0  0  0
 20 21  2  0  0  0  0
 21 22  1  0  0  0  0
 21 27  1  0  0  0  0
 22 23  2  0  0  0  0
 22 25  1  0  0  0  0
 23 24  1  0  0  0  0
 25 26  2  0  0  0  0
 26 27  1  0  0  0  0
M  END
>  <CHROM.1>
-94.46044882,47.11340045,-165.13268800,39.51805942,-102.50050150,72.06475236
89.22589335,48.62604584,56.73901428,31.61966741,0.08988478,1.27889290,-1.28084529

>  <Name>
ligand

>  <RI>
0

>  <Rbt.Current_Directory>
/home/itssahil/PROJECTS/Mol_Feturizer/New_Systems/rnas/2GIS

>  <Rbt.Executable>
rbdock ($Id: //depot/dev/client3/rdock/2013.1/src/exe/rbdock.cxx#4 $)

>  <Rbt.Library>
libRbt.so (2013.1, Build901 2013/11/27)

>  <Rbt.Parameter_File>
/export/apps/rDock/src/rDock_2013.1_src/data/scripts/dock_solv.prm

>  <Rbt.Receptor>
prm/pocket_docking_3.prm

>  <SCORE>
-16.03

>  <SCORE.INTER>
-14.7455

>  <SCORE.INTER.CONST>
1

>  <SCORE.INTER.POLAR>
0

>  <SCORE.INTER.ROT>
7

>  <SCORE.INTER.SOLV>
18.7382

>  <SCORE.INTER.VDW>
-24.343

>  <SCORE.INTER.norm>
-0.546128

>  <SCORE.INTRA>
-1.28455

>  <SCORE.INTRA.DIHEDRAL>
-0.869429

>  <SCORE.INTRA.DIHEDRAL.0>
9.40024

>  <SCORE.INTRA.POLAR>
0

>  <SCORE.INTRA.POLAR.0>
0

>  <SCORE.INTRA.REPUL>
0

>  <SCORE.INTRA.REPUL.0>
0

>  <SCORE.INTRA.SOLV>
-2.12529

>  <SCORE.INTRA.SOLV.lig_0>
-47.1049

>  <SCORE.INTRA.VDW>
0.212807

>  <SCORE.INTRA.VDW.0>
-1.50278

>  <SCORE.INTRA.norm>
-0.047576

>  <SCORE.RESTR>
0

>  <SCORE.RESTR.CAVITY>
0

>  <SCORE.RESTR.norm>
0

>  <SCORE.SYSTEM>
0

>  <SCORE.SYSTEM.CONST>
0

>  <SCORE.SYSTEM.DIHEDRAL>
0

>  <SCORE.SYSTEM.SOLV>
0

>  <SCORE.SYSTEM.norm>
0

>  <SCORE.heavy>
27

>  <SCORE.norm>
-0.593704

>  <RMSD>
1.357

$$$$
ligand
 OpenBabel11021811433D
libRbt.so/2013.1/901 2013/11/27
 27 29  0  0  0  0  0  0  0  0999 V2000
   49.2765   57.7994   29.2129 N   0  0  0  0  0  0  0  0  0  0  0  0
   49.7980   56.7306   28.3552 C   0  0  2  0  0  0  0  0  0  0  0  0
   48.6425   56.0160   27.6774 C   0  0  0  0  0  0  0  0  0  0  0  0
   47.5368   55.9949   28.2108 O   0  0  0  0  0  0  0  0  0  0  0  0
   50.6258   55.7233   29.1779 C   0  0  0  0  0  0  0  0  0  0  0  0
   49.8298   55.3112   30.4153 C   0  0  0  0  0  0  0  0  0  0  0  0
   50.0233   53.5534   30.9223 S   0  0  2  0  0  0  0  0  0  0  0  0
   49.1541   52.6198   29.6243 C   0  0  0  0  0  0  0  0  0  0  0  0
   48.7751   53.5942   32.2257 C   0  0  0  0  0  0  0  0  0  0  0  0
   49.3022   54.1158   33.5738 C   0  0  1  0  0  0  0  0  0  0  0  0
   49.9135   55.4245   33.3722 O   0  0  0  0  0  0  0  0  0  0  0  0
   48.0356   54.3646   34.3517 C   0  0  1  0  0  0  0  0  0  0  0  0
   47.7540   53.2435   35.1898 O   0  0  0  0  0  0  0  0  0  0  0  0
   48.3560   55.5917   35.1962 C   0  0  1  0  0  0  0  0  0  0  0  0
   48.7643   55.2441   36.5141 O   0  0  0  0  0  0  0  0  0  0  0  0
   49.5059   56.3554   34.4433 C   0  0  2  0  0  0  0  0  0  0  0  0
   48.8239   55.4028   26.6253 O   0  0  0  0  0  0  0  0  0  0  0  0
   45.6018   59.0650   32.2077 N   0  0  0  0  0  0  0  0  0  0  0  0
   45.5387   57.8557   32.7756 C   0  0  0  0  0  0  0  0  0  0  0  0
   46.6064   57.2955   33.3218 N   0  0  0  0  0  0  0  0  0  0  0  0
   47.8041   57.9033   33.2999 C   0  0  0  0  0  0  0  0  0  0  0  0
   47.9247   59.1813   32.6962 C   0  0  0  0  0  0  0  0  0  0  0  0
   46.7528   59.7541   32.1406 C   0  0  0  0  0  0  0  0  0  0  0  0
   46.7924   60.9928   31.5410 N   0  0  0  0  0  0  0  0  0  0  0  0
   49.2140   59.5593   32.8055 N   0  0  0  0  0  0  0  0  0  0  0  0
   49.8825   58.6223   33.4115 C   0  0  0  0  0  0  0  0  0  0  0  0
   49.0630   57.5798   33.7441 N   0  0  0  0  0  0  0  0  0  0  0  0
  2  1  1  1  0  0  0
  2  3  1  0  0  0  0
  2  5  1  0  0  0  0
  3  4  1  0  0  0  0
  3 17  1  0  0  0  0
  5  6  1  0  0  0  0
  7  6  1  6  0  0  0
  7  8  1  0  0  0  0
  7  9  1  0  0  0  0
 10  9  1  6  0  0  0
 10 11  1  0  0  0  0
 10 12  1  0  0  0  0
 11 16  1  0  0  0  0
 12 13  1  1  0  0  0
 12 14  1  0  0  0  0
 14 15  1  1  0  0  0
 14 16  1  0  0  0  0
 16 27  1  6  0  0  0
 18 19  2  0  0  0  0
 18 23  1  0  0  0  0
 19 20  1  0  0  0  0
 20 21  2  0  0  0  0
 21 22  1  0  0  0  0
 21 27  1  0  0  0  0
 22 23  2  0  0  0  0
 22 25  1  0  0  0  0
 23 24  1  0  0  0  0
 25 26  2  0  0  0  0
 26 27  1  0  0  0  0
M  END
>  <CHROM.1>
-26.87744197,49.01420282,143.60949885,-70.41801610,-84.40987921,54.58937043
90.29206822,48.58304827,56.25551531,31.89352866,0.93951292,1.21093307,-1.27293188

>  <Name>
ligand

>  <RI>
0

>  <Rbt.Current_Directory>
/home/itssahil/PROJECTS/Mol_Feturizer/New_Systems/rnas/2GIS

>  <Rbt.Executable>
rbdock ($Id: //depot/dev/client3/rdock/2013.1/src/exe/rbdock.cxx#4 $)

>  <Rbt.Library>
libRbt.so (2013.1, Build901 2013/11/27)

>  <Rbt.Parameter_File>
/export/apps/rDock/src/rDock_2013.1_src/data/scripts/dock_solv.prm

>  <Rbt.Receptor>
prm/pocket_docking_4.prm

>  <SCORE>
-17.9811

>  <SCORE.INTER>
-14.6404

>  <SCORE.INTER.CONST>
1

>  <SCORE.INTER.POLAR>
0

>  <SCORE.INTER.ROT>
7

>  <SCORE.INTER.SOLV>
17.0053

>  <SCORE.INTER.VDW>
-23.6954

>  <SCORE.INTER.norm>
-0.542236

>  <SCORE.INTRA>
-3.34077

>  <SCORE.INTRA.DIHEDRAL>
-1.25785

>  <SCORE.INTRA.DIHEDRAL.0>
9.40024

>  <SCORE.INTRA.POLAR>
0

>  <SCORE.INTRA.POLAR.0>
0

>  <SCORE.INTRA.REPUL>
0

>  <SCORE.INTRA.REPUL.0>
0

>  <SCORE.INTRA.SOLV>
-2.19107

>  <SCORE.INTRA.SOLV.lig_0>
-47.1049

>  <SCORE.INTRA.VDW>
-1.61631

>  <SCORE.INTRA.VDW.0>
-1.50278

>  <SCORE.INTRA.norm>
-0.123732

>  <SCORE.RESTR>
0

>  <SCORE.RESTR.CAVITY>
0

>  <SCORE.RESTR.norm>
0

>  <SCORE.SYSTEM>
0

>  <SCORE.SYSTEM.CONST>
0

>  <SCORE.SYSTEM.DIHEDRAL>
0

>  <SCORE.SYSTEM.SOLV>
0

>  <SCORE.SYSTEM.norm>
0

>  <SCORE.heavy>
27

>  <SCORE.norm>
-0.665968

>  <RMSD>
1.385

$$$$
ligand
 OpenBabel11021811433D
libRbt.so/2013.1/901 2013/11/27
 27 29  0  0  0  0  0  0  0  0999 V2000
   46.9361   56.8393   28.0147 N   0  0  0  0  0  0  0  0  0  0  0  0
   48.1419   57.1832   28.7748 C   0  0  2  0  0  0  0  0  0  0  0  0
   48.0295   58.6088   29.2850 C   0  0  0  0  0  0  0  0  0  0  0  0
   49.0178   59.1767   29.7413 O   0  0  0  0  0  0  0  0  0  0  0  0
   49.4016   57.0392   27.8977 C   0  0  0  0  0  0  0  0  0  0  0  0
   49.6799   55.5560   27.6583 C   0  0  0  0  0  0  0  0  0  0  0  0
   50.5825   54.6992   29.0131 S   0  0  2  0  0  0  0  0  0  0  0  0
   50.5212   52.9418   28.5440 C   0  0  0  0  0  0  0  0  0  0  0  0
   49.2431   54.7908   30.2199 C   0  0  0  0  0  0  0  0  0  0  0  0
   49.7260   54.9427   31.6727 C   0  0  1  0  0  0  0  0  0  0  0  0
   50.2637   56.2855   31.8582 O   0  0  0  0  0  0  0  0  0  0  0  0
   48.4394   54.8988   32.4565 C   0  0  1  0  0  0  0  0  0  0  0  0
   48.2136   53.5755   32.9429 O   0  0  0  0  0  0  0  0  0  0  0  0
   48.6809   55.8569   33.6164 C   0  0  1  0  0  0  0  0  0  0  0  0
   49.0949   55.1774   34.7960 O   0  0  0  0  0  0  0  0  0  0  0  0
   49.7930   56.8587   33.1348 C   0  0  2  0  0  0  0  0  0  0  0  0
   46.9374   59.1771   29.3021 O   0  0  0  0  0  0  0  0  0  0  0  0
   45.7063   59.9309   31.9341 N   0  0  0  0  0  0  0  0  0  0  0  0
   45.6960   58.6185   32.1923 C   0  0  0  0  0  0  0  0  0  0  0  0
   46.8074   57.9696   32.5019 N   0  0  0  0  0  0  0  0  0  0  0  0
   47.9959   58.5945   32.5378 C   0  0  0  0  0  0  0  0  0  0  0  0
   48.0601   59.9836   32.2574 C   0  0  0  0  0  0  0  0  0  0  0  0
   46.8440   60.6445   31.9498 C   0  0  0  0  0  0  0  0  0  0  0  0
   46.8281   61.9925   31.6698 N   0  0  0  0  0  0  0  0  0  0  0  0
   49.3517   60.3563   32.3569 N   0  0  0  0  0  0  0  0  0  0  0  0
   50.0723   59.3172   32.6627 C   0  0  0  0  0  0  0  0  0  0  0  0
   49.2882   58.2047   32.7920 N   0  0  0  0  0  0  0  0  0  0  0  0
  2  1  1  6  0  0  0
  2  3  1  0  0  0  0
  2  5  1  0  0  0  0
  3  4  1  0  0  0  0
  3 17  1  0  0  0  0
  5  6  1  0  0  0  0
  7  6  1  6  0  0  0
  7  8  1  0  0  0  0
  7  9  1  0  0  0  0
 10  9  1  6  0  0  0
 10 11  1  0  0  0  0
 10 12  1  0  0  0  0
 11 16  1  0  0  0  0
 12 13  1  1  0  0  0
 12 14  1  0  0  0  0
 14 15  1  1  0  0  0
 14 16  1  0  0  0  0
 16 27  1  6  0  0  0
 18 19  2  0  0  0  0
 18 23  1  0  0  0  0
 19 20  1  0  0  0  0
 20 21  2  0  0  0  0
 21 22  1  0  0  0  0
 21 27  1  0  0  0  0
 22 23  2  0  0  0  0
 22 25  1  0  0  0  0
 23 24  1  0  0  0  0
 25 26  2  0  0  0  0
 26 27  1  0  0  0  0
M  END
>  <CHROM.1>
-167.23253469,-71.79464828,-82.29242023,171.52059865,-146.77506648,71.55144031
96.62278859,48.61794532,57.18413056,31.05472517,0.22351919,1.15701112,-1.45598403

>  <Name>
ligand

>  <RI>
0

>  <Rbt.Current_Directory>
/home/itssahil/PROJECTS/Mol_Feturizer/New_Systems/rnas/2GIS

>  <Rbt.Executable>
rbdock ($Id: //depot/dev/client3/rdock/2013.1/src/exe/rbdock.cxx#4 $)

>  <Rbt.Library>
libRbt.so (2013.1, Build901 2013/11/27)

>  <Rbt.Parameter_File>
/export/apps/rDock/src/rDock_2013.1_src/data/scripts/dock_solv.prm

>  <Rbt.Receptor>
prm/pocket_docking_2.prm

>  <SCORE>
-16.4944

>  <SCORE.INTER>
-12.1518

>  <SCORE.INTER.CONST>
1

>  <SCORE.INTER.POLAR>
0

>  <SCORE.INTER.ROT>
7

>  <SCORE.INTER.SOLV>
16.8985

>  <SCORE.INTER.VDW>
-22.0007

>  <SCORE.INTER.norm>
-0.450066

>  <SCORE.INTRA>
-4.34393

>  <SCORE.INTRA.DIHEDRAL>
-0.231834

>  <SCORE.INTRA.DIHEDRAL.0>
9.40024

>  <SCORE.INTRA.POLAR>
0

>  <SCORE.INTRA.POLAR.0>
0

>  <SCORE.INTRA.REPUL>
0

>  <SCORE.INTRA.REPUL.0>
0

>  <SCORE.INTRA.SOLV>
-1.17142

>  <SCORE.INTRA.SOLV.lig_0>
-47.1049

>  <SCORE.INTRA.VDW>
-3.6423

>  <SCORE.INTRA.VDW.0>
-1.50278

>  <SCORE.INTRA.norm>
-0.160886

>  <SCORE.RESTR>
0.00130016

>  <SCORE.RESTR.CAVITY>
0.00130016

>  <SCORE.RESTR.norm>
4.81541e-05

>  <SCORE.SYSTEM>
0

>  <SCORE.SYSTEM.CONST>
0

>  <SCORE.SYSTEM.DIHEDRAL>
0

>  <SCORE.SYSTEM.SOLV>
0

>  <SCORE.SYSTEM.norm>
0

>  <SCORE.heavy>
27

>  <SCORE.norm>
-0.610904

>  <RMSD>
1.406

$$$$
ligand
 OpenBabel11021811433D
libRbt.so/2013.1/901 2013/11/27
 27 29  0  0  0  0  0  0  0  0999 V2000
   48.5918   56.7173   25.7542 N   0  0  0  0  0  0  0  0  0  0  0  0
   48.2705   56.4312   27.1559 C   0  0  2  0  0  0  0  0  0  0  0  0
   48.6283   57.6324   28.0128 C   0  0  0  0  0  0  0  0  0  0  0  0
   49.6204   57.5967   28.7353 O   0  0  0  0  0  0  0  0  0  0  0  0
   49.0372   55.1885   27.6506 C   0  0  0  0  0  0  0  0  0  0  0  0
   48.5575   54.8291   29.0561 C   0  0  0  0  0  0  0  0  0  0  0  0
   49.5656   53.5612   29.9281 S   0  0  2  0  0  0  0  0  0  0  0  0
   49.1051   51.9967   29.1205 C   0  0  0  0  0  0  0  0  0  0  0  0
   48.5486   53.5035   31.4185 C   0  0  0  0  0  0  0  0  0  0  0  0
   49.2254   54.1182   32.6559 C   0  0  1  0  0  0  0  0  0  0  0  0
   49.7571   55.4303   32.3057 O   0  0  0  0  0  0  0  0  0  0  0  0
   48.0612   54.3746   33.5780 C   0  0  1  0  0  0  0  0  0  0  0  0
   47.9313   53.2966   34.5051 O   0  0  0  0  0  0  0  0  0  0  0  0
   48.4424   55.6579   34.3057 C   0  0  1  0  0  0  0  0  0  0  0  0
   49.0294   55.4000   35.5759 O   0  0  0  0  0  0  0  0  0  0  0  0
   49.4569   56.4098   33.3689 C   0  0  2  0  0  0  0  0  0  0  0  0
   47.8928   58.6195   28.0351 O   0  0  0  0  0  0  0  0  0  0  0  0
   45.2368   59.3367   32.2706 N   0  0  0  0  0  0  0  0  0  0  0  0
   45.2968   58.2411   33.0355 C   0  0  0  0  0  0  0  0  0  0  0  0
   46.4410   57.6087   33.2430 N   0  0  0  0  0  0  0  0  0  0  0  0
   47.5829   58.0213   32.6684 C   0  0  0  0  0  0  0  0  0  0  0  0
   47.5675   59.1705   31.8370 C   0  0  0  0  0  0  0  0  0  0  0  0
   46.3252   59.8296   31.6571 C   0  0  0  0  0  0  0  0  0  0  0  0
   46.2338   60.9532   30.8665 N   0  0  0  0  0  0  0  0  0  0  0  0
   48.8249   59.3627   31.3906 N   0  0  0  0  0  0  0  0  0  0  0  0
   49.5941   58.4294   31.8697 C   0  0  0  0  0  0  0  0  0  0  0  0
   48.8829   57.5777   32.6684 N   0  0  0  0  0  0  0  0  0  0  0  0
  2  1  1  6  0  0  0
  2  3  1  0  0  0  0
  2  5  1  0  0  0  0
  3  4  1  0  0  0  0
  3 17  1  0  0  0  0
  5  6  1  0  0  0  0
  7  6  1  6  0  0  0
  7  8  1  0  0  0  0
  7  9  1  0  0  0  0
 10  9  1  6  0  0  0
 10 11  1  0  0  0  0
 10 12  1  0  0  0  0
 11 16  1  0  0  0  0
 12 13  1  1  0  0  0
 12 14  1  0  0  0  0
 14 15  1  1  0  0  0
 14 16  1  0  0  0  0
 16 27  1  6  0  0  0
 18 19  2  0  0  0  0
 18 23  1  0  0  0  0
 19 20  1  0  0  0  0
 20 21  2  0  0  0  0
 21 22  1  0  0  0  0
 21 27  1  0  0  0  0
 22 23  2  0  0  0  0
 22 25  1  0  0  0  0
 23 24  1  0  0  0  0
 25 26  2  0  0  0  0
 26 27  1  0  0  0  0
M  END
>  <CHROM.1>
-105.95854853,-173.56393965,-169.50351954,-74.79216579,-109.56692914,49.28155587
108.81823939,48.30842797,56.42799762,31.13876434,0.77901158,1.19920233,-1.22997260

>  <Name>
ligand

>  <RI>
0

>  <Rbt.Current_Directory>
/home/itssahil/PROJECTS/Mol_Feturizer/New_Systems/rnas/2GIS

>  <Rbt.Executable>
rbdock ($Id: //depot/dev/client3/rdock/2013.1/src/exe/rbdock.cxx#4 $)

>  <Rbt.Library>
libRbt.so (2013.1, Build901 2013/11/27)

>  <Rbt.Parameter_File>
/export/apps/rDock/src/rDock_2013.1_src/data/scripts/dock_solv.prm

>  <Rbt.Receptor>
prm/pocket_docking_2.prm

>  <SCORE>
-12.0846

>  <SCORE.INTER>
-8.67591

>  <SCORE.INTER.CONST>
1

>  <SCORE.INTER.POLAR>
0

>  <SCORE.INTER.ROT>
7

>  <SCORE.INTER.SOLV>
19.3629

>  <SCORE.INTER.VDW>
-20.5049

>  <SCORE.INTER.norm>
-0.32133

>  <SCORE.INTRA>
-3.40871

>  <SCORE.INTRA.DIHEDRAL>
-1.49402

>  <SCORE.INTRA.DIHEDRAL.0>
9.40024

>  <SCORE.INTRA.POLAR>
0

>  <SCORE.INTRA.POLAR.0>
0

>  <SCORE.INTRA.REPUL>
0

>  <SCORE.INTRA.REPUL.0>
0

>  <SCORE.INTRA.SOLV>
-3.11568

>  <SCORE.INTRA.SOLV.lig_0>
-47.1049

>  <SCORE.INTRA.VDW>
-1.10387

>  <SCORE.INTRA.VDW.0>
-1.50278

>  <SCORE.INTRA.norm>
-0.126249

>  <SCORE.RESTR>
0

>  <SCORE.RESTR.CAVITY>
0

>  <SCORE.RESTR.norm>
0

>  <SCORE.SYSTEM>
0

>  <SCORE.SYSTEM.CONST>
0

>  <SCORE.SYSTEM.DIHEDRAL>
0

>  <SCORE.SYSTEM.SOLV>
0

>  <SCORE.SYSTEM.norm>
0

>  <SCORE.heavy>
27

>  <SCORE.norm>
-0.447579

>  <RMSD>
1.409

$$$$
ligand
 OpenBabel11021811433D
libRbt.so/2013.1/901 2013/11/27
 27 29  0  0  0  0  0  0  0  0999 V2000
   48.3398   57.6359   26.6826 N   0  0  0  0  0  0  0  0  0  0  0  0
   47.9612   57.0290   27.9626 C   0  0  2  0  0  0  0  0  0  0  0  0
   47.9774   58.0887   29.0499 C   0  0  0  0  0  0  0  0  0  0  0  0
   46.9421   58.3710   29.6465 O   0  0  0  0  0  0  0  0  0  0  0  0
   48.9261   55.8849   28.3326 C   0  0  0  0  0  0  0  0  0  0  0  0
   48.4617   55.2384   29.6368 C   0  0  0  0  0  0  0  0  0  0  0  0
   49.5000   53.8413   30.2322 S   0  0  2  0  0  0  0  0  0  0  0  0
   49.0030   52.4409   29.1816 C   0  0  0  0  0  0  0  0  0  0  0  0
   48.5428   53.5190   31.7284 C   0  0  0  0  0  0  0  0  0  0  0  0
   49.2147   54.0260   33.0163 C   0  0  1  0  0  0  0  0  0  0  0  0
   49.7504   55.3618   32.7803 O   0  0  0  0  0  0  0  0  0  0  0  0
   48.0466   54.2064   33.9513 C   0  0  1  0  0  0  0  0  0  0  0  0
   47.9103   53.0545   34.7839 O   0  0  0  0  0  0  0  0  0  0  0  0
   48.4265   55.4231   34.7862 C   0  0  1  0  0  0  0  0  0  0  0  0
   49.0070   55.0580   36.0329 O   0  0  0  0  0  0  0  0  0  0  0  0
   49.4468   56.2490   33.9206 C   0  0  2  0  0  0  0  0  0  0  0  0
   49.0109   58.7120   29.2932 O   0  0  0  0  0  0  0  0  0  0  0  0
   45.1878   58.9490   32.4535 N   0  0  0  0  0  0  0  0  0  0  0  0
   45.2346   57.7386   33.0209 C   0  0  0  0  0  0  0  0  0  0  0  0
   46.3868   57.1812   33.3585 N   0  0  0  0  0  0  0  0  0  0  0  0
   47.5579   57.7929   33.1160 C   0  0  0  0  0  0  0  0  0  0  0  0
   47.5606   59.0721   32.5029 C   0  0  0  0  0  0  0  0  0  0  0  0
   46.3042   59.6419   32.1755 C   0  0  0  0  0  0  0  0  0  0  0  0
   46.2283   60.8816   31.5813 N   0  0  0  0  0  0  0  0  0  0  0  0
   48.8466   59.4542   32.3717 N   0  0  0  0  0  0  0  0  0  0  0  0
   49.6188   58.5185   32.8414 C   0  0  0  0  0  0  0  0  0  0  0  0
   48.8783   57.4729   33.3182 N   0  0  0  0  0  0  0  0  0  0  0  0
  2  1  1  6  0  0  0
  2  3  1  0  0  0  0
  2  5  1  0  0  0  0
  3  4  1  0  0  0  0
  3 17  1  0  0  0  0
  5  6  1  0  0  0  0
  7  6  1  6  0  0  0
  7  8  1  0  0  0  0
  7  9  1  0  0  0  0
 10  9  1  6  0  0  0
 10 11  1  0  0  0  0
 10 12  1  0  0  0  0
 11 16  1  0  0  0  0
 12 13  1  1  0  0  0
 12 14  1  0  0  0  0
 14 15  1  1  0  0  0
 14 16  1  0  0  0  0
 16 27  1  6  0  0  0
 18 19  2  0  0  0  0
 18 23  1  0  0  0  0
 19 20  1  0  0  0  0
 20 21  2  0  0  0  0
 21 22  1  0  0  0  0
 21 27  1  0  0  0  0
 22 23  2  0  0  0  0
 22 25  1  0  0  0  0
 23 24  1  0  0  0  0
 25 26  2  0  0  0  0
 26 27  1  0  0  0  0
M  END
>  <CHROM.1>
117.73506001,-177.43743848,179.85397306,-77.63787000,-104.31199069,43.79390338
94.62363538,48.17830146,56.50138807,31.68665675,-2.28554273,-1.20057493,1.83857171

>  <Name>
ligand

>  <RI>
0

>  <Rbt.Current_Directory>
/home/itssahil/PROJECTS/Mol_Feturizer/New_Systems/rnas/2GIS

>  <Rbt.Executable>
rbdock ($Id: //depot/dev/client3/rdock/2013.1/src/exe/rbdock.cxx#4 $)

>  <Rbt.Library>
libRbt.so (2013.1, Build901 2013/11/27)

>  <Rbt.Parameter_File>
/export/apps/rDock/src/rDock_2013.1_src/data/scripts/dock_solv.prm

>  <Rbt.Receptor>
prm/pocket_docking_2.prm

>  <SCORE>
-16.1044

>  <SCORE.INTER>
-10.9574

>  <SCORE.INTER.CONST>
1

>  <SCORE.INTER.POLAR>
0

>  <SCORE.INTER.ROT>
7

>  <SCORE.INTER.SOLV>
18.3111

>  <SCORE.INTER.VDW>
-21.6753

>  <SCORE.INTER.norm>
-0.405828

>  <SCORE.INTRA>
-5.14708

>  <SCORE.INTRA.DIHEDRAL>
-2.09506

>  <SCORE.INTRA.DIHEDRAL.0>
9.40024

>  <SCORE.INTRA.POLAR>
0

>  <SCORE.INTRA.POLAR.0>
0

>  <SCORE.INTRA.REPUL>
0

>  <SCORE.INTRA.REPUL.0>
0

>  <SCORE.INTRA.SOLV>
-2.3537

>  <SCORE.INTRA.SOLV.lig_0>
-47.1049

>  <SCORE.INTRA.VDW>
-2.9227

>  <SCORE.INTRA.VDW.0>
-1.50278

>  <SCORE.INTRA.norm>
-0.190633

>  <SCORE.RESTR>
0

>  <SCORE.RESTR.CAVITY>
0

>  <SCORE.RESTR.norm>
0

>  <SCORE.SYSTEM>
0

>  <SCORE.SYSTEM.CONST>
0

>  <SCORE.SYSTEM.DIHEDRAL>
0

>  <SCORE.SYSTEM.SOLV>
0

>  <SCORE.SYSTEM.norm>
0

>  <SCORE.heavy>
27

>  <SCORE.norm>
-0.596461

>  <RMSD>
1.420

$$$$
ligand
 OpenBabel11021811433D
libRbt.so/2013.1/901 2013/11/27
 27 29  0  0  0  0  0  0  0  0999 V2000
   47.3283   56.9608   28.0658 N   0  0  0  0  0  0  0  0  0  0  0  0
   48.1995   57.1066   29.2361 C   0  0  2  0  0  0  0  0  0  0  0  0
   48.2819   58.5715   29.6268 C   0  0  0  0  0  0  0  0  0  0  0  0
   47.3232   59.3132   29.4314 O   0  0  0  0  0  0  0  0  0  0  0  0
   49.6116   56.5643   28.9383 C   0  0  0  0  0  0  0  0  0  0  0  0
   49.5195   55.0735   28.6163 C   0  0  0  0  0  0  0  0  0  0  0  0
   50.0624   53.9454   29.9643 S   0  0  2  0  0  0  0  0  0  0  0  0
   49.3454   52.3355   29.5103 C   0  0  0  0  0  0  0  0  0  0  0  0
   48.8732   54.5299   31.1902 C   0  0  0  0  0  0  0  0  0  0  0  0
   49.5051   54.8877   32.5466 C   0  0  1  0  0  0  0  0  0  0  0  0
   50.0727   56.2288   32.4689 O   0  0  0  0  0  0  0  0  0  0  0  0
   48.3061   54.9963   33.4532 C   0  0  1  0  0  0  0  0  0  0  0  0
   48.1183   53.7682   34.1570 O   0  0  0  0  0  0  0  0  0  0  0  0
   48.6758   56.1125   34.4221 C   0  0  1  0  0  0  0  0  0  0  0  0
   49.2026   55.6092   35.6443 O   0  0  0  0  0  0  0  0  0  0  0  0
   49.7423   57.0007   33.6833 C   0  0  2  0  0  0  0  0  0  0  0  0
   49.3286   59.0344   30.0806 O   0  0  0  0  0  0  0  0  0  0  0  0
   45.6731   59.7707   31.8527 N   0  0  0  0  0  0  0  0  0  0  0  0
   45.6923   58.4813   32.2079 C   0  0  0  0  0  0  0  0  0  0  0  0
   46.7928   57.9127   32.6747 N   0  0  0  0  0  0  0  0  0  0  0  0
   47.9436   58.5973   32.7806 C   0  0  0  0  0  0  0  0  0  0  0  0
   47.9770   59.9642   32.4029 C   0  0  0  0  0  0  0  0  0  0  0  0
   46.7718   60.5397   31.9268 C   0  0  0  0  0  0  0  0  0  0  0  0
   46.7273   61.8617   31.5448 N   0  0  0  0  0  0  0  0  0  0  0  0
   49.2345   60.4073   32.6014 N   0  0  0  0  0  0  0  0  0  0  0  0
   49.9635   59.4301   33.0553 C   0  0  0  0  0  0  0  0  0  0  0  0
   49.2184   58.2919   33.1906 N   0  0  0  0  0  0  0  0  0  0  0  0
  2  1  1  6  0  0  0
  2  3  1  0  0  0  0
  2  5  1  0  0  0  0
  3  4  1  0  0  0  0
  3 17  1  0  0  0  0
  5  6  1  0  0  0  0
  7  6  1  6  0  0  0
  7  8  1  0  0  0  0
  7  9  1  0  0  0  0
 10  9  1  6  0  0  0
 10 11  1  0  0  0  0
 10 12  1  0  0  0  0
 11 16  1  0  0  0  0
 12 13  1  1  0  0  0
 12 14  1  0  0  0  0
 14 15  1  1  0  0  0
 14 16  1  0  0  0  0
 16 27  1  6  0  0  0
 18 19  2  0  0  0  0
 18 23  1  0  0  0  0
 19 20  1  0  0  0  0
 20 21  2  0  0  0  0
 21 22  1  0  0  0  0
 21 27  1  0  0  0  0
 22 23  2  0  0  0  0
 22 25  1  0  0  0  0
 23 24  1  0  0  0  0
 25 26  2  0  0  0  0
 26 27  1  0  0  0  0
M  END
>  <CHROM.1>
31.34313972,-61.76004143,-103.84375711,162.25855437,-129.79056068,81.57956869
83.56894763,48.52786281,57.08144377,31.58645436,0.16851122,1.24274180,-1.61915420

>  <Name>
ligand

>  <RI>
0

>  <Rbt.Current_Directory>
/home/itssahil/PROJECTS/Mol_Feturizer/New_Systems/rnas/2GIS

>  <Rbt.Executable>
rbdock ($Id: //depot/dev/client3/rdock/2013.1/src/exe/rbdock.cxx#4 $)

>  <Rbt.Library>
libRbt.so (2013.1, Build901 2013/11/27)

>  <Rbt.Parameter_File>
/export/apps/rDock/src/rDock_2013.1_src/data/scripts/dock_solv.prm

>  <Rbt.Receptor>
prm/pocket_docking_3.prm

>  <SCORE>
-16.0286

>  <SCORE.INTER>
-14.1891

>  <SCORE.INTER.CONST>
1

>  <SCORE.INTER.POLAR>
0

>  <SCORE.INTER.ROT>
7

>  <SCORE.INTER.SOLV>
16.6508

>  <SCORE.INTER.VDW>
-23.2764

>  <SCORE.INTER.norm>
-0.525524

>  <SCORE.INTRA>
-1.83945

>  <SCORE.INTRA.DIHEDRAL>
4.68013

>  <SCORE.INTRA.DIHEDRAL.0>
9.40024

>  <SCORE.INTRA.POLAR>
0

>  <SCORE.INTRA.POLAR.0>
0

>  <SCORE.INTRA.REPUL>
0

>  <SCORE.INTRA.REPUL.0>
0

>  <SCORE.INTRA.SOLV>
-1.20412

>  <SCORE.INTRA.SOLV.lig_0>
-47.1049

>  <SCORE.INTRA.VDW>
-3.57745

>  <SCORE.INTRA.VDW.0>
-1.50278

>  <SCORE.INTRA.norm>
-0.0681276

>  <SCORE.RESTR>
0

>  <SCORE.RESTR.CAVITY>
0

>  <SCORE.RESTR.norm>
0

>  <SCORE.SYSTEM>
0

>  <SCORE.SYSTEM.CONST>
0

>  <SCORE.SYSTEM.DIHEDRAL>
0

>  <SCORE.SYSTEM.SOLV>
0

>  <SCORE.SYSTEM.norm>
0

>  <SCORE.heavy>
27

>  <SCORE.norm>
-0.593652

>  <RMSD>
1.422

$$$$
ligand
 OpenBabel11021811433D
libRbt.so/2013.1/901 2013/11/27
 27 29  0  0  0  0  0  0  0  0999 V2000
   47.9720   56.1267   26.2828 N   0  0  0  0  0  0  0  0  0  0  0  0
   47.7271   56.7466   27.5888 C   0  0  2  0  0  0  0  0  0  0  0  0
   49.0006   57.4109   28.0809 C   0  0  0  0  0  0  0  0  0  0  0  0
   50.0912   57.0297   27.6653 O   0  0  0  0  0  0  0  0  0  0  0  0
   47.2553   55.6959   28.6137 C   0  0  0  0  0  0  0  0  0  0  0  0
   48.3098   54.5959   28.7267 C   0  0  0  0  0  0  0  0  0  0  0  0
   49.6579   54.9236   29.9348 S   0  0  2  0  0  0  0  0  0  0  0  0
   50.7393   53.4662   29.7979 C   0  0  0  0  0  0  0  0  0  0  0  0
   48.6963   54.5145   31.4067 C   0  0  0  0  0  0  0  0  0  0  0  0
   49.3897   54.8944   32.7265 C   0  0  1  0  0  0  0  0  0  0  0  0
   49.9831   56.2194   32.5888 O   0  0  0  0  0  0  0  0  0  0  0  0
   48.2305   55.0553   33.6762 C   0  0  1  0  0  0  0  0  0  0  0  0
   48.0440   53.8516   34.4211 O   0  0  0  0  0  0  0  0  0  0  0  0
   48.6632   56.1887   34.5980 C   0  0  1  0  0  0  0  0  0  0  0  0
   49.2271   55.7068   35.8122 O   0  0  0  0  0  0  0  0  0  0  0  0
   49.7185   57.0315   33.7930 C   0  0  2  0  0  0  0  0  0  0  0  0
   48.9493   58.2881   28.9432 O   0  0  0  0  0  0  0  0  0  0  0  0
   45.6867   59.7910   31.8664 N   0  0  0  0  0  0  0  0  0  0  0  0
   45.6998   58.5027   32.2258 C   0  0  0  0  0  0  0  0  0  0  0  0
   46.7905   57.9368   32.7181 N   0  0  0  0  0  0  0  0  0  0  0  0
   47.9379   58.6232   32.8468 C   0  0  0  0  0  0  0  0  0  0  0  0
   47.9779   59.9890   32.4658 C   0  0  0  0  0  0  0  0  0  0  0  0
   46.7827   60.5615   31.9620 C   0  0  0  0  0  0  0  0  0  0  0  0
   46.7449   61.8824   31.5751 N   0  0  0  0  0  0  0  0  0  0  0  0
   49.2303   60.4342   32.6901 N   0  0  0  0  0  0  0  0  0  0  0  0
   49.9504   59.4593   33.1627 C   0  0  0  0  0  0  0  0  0  0  0  0
   49.2040   58.3205   33.2852 N   0  0  0  0  0  0  0  0  0  0  0  0
  2  1  1  6  0  0  0
  2  3  1  0  0  0  0
  2  5  1  0  0  0  0
  3  4  1  0  0  0  0
  3 17  1  0  0  0  0
  5  6  1  0  0  0  0
  7  6  1  6  0  0  0
  7  8  1  0  0  0  0
  7  9  1  0  0  0  0
 10  9  1  6  0  0  0
 10 11  1  0  0  0  0
 10 12  1  0  0  0  0
 11 16  1  0  0  0  0
 12 13  1  1  0  0  0
 12 14  1  0  0  0  0
 14 15  1  1  0  0  0
 14 16  1  0  0  0  0
 16 27  1  6  0  0  0
 18 19  2  0  0  0  0
 18 23  1  0  0  0  0
 19 20  1  0  0  0  0
 20 21  2  0  0  0  0
 21 22  1  0  0  0  0
 21 27  1  0  0  0  0
 22 23  2  0  0  0  0
 22 25  1  0  0  0  0
 23 24  1  0  0  0  0
 25 26  2  0  0  0  0
 26 27  1  0  0  0  0
M  END
>  <CHROM.1>
-23.70935426,57.80233535,86.70038265,-178.81418083,-169.71598693,43.09309748
79.54230378,48.52829374,56.97549757,31.37391552,1.04923950,1.23240753,-1.63323429

>  <Name>
ligand

>  <RI>
0

>  <Rbt.Current_Directory>
/home/itssahil/PROJECTS/Mol_Feturizer/New_Systems/rnas/2GIS

>  <Rbt.Executable>
rbdock ($Id: //depot/dev/client3/rdock/2013.1/src/exe/rbdock.cxx#4 $)

>  <Rbt.Library>
libRbt.so (2013.1, Build901 2013/11/27)

>  <Rbt.Parameter_File>
/export/apps/rDock/src/rDock_2013.1_src/data/scripts/dock_solv.prm

>  <Rbt.Receptor>
prm/pocket_docking_3.prm

>  <SCORE>
-16.2519

>  <SCORE.INTER>
-12.3295

>  <SCORE.INTER.CONST>
1

>  <SCORE.INTER.POLAR>
0

>  <SCORE.INTER.ROT>
7

>  <SCORE.INTER.SOLV>
18.6691

>  <SCORE.INTER.VDW>
-22.7094

>  <SCORE.INTER.norm>
-0.456649

>  <SCORE.INTRA>
-3.92234

>  <SCORE.INTRA.DIHEDRAL>
-2.02861

>  <SCORE.INTRA.DIHEDRAL.0>
9.40024

>  <SCORE.INTRA.POLAR>
0

>  <SCORE.INTRA.POLAR.0>
0

>  <SCORE.INTRA.REPUL>
0

>  <SCORE.INTRA.REPUL.0>
0

>  <SCORE.INTRA.SOLV>
-1.92169

>  <SCORE.INTRA.SOLV.lig_0>
-47.1049

>  <SCORE.INTRA.VDW>
-1.94719

>  <SCORE.INTRA.VDW.0>
-1.50278

>  <SCORE.INTRA.norm>
-0.145272

>  <SCORE.RESTR>
0

>  <SCORE.RESTR.CAVITY>
0

>  <SCORE.RESTR.norm>
0

>  <SCORE.SYSTEM>
0

>  <SCORE.SYSTEM.CONST>
0

>  <SCORE.SYSTEM.DIHEDRAL>
0

>  <SCORE.SYSTEM.SOLV>
0

>  <SCORE.SYSTEM.norm>
0

>  <SCORE.heavy>
27

>  <SCORE.norm>
-0.601921

>  <RMSD>
1.469

$$$$
ligand
 OpenBabel11021811433D
libRbt.so/2013.1/901 2013/11/27
 27 29  0  0  0  0  0  0  0  0999 V2000
   48.1220   57.8470   28.9033 N   0  0  0  0  0  0  0  0  0  0  0  0
   49.3005   56.9934   29.0834 C   0  0  2  0  0  0  0  0  0  0  0  0
   49.8689   56.6216   27.7254 C   0  0  0  0  0  0  0  0  0  0  0  0
   49.1961   56.7893   26.7122 O   0  0  0  0  0  0  0  0  0  0  0  0
   48.9367   55.7158   29.8659 C   0  0  0  0  0  0  0  0  0  0  0  0
   50.2204   55.0021   30.2870 C   0  0  0  0  0  0  0  0  0  0  0  0
   49.9922   53.2950   30.9335 S   0  0  2  0  0  0  0  0  0  0  0  0
   48.9844   52.4708   29.6619 C   0  0  0  0  0  0  0  0  0  0  0  0
   48.7369   53.7231   32.1581 C   0  0  0  0  0  0  0  0  0  0  0  0
   49.3169   54.2100   33.4974 C   0  0  1  0  0  0  0  0  0  0  0  0
   49.9646   55.5009   33.2949 O   0  0  0  0  0  0  0  0  0  0  0  0
   48.0805   54.4893   34.3127 C   0  0  1  0  0  0  0  0  0  0  0  0
   47.7854   53.3671   35.1447 O   0  0  0  0  0  0  0  0  0  0  0  0
   48.4633   55.6946   35.1627 C   0  0  1  0  0  0  0  0  0  0  0  0
   48.8955   55.3171   36.4647 O   0  0  0  0  0  0  0  0  0  0  0  0
   49.6166   56.4305   34.3877 C   0  0  2  0  0  0  0  0  0  0  0  0
   50.9777   56.0932   27.6407 O   0  0  0  0  0  0  0  0  0  0  0  0
   45.7824   59.2138   32.1220 N   0  0  0  0  0  0  0  0  0  0  0  0
   45.7023   57.9865   32.6477 C   0  0  0  0  0  0  0  0  0  0  0  0
   46.7528   57.4083   33.2082 N   0  0  0  0  0  0  0  0  0  0  0  0
   47.9503   58.0159   33.2435 C   0  0  0  0  0  0  0  0  0  0  0  0
   48.0888   59.3130   32.6861 C   0  0  0  0  0  0  0  0  0  0  0  0
   46.9344   59.9042   32.1134 C   0  0  0  0  0  0  0  0  0  0  0  0
   46.9920   61.1620   31.5563 N   0  0  0  0  0  0  0  0  0  0  0  0
   49.3739   59.6867   32.8477 N   0  0  0  0  0  0  0  0  0  0  0  0
   50.0238   58.7299   33.4432 C   0  0  0  0  0  0  0  0  0  0  0  0
   49.1949   57.6774   33.7157 N   0  0  0  0  0  0  0  0  0  0  0  0
  2  1  1  6  0  0  0
  2  3  1  0  0  0  0
  2  5  1  0  0  0  0
  3  4  1  0  0  0  0
  3 17  1  0  0  0  0
  5  6  1  0  0  0  0
  7  6  1  6  0  0  0
  7  8  1  0  0  0  0
  7  9  1  0  0  0  0
 10  9  1  6  0  0  0
 10 11  1  0  0  0  0
 10 12  1  0  0  0  0
 11 16  1  0  0  0  0
 12 13  1  1  0  0  0
 12 14  1  0  0  0  0
 14 15  1  1  0  0  0
 14 16  1  0  0  0  0
 16 27  1  6  0  0  0
 18 19  2  0  0  0  0
 18 23  1  0  0  0  0
 19 20  1  0  0  0  0
 20 21  2  0  0  0  0
 21 22  1  0  0  0  0
 21 27  1  0  0  0  0
 22 23  2  0  0  0  0
 22 25  1  0  0  0  0
 23 24  1  0  0  0  0
 25 26  2  0  0  0  0
 26 27  1  0  0  0  0
M  END
>  <CHROM.1>
-15.24550430,-168.23423910,-168.26826964,51.18832405,-85.16009549,67.92739456
86.29613846,48.73383097,56.37919988,31.88260895,0.75031717,1.20543061,-1.03133957

>  <Name>
ligand

>  <RI>
0

>  <Rbt.Current_Directory>
/home/itssahil/PROJECTS/Mol_Feturizer/New_Systems/rnas/2GIS

>  <Rbt.Executable>
rbdock ($Id: //depot/dev/client3/rdock/2013.1/src/exe/rbdock.cxx#4 $)

>  <Rbt.Library>
libRbt.so (2013.1, Build901 2013/11/27)

>  <Rbt.Parameter_File>
/export/apps/rDock/src/rDock_2013.1_src/data/scripts/dock_solv.prm

>  <Rbt.Receptor>
prm/pocket_docking_3.prm

>  <SCORE>
-20.4992

>  <SCORE.INTER>
-15.7115

>  <SCORE.INTER.CONST>
1

>  <SCORE.INTER.POLAR>
0

>  <SCORE.INTER.ROT>
7

>  <SCORE.INTER.SOLV>
16.2633

>  <SCORE.INTER.VDW>
-24.1621

>  <SCORE.INTER.norm>
-0.581907

>  <SCORE.INTRA>
-4.78772

>  <SCORE.INTRA.DIHEDRAL>
-4.12065

>  <SCORE.INTRA.DIHEDRAL.0>
9.40024

>  <SCORE.INTRA.POLAR>
0

>  <SCORE.INTRA.POLAR.0>
0

>  <SCORE.INTRA.REPUL>
0

>  <SCORE.INTRA.REPUL.0>
0

>  <SCORE.INTRA.SOLV>
-2.9496

>  <SCORE.INTRA.SOLV.lig_0>
-47.1049

>  <SCORE.INTRA.VDW>
-1.2526

>  <SCORE.INTRA.VDW.0>
-1.50278

>  <SCORE.INTRA.norm>
-0.177323

>  <SCORE.RESTR>
0

>  <SCORE.RESTR.CAVITY>
0

>  <SCORE.RESTR.norm>
0

>  <SCORE.SYSTEM>
0

>  <SCORE.SYSTEM.CONST>
0

>  <SCORE.SYSTEM.DIHEDRAL>
0

>  <SCORE.SYSTEM.SOLV>
0

>  <SCORE.SYSTEM.norm>
0

>  <SCORE.heavy>
27

>  <SCORE.norm>
-0.75923

>  <RMSD>
1.515

$$$$
ligand
 OpenBabel11021811433D
libRbt.so/2013.1/901 2013/11/27
 27 29  0  0  0  0  0  0  0  0999 V2000
   48.1643   57.8707   28.8741 N   0  0  0  0  0  0  0  0  0  0  0  0
   49.3554   57.0557   29.1326 C   0  0  2  0  0  0  0  0  0  0  0  0
   50.0332   56.7178   27.8166 C   0  0  0  0  0  0  0  0  0  0  0  0
   51.2366   56.4754   27.7911 O   0  0  0  0  0  0  0  0  0  0  0  0
   48.9802   55.7582   29.8761 C   0  0  0  0  0  0  0  0  0  0  0  0
   50.2565   55.0014   30.2406 C   0  0  0  0  0  0  0  0  0  0  0  0
   50.0013   53.2908   30.8677 S   0  0  2  0  0  0  0  0  0  0  0  0
   49.0003   52.4901   29.5759 C   0  0  0  0  0  0  0  0  0  0  0  0
   48.7358   53.7212   32.0809 C   0  0  0  0  0  0  0  0  0  0  0  0
   49.3045   54.2061   33.4257 C   0  0  1  0  0  0  0  0  0  0  0  0
   49.9471   55.5009   33.2323 O   0  0  0  0  0  0  0  0  0  0  0  0
   48.0614   54.4762   34.2339 C   0  0  1  0  0  0  0  0  0  0  0  0
   47.7664   53.3495   35.0598 O   0  0  0  0  0  0  0  0  0  0  0  0
   48.4326   55.6802   35.0908 C   0  0  1  0  0  0  0  0  0  0  0  0
   48.8581   55.3000   36.3943 O   0  0  0  0  0  0  0  0  0  0  0  0
   49.5873   56.4247   34.3263 C   0  0  2  0  0  0  0  0  0  0  0  0
   49.3947   56.7478   26.7644 O   0  0  0  0  0  0  0  0  0  0  0  0
   45.7264   59.2481   32.1575 N   0  0  0  0  0  0  0  0  0  0  0  0
   45.6440   58.0271   32.6972 C   0  0  0  0  0  0  0  0  0  0  0  0
   46.7028   57.4373   33.2294 N   0  0  0  0  0  0  0  0  0  0  0  0
   47.9102   58.0260   33.2206 C   0  0  0  0  0  0  0  0  0  0  0  0
   48.0511   59.3155   32.6466 C   0  0  0  0  0  0  0  0  0  0  0  0
   46.8883   59.9199   32.1055 C   0  0  0  0  0  0  0  0  0  0  0  0
   46.9476   61.1715   31.5347 N   0  0  0  0  0  0  0  0  0  0  0  0
   49.3464   59.6701   32.7635 N   0  0  0  0  0  0  0  0  0  0  0  0
   50.0000   58.7086   33.3471 C   0  0  0  0  0  0  0  0  0  0  0  0
   49.1639   57.6720   33.6561 N   0  0  0  0  0  0  0  0  0  0  0  0
  2  1  1  6  0  0  0
  2  3  1  0  0  0  0
  2  5  1  0  0  0  0
  3  4  1  0  0  0  0
  3 17  1  0  0  0  0
  5  6  1  0  0  0  0
  7  6  1  6  0  0  0
  7  8  1  0  0  0  0
  7  9  1  0  0  0  0
 10  9  1  6  0  0  0
 10 11  1  0  0  0  0
 10 12  1  0  0  0  0
 11 16  1  0  0  0  0
 12 13  1  1  0  0  0
 12 14  1  0  0  0  0
 14 15  1  1  0  0  0
 14 16  1  0  0  0  0
 16 27  1  6  0  0  0
 18 19  2  0  0  0  0
 18 23  1  0  0  0  0
 19 20  1  0  0  0  0
 20 21  2  0  0  0  0
 21 22  1  0  0  0  0
 21 27  1  0  0  0  0
 22 23  2  0  0  0  0
 22 25  1  0  0  0  0
 23 24  1  0  0  0  0
 25 26  2  0  0  0  0
 26 27  1  0  0  0  0
M  END
>  <CHROM.1>
154.26303761,-174.79852870,-169.67710565,54.09623754,-84.41659598,68.41118383
88.91826837,48.74524704,56.40149894,31.85563546,0.59399843,1.18093792,-0.94225903

>  <Name>
ligand

>  <RI>
0

>  <Rbt.Current_Directory>
/home/itssahil/PROJECTS/Mol_Feturizer/New_Systems/rnas/2GIS

>  <Rbt.Executable>
rbdock ($Id: //depot/dev/client3/rdock/2013.1/src/exe/rbdock.cxx#4 $)

>  <Rbt.Library>
libRbt.so (2013.1, Build901 2013/11/27)

>  <Rbt.Parameter_File>
/export/apps/rDock/src/rDock_2013.1_src/data/scripts/dock_solv.prm

>  <Rbt.Receptor>
prm/pocket_docking_8.prm

>  <SCORE>
-20.8019

>  <SCORE.INTER>
-15.9413

>  <SCORE.INTER.CONST>
1

>  <SCORE.INTER.POLAR>
0

>  <SCORE.INTER.ROT>
7

>  <SCORE.INTER.SOLV>
16.4141

>  <SCORE.INTER.VDW>
-24.3656

>  <SCORE.INTER.norm>
-0.59042

>  <SCORE.INTRA>
-4.86742

>  <SCORE.INTRA.DIHEDRAL>
-4.47519

>  <SCORE.INTRA.DIHEDRAL.0>
9.40024

>  <SCORE.INTRA.POLAR>
0

>  <SCORE.INTRA.POLAR.0>
0

>  <SCORE.INTRA.REPUL>
0

>  <SCORE.INTRA.REPUL.0>
0

>  <SCORE.INTRA.SOLV>
-2.95165

>  <SCORE.INTRA.SOLV.lig_0>
-47.1049

>  <SCORE.INTRA.VDW>
-1.154

>  <SCORE.INTRA.VDW.0>
-1.50278

>  <SCORE.INTRA.norm>
-0.180275

>  <SCORE.RESTR>
0.00687017

>  <SCORE.RESTR.CAVITY>
0.00687017

>  <SCORE.RESTR.norm>
0.000254451

>  <SCORE.SYSTEM>
0

>  <SCORE.SYSTEM.CONST>
0

>  <SCORE.SYSTEM.DIHEDRAL>
0

>  <SCORE.SYSTEM.SOLV>
0

>  <SCORE.SYSTEM.norm>
0

>  <SCORE.heavy>
27

>  <SCORE.norm>
-0.77044

>  <RMSD>
1.525

$$$$
ligand
 OpenBabel11021811433D
libRbt.so/2013.1/901 2013/11/27
 27 29  0  0  0  0  0  0  0  0999 V2000
   46.0910   57.4585   29.1620 N   0  0  0  0  0  0  0  0  0  0  0  0
   47.5472   57.5987   29.2604 C   0  0  2  0  0  0  0  0  0  0  0  0
   48.0616   58.3876   28.0694 C   0  0  0  0  0  0  0  0  0  0  0  0
   49.1571   58.9392   28.1260 O   0  0  0  0  0  0  0  0  0  0  0  0
   48.2284   56.2165   29.3060 C   0  0  0  0  0  0  0  0  0  0  0  0
   47.9356   55.5565   30.6526 C   0  0  0  0  0  0  0  0  0  0  0  0
   48.5431   53.8289   30.8275 S   0  0  2  0  0  0  0  0  0  0  0  0
   47.3228   52.8355   29.9131 C   0  0  0  0  0  0  0  0  0  0  0  0
   47.9817   53.6025   32.5281 C   0  0  0  0  0  0  0  0  0  0  0  0
   48.9982   54.0689   33.5847 C   0  0  1  0  0  0  0  0  0  0  0  0
   49.6765   55.2647   33.0980 O   0  0  0  0  0  0  0  0  0  0  0  0
   48.1145   54.5248   34.7171 C   0  0  1  0  0  0  0  0  0  0  0  0
   47.9834   53.4790   35.6803 O   0  0  0  0  0  0  0  0  0  0  0  0
   48.8639   55.7082   35.3168 C   0  0  1  0  0  0  0  0  0  0  0  0
   49.6420   55.3330   36.4475 O   0  0  0  0  0  0  0  0  0  0  0  0
   49.7842   56.2710   34.1730 C   0  0  2  0  0  0  0  0  0  0  0  0
   47.3578   58.5305   27.0694 O   0  0  0  0  0  0  0  0  0  0  0  0
   45.7699   59.0613   32.2544 N   0  0  0  0  0  0  0  0  0  0  0  0
   45.7425   57.8160   32.7418 C   0  0  0  0  0  0  0  0  0  0  0  0
   46.8357   57.2378   33.2137 N   0  0  0  0  0  0  0  0  0  0  0  0
   48.0236   57.8644   33.1929 C   0  0  0  0  0  0  0  0  0  0  0  0
   48.1063   59.1815   32.6724 C   0  0  0  0  0  0  0  0  0  0  0  0
   46.9084   59.7714   32.1955 C   0  0  0  0  0  0  0  0  0  0  0  0
   46.9108   61.0477   31.6792 N   0  0  0  0  0  0  0  0  0  0  0  0
   49.3933   59.5717   32.7639 N   0  0  0  0  0  0  0  0  0  0  0  0
   50.0947   58.6071   33.2834 C   0  0  0  0  0  0  0  0  0  0  0  0
   49.3012   57.5320   33.5724 N   0  0  0  0  0  0  0  0  0  0  0  0
  2  1  1  6  0  0  0
  2  3  1  0  0  0  0
  2  5  1  0  0  0  0
  3  4  1  0  0  0  0
  3 17  1  0  0  0  0
  5  6  1  0  0  0  0
  7  6  1  6  0  0  0
  7  8  1  0  0  0  0
  7  9  1  0  0  0  0
 10  9  1  6  0  0  0
 10 11  1  0  0  0  0
 10 12  1  0  0  0  0
 11 16  1  0  0  0  0
 12 13  1  1  0  0  0
 12 14  1  0  0  0  0
 14 15  1  1  0  0  0
 14 16  1  0  0  0  0
 16 27  1  6  0  0  0
 18 19  2  0  0  0  0
 18 23  1  0  0  0  0
 19 20  1  0  0  0  0
 20 21  2  0  0  0  0
 21 22  1  0  0  0  0
 21 27  1  0  0  0  0
 22 23  2  0  0  0  0
 22 25  1  0  0  0  0
 23 24  1  0  0  0  0
 25 26  2  0  0  0  0
 26 27  1  0  0  0  0
M  END
>  <CHROM.1>
159.62295287,-70.87918654,174.63840141,-78.01228187,-87.26584730,36.66558778
69.28210626,48.12511924,56.65958100,31.97748311,3.04020051,-1.38189929,0.54249544

>  <Name>
ligand

>  <RI>
0

>  <Rbt.Current_Directory>
/home/itssahil/PROJECTS/Mol_Feturizer/New_Systems/rnas/2GIS

>  <Rbt.Executable>
rbdock ($Id: //depot/dev/client3/rdock/2013.1/src/exe/rbdock.cxx#4 $)

>  <Rbt.Library>
libRbt.so (2013.1, Build901 2013/11/27)

>  <Rbt.Parameter_File>
/export/apps/rDock/src/rDock_2013.1_src/data/scripts/dock_solv.prm

>  <Rbt.Receptor>
prm/pocket_docking_3.prm

>  <SCORE>
-20.3288

>  <SCORE.INTER>
-14.7843

>  <SCORE.INTER.CONST>
1

>  <SCORE.INTER.POLAR>
0

>  <SCORE.INTER.ROT>
7

>  <SCORE.INTER.SOLV>
15.127

>  <SCORE.INTER.VDW>
-23.1652

>  <SCORE.INTER.norm>
-0.547568

>  <SCORE.INTRA>
-5.54444

>  <SCORE.INTRA.DIHEDRAL>
-2.54013

>  <SCORE.INTRA.DIHEDRAL.0>
9.40024

>  <SCORE.INTRA.POLAR>
0

>  <SCORE.INTRA.POLAR.0>
0

>  <SCORE.INTRA.REPUL>
0

>  <SCORE.INTRA.REPUL.0>
0

>  <SCORE.INTRA.SOLV>
-1.31375

>  <SCORE.INTRA.SOLV.lig_0>
-47.1049

>  <SCORE.INTRA.VDW>
-3.6175

>  <SCORE.INTRA.VDW.0>
-1.50278

>  <SCORE.INTRA.norm>
-0.20535

>  <SCORE.RESTR>
0

>  <SCORE.RESTR.CAVITY>
0

>  <SCORE.RESTR.norm>
0

>  <SCORE.SYSTEM>
0

>  <SCORE.SYSTEM.CONST>
0

>  <SCORE.SYSTEM.DIHEDRAL>
0

>  <SCORE.SYSTEM.SOLV>
0

>  <SCORE.SYSTEM.norm>
0

>  <SCORE.heavy>
27

>  <SCORE.norm>
-0.752918

>  <RMSD>
1.554

$$$$
ligand
 OpenBabel11021811433D
libRbt.so/2013.1/901 2013/11/27
 27 29  0  0  0  0  0  0  0  0999 V2000
   48.5731   56.2947   26.7331 N   0  0  0  0  0  0  0  0  0  0  0  0
   47.2814   56.6969   27.2985 C   0  0  2  0  0  0  0  0  0  0  0  0
   47.4662   57.9411   28.1489 C   0  0  0  0  0  0  0  0  0  0  0  0
   48.4838   58.6180   28.0324 O   0  0  0  0  0  0  0  0  0  0  0  0
   46.6812   55.5631   28.1535 C   0  0  0  0  0  0  0  0  0  0  0  0
   47.7839   54.9427   29.0102 C   0  0  0  0  0  0  0  0  0  0  0  0
   48.1764   55.8512   30.5610 S   0  0  2  0  0  0  0  0  0  0  0  0
   49.6214   56.8680   30.1250 C   0  0  0  0  0  0  0  0  0  0  0  0
   48.9624   54.4601   31.4011 C   0  0  0  0  0  0  0  0  0  0  0  0
   49.3794   54.7655   32.8502 C   0  0  1  0  0  0  0  0  0  0  0  0
   49.9802   56.0933   32.9034 O   0  0  0  0  0  0  0  0  0  0  0  0
   48.0548   54.8804   33.5597 C   0  0  1  0  0  0  0  0  0  0  0  0
   47.7324   53.6392   34.1877 O   0  0  0  0  0  0  0  0  0  0  0  0
   48.2900   55.9607   34.6081 C   0  0  1  0  0  0  0  0  0  0  0  0
   48.6064   55.4118   35.8821 O   0  0  0  0  0  0  0  0  0  0  0  0
   49.4782   56.8408   34.0735 C   0  0  2  0  0  0  0  0  0  0  0  0
   46.6290   58.2400   29.0008 O   0  0  0  0  0  0  0  0  0  0  0  0
   45.8344   59.7458   31.6516 N   0  0  0  0  0  0  0  0  0  0  0  0
   45.7748   58.4447   31.9561 C   0  0  0  0  0  0  0  0  0  0  0  0
   46.7673   57.8404   32.5901 N   0  0  0  0  0  0  0  0  0  0  0  0
   47.8886   58.5000   32.9249 C   0  0  0  0  0  0  0  0  0  0  0  0
   48.0048   59.8784   32.6105 C   0  0  0  0  0  0  0  0  0  0  0  0
   46.9110   60.4917   31.9490 C   0  0  0  0  0  0  0  0  0  0  0  0
   46.9509   61.8268   31.6148 N   0  0  0  0  0  0  0  0  0  0  0  0
   49.2117   60.2914   33.0463 N   0  0  0  0  0  0  0  0  0  0  0  0
   49.8364   59.2861   33.5861 C   0  0  0  0  0  0  0  0  0  0  0  0
   49.0660   58.1575   33.5438 N   0  0  0  0  0  0  0  0  0  0  0  0
  2  1  1  1  0  0  0
  2  3  1  0  0  0  0
  2  5  1  0  0  0  0
  3  4  1  0  0  0  0
  3 17  1  0  0  0  0
  5  6  1  0  0  0  0
  7  6  1  6  0  0  0
  7  8  1  0  0  0  0
  7  9  1  0  0  0  0
 10  9  1  6  0  0  0
 10 11  1  0  0  0  0
 10 12  1  0  0  0  0
 11 16  1  0  0  0  0
 12 13  1  1  0  0  0
 12 14  1  0  0  0  0
 14 15  1  1  0  0  0
 14 16  1  0  0  0  0
 16 27  1  6  0  0  0
 18 19  2  0  0  0  0
 18 23  1  0  0  0  0
 19 20  1  0  0  0  0
 20 21  2  0  0  0  0
 21 22  1  0  0  0  0
 21 27  1  0  0  0  0
 22 23  2  0  0  0  0
 22 25  1  0  0  0  0
 23 24  1  0  0  0  0
 25 26  2  0  0  0  0
 26 27  1  0  0  0  0
M  END
>  <CHROM.1>
16.72495554,42.82114746,82.00930087,-97.07595114,-175.84861792,-42.54902081
82.19607142,48.07541723,57.18768248,31.49585649,-2.45017500,-1.32656573,0.88910614

>  <Name>
ligand

>  <RI>
0

>  <Rbt.Current_Directory>
/home/itssahil/PROJECTS/Mol_Feturizer/New_Systems/rnas/2GIS

>  <Rbt.Executable>
rbdock ($Id: //depot/dev/client3/rdock/2013.1/src/exe/rbdock.cxx#4 $)

>  <Rbt.Library>
libRbt.so (2013.1, Build901 2013/11/27)

>  <Rbt.Parameter_File>
/export/apps/rDock/src/rDock_2013.1_src/data/scripts/dock_solv.prm

>  <Rbt.Receptor>
prm/pocket_docking_3.prm

>  <SCORE>
-13.1274

>  <SCORE.INTER>
-10.6128

>  <SCORE.INTER.CONST>
1

>  <SCORE.INTER.POLAR>
0

>  <SCORE.INTER.ROT>
7

>  <SCORE.INTER.SOLV>
17.9599

>  <SCORE.INTER.VDW>
-21.3285

>  <SCORE.INTER.norm>
-0.393068

>  <SCORE.INTRA>
-2.51455

>  <SCORE.INTRA.DIHEDRAL>
0.051876

>  <SCORE.INTRA.DIHEDRAL.0>
9.40024

>  <SCORE.INTRA.POLAR>
0

>  <SCORE.INTRA.POLAR.0>
0

>  <SCORE.INTRA.REPUL>
0

>  <SCORE.INTRA.REPUL.0>
0

>  <SCORE.INTRA.SOLV>
-0.448178

>  <SCORE.INTRA.SOLV.lig_0>
-47.1049

>  <SCORE.INTRA.VDW>
-2.3164

>  <SCORE.INTRA.VDW.0>
-1.50278

>  <SCORE.INTRA.norm>
-0.0931316

>  <SCORE.RESTR>
0

>  <SCORE.RESTR.CAVITY>
0

>  <SCORE.RESTR.norm>
0

>  <SCORE.SYSTEM>
0

>  <SCORE.SYSTEM.CONST>
0

>  <SCORE.SYSTEM.DIHEDRAL>
0

>  <SCORE.SYSTEM.SOLV>
0

>  <SCORE.SYSTEM.norm>
0

>  <SCORE.heavy>
27

>  <SCORE.norm>
-0.4862

>  <RMSD>
1.567

$$$$
ligand
 OpenBabel11021811433D
libRbt.so/2013.1/901 2013/11/27
 27 29  0  0  0  0  0  0  0  0999 V2000
   47.1096   56.8169   28.9381 N   0  0  0  0  0  0  0  0  0  0  0  0
   48.3939   56.5697   29.6010 C   0  0  2  0  0  0  0  0  0  0  0  0
   49.0673   57.8949   29.9104 C   0  0  0  0  0  0  0  0  0  0  0  0
   48.7676   58.8993   29.2709 O   0  0  0  0  0  0  0  0  0  0  0  0
   49.3135   55.7110   28.7100 C   0  0  0  0  0  0  0  0  0  0  0  0
   50.5118   55.2395   29.5324 C   0  0  0  0  0  0  0  0  0  0  0  0
   50.2484   53.6858   30.4817 S   0  0  2  0  0  0  0  0  0  0  0  0
   49.2748   52.6385   29.3560 C   0  0  0  0  0  0  0  0  0  0  0  0
   48.9582   54.3405   31.5613 C   0  0  0  0  0  0  0  0  0  0  0  0
   49.4604   54.7316   32.9620 C   0  0  1  0  0  0  0  0  0  0  0  0
   50.0879   56.0463   32.8934 O   0  0  0  0  0  0  0  0  0  0  0  0
   48.1794   54.9228   33.7326 C   0  0  1  0  0  0  0  0  0  0  0  0
   47.8691   53.7334   34.4591 O   0  0  0  0  0  0  0  0  0  0  0  0
   48.4924   56.0646   34.6918 C   0  0  1  0  0  0  0  0  0  0  0  0
   48.8684   55.5941   35.9809 O   0  0  0  0  0  0  0  0  0  0  0  0
   49.6655   56.8806   34.0359 C   0  0  2  0  0  0  0  0  0  0  0  0
   49.9591   57.9546   30.7571 O   0  0  0  0  0  0  0  0  0  0  0  0
   45.8753   59.7728   31.8333 N   0  0  0  0  0  0  0  0  0  0  0  0
   45.7955   58.5087   32.2632 C   0  0  0  0  0  0  0  0  0  0  0  0
   46.8332   57.9046   32.8202 N   0  0  0  0  0  0  0  0  0  0  0  0
   48.0183   58.5241   32.9475 C   0  0  0  0  0  0  0  0  0  0  0  0
   48.1566   59.8609   32.4935 C   0  0  0  0  0  0  0  0  0  0  0  0
   47.0153   60.4774   31.9212 C   0  0  0  0  0  0  0  0  0  0  0  0
   47.0734   61.7739   31.4614 N   0  0  0  0  0  0  0  0  0  0  0  0
   49.4282   60.2389   32.7327 N   0  0  0  0  0  0  0  0  0  0  0  0
   50.0706   59.2494   33.2809 C   0  0  0  0  0  0  0  0  0  0  0  0
   49.2494   58.1683   33.4419 N   0  0  0  0  0  0  0  0  0  0  0  0
  2  1  1  6  0  0  0
  2  3  1  0  0  0  0
  2  5  1  0  0  0  0
  3  4  1  0  0  0  0
  3 17  1  0  0  0  0
  5  6  1  0  0  0  0
  7  6  1  6  0  0  0
  7  8  1  0  0  0  0
  7  9  1  0  0  0  0
 10  9  1  6  0  0  0
 10 11  1  0  0  0  0
 10 12  1  0  0  0  0
 11 16  1  0  0  0  0
 12 13  1  1  0  0  0
 12 14  1  0  0  0  0
 14 15  1  1  0  0  0
 14 16  1  0  0  0  0
 16 27  1  6  0  0  0
 18 19  2  0  0  0  0
 18 23  1  0  0  0  0
 19 20  1  0  0  0  0
 20 21  2  0  0  0  0
 21 22  1  0  0  0  0
 21 27  1  0  0  0  0
 22 23  2  0  0  0  0
 22 25  1  0  0  0  0
 23 24  1  0  0  0  0
 25 26  2  0  0  0  0
 26 27  1  0  0  0  0
M  END
>  <CHROM.1>
-22.64064784,-168.63093313,86.43051030,39.34212670,-100.52216857,80.64784520
87.05139778,48.68955404,56.88649789,31.85354942,-0.09869697,1.26241636,-1.30544550

>  <Name>
ligand

>  <RI>
0

>  <Rbt.Current_Directory>
/home/itssahil/PROJECTS/Mol_Feturizer/New_Systems/rnas/2GIS

>  <Rbt.Executable>
rbdock ($Id: //depot/dev/client3/rdock/2013.1/src/exe/rbdock.cxx#4 $)

>  <Rbt.Library>
libRbt.so (2013.1, Build901 2013/11/27)

>  <Rbt.Parameter_File>
/export/apps/rDock/src/rDock_2013.1_src/data/scripts/dock_solv.prm

>  <Rbt.Receptor>
prm/pocket_docking_3.prm

>  <SCORE>
-19.1947

>  <SCORE.INTER>
-15.0806

>  <SCORE.INTER.CONST>
1

>  <SCORE.INTER.POLAR>
0

>  <SCORE.INTER.ROT>
7

>  <SCORE.INTER.SOLV>
16.9829

>  <SCORE.INTER.VDW>
-23.9814

>  <SCORE.INTER.norm>
-0.558542

>  <SCORE.INTRA>
-4.11407

>  <SCORE.INTRA.DIHEDRAL>
0.826911

>  <SCORE.INTRA.DIHEDRAL.0>
9.40024

>  <SCORE.INTRA.POLAR>
0

>  <SCORE.INTRA.POLAR.0>
0

>  <SCORE.INTRA.REPUL>
0

>  <SCORE.INTRA.REPUL.0>
0

>  <SCORE.INTRA.SOLV>
-2.22037

>  <SCORE.INTRA.SOLV.lig_0>
-47.1049

>  <SCORE.INTRA.VDW>
-3.41734

>  <SCORE.INTRA.VDW.0>
-1.50278

>  <SCORE.INTRA.norm>
-0.152373

>  <SCORE.RESTR>
0

>  <SCORE.RESTR.CAVITY>
0

>  <SCORE.RESTR.norm>
0

>  <SCORE.SYSTEM>
0

>  <SCORE.SYSTEM.CONST>
0

>  <SCORE.SYSTEM.DIHEDRAL>
0

>  <SCORE.SYSTEM.SOLV>
0

>  <SCORE.SYSTEM.norm>
0

>  <SCORE.heavy>
27

>  <SCORE.norm>
-0.710915

>  <RMSD>
1.576

$$$$
ligand
 OpenBabel11021811433D
libRbt.so/2013.1/901 2013/11/27
 27 29  0  0  0  0  0  0  0  0999 V2000
   51.0145   55.5375   26.8763 N   0  0  0  0  0  0  0  0  0  0  0  0
   50.0083   55.4421   27.9386 C   0  0  2  0  0  0  0  0  0  0  0  0
   48.8075   56.2979   27.5771 C   0  0  0  0  0  0  0  0  0  0  0  0
   47.6985   56.0188   28.0240 O   0  0  0  0  0  0  0  0  0  0  0  0
   50.5923   55.9035   29.2888 C   0  0  0  0  0  0  0  0  0  0  0  0
   49.6810   55.4274   30.4191 C   0  0  0  0  0  0  0  0  0  0  0  0
   49.8760   53.6601   30.8914 S   0  0  2  0  0  0  0  0  0  0  0  0
   48.9095   52.7580   29.6407 C   0  0  0  0  0  0  0  0  0  0  0  0
   48.7145   53.7046   32.2726 C   0  0  0  0  0  0  0  0  0  0  0  0
   49.3317   54.2145   33.5865 C   0  0  1  0  0  0  0  0  0  0  0  0
   49.9746   55.5007   33.3432 O   0  0  0  0  0  0  0  0  0  0  0  0
   48.1185   54.5098   34.4305 C   0  0  1  0  0  0  0  0  0  0  0  0
   47.8456   53.4029   35.2902 O   0  0  0  0  0  0  0  0  0  0  0  0
   48.5256   55.7295   35.2480 C   0  0  1  0  0  0  0  0  0  0  0  0
   48.9933   55.3746   36.5441 O   0  0  0  0  0  0  0  0  0  0  0  0
   49.6576   56.4500   34.4286 C   0  0  2  0  0  0  0  0  0  0  0  0
   48.9284   57.2341   26.7866 O   0  0  0  0  0  0  0  0  0  0  0  0
   45.7856   59.1593   32.1375 N   0  0  0  0  0  0  0  0  0  0  0  0
   45.7229   57.9351   32.6727 C   0  0  0  0  0  0  0  0  0  0  0  0
   46.7812   57.3767   33.2387 N   0  0  0  0  0  0  0  0  0  0  0  0
   47.9696   58.0019   33.2704 C   0  0  0  0  0  0  0  0  0  0  0  0
   48.0898   59.2965   32.7030 C   0  0  0  0  0  0  0  0  0  0  0  0
   46.9275   59.8663   32.1246 C   0  0  0  0  0  0  0  0  0  0  0  0
   46.9673   61.1204   31.5576 N   0  0  0  0  0  0  0  0  0  0  0  0
   49.3691   59.6901   32.8628 N   0  0  0  0  0  0  0  0  0  0  0  0
   50.0323   58.7477   33.4664 C   0  0  0  0  0  0  0  0  0  0  0  0
   49.2186   57.6854   33.7464 N   0  0  0  0  0  0  0  0  0  0  0  0
  2  1  1  6  0  0  0
  2  3  1  0  0  0  0
  2  5  1  0  0  0  0
  3  4  1  0  0  0  0
  3 17  1  0  0  0  0
  5  6  1  0  0  0  0
  7  6  1  6  0  0  0
  7  8  1  0  0  0  0
  7  9  1  0  0  0  0
 10  9  1  6  0  0  0
 10 11  1  0  0  0  0
 10 12  1  0  0  0  0
 11 16  1  0  0  0  0
 12 13  1  1  0  0  0
 12 14  1  0  0  0  0
 14 15  1  1  0  0  0
 14 16  1  0  0  0  0
 16 27  1  6  0  0  0
 18 19  2  0  0  0  0
 18 23  1  0  0  0  0
 19 20  1  0  0  0  0
 20 21  2  0  0  0  0
 21 22  1  0  0  0  0
 21 27  1  0  0  0  0
 22 23  2  0  0  0  0
 22 25  1  0  0  0  0
 23 24  1  0  0  0  0
 25 26  2  0  0  0  0
 26 27  1  0  0  0  0
M  END
>  <CHROM.1>
153.62611496,-164.01340687,79.03434066,-80.75981471,-83.76724829,52.92433849
84.34298950,48.72438325,56.31137805,31.79858625,-0.95748582,-1.21412134,1.93729195

>  <Name>
ligand

>  <RI>
0

>  <Rbt.Current_Directory>
/home/itssahil/PROJECTS/Mol_Feturizer/New_Systems/rnas/2GIS

>  <Rbt.Executable>
rbdock ($Id: //depot/dev/client3/rdock/2013.1/src/exe/rbdock.cxx#4 $)

>  <Rbt.Library>
libRbt.so (2013.1, Build901 2013/11/27)

>  <Rbt.Parameter_File>
/export/apps/rDock/src/rDock_2013.1_src/data/scripts/dock_solv.prm

>  <Rbt.Receptor>
prm/pocket_docking_4.prm

>  <SCORE>
-19.4868

>  <SCORE.INTER>
-14.8778

>  <SCORE.INTER.CONST>
1

>  <SCORE.INTER.POLAR>
0

>  <SCORE.INTER.ROT>
7

>  <SCORE.INTER.SOLV>
16.9919

>  <SCORE.INTER.VDW>
-23.8492

>  <SCORE.INTER.norm>
-0.551028

>  <SCORE.INTRA>
-4.60907

>  <SCORE.INTRA.DIHEDRAL>
-2.48945

>  <SCORE.INTRA.DIHEDRAL.0>
9.40024

>  <SCORE.INTRA.POLAR>
0

>  <SCORE.INTRA.POLAR.0>
0

>  <SCORE.INTRA.REPUL>
0

>  <SCORE.INTRA.REPUL.0>
0

>  <SCORE.INTRA.SOLV>
-2.60371

>  <SCORE.INTRA.SOLV.lig_0>
-47.1049

>  <SCORE.INTRA.VDW>
-2.06249

>  <SCORE.INTRA.VDW.0>
-1.50278

>  <SCORE.INTRA.norm>
-0.170706

>  <SCORE.RESTR>
0

>  <SCORE.RESTR.CAVITY>
0

>  <SCORE.RESTR.norm>
0

>  <SCORE.SYSTEM>
0

>  <SCORE.SYSTEM.CONST>
0

>  <SCORE.SYSTEM.DIHEDRAL>
0

>  <SCORE.SYSTEM.SOLV>
0

>  <SCORE.SYSTEM.norm>
0

>  <SCORE.heavy>
27

>  <SCORE.norm>
-0.721734

>  <RMSD>
1.607

$$$$
ligand
 OpenBabel11021811433D
libRbt.so/2013.1/901 2013/11/27
 27 29  0  0  0  0  0  0  0  0999 V2000
   49.0258   56.0244   26.4532 N   0  0  0  0  0  0  0  0  0  0  0  0
   48.4621   56.8614   27.5169 C   0  0  2  0  0  0  0  0  0  0  0  0
   49.5319   57.1498   28.5550 C   0  0  0  0  0  0  0  0  0  0  0  0
   49.3569   58.0364   29.3861 O   0  0  0  0  0  0  0  0  0  0  0  0
   47.2604   56.1630   28.1841 C   0  0  0  0  0  0  0  0  0  0  0  0
   47.5942   54.6879   28.4017 C   0  0  0  0  0  0  0  0  0  0  0  0
   48.9728   54.3610   29.5751 S   0  0  2  0  0  0  0  0  0  0  0  0
   49.1497   52.5498   29.5571 C   0  0  0  0  0  0  0  0  0  0  0  0
   48.0040   54.6077   31.0782 C   0  0  0  0  0  0  0  0  0  0  0  0
   48.8588   54.8251   32.3388 C   0  0  1  0  0  0  0  0  0  0  0  0
   49.5445   56.1079   32.2342 O   0  0  0  0  0  0  0  0  0  0  0  0
   47.8210   54.9958   33.4182 C   0  0  1  0  0  0  0  0  0  0  0  0
   47.6112   53.7532   34.0894 O   0  0  0  0  0  0  0  0  0  0  0  0
   48.4399   56.0143   34.3676 C   0  0  1  0  0  0  0  0  0  0  0  0
   49.0830   55.3937   35.4748 O   0  0  0  0  0  0  0  0  0  0  0  0
   49.4743   56.8371   33.5161 C   0  0  2  0  0  0  0  0  0  0  0  0
   50.6020   56.5414   28.5284 O   0  0  0  0  0  0  0  0  0  0  0  0
   46.0167   59.8874   31.0016 N   0  0  0  0  0  0  0  0  0  0  0  0
   46.0462   58.5511   31.0501 C   0  0  0  0  0  0  0  0  0  0  0  0
   46.9722   57.9081   31.7438 N   0  0  0  0  0  0  0  0  0  0  0  0
   47.9395   58.5691   32.4007 C   0  0  0  0  0  0  0  0  0  0  0  0
   47.9590   59.9872   32.3675 C   0  0  0  0  0  0  0  0  0  0  0  0
   46.9376   60.6370   31.6294 C   0  0  0  0  0  0  0  0  0  0  0  0
   46.8904   62.0110   31.5546 N   0  0  0  0  0  0  0  0  0  0  0  0
   49.0192   60.3935   33.0941 N   0  0  0  0  0  0  0  0  0  0  0  0
   49.6451   59.3500   33.5542 C   0  0  0  0  0  0  0  0  0  0  0  0
   49.0208   58.1986   33.1625 N   0  0  0  0  0  0  0  0  0  0  0  0
  2  1  1  6  0  0  0
  2  3  1  0  0  0  0
  2  5  1  0  0  0  0
  3  4  1  0  0  0  0
  3 17  1  0  0  0  0
  5  6  1  0  0  0  0
  7  6  1  6  0  0  0
  7  8  1  0  0  0  0
  7  9  1  0  0  0  0
 10  9  1  6  0  0  0
 10 11  1  0  0  0  0
 10 12  1  0  0  0  0
 11 16  1  0  0  0  0
 12 13  1  1  0  0  0
 12 14  1  0  0  0  0
 14 15  1  1  0  0  0
 14 16  1  0  0  0  0
 16 27  1  6  0  0  0
 18 19  2  0  0  0  0
 18 23  1  0  0  0  0
 19 20  1  0  0  0  0
 20 21  2  0  0  0  0
 21 22  1  0  0  0  0
 21 27  1  0  0  0  0
 22 23  2  0  0  0  0
 22 25  1  0  0  0  0
 23 24  1  0  0  0  0
 25 26  2  0  0  0  0
 26 27  1  0  0  0  0
M  END
>  <CHROM.1>
165.72807074,42.73984112,64.51471366,-177.93205865,-163.30563550,68.02024221
51.12183671,48.40307364,56.84114441,31.17985375,0.63473870,1.38256775,-1.51871924

>  <Name>
ligand

>  <RI>
0

>  <Rbt.Current_Directory>
/home/itssahil/PROJECTS/Mol_Feturizer/New_Systems/rnas/2GIS

>  <Rbt.Executable>
rbdock ($Id: //depot/dev/client3/rdock/2013.1/src/exe/rbdock.cxx#4 $)

>  <Rbt.Library>
libRbt.so (2013.1, Build901 2013/11/27)

>  <Rbt.Parameter_File>
/export/apps/rDock/src/rDock_2013.1_src/data/scripts/dock_solv.prm

>  <Rbt.Receptor>
prm/pocket_docking_2.prm

>  <SCORE>
-12.3765

>  <SCORE.INTER>
-8.30994

>  <SCORE.INTER.CONST>
1

>  <SCORE.INTER.POLAR>
0

>  <SCORE.INTER.ROT>
7

>  <SCORE.INTER.SOLV>
17.8236

>  <SCORE.INTER.VDW>
-19.7478

>  <SCORE.INTER.norm>
-0.307776

>  <SCORE.INTRA>
-4.72506

>  <SCORE.INTRA.DIHEDRAL>
-2.84588

>  <SCORE.INTRA.DIHEDRAL.0>
9.40024

>  <SCORE.INTRA.POLAR>
0

>  <SCORE.INTRA.POLAR.0>
0

>  <SCORE.INTRA.REPUL>
0

>  <SCORE.INTRA.REPUL.0>
0

>  <SCORE.INTRA.SOLV>
-1.21258

>  <SCORE.INTRA.SOLV.lig_0>
-47.1049

>  <SCORE.INTRA.VDW>
-2.69583

>  <SCORE.INTRA.VDW.0>
-1.50278

>  <SCORE.INTRA.norm>
-0.175002

>  <SCORE.RESTR>
0.658485

>  <SCORE.RESTR.CAVITY>
0.658485

>  <SCORE.RESTR.norm>
0.0243883

>  <SCORE.SYSTEM>
0

>  <SCORE.SYSTEM.CONST>
0

>  <SCORE.SYSTEM.DIHEDRAL>
0

>  <SCORE.SYSTEM.SOLV>
0

>  <SCORE.SYSTEM.norm>
0

>  <SCORE.heavy>
27

>  <SCORE.norm>
-0.458389

>  <RMSD>
1.632

$$$$
ligand
 OpenBabel11021811433D
libRbt.so/2013.1/901 2013/11/27
 27 29  0  0  0  0  0  0  0  0999 V2000
   47.9293   56.6348   27.1882 N   0  0  0  0  0  0  0  0  0  0  0  0
   47.9268   57.1068   28.5764 C   0  0  2  0  0  0  0  0  0  0  0  0
   49.3346   57.0307   29.1397 C   0  0  0  0  0  0  0  0  0  0  0  0
   50.2140   56.4435   28.5157 O   0  0  0  0  0  0  0  0  0  0  0  0
   46.9710   56.2603   29.4406 C   0  0  0  0  0  0  0  0  0  0  0  0
   47.3111   54.7812   29.2639 C   0  0  0  0  0  0  0  0  0  0  0  0
   48.8497   54.2248   30.1050 S   0  0  2  0  0  0  0  0  0  0  0  0
   48.9788   52.4620   29.6715 C   0  0  0  0  0  0  0  0  0  0  0  0
   48.1365   54.1313   31.7608 C   0  0  0  0  0  0  0  0  0  0  0  0
   49.1373   54.4457   32.8863 C   0  0  1  0  0  0  0  0  0  0  0  0
   49.8440   55.6801   32.5643 O   0  0  0  0  0  0  0  0  0  0  0  0
   48.2366   54.7742   34.0491 C   0  0  1  0  0  0  0  0  0  0  0  0
   48.0690   53.6202   34.8730 O   0  0  0  0  0  0  0  0  0  0  0  0
   48.9910   55.8612   34.8048 C   0  0  1  0  0  0  0  0  0  0  0  0
   49.7390   55.3357   35.8952 O   0  0  0  0  0  0  0  0  0  0  0  0
   49.9441   56.5442   33.7573 C   0  0  2  0  0  0  0  0  0  0  0  0
   49.5847   57.5004   30.2500 O   0  0  0  0  0  0  0  0  0  0  0  0
   46.0672   59.5674   31.9103 N   0  0  0  0  0  0  0  0  0  0  0  0
   46.0196   58.2633   32.2035 C   0  0  0  0  0  0  0  0  0  0  0  0
   47.0766   57.6271   32.6835 N   0  0  0  0  0  0  0  0  0  0  0  0
   48.2493   58.2563   32.8654 C   0  0  0  0  0  0  0  0  0  0  0  0
   48.3534   59.6367   32.5555 C   0  0  0  0  0  0  0  0  0  0  0  0
   47.1925   60.2845   32.0626 C   0  0  0  0  0  0  0  0  0  0  0  0
   47.2172   61.6236   31.7433 N   0  0  0  0  0  0  0  0  0  0  0  0
   49.6191   60.0160   32.8223 N   0  0  0  0  0  0  0  0  0  0  0  0
   50.2890   58.9886   33.2558 C   0  0  0  0  0  0  0  0  0  0  0  0
   49.4933   57.8780   33.3079 N   0  0  0  0  0  0  0  0  0  0  0  0
  2  1  1  6  0  0  0
  2  3  1  0  0  0  0
  2  5  1  0  0  0  0
  3  4  1  0  0  0  0
  3 17  1  0  0  0  0
  5  6  1  0  0  0  0
  7  6  1  6  0  0  0
  7  8  1  0  0  0  0
  7  9  1  0  0  0  0
 10  9  1  6  0  0  0
 10 11  1  0  0  0  0
 10 12  1  0  0  0  0
 11 16  1  0  0  0  0
 12 13  1  1  0  0  0
 12 14  1  0  0  0  0
 14 15  1  1  0  0  0
 14 16  1  0  0  0  0
 16 27  1  6  0  0  0
 18 19  2  0  0  0  0
 18 23  1  0  0  0  0
 19 20  1  0  0  0  0
 20 21  2  0  0  0  0
 21 22  1  0  0  0  0
 21 27  1  0  0  0  0
 22 23  2  0  0  0  0
 22 25  1  0  0  0  0
 23 24  1  0  0  0  0
 25 26  2  0  0  0  0
 26 27  1  0  0  0  0
M  END
>  <CHROM.1>
-10.51045570,52.44405000,73.95487040,-178.79761436,-148.32499199,48.80460643
64.62709957,48.52011491,56.64472804,31.69610712,1.06712647,1.36315561,-2.16869738

>  <Name>
ligand

>  <RI>
0

>  <Rbt.Current_Directory>
/home/itssahil/PROJECTS/Mol_Feturizer/New_Systems/rnas/2GIS

>  <Rbt.Executable>
rbdock ($Id: //depot/dev/client3/rdock/2013.1/src/exe/rbdock.cxx#4 $)

>  <Rbt.Library>
libRbt.so (2013.1, Build901 2013/11/27)

>  <Rbt.Parameter_File>
/export/apps/rDock/src/rDock_2013.1_src/data/scripts/dock_solv.prm

>  <Rbt.Receptor>
prm/pocket_docking_3.prm

>  <SCORE>
-16.1145

>  <SCORE.INTER>
-10.8732

>  <SCORE.INTER.CONST>
1

>  <SCORE.INTER.POLAR>
0

>  <SCORE.INTER.ROT>
7

>  <SCORE.INTER.SOLV>
17.1402

>  <SCORE.INTER.VDW>
-21.2289

>  <SCORE.INTER.norm>
-0.402712

>  <SCORE.INTRA>
-5.24131

>  <SCORE.INTRA.DIHEDRAL>
-1.45652

>  <SCORE.INTRA.DIHEDRAL.0>
9.40024

>  <SCORE.INTRA.POLAR>
0

>  <SCORE.INTRA.POLAR.0>
0

>  <SCORE.INTRA.REPUL>
0

>  <SCORE.INTRA.REPUL.0>
0

>  <SCORE.INTRA.SOLV>
-1.54489

>  <SCORE.INTRA.SOLV.lig_0>
-47.1049

>  <SCORE.INTRA.VDW>
-3.7406

>  <SCORE.INTRA.VDW.0>
-1.50278

>  <SCORE.INTRA.norm>
-0.194122

>  <SCORE.RESTR>
0

>  <SCORE.RESTR.CAVITY>
0

>  <SCORE.RESTR.norm>
0

>  <SCORE.SYSTEM>
0

>  <SCORE.SYSTEM.CONST>
0

>  <SCORE.SYSTEM.DIHEDRAL>
0

>  <SCORE.SYSTEM.SOLV>
0

>  <SCORE.SYSTEM.norm>
0

>  <SCORE.heavy>
27

>  <SCORE.norm>
-0.596835

>  <RMSD>
1.726

$$$$
ligand
 OpenBabel11021811433D
libRbt.so/2013.1/901 2013/11/27
 27 29  0  0  0  0  0  0  0  0999 V2000
   51.3470   55.0666   26.6037 N   0  0  0  0  0  0  0  0  0  0  0  0
   50.4001   55.0216   27.7223 C   0  0  2  0  0  0  0  0  0  0  0  0
   49.1661   55.8348   27.3743 C   0  0  0  0  0  0  0  0  0  0  0  0
   48.0514   55.3285   27.4679 O   0  0  0  0  0  0  0  0  0  0  0  0
   51.0456   55.5748   29.0085 C   0  0  0  0  0  0  0  0  0  0  0  0
   50.1192   55.3022   30.1926 C   0  0  0  0  0  0  0  0  0  0  0  0
   50.0832   53.5574   30.7743 S   0  0  2  0  0  0  0  0  0  0  0  0
   49.1468   52.6795   29.4841 C   0  0  0  0  0  0  0  0  0  0  0  0
   48.8104   53.8033   32.0306 C   0  0  0  0  0  0  0  0  0  0  0  0
   49.3598   54.2836   33.3850 C   0  0  1  0  0  0  0  0  0  0  0  0
   49.9857   55.5891   33.2094 O   0  0  0  0  0  0  0  0  0  0  0  0
   48.1056   54.5286   34.1840 C   0  0  1  0  0  0  0  0  0  0  0  0
   47.8190   53.3902   34.9967 O   0  0  0  0  0  0  0  0  0  0  0  0
   48.4517   55.7297   35.0553 C   0  0  1  0  0  0  0  0  0  0  0  0
   48.8705   55.3435   36.3591 O   0  0  0  0  0  0  0  0  0  0  0  0
   49.6026   56.4976   34.3084 C   0  0  2  0  0  0  0  0  0  0  0  0
   49.2809   56.9802   26.9375 O   0  0  0  0  0  0  0  0  0  0  0  0
   45.7242   59.2825   32.1214 N   0  0  0  0  0  0  0  0  0  0  0  0
   45.6545   58.0548   32.6477 C   0  0  0  0  0  0  0  0  0  0  0  0
   46.7160   57.4762   33.1868 N   0  0  0  0  0  0  0  0  0  0  0  0
   47.9140   58.0837   33.1987 C   0  0  0  0  0  0  0  0  0  0  0  0
   48.0414   59.3812   32.6395 C   0  0  0  0  0  0  0  0  0  0  0  0
   46.8758   59.9728   32.0903 C   0  0  0  0  0  0  0  0  0  0  0  0
   46.9223   61.2310   31.5330 N   0  0  0  0  0  0  0  0  0  0  0  0
   49.3294   59.7547   32.7757 N   0  0  0  0  0  0  0  0  0  0  0  0
   49.9910   58.7976   33.3575 C   0  0  0  0  0  0  0  0  0  0  0  0
   49.1677   57.7449   33.6458 N   0  0  0  0  0  0  0  0  0  0  0  0
  2  1  1  6  0  0  0
  2  3  1  0  0  0  0
  2  5  1  0  0  0  0
  3  4  1  0  0  0  0
  3 17  1  0  0  0  0
  5  6  1  0  0  0  0
  7  6  1  6  0  0  0
  7  8  1  0  0  0  0
  7  9  1  0  0  0  0
 10  9  1  6  0  0  0
 10 11  1  0  0  0  0
 10 12  1  0  0  0  0
 11 16  1  0  0  0  0
 12 13  1  1  0  0  0
 12 14  1  0  0  0  0
 14 15  1  1  0  0  0
 14 16  1  0  0  0  0
 16 27  1  6  0  0  0
 18 19  2  0  0  0  0
 18 23  1  0  0  0  0
 19 20  1  0  0  0  0
 20 21  2  0  0  0  0
 21 22  1  0  0  0  0
 21 27  1  0  0  0  0
 22 23  2  0  0  0  0
 22 25  1  0  0  0  0
 23 24  1  0  0  0  0
 25 26  2  0  0  0  0
 26 27  1  0  0  0  0
M  END
>  <CHROM.1>
126.90937571,-170.79971067,74.75116328,-73.09713410,-85.78191471,62.73065992
88.72462562,48.82393240,56.23967561,31.64631408,0.63382043,1.18386561,-1.12370949

>  <Name>
ligand

>  <RI>
0

>  <Rbt.Current_Directory>
/home/itssahil/PROJECTS/Mol_Feturizer/New_Systems/rnas/2GIS

>  <Rbt.Executable>
rbdock ($Id: //depot/dev/client3/rdock/2013.1/src/exe/rbdock.cxx#4 $)

>  <Rbt.Library>
libRbt.so (2013.1, Build901 2013/11/27)

>  <Rbt.Parameter_File>
/export/apps/rDock/src/rDock_2013.1_src/data/scripts/dock_solv.prm

>  <Rbt.Receptor>
prm/pocket_docking_5.prm

>  <SCORE>
-20.2433

>  <SCORE.INTER>
-15.282

>  <SCORE.INTER.CONST>
1

>  <SCORE.INTER.POLAR>
0

>  <SCORE.INTER.ROT>
7

>  <SCORE.INTER.SOLV>
16.7175

>  <SCORE.INTER.VDW>
-24.0271

>  <SCORE.INTER.norm>
-0.565999

>  <SCORE.INTRA>
-4.96133

>  <SCORE.INTRA.DIHEDRAL>
-3.97884

>  <SCORE.INTRA.DIHEDRAL.0>
9.40024

>  <SCORE.INTRA.POLAR>
0

>  <SCORE.INTRA.POLAR.0>
0

>  <SCORE.INTRA.REPUL>
0

>  <SCORE.INTRA.REPUL.0>
0

>  <SCORE.INTRA.SOLV>
-2.6004

>  <SCORE.INTRA.SOLV.lig_0>
-47.1049

>  <SCORE.INTRA.VDW>
-1.6717

>  <SCORE.INTRA.VDW.0>
-1.50278

>  <SCORE.INTRA.norm>
-0.183753

>  <SCORE.RESTR>
0

>  <SCORE.RESTR.CAVITY>
0

>  <SCORE.RESTR.norm>
0

>  <SCORE.SYSTEM>
0

>  <SCORE.SYSTEM.CONST>
0

>  <SCORE.SYSTEM.DIHEDRAL>
0

>  <SCORE.SYSTEM.SOLV>
0

>  <SCORE.SYSTEM.norm>
0

>  <SCORE.heavy>
27

>  <SCORE.norm>
-0.749752

>  <RMSD>
1.748

$$$$
ligand
 OpenBabel11021811433D
libRbt.so/2013.1/901 2013/11/27
 27 29  0  0  0  0  0  0  0  0999 V2000
   51.1887   55.9129   28.7071 N   0  0  0  0  0  0  0  0  0  0  0  0
   49.8353   55.8540   28.1463 C   0  0  2  0  0  0  0  0  0  0  0  0
   49.0502   57.0761   28.5883 C   0  0  0  0  0  0  0  0  0  0  0  0
   48.2896   57.6338   27.8023 O   0  0  0  0  0  0  0  0  0  0  0  0
   49.1091   54.5727   28.6021 C   0  0  0  0  0  0  0  0  0  0  0  0
   49.0038   54.5704   30.1264 C   0  0  0  0  0  0  0  0  0  0  0  0
   48.0934   53.1435   30.8471 S   0  0  2  0  0  0  0  0  0  0  0  0
   46.5144   53.1229   29.9424 C   0  0  0  0  0  0  0  0  0  0  0  0
   47.6153   53.9769   32.3754 C   0  0  0  0  0  0  0  0  0  0  0  0
   48.7920   54.2475   33.3290 C   0  0  1  0  0  0  0  0  0  0  0  0
   49.5430   55.3998   32.8443 O   0  0  0  0  0  0  0  0  0  0  0  0
   48.1006   54.7025   34.5885 C   0  0  1  0  0  0  0  0  0  0  0  0
   47.9610   53.6030   35.4887 O   0  0  0  0  0  0  0  0  0  0  0  0
   49.0438   55.7485   35.1701 C   0  0  1  0  0  0  0  0  0  0  0  0
   49.8972   55.2041   36.1700 O   0  0  0  0  0  0  0  0  0  0  0  0
   49.8865   56.3002   33.9628 C   0  0  2  0  0  0  0  0  0  0  0  0
   49.2202   57.5494   29.7121 O   0  0  0  0  0  0  0  0  0  0  0  0
   46.2351   59.3892   31.7934 N   0  0  0  0  0  0  0  0  0  0  0  0
   46.1581   58.0759   32.0349 C   0  0  0  0  0  0  0  0  0  0  0  0
   47.1558   57.4224   32.6094 N   0  0  0  0  0  0  0  0  0  0  0  0
   48.2988   58.0437   32.9438 C   0  0  0  0  0  0  0  0  0  0  0  0
   48.4336   59.4337   32.6946 C   0  0  0  0  0  0  0  0  0  0  0  0
   47.3342   60.0993   32.0960 C   0  0  0  0  0  0  0  0  0  0  0  0
   47.3912   61.4485   31.8271 N   0  0  0  0  0  0  0  0  0  0  0  0
   49.6602   59.8021   33.1153 N   0  0  0  0  0  0  0  0  0  0  0  0
   50.2795   58.7597   33.5866 C   0  0  0  0  0  0  0  0  0  0  0  0
   49.4859   57.6490   33.5109 N   0  0  0  0  0  0  0  0  0  0  0  0
  2  1  1  1  0  0  0
  2  3  1  0  0  0  0
  2  5  1  0  0  0  0
  3  4  1  0  0  0  0
  3 17  1  0  0  0  0
  5  6  1  0  0  0  0
  7  6  1  6  0  0  0
  7  8  1  0  0  0  0
  7  9  1  0  0  0  0
 10  9  1  6  0  0  0
 10 11  1  0  0  0  0
 10 12  1  0  0  0  0
 11 16  1  0  0  0  0
 12 13  1  1  0  0  0
 12 14  1  0  0  0  0
 14 15  1  1  0  0  0
 14 16  1  0  0  0  0
 16 27  1  6  0  0  0
 18 19  2  0  0  0  0
 18 23  1  0  0  0  0
 19 20  1  0  0  0  0
 20 21  2  0  0  0  0
 21 22  1  0  0  0  0
 21 27  1  0  0  0  0
 22 23  2  0  0  0  0
 22 25  1  0  0  0  0
 23 24  1  0  0  0  0
 25 26  2  0  0  0  0
 26 27  1  0  0  0  0
M  END
>  <CHROM.1>
140.69098906,60.51084604,177.36618400,-52.03453268,-69.79942324,77.66024592
48.35811813,48.56219734,56.38644402,31.88875459,0.41824284,1.52350180,-1.57089107

>  <Name>
ligand

>  <RI>
0

>  <Rbt.Current_Directory>
/home/itssahil/PROJECTS/Mol_Feturizer/New_Systems/rnas/2GIS

>  <Rbt.Executable>
rbdock ($Id: //depot/dev/client3/rdock/2013.1/src/exe/rbdock.cxx#4 $)

>  <Rbt.Library>
libRbt.so (2013.1, Build901 2013/11/27)

>  <Rbt.Parameter_File>
/export/apps/rDock/src/rDock_2013.1_src/data/scripts/dock_solv.prm

>  <Rbt.Receptor>
prm/pocket_docking_3.prm

>  <SCORE>
-15.571

>  <SCORE.INTER>
-10.661

>  <SCORE.INTER.CONST>
1

>  <SCORE.INTER.POLAR>
0

>  <SCORE.INTER.ROT>
7

>  <SCORE.INTER.SOLV>
20.1523

>  <SCORE.INTER.VDW>
-22.0915

>  <SCORE.INTER.norm>
-0.394852

>  <SCORE.INTRA>
-4.91002

>  <SCORE.INTRA.DIHEDRAL>
-4.26464

>  <SCORE.INTRA.DIHEDRAL.0>
9.40024

>  <SCORE.INTRA.POLAR>
0

>  <SCORE.INTRA.POLAR.0>
0

>  <SCORE.INTRA.REPUL>
0

>  <SCORE.INTRA.REPUL.0>
0

>  <SCORE.INTRA.SOLV>
-2.30002

>  <SCORE.INTRA.SOLV.lig_0>
-47.1049

>  <SCORE.INTRA.VDW>
-1.62769

>  <SCORE.INTRA.VDW.0>
-1.50278

>  <SCORE.INTRA.norm>
-0.181852

>  <SCORE.RESTR>
0

>  <SCORE.RESTR.CAVITY>
0

>  <SCORE.RESTR.norm>
0

>  <SCORE.SYSTEM>
0

>  <SCORE.SYSTEM.CONST>
0

>  <SCORE.SYSTEM.DIHEDRAL>
0

>  <SCORE.SYSTEM.SOLV>
0

>  <SCORE.SYSTEM.norm>
0

>  <SCORE.heavy>
27

>  <SCORE.norm>
-0.576705

>  <RMSD>
1.785

$$$$
ligand
 OpenBabel11021811433D
libRbt.so/2013.1/901 2013/11/27
 27 29  0  0  0  0  0  0  0  0999 V2000
   51.3375   55.0720   26.6959 N   0  0  0  0  0  0  0  0  0  0  0  0
   50.3592   54.9872   27.7847 C   0  0  2  0  0  0  0  0  0  0  0  0
   49.0741   55.6788   27.3658 C   0  0  0  0  0  0  0  0  0  0  0  0
   47.9948   55.1149   27.5229 O   0  0  0  0  0  0  0  0  0  0  0  0
   50.9104   55.6402   29.0680 C   0  0  0  0  0  0  0  0  0  0  0  0
   49.9709   55.3303   30.2324 C   0  0  0  0  0  0  0  0  0  0  0  0
   49.9940   53.5856   30.8154 S   0  0  2  0  0  0  0  0  0  0  0  0
   49.0251   52.6875   29.5636 C   0  0  0  0  0  0  0  0  0  0  0  0
   48.7674   53.8066   32.1214 C   0  0  0  0  0  0  0  0  0  0  0  0
   49.3625   54.2845   33.4573 C   0  0  1  0  0  0  0  0  0  0  0  0
   49.9715   55.5958   33.2657 O   0  0  0  0  0  0  0  0  0  0  0  0
   48.1367   54.5156   34.3030 C   0  0  1  0  0  0  0  0  0  0  0  0
   47.8889   53.3710   35.1197 O   0  0  0  0  0  0  0  0  0  0  0  0
   48.5053   55.7150   35.1674 C   0  0  1  0  0  0  0  0  0  0  0  0
   48.9747   55.3256   36.4529 O   0  0  0  0  0  0  0  0  0  0  0  0
   49.6221   56.4957   34.3828 C   0  0  2  0  0  0  0  0  0  0  0  0
   49.1133   56.7770   26.8105 O   0  0  0  0  0  0  0  0  0  0  0  0
   45.7061   59.1615   32.1157 N   0  0  0  0  0  0  0  0  0  0  0  0
   45.6762   57.9139   32.5970 C   0  0  0  0  0  0  0  0  0  0  0  0
   46.7412   57.3696   33.1642 N   0  0  0  0  0  0  0  0  0  0  0  0
   47.9049   58.0349   33.2510 C   0  0  0  0  0  0  0  0  0  0  0  0
   47.9903   59.3562   32.7420 C   0  0  0  0  0  0  0  0  0  0  0  0
   46.8213   59.9087   32.1603 C   0  0  0  0  0  0  0  0  0  0  0  0
   46.8278   61.1867   31.6481 N   0  0  0  0  0  0  0  0  0  0  0  0
   49.2504   59.7880   32.9492 N   0  0  0  0  0  0  0  0  0  0  0  0
   49.9339   58.8446   33.5281 C   0  0  0  0  0  0  0  0  0  0  0  0
   49.1535   57.7428   33.7432 N   0  0  0  0  0  0  0  0  0  0  0  0
  2  1  1  6  0  0  0
  2  3  1  0  0  0  0
  2  5  1  0  0  0  0
  3  4  1  0  0  0  0
  3 17  1  0  0  0  0
  5  6  1  0  0  0  0
  7  6  1  6  0  0  0
  7  8  1  0  0  0  0
  7  9  1  0  0  0  0
 10  9  1  6  0  0  0
 10 11  1  0  0  0  0
 10 12  1  0  0  0  0
 11 16  1  0  0  0  0
 12 13  1  1  0  0  0
 12 14  1  0  0  0  0
 14 15  1  1  0  0  0
 14 16  1  0  0  0  0
 16 27  1  6  0  0  0
 18 19  2  0  0  0  0
 18 23  1  0  0  0  0
 19 20  1  0  0  0  0
 20 21  2  0  0  0  0
 21 22  1  0  0  0  0
 21 27  1  0  0  0  0
 22 23  2  0  0  0  0
 22 25  1  0  0  0  0
 23 24  1  0  0  0  0
 25 26  2  0  0  0  0
 26 27  1  0  0  0  0
M  END
>  <CHROM.1>
131.52946451,-170.67149720,71.33644600,-76.79157058,-86.42246654,62.41552540
83.19485190,48.78547060,56.20497097,31.70898727,0.73093869,1.19402969,-1.20099594

>  <Name>
ligand

>  <RI>
0

>  <Rbt.Current_Directory>
/home/itssahil/PROJECTS/Mol_Feturizer/New_Systems/rnas/2GIS

>  <Rbt.Executable>
rbdock ($Id: //depot/dev/client3/rdock/2013.1/src/exe/rbdock.cxx#4 $)

>  <Rbt.Library>
libRbt.so (2013.1, Build901 2013/11/27)

>  <Rbt.Parameter_File>
/export/apps/rDock/src/rDock_2013.1_src/data/scripts/dock_solv.prm

>  <Rbt.Receptor>
prm/pocket_docking_4.prm

>  <SCORE>
-20.2809

>  <SCORE.INTER>
-15.1092

>  <SCORE.INTER.CONST>
1

>  <SCORE.INTER.POLAR>
0

>  <SCORE.INTER.ROT>
7

>  <SCORE.INTER.SOLV>
16.561

>  <SCORE.INTER.VDW>
-23.8598

>  <SCORE.INTER.norm>
-0.5596

>  <SCORE.INTRA>
-5.17174

>  <SCORE.INTRA.DIHEDRAL>
-4.05496

>  <SCORE.INTRA.DIHEDRAL.0>
9.40024

>  <SCORE.INTRA.POLAR>
0

>  <SCORE.INTRA.POLAR.0>
0

>  <SCORE.INTRA.REPUL>
0

>  <SCORE.INTRA.REPUL.0>
0

>  <SCORE.INTRA.SOLV>
-2.60884

>  <SCORE.INTRA.SOLV.lig_0>
-47.1049

>  <SCORE.INTRA.VDW>
-1.83984

>  <SCORE.INTRA.VDW.0>
-1.50278

>  <SCORE.INTRA.norm>
-0.191546

>  <SCORE.RESTR>
0

>  <SCORE.RESTR.CAVITY>
0

>  <SCORE.RESTR.norm>
0

>  <SCORE.SYSTEM>
0

>  <SCORE.SYSTEM.CONST>
0

>  <SCORE.SYSTEM.DIHEDRAL>
0

>  <SCORE.SYSTEM.SOLV>
0

>  <SCORE.SYSTEM.norm>
0

>  <SCORE.heavy>
27

>  <SCORE.norm>
-0.751146

>  <RMSD>
1.789

$$$$
ligand
 OpenBabel11021811433D
libRbt.so/2013.1/901 2013/11/27
 27 29  0  0  0  0  0  0  0  0999 V2000
   49.0370   57.8672   28.9390 N   0  0  0  0  0  0  0  0  0  0  0  0
   49.2543   56.8028   27.9542 C   0  0  2  0  0  0  0  0  0  0  0  0
   48.2484   56.9440   26.8256 C   0  0  0  0  0  0  0  0  0  0  0  0
   47.0917   57.2732   27.0726 O   0  0  0  0  0  0  0  0  0  0  0  0
   49.1142   55.4142   28.6092 C   0  0  0  0  0  0  0  0  0  0  0  0
   50.2392   55.2225   29.6253 C   0  0  0  0  0  0  0  0  0  0  0  0
   50.3062   53.5631   30.4167 S   0  0  2  0  0  0  0  0  0  0  0  0
   49.6006   52.4464   29.1648 C   0  0  0  0  0  0  0  0  0  0  0  0
   48.8887   53.8158   31.5055 C   0  0  0  0  0  0  0  0  0  0  0  0
   49.2554   54.4217   32.8713 C   0  0  1  0  0  0  0  0  0  0  0  0
   49.2510   55.8761   32.7641 O   0  0  0  0  0  0  0  0  0  0  0  0
   48.0647   54.0646   33.7234 C   0  0  1  0  0  0  0  0  0  0  0  0
   48.3398   52.8770   34.4668 O   0  0  0  0  0  0  0  0  0  0  0  0
   47.9120   55.2552   34.6620 C   0  0  1  0  0  0  0  0  0  0  0  0
   48.5292   55.0263   35.9234 O   0  0  0  0  0  0  0  0  0  0  0  0
   48.5789   56.4782   33.9327 C   0  0  2  0  0  0  0  0  0  0  0  0
   48.5705   56.6682   25.6697 O   0  0  0  0  0  0  0  0  0  0  0  0
   47.7342   61.1108   31.6076 N   0  0  0  0  0  0  0  0  0  0  0  0
   48.9051   60.5847   31.9832 C   0  0  0  0  0  0  0  0  0  0  0  0
   48.9729   59.3886   32.5462 N   0  0  0  0  0  0  0  0  0  0  0  0
   47.8668   58.6677   32.7935 C   0  0  0  0  0  0  0  0  0  0  0  0
   46.5999   59.1896   32.4261 C   0  0  0  0  0  0  0  0  0  0  0  0
   46.5736   60.4652   31.8077 C   0  0  0  0  0  0  0  0  0  0  0  0
   45.3809   61.0341   31.4210 N   0  0  0  0  0  0  0  0  0  0  0  0
   45.6702   58.2813   32.7835 N   0  0  0  0  0  0  0  0  0  0  0  0
   46.2603   57.2645   33.3405 C   0  0  0  0  0  0  0  0  0  0  0  0
   47.6150   57.4461   33.3687 N   0  0  0  0  0  0  0  0  0  0  0  0
  2  1  1  1  0  0  0
  2  3  1  0  0  0  0
  2  5  1  0  0  0  0
  3  4  1  0  0  0  0
  3 17  1  0  0  0  0
  5  6  1  0  0  0  0
  7  6  1  6  0  0  0
  7  8  1  0  0  0  0
  7  9  1  0  0  0  0
 10  9  1  6  0  0  0
 10 11  1  0  0  0  0
 10 12  1  0  0  0  0
 11 16  1  0  0  0  0
 12 13  1  1  0  0  0
 12 14  1  0  0  0  0
 14 15  1  1  0  0  0
 14 16  1  0  0  0  0
 16 27  1  6  0  0  0
 18 19  2  0  0  0  0
 18 23  1  0  0  0  0
 19 20  1  0  0  0  0
 20 21  2  0  0  0  0
 21 22  1  0  0  0  0
 21 27  1  0  0  0  0
 22 23  2  0  0  0  0
 22 25  1  0  0  0  0
 23 24  1  0  0  0  0
 25 26  2  0  0  0  0
 26 27  1  0  0  0  0
M  END
>  <CHROM.1>
-38.85644218,-65.71530493,-175.54993776,28.70909012,-89.56995564,87.73320965
-73.43181615,48.34083895,56.55576311,31.33776187,0.12065937,1.19051403,-1.21715721

>  <Name>
ligand

>  <RI>
0

>  <Rbt.Current_Directory>
/home/itssahil/PROJECTS/Mol_Feturizer/New_Systems/rnas/2GIS

>  <Rbt.Executable>
rbdock ($Id: //depot/dev/client3/rdock/2013.1/src/exe/rbdock.cxx#4 $)

>  <Rbt.Library>
libRbt.so (2013.1, Build901 2013/11/27)

>  <Rbt.Parameter_File>
/export/apps/rDock/src/rDock_2013.1_src/data/scripts/dock_solv.prm

>  <Rbt.Receptor>
prm/pocket_docking_2.prm

>  <SCORE>
-16.4552

>  <SCORE.INTER>
-14.6905

>  <SCORE.INTER.CONST>
1

>  <SCORE.INTER.POLAR>
0

>  <SCORE.INTER.ROT>
7

>  <SCORE.INTER.SOLV>
20.1298

>  <SCORE.INTER.VDW>
-24.7702

>  <SCORE.INTER.norm>
-0.544091

>  <SCORE.INTRA>
-1.7647

>  <SCORE.INTRA.DIHEDRAL>
-1.11718

>  <SCORE.INTRA.DIHEDRAL.0>
9.40024

>  <SCORE.INTRA.POLAR>
0

>  <SCORE.INTRA.POLAR.0>
0

>  <SCORE.INTRA.REPUL>
0

>  <SCORE.INTRA.REPUL.0>
0

>  <SCORE.INTRA.SOLV>
-2.40337

>  <SCORE.INTRA.SOLV.lig_0>
-47.1049

>  <SCORE.INTRA.VDW>
-0.00442245

>  <SCORE.INTRA.VDW.0>
-1.50278

>  <SCORE.INTRA.norm>
-0.0653591

>  <SCORE.RESTR>
0

>  <SCORE.RESTR.CAVITY>
0

>  <SCORE.RESTR.norm>
0

>  <SCORE.SYSTEM>
0

>  <SCORE.SYSTEM.CONST>
0

>  <SCORE.SYSTEM.DIHEDRAL>
0

>  <SCORE.SYSTEM.SOLV>
0

>  <SCORE.SYSTEM.norm>
0

>  <SCORE.heavy>
27

>  <SCORE.norm>
-0.609451

>  <RMSD>
1.792

$$$$
ligand
 OpenBabel11021811433D
libRbt.so/2013.1/901 2013/11/27
 27 29  0  0  0  0  0  0  0  0999 V2000
   51.4117   55.0706   26.6505 N   0  0  0  0  0  0  0  0  0  0  0  0
   50.4351   54.9346   27.7357 C   0  0  2  0  0  0  0  0  0  0  0  0
   49.1317   55.5994   27.3302 C   0  0  0  0  0  0  0  0  0  0  0  0
   49.1496   56.6806   26.7486 O   0  0  0  0  0  0  0  0  0  0  0  0
   50.9668   55.5740   29.0339 C   0  0  0  0  0  0  0  0  0  0  0  0
   50.0110   55.2501   30.1812 C   0  0  0  0  0  0  0  0  0  0  0  0
   50.0549   53.5077   30.7698 S   0  0  2  0  0  0  0  0  0  0  0  0
   49.1506   52.5843   29.4886 C   0  0  0  0  0  0  0  0  0  0  0  0
   48.7798   53.7028   32.0327 C   0  0  0  0  0  0  0  0  0  0  0  0
   49.3210   54.1742   33.3935 C   0  0  1  0  0  0  0  0  0  0  0  0
   49.9408   55.4844   33.2319 O   0  0  0  0  0  0  0  0  0  0  0  0
   48.0622   54.4058   34.1893 C   0  0  1  0  0  0  0  0  0  0  0  0
   47.7782   53.2589   34.9910 O   0  0  0  0  0  0  0  0  0  0  0  0
   48.3984   55.6011   35.0724 C   0  0  1  0  0  0  0  0  0  0  0  0
   48.8138   55.2058   36.3746 O   0  0  0  0  0  0  0  0  0  0  0  0
   49.5485   56.3813   34.3370 C   0  0  2  0  0  0  0  0  0  0  0  0
   48.0538   55.0903   27.6381 O   0  0  0  0  0  0  0  0  0  0  0  0
   45.6565   59.1796   32.1914 N   0  0  0  0  0  0  0  0  0  0  0  0
   45.5896   57.9496   32.7126 C   0  0  0  0  0  0  0  0  0  0  0  0
   46.6545   57.3676   33.2412 N   0  0  0  0  0  0  0  0  0  0  0  0
   47.8531   57.9740   33.2470 C   0  0  0  0  0  0  0  0  0  0  0  0
   47.9776   59.2739   32.6929 C   0  0  0  0  0  0  0  0  0  0  0  0
   46.8085   59.8691   32.1551 C   0  0  0  0  0  0  0  0  0  0  0  0
   46.8520   61.1297   31.6031 N   0  0  0  0  0  0  0  0  0  0  0  0
   49.2669   59.6457   32.8213 N   0  0  0  0  0  0  0  0  0  0  0  0
   49.9319   58.6853   33.3938 C   0  0  0  0  0  0  0  0  0  0  0  0
   49.1098   57.6321   33.6833 N   0  0  0  0  0  0  0  0  0  0  0  0
  2  1  1  6  0  0  0
  2  3  1  0  0  0  0
  2  5  1  0  0  0  0
  3  4  1  0  0  0  0
  3 17  1  0  0  0  0
  5  6  1  0  0  0  0
  7  6  1  6  0  0  0
  7  8  1  0  0  0  0
  7  9  1  0  0  0  0
 10  9  1  6  0  0  0
 10 11  1  0  0  0  0
 10 12  1  0  0  0  0
 11 16  1  0  0  0  0
 12 13  1  1  0  0  0
 12 14  1  0  0  0  0
 14 15  1  1  0  0  0
 14 16  1  0  0  0  0
 16 27  1  6  0  0  0
 18 19  2  0  0  0  0
 18 23  1  0  0  0  0
 19 20  1  0  0  0  0
 20 21  2  0  0  0  0
 21 22  1  0  0  0  0
 21 27  1  0  0  0  0
 22 23  2  0  0  0  0
 22 25  1  0  0  0  0
 23 24  1  0  0  0  0
 25 26  2  0  0  0  0
 26 27  1  0  0  0  0
M  END
>  <CHROM.1>
-41.82402042,-172.48134661,72.62903416,-75.89009980,-87.41755620,61.51324302
89.51037457,48.77772188,56.12740674,31.66821468,0.62736241,1.17986488,-1.11799276

>  <Name>
ligand

>  <RI>
0

>  <Rbt.Current_Directory>
/home/itssahil/PROJECTS/Mol_Feturizer/New_Systems/rnas/2GIS

>  <Rbt.Executable>
rbdock ($Id: //depot/dev/client3/rdock/2013.1/src/exe/rbdock.cxx#4 $)

>  <Rbt.Library>
libRbt.so (2013.1, Build901 2013/11/27)

>  <Rbt.Parameter_File>
/export/apps/rDock/src/rDock_2013.1_src/data/scripts/dock_solv.prm

>  <Rbt.Receptor>
prm/pocket_docking_5.prm

>  <SCORE>
-20.489

>  <SCORE.INTER>
-15.3746

>  <SCORE.INTER.CONST>
1

>  <SCORE.INTER.POLAR>
0

>  <SCORE.INTER.ROT>
7

>  <SCORE.INTER.SOLV>
16.264

>  <SCORE.INTER.VDW>
-23.9377

>  <SCORE.INTER.norm>
-0.56943

>  <SCORE.INTRA>
-5.11441

>  <SCORE.INTRA.DIHEDRAL>
-4.21223

>  <SCORE.INTRA.DIHEDRAL.0>
9.40024

>  <SCORE.INTRA.POLAR>
0

>  <SCORE.INTRA.POLAR.0>
0

>  <SCORE.INTRA.REPUL>
0

>  <SCORE.INTRA.REPUL.0>
0

>  <SCORE.INTRA.SOLV>
-2.65776

>  <SCORE.INTRA.SOLV.lig_0>
-47.1049

>  <SCORE.INTRA.VDW>
-1.67942

>  <SCORE.INTRA.VDW.0>
-1.50278

>  <SCORE.INTRA.norm>
-0.189423

>  <SCORE.RESTR>
0

>  <SCORE.RESTR.CAVITY>
0

>  <SCORE.RESTR.norm>
0

>  <SCORE.SYSTEM>
0

>  <SCORE.SYSTEM.CONST>
0

>  <SCORE.SYSTEM.DIHEDRAL>
0

>  <SCORE.SYSTEM.SOLV>
0

>  <SCORE.SYSTEM.norm>
0

>  <SCORE.heavy>
27

>  <SCORE.norm>
-0.758853

>  <RMSD>
1.796

$$$$
ligand
 OpenBabel11021811433D
libRbt.so/2013.1/901 2013/11/27
 27 29  0  0  0  0  0  0  0  0999 V2000
   46.6166   57.5825   28.1077 N   0  0  0  0  0  0  0  0  0  0  0  0
   47.4309   57.2729   29.2871 C   0  0  2  0  0  0  0  0  0  0  0  0
   48.6728   58.1464   29.2886 C   0  0  0  0  0  0  0  0  0  0  0  0
   49.1767   58.4978   28.2256 O   0  0  0  0  0  0  0  0  0  0  0  0
   47.8373   55.7857   29.2967 C   0  0  0  0  0  0  0  0  0  0  0  0
   48.1643   55.3637   30.7283 C   0  0  0  0  0  0  0  0  0  0  0  0
   48.5046   53.5705   30.9586 S   0  0  2  0  0  0  0  0  0  0  0  0
   47.1797   52.7446   30.0235 C   0  0  0  0  0  0  0  0  0  0  0  0
   47.8639   53.4716   32.6434 C   0  0  0  0  0  0  0  0  0  0  0  0
   48.8731   53.9118   33.7181 C   0  0  1  0  0  0  0  0  0  0  0  0
   49.5573   55.1170   33.2640 O   0  0  0  0  0  0  0  0  0  0  0  0
   47.9815   54.3435   34.8538 C   0  0  1  0  0  0  0  0  0  0  0  0
   47.8411   53.2763   35.7919 O   0  0  0  0  0  0  0  0  0  0  0  0
   48.7284   55.5115   35.4860 C   0  0  1  0  0  0  0  0  0  0  0  0
   49.4971   55.1092   36.6137 O   0  0  0  0  0  0  0  0  0  0  0  0
   49.6585   56.0984   34.3624 C   0  0  2  0  0  0  0  0  0  0  0  0
   49.2147   58.4522   30.3510 O   0  0  0  0  0  0  0  0  0  0  0  0
   45.7384   58.8399   32.1947 N   0  0  0  0  0  0  0  0  0  0  0  0
   45.7182   57.5670   32.6050 C   0  0  0  0  0  0  0  0  0  0  0  0
   46.7827   57.0046   33.1554 N   0  0  0  0  0  0  0  0  0  0  0  0
   47.9366   57.6779   33.2950 C   0  0  0  0  0  0  0  0  0  0  0  0
   48.0118   59.0266   32.8617 C   0  0  0  0  0  0  0  0  0  0  0  0
   46.8434   59.5967   32.2960 C   0  0  0  0  0  0  0  0  0  0  0  0
   46.8403   60.9014   31.8561 N   0  0  0  0  0  0  0  0  0  0  0  0
   49.2635   59.4611   33.1098 N   0  0  0  0  0  0  0  0  0  0  0  0
   49.9514   58.4951   33.6444 C   0  0  0  0  0  0  0  0  0  0  0  0
   49.1824   57.3737   33.7870 N   0  0  0  0  0  0  0  0  0  0  0  0
  2  1  1  6  0  0  0
  2  3  1  0  0  0  0
  2  5  1  0  0  0  0
  3  4  1  0  0  0  0
  3 17  1  0  0  0  0
  5  6  1  0  0  0  0
  7  6  1  6  0  0  0
  7  8  1  0  0  0  0
  7  9  1  0  0  0  0
 10  9  1  6  0  0  0
 10 11  1  0  0  0  0
 10 12  1  0  0  0  0
 11 16  1  0  0  0  0
 12 13  1  1  0  0  0
 12 14  1  0  0  0  0
 14 15  1  1  0  0  0
 14 16  1  0  0  0  0
 16 27  1  6  0  0  0
 18 19  2  0  0  0  0
 18 23  1  0  0  0  0
 19 20  1  0  0  0  0
 20 21  2  0  0  0  0
 21 22  1  0  0  0  0
 21 27  1  0  0  0  0
 22 23  2  0  0  0  0
 22 25  1  0  0  0  0
 23 24  1  0  0  0  0
 25 26  2  0  0  0  0
 26 27  1  0  0  0  0
M  END
>  <CHROM.1>
-31.60931256,-157.23647187,174.00110329,-45.44630620,-82.90912774,42.83238706
62.85545892,48.15587943,56.46728070,32.21852753,2.78747471,-1.41749691,0.40225675

>  <Name>
ligand

>  <RI>
0

>  <Rbt.Current_Directory>
/home/itssahil/PROJECTS/Mol_Feturizer/New_Systems/rnas/2GIS

>  <Rbt.Executable>
rbdock ($Id: //depot/dev/client3/rdock/2013.1/src/exe/rbdock.cxx#4 $)

>  <Rbt.Library>
libRbt.so (2013.1, Build901 2013/11/27)

>  <Rbt.Parameter_File>
/export/apps/rDock/src/rDock_2013.1_src/data/scripts/dock_solv.prm

>  <Rbt.Receptor>
prm/pocket_docking_4.prm

>  <SCORE>
-18.8984

>  <SCORE.INTER>
-13.0974

>  <SCORE.INTER.CONST>
1

>  <SCORE.INTER.POLAR>
0

>  <SCORE.INTER.ROT>
7

>  <SCORE.INTER.SOLV>
15.6456

>  <SCORE.INTER.VDW>
-22.2134

>  <SCORE.INTER.norm>
-0.485088

>  <SCORE.INTRA>
-5.80969

>  <SCORE.INTRA.DIHEDRAL>
-1.36439

>  <SCORE.INTRA.DIHEDRAL.0>
9.40024

>  <SCORE.INTRA.POLAR>
0

>  <SCORE.INTRA.POLAR.0>
0

>  <SCORE.INTRA.REPUL>
0

>  <SCORE.INTRA.REPUL.0>
0

>  <SCORE.INTRA.SOLV>
-2.50834

>  <SCORE.INTRA.SOLV.lig_0>
-47.1049

>  <SCORE.INTRA.VDW>
-3.87332

>  <SCORE.INTRA.VDW.0>
-1.50278

>  <SCORE.INTRA.norm>
-0.215174

>  <SCORE.RESTR>
0.00868299

>  <SCORE.RESTR.CAVITY>
0.00868299

>  <SCORE.RESTR.norm>
0.000321592

>  <SCORE.SYSTEM>
0

>  <SCORE.SYSTEM.CONST>
0

>  <SCORE.SYSTEM.DIHEDRAL>
0

>  <SCORE.SYSTEM.SOLV>
0

>  <SCORE.SYSTEM.norm>
0

>  <SCORE.heavy>
27

>  <SCORE.norm>
-0.69994

>  <RMSD>
1.850

$$$$
ligand
 OpenBabel11021811433D
libRbt.so/2013.1/901 2013/11/27
 27 29  0  0  0  0  0  0  0  0999 V2000
   48.8958   58.6352   28.5425 N   0  0  0  0  0  0  0  0  0  0  0  0
   48.6778   57.4131   29.3228 C   0  0  2  0  0  0  0  0  0  0  0  0
   49.9309   57.0887   30.1164 C   0  0  0  0  0  0  0  0  0  0  0  0
   50.0518   57.4999   31.2670 O   0  0  0  0  0  0  0  0  0  0  0  0
   48.3223   56.2305   28.3997 C   0  0  0  0  0  0  0  0  0  0  0  0
   47.8266   55.0615   29.2497 C   0  0  0  0  0  0  0  0  0  0  0  0
   49.1276   54.1815   30.2074 S   0  0  2  0  0  0  0  0  0  0  0  0
   49.2153   52.5386   29.4295 C   0  0  0  0  0  0  0  0  0  0  0  0
   48.0991   53.8361   31.6501 C   0  0  0  0  0  0  0  0  0  0  0  0
   48.8327   54.0098   32.9913 C   0  0  1  0  0  0  0  0  0  0  0  0
   49.6395   55.2236   32.9394 O   0  0  0  0  0  0  0  0  0  0  0  0
   47.7070   54.3003   33.9503 C   0  0  1  0  0  0  0  0  0  0  0  0
   47.3156   53.0991   34.6157 O   0  0  0  0  0  0  0  0  0  0  0  0
   48.3128   55.2843   34.9435 C   0  0  1  0  0  0  0  0  0  0  0  0
   48.7766   54.6384   36.1233 O   0  0  0  0  0  0  0  0  0  0  0  0
   49.5015   55.9895   34.1940 C   0  0  2  0  0  0  0  0  0  0  0  0
   50.8551   56.4684   29.5902 O   0  0  0  0  0  0  0  0  0  0  0  0
   46.2796   59.3437   31.7548 N   0  0  0  0  0  0  0  0  0  0  0  0
   46.1230   58.0245   31.9104 C   0  0  0  0  0  0  0  0  0  0  0  0
   47.0128   57.2991   32.5694 N   0  0  0  0  0  0  0  0  0  0  0  0
   48.1253   57.8513   33.0809 C   0  0  0  0  0  0  0  0  0  0  0  0
   48.3431   59.2448   32.9294 C   0  0  0  0  0  0  0  0  0  0  0  0
   47.3560   59.9881   32.2342 C   0  0  0  0  0  0  0  0  0  0  0  0
   47.4978   61.3453   32.0509 N   0  0  0  0  0  0  0  0  0  0  0  0
   49.5178   59.5367   33.5227 N   0  0  0  0  0  0  0  0  0  0  0  0
   50.0316   58.4452   34.0097 C   0  0  0  0  0  0  0  0  0  0  0  0
   49.2135   57.3761   33.7714 N   0  0  0  0  0  0  0  0  0  0  0  0
  2  1  1  6  0  0  0
  2  3  1  0  0  0  0
  2  5  1  0  0  0  0
  3  4  1  0  0  0  0
  3 17  1  0  0  0  0
  5  6  1  0  0  0  0
  7  6  1  6  0  0  0
  7  8  1  0  0  0  0
  7  9  1  0  0  0  0
 10  9  1  6  0  0  0
 10 11  1  0  0  0  0
 10 12  1  0  0  0  0
 11 16  1  0  0  0  0
 12 13  1  1  0  0  0
 12 14  1  0  0  0  0
 14 15  1  1  0  0  0
 14 16  1  0  0  0  0
 16 27  1  6  0  0  0
 18 19  2  0  0  0  0
 18 23  1  0  0  0  0
 19 20  1  0  0  0  0
 20 21  2  0  0  0  0
 21 22  1  0  0  0  0
 21 27  1  0  0  0  0
 22 23  2  0  0  0  0
 22 25  1  0  0  0  0
 23 24  1  0  0  0  0
 25 26  2  0  0  0  0
 26 27  1  0  0  0  0
M  END
>  <CHROM.1>
92.68338244,-168.51266057,-73.13597835,-112.34335113,-139.77741088,42.78527182
63.51890797,48.59526664,56.46787461,31.95684119,-2.25763350,-1.41559987,2.39464421

>  <Name>
ligand

>  <RI>
0

>  <Rbt.Current_Directory>
/home/itssahil/PROJECTS/Mol_Feturizer/New_Systems/rnas/2GIS

>  <Rbt.Executable>
rbdock ($Id: //depot/dev/client3/rdock/2013.1/src/exe/rbdock.cxx#4 $)

>  <Rbt.Library>
libRbt.so (2013.1, Build901 2013/11/27)

>  <Rbt.Parameter_File>
/export/apps/rDock/src/rDock_2013.1_src/data/scripts/dock_solv.prm

>  <Rbt.Receptor>
prm/pocket_docking_2.prm

>  <SCORE>
-11.9927

>  <SCORE.INTER>
-9.04734

>  <SCORE.INTER.CONST>
1

>  <SCORE.INTER.POLAR>
0

>  <SCORE.INTER.ROT>
7

>  <SCORE.INTER.SOLV>
21.1212

>  <SCORE.INTER.VDW>
-21.3386

>  <SCORE.INTER.norm>
-0.335087

>  <SCORE.INTRA>
-3.5491

>  <SCORE.INTRA.DIHEDRAL>
3.32528

>  <SCORE.INTRA.DIHEDRAL.0>
9.40024

>  <SCORE.INTRA.POLAR>
0

>  <SCORE.INTRA.POLAR.0>
0

>  <SCORE.INTRA.REPUL>
0

>  <SCORE.INTRA.REPUL.0>
0

>  <SCORE.INTRA.SOLV>
-2.73813

>  <SCORE.INTRA.SOLV.lig_0>
-47.1049

>  <SCORE.INTRA.VDW>
-3.84268

>  <SCORE.INTRA.VDW.0>
-1.50278

>  <SCORE.INTRA.norm>
-0.131448

>  <SCORE.RESTR>
0.603751

>  <SCORE.RESTR.CAVITY>
0.603751

>  <SCORE.RESTR.norm>
0.0223612

>  <SCORE.SYSTEM>
0

>  <SCORE.SYSTEM.CONST>
0

>  <SCORE.SYSTEM.DIHEDRAL>
0

>  <SCORE.SYSTEM.SOLV>
0

>  <SCORE.SYSTEM.norm>
0

>  <SCORE.heavy>
27

>  <SCORE.norm>
-0.444174

>  <RMSD>
1.861

$$$$
ligand
 OpenBabel11021811433D
libRbt.so/2013.1/901 2013/11/27
 27 29  0  0  0  0  0  0  0  0999 V2000
   49.7630   53.4423   26.1036 N   0  0  0  0  0  0  0  0  0  0  0  0
   49.3028   54.3430   27.1651 C   0  0  2  0  0  0  0  0  0  0  0  0
   48.7030   55.5922   26.5445 C   0  0  0  0  0  0  0  0  0  0  0  0
   49.1902   56.0628   25.5205 O   0  0  0  0  0  0  0  0  0  0  0  0
   50.4676   54.7298   28.0981 C   0  0  0  0  0  0  0  0  0  0  0  0
   50.9089   53.4982   28.8875 C   0  0  0  0  0  0  0  0  0  0  0  0
   49.9117   53.1310   30.3891 S   0  0  2  0  0  0  0  0  0  0  0  0
   48.2116   52.9633   29.7618 C   0  0  0  0  0  0  0  0  0  0  0  0
   49.8913   54.8220   31.0206 C   0  0  0  0  0  0  0  0  0  0  0  0
   49.6348   54.9161   32.5347 C   0  0  1  0  0  0  0  0  0  0  0  0
   50.0038   56.2486   32.9986 O   0  0  0  0  0  0  0  0  0  0  0  0
   48.1318   54.8477   32.6216 C   0  0  1  0  0  0  0  0  0  0  0  0
   47.7231   53.5077   32.8976 O   0  0  0  0  0  0  0  0  0  0  0  0
   47.7879   55.7597   33.7928 C   0  0  1  0  0  0  0  0  0  0  0  0
   47.6104   55.0338   35.0036 O   0  0  0  0  0  0  0  0  0  0  0  0
   48.9816   56.7744   33.9251 C   0  0  2  0  0  0  0  0  0  0  0  0
   47.7693   56.1729   27.0984 O   0  0  0  0  0  0  0  0  0  0  0  0
   45.6020   60.0225   31.5566 N   0  0  0  0  0  0  0  0  0  0  0  0
   45.4402   58.7206   31.8175 C   0  0  0  0  0  0  0  0  0  0  0  0
   46.3753   58.0230   32.4431 N   0  0  0  0  0  0  0  0  0  0  0  0
   47.5380   58.5849   32.8127 C   0  0  0  0  0  0  0  0  0  0  0  0
   47.7622   59.9598   32.5452 C   0  0  0  0  0  0  0  0  0  0  0  0
   46.7273   60.6749   31.8912 C   0  0  0  0  0  0  0  0  0  0  0  0
   46.8723   62.0131   31.6015 N   0  0  0  0  0  0  0  0  0  0  0  0
   48.9904   60.2663   33.0087 N   0  0  0  0  0  0  0  0  0  0  0  0
   49.5298   59.1998   33.5226 C   0  0  0  0  0  0  0  0  0  0  0  0
   48.6773   58.1347   33.4341 N   0  0  0  0  0  0  0  0  0  0  0  0
  2  1  1  6  0  0  0
  2  3  1  0  0  0  0
  2  5  1  0  0  0  0
  3  4  1  0  0  0  0
  3 17  1  0  0  0  0
  5  6  1  0  0  0  0
  7  6  1  6  0  0  0
  7  8  1  0  0  0  0
  7  9  1  0  0  0  0
 10  9  1  6  0  0  0
 10 11  1  0  0  0  0
 10 12  1  0  0  0  0
 11 16  1  0  0  0  0
 12 13  1  1  0  0  0
 12 14  1  0  0  0  0
 14 15  1  1  0  0  0
 14 16  1  0  0  0  0
 16 27  1  6  0  0  0
 18 19  2  0  0  0  0
 18 23  1  0  0  0  0
 19 20  1  0  0  0  0
 20 21  2  0  0  0  0
 21 22  1  0  0  0  0
 21 27  1  0  0  0  0
 22 23  2  0  0  0  0
 22 25  1  0  0  0  0
 23 24  1  0  0  0  0
 25 26  2  0  0  0  0
 26 27  1  0  0  0  0
M  END
>  <CHROM.1>
-36.14380968,-68.15798766,-82.89414644,57.04321190,-157.25832861,164.28922302
108.85153860,48.51599390,56.32101585,31.00352419,0.59170403,1.22513455,-1.42413742

>  <Name>
ligand

>  <RI>
0

>  <Rbt.Current_Directory>
/home/itssahil/PROJECTS/Mol_Feturizer/New_Systems/rnas/2GIS

>  <Rbt.Executable>
rbdock ($Id: //depot/dev/client3/rdock/2013.1/src/exe/rbdock.cxx#4 $)

>  <Rbt.Library>
libRbt.so (2013.1, Build901 2013/11/27)

>  <Rbt.Parameter_File>
/export/apps/rDock/src/rDock_2013.1_src/data/scripts/dock_solv.prm

>  <Rbt.Receptor>
prm/pocket_docking_3.prm

>  <SCORE>
-13.1244

>  <SCORE.INTER>
-11.9081

>  <SCORE.INTER.CONST>
1

>  <SCORE.INTER.POLAR>
0

>  <SCORE.INTER.ROT>
7

>  <SCORE.INTER.SOLV>
16.2933

>  <SCORE.INTER.VDW>
-21.6365

>  <SCORE.INTER.norm>
-0.441042

>  <SCORE.INTRA>
-1.21629

>  <SCORE.INTRA.DIHEDRAL>
-1.25424

>  <SCORE.INTRA.DIHEDRAL.0>
9.40024

>  <SCORE.INTRA.POLAR>
0

>  <SCORE.INTRA.POLAR.0>
0

>  <SCORE.INTRA.REPUL>
0

>  <SCORE.INTRA.REPUL.0>
0

>  <SCORE.INTRA.SOLV>
-1.33671

>  <SCORE.INTRA.SOLV.lig_0>
-47.1049

>  <SCORE.INTRA.VDW>
0.0791871

>  <SCORE.INTRA.VDW.0>
-1.50278

>  <SCORE.INTRA.norm>
-0.0450478

>  <SCORE.RESTR>
0

>  <SCORE.RESTR.CAVITY>
0

>  <SCORE.RESTR.norm>
0

>  <SCORE.SYSTEM>
0

>  <SCORE.SYSTEM.CONST>
0

>  <SCORE.SYSTEM.DIHEDRAL>
0

>  <SCORE.SYSTEM.SOLV>
0

>  <SCORE.SYSTEM.norm>
0

>  <SCORE.heavy>
27

>  <SCORE.norm>
-0.48609

>  <RMSD>
1.862

$$$$
ligand
 OpenBabel11021811433D
libRbt.so/2013.1/901 2013/11/27
 27 29  0  0  0  0  0  0  0  0999 V2000
   49.9295   56.9118   27.7271 N   0  0  0  0  0  0  0  0  0  0  0  0
   48.8200   56.1792   28.3455 C   0  0  2  0  0  0  0  0  0  0  0  0
   47.5026   56.8064   27.9257 C   0  0  0  0  0  0  0  0  0  0  0  0
   46.9230   57.5803   28.6824 O   0  0  0  0  0  0  0  0  0  0  0  0
   48.9416   56.1967   29.8824 C   0  0  0  0  0  0  0  0  0  0  0  0
   50.3086   55.6450   30.2843 C   0  0  0  0  0  0  0  0  0  0  0  0
   50.3731   53.8253   30.5468 S   0  0  2  0  0  0  0  0  0  0  0  0
   49.6581   53.1323   29.0234 C   0  0  0  0  0  0  0  0  0  0  0  0
   48.9611   53.7462   31.6689 C   0  0  0  0  0  0  0  0  0  0  0  0
   49.2373   54.3485   33.0574 C   0  0  1  0  0  0  0  0  0  0  0  0
   49.2715   55.8024   32.9480 O   0  0  0  0  0  0  0  0  0  0  0  0
   47.9790   54.0189   33.8185 C   0  0  1  0  0  0  0  0  0  0  0  0
   48.1728   52.8281   34.5821 O   0  0  0  0  0  0  0  0  0  0  0  0
   47.7816   55.2153   34.7413 C   0  0  1  0  0  0  0  0  0  0  0  0
   48.2978   54.9774   36.0457 O   0  0  0  0  0  0  0  0  0  0  0  0
   48.5267   56.4219   34.0621 C   0  0  2  0  0  0  0  0  0  0  0  0
   46.9799   56.4937   26.8557 O   0  0  0  0  0  0  0  0  0  0  0  0
   47.9794   60.9708   31.4953 N   0  0  0  0  0  0  0  0  0  0  0  0
   49.1121   60.4058   31.9276 C   0  0  0  0  0  0  0  0  0  0  0  0
   49.1042   59.2370   32.5490 N   0  0  0  0  0  0  0  0  0  0  0  0
   47.9567   58.5856   32.8002 C   0  0  0  0  0  0  0  0  0  0  0  0
   46.7278   59.1515   32.3736 C   0  0  0  0  0  0  0  0  0  0  0  0
   46.7826   60.3948   31.6943 C   0  0  0  0  0  0  0  0  0  0  0  0
   45.6307   61.0031   31.2482 N   0  0  0  0  0  0  0  0  0  0  0  0
   45.7440   58.3097   32.7486 N   0  0  0  0  0  0  0  0  0  0  0  0
   46.2670   57.2933   33.3696 C   0  0  0  0  0  0  0  0  0  0  0  0
   47.6282   57.4079   33.4262 N   0  0  0  0  0  0  0  0  0  0  0  0
  2  1  1  6  0  0  0
  2  3  1  0  0  0  0
  2  5  1  0  0  0  0
  3  4  1  0  0  0  0
  3 17  1  0  0  0  0
  5  6  1  0  0  0  0
  7  6  1  6  0  0  0
  7  8  1  0  0  0  0
  7  9  1  0  0  0  0
 10  9  1  6  0  0  0
 10 11  1  0  0  0  0
 10 12  1  0  0  0  0
 11 16  1  0  0  0  0
 12 13  1  1  0  0  0
 12 14  1  0  0  0  0
 14 15  1  1  0  0  0
 14 16  1  0  0  0  0
 16 27  1  6  0  0  0
 18 19  2  0  0  0  0
 18 23  1  0  0  0  0
 19 20  1  0  0  0  0
 20 21  2  0  0  0  0
 21 22  1  0  0  0  0
 21 27  1  0  0  0  0
 22 23  2  0  0  0  0
 22 25  1  0  0  0  0
 23 24  1  0  0  0  0
 25 26  2  0  0  0  0
 26 27  1  0  0  0  0
M  END
>  <CHROM.1>
-99.55576365,-55.32622400,-89.58147200,52.19499917,-71.12898362,73.85946003
-69.21512520,48.29018797,56.55402351,31.55489348,-2.60123668,-1.18279710
1.89994313

>  <Name>
ligand

>  <RI>
0

>  <Rbt.Current_Directory>
/home/itssahil/PROJECTS/Mol_Feturizer/New_Systems/rnas/2GIS

>  <Rbt.Executable>
rbdock ($Id: //depot/dev/client3/rdock/2013.1/src/exe/rbdock.cxx#4 $)

>  <Rbt.Library>
libRbt.so (2013.1, Build901 2013/11/27)

>  <Rbt.Parameter_File>
/export/apps/rDock/src/rDock_2013.1_src/data/scripts/dock_solv.prm

>  <Rbt.Receptor>
prm/pocket_docking_2.prm

>  <SCORE>
-14.0489

>  <SCORE.INTER>
-12.5796

>  <SCORE.INTER.CONST>
1

>  <SCORE.INTER.POLAR>
0

>  <SCORE.INTER.ROT>
7

>  <SCORE.INTER.SOLV>
19.7202

>  <SCORE.INTER.VDW>
-23.2265

>  <SCORE.INTER.norm>
-0.46591

>  <SCORE.INTRA>
-1.46984

>  <SCORE.INTRA.DIHEDRAL>
-2.59776

>  <SCORE.INTRA.DIHEDRAL.0>
9.40024

>  <SCORE.INTRA.POLAR>
0

>  <SCORE.INTRA.POLAR.0>
0

>  <SCORE.INTRA.REPUL>
0

>  <SCORE.INTRA.REPUL.0>
0

>  <SCORE.INTRA.SOLV>
-1.30395

>  <SCORE.INTRA.SOLV.lig_0>
-47.1049

>  <SCORE.INTRA.VDW>
0.481014

>  <SCORE.INTRA.VDW.0>
-1.50278

>  <SCORE.INTRA.norm>
-0.0544386

>  <SCORE.RESTR>
0.000546318

>  <SCORE.RESTR.CAVITY>
0.000546318

>  <SCORE.RESTR.norm>
2.0234e-05

>  <SCORE.SYSTEM>
0

>  <SCORE.SYSTEM.CONST>
0

>  <SCORE.SYSTEM.DIHEDRAL>
0

>  <SCORE.SYSTEM.SOLV>
0

>  <SCORE.SYSTEM.norm>
0

>  <SCORE.heavy>
27

>  <SCORE.norm>
-0.520329

>  <RMSD>
1.912

$$$$
ligand
 OpenBabel11021811433D
libRbt.so/2013.1/901 2013/11/27
 27 29  0  0  0  0  0  0  0  0999 V2000
   48.5515   57.1547   26.2410 N   0  0  0  0  0  0  0  0  0  0  0  0
   48.3103   56.8888   27.6627 C   0  0  2  0  0  0  0  0  0  0  0  0
   48.2319   58.2038   28.4176 C   0  0  0  0  0  0  0  0  0  0  0  0
   49.0191   59.1090   28.1561 O   0  0  0  0  0  0  0  0  0  0  0  0
   49.4323   56.0122   28.2538 C   0  0  0  0  0  0  0  0  0  0  0  0
   49.0065   55.5149   29.6343 C   0  0  0  0  0  0  0  0  0  0  0  0
   50.0938   54.2283   30.3738 S   0  0  2  0  0  0  0  0  0  0  0  0
   49.9991   52.8405   29.2004 C   0  0  0  0  0  0  0  0  0  0  0  0
   48.9243   53.6995   31.6432 C   0  0  0  0  0  0  0  0  0  0  0  0
   49.1989   54.3046   33.0309 C   0  0  1  0  0  0  0  0  0  0  0  0
   49.2351   55.7582   32.9182 O   0  0  0  0  0  0  0  0  0  0  0  0
   47.9388   53.9784   33.7905 C   0  0  1  0  0  0  0  0  0  0  0  0
   48.1296   52.7891   34.5572 O   0  0  0  0  0  0  0  0  0  0  0  0
   47.7414   55.1771   34.7102 C   0  0  1  0  0  0  0  0  0  0  0  0
   48.2549   54.9415   36.0160 O   0  0  0  0  0  0  0  0  0  0  0  0
   48.4892   56.3812   34.0296 C   0  0  2  0  0  0  0  0  0  0  0  0
   47.4234   58.3448   29.3354 O   0  0  0  0  0  0  0  0  0  0  0  0
   47.9590   60.8828   31.3771 N   0  0  0  0  0  0  0  0  0  0  0  0
   49.0914   60.3101   31.7999 C   0  0  0  0  0  0  0  0  0  0  0  0
   49.0785   59.1549   32.4461 N   0  0  0  0  0  0  0  0  0  0  0  0
   47.9266   58.5261   32.7327 C   0  0  0  0  0  0  0  0  0  0  0  0
   46.6982   59.1012   32.3175 C   0  0  0  0  0  0  0  0  0  0  0  0
   46.7579   60.3290   31.6109 C   0  0  0  0  0  0  0  0  0  0  0  0
   45.6067   60.9449   31.1737 N   0  0  0  0  0  0  0  0  0  0  0  0
   45.7096   58.2824   32.7288 N   0  0  0  0  0  0  0  0  0  0  0  0
   46.2296   57.2716   33.3614 C   0  0  0  0  0  0  0  0  0  0  0  0
   47.5931   57.3669   33.3898 N   0  0  0  0  0  0  0  0  0  0  0  0
  2  1  1  6  0  0  0
  2  3  1  0  0  0  0
  2  5  1  0  0  0  0
  3  4  1  0  0  0  0
  3 17  1  0  0  0  0
  5  6  1  0  0  0  0
  7  6  1  6  0  0  0
  7  8  1  0  0  0  0
  7  9  1  0  0  0  0
 10  9  1  6  0  0  0
 10 11  1  0  0  0  0
 10 12  1  0  0  0  0
 11 16  1  0  0  0  0
 12 13  1  1  0  0  0
 12 14  1  0  0  0  0
 14 15  1  1  0  0  0
 14 16  1  0  0  0  0
 16 27  1  6  0  0  0
 18 19  2  0  0  0  0
 18 23  1  0  0  0  0
 19 20  1  0  0  0  0
 20 21  2  0  0  0  0
 21 22  1  0  0  0  0
 21 27  1  0  0  0  0
 22 23  2  0  0  0  0
 22 25  1  0  0  0  0
 23 24  1  0  0  0  0
 25 26  2  0  0  0  0
 26 27  1  0  0  0  0
M  END
>  <CHROM.1>
-41.42981523,-168.19244626,170.17266347,-61.13305784,-99.53508256,55.14762561
-67.43069383,48.29036659,56.74680345,31.45323263,-1.92105849,-1.17047906
2.16895125

>  <Name>
ligand

>  <RI>
0

>  <Rbt.Current_Directory>
/home/itssahil/PROJECTS/Mol_Feturizer/New_Systems/rnas/2GIS

>  <Rbt.Executable>
rbdock ($Id: //depot/dev/client3/rdock/2013.1/src/exe/rbdock.cxx#4 $)

>  <Rbt.Library>
libRbt.so (2013.1, Build901 2013/11/27)

>  <Rbt.Parameter_File>
/export/apps/rDock/src/rDock_2013.1_src/data/scripts/dock_solv.prm

>  <Rbt.Receptor>
prm/pocket_docking_2.prm

>  <SCORE>
-17.5889

>  <SCORE.INTER>
-12.7084

>  <SCORE.INTER.CONST>
1

>  <SCORE.INTER.POLAR>
0

>  <SCORE.INTER.ROT>
7

>  <SCORE.INTER.SOLV>
20.8749

>  <SCORE.INTER.VDW>
-23.6972

>  <SCORE.INTER.norm>
-0.470681

>  <SCORE.INTRA>
-4.88053

>  <SCORE.INTRA.DIHEDRAL>
-2.69353

>  <SCORE.INTRA.DIHEDRAL.0>
9.40024

>  <SCORE.INTRA.POLAR>
0

>  <SCORE.INTRA.POLAR.0>
0

>  <SCORE.INTRA.REPUL>
0

>  <SCORE.INTRA.REPUL.0>
0

>  <SCORE.INTRA.SOLV>
-2.76661

>  <SCORE.INTRA.SOLV.lig_0>
-47.1049

>  <SCORE.INTRA.VDW>
-2.15046

>  <SCORE.INTRA.VDW.0>
-1.50278

>  <SCORE.INTRA.norm>
-0.18076

>  <SCORE.RESTR>
0

>  <SCORE.RESTR.CAVITY>
0

>  <SCORE.RESTR.norm>
0

>  <SCORE.SYSTEM>
0

>  <SCORE.SYSTEM.CONST>
0

>  <SCORE.SYSTEM.DIHEDRAL>
0

>  <SCORE.SYSTEM.SOLV>
0

>  <SCORE.SYSTEM.norm>
0

>  <SCORE.heavy>
27

>  <SCORE.norm>
-0.651441

>  <RMSD>
1.985

$$$$
ligand
 OpenBabel11021811433D
libRbt.so/2013.1/901 2013/11/27
 27 29  0  0  0  0  0  0  0  0999 V2000
   47.0292   57.8548   29.1953 N   0  0  0  0  0  0  0  0  0  0  0  0
   48.3565   57.7506   28.5810 C   0  0  2  0  0  0  0  0  0  0  0  0
   48.3211   56.7148   27.4715 C   0  0  0  0  0  0  0  0  0  0  0  0
   48.6606   57.0239   26.3328 O   0  0  0  0  0  0  0  0  0  0  0  0
   49.4159   57.3578   29.6300 C   0  0  0  0  0  0  0  0  0  0  0  0
   48.9429   56.1132   30.3795 C   0  0  0  0  0  0  0  0  0  0  0  0
   50.2251   54.8196   30.6383 S   0  0  2  0  0  0  0  0  0  0  0  0
   50.1217   53.7880   29.1426 C   0  0  0  0  0  0  0  0  0  0  0  0
   49.2683   53.8378   31.8129 C   0  0  0  0  0  0  0  0  0  0  0  0
   49.3033   54.3830   33.2511 C   0  0  1  0  0  0  0  0  0  0  0  0
   49.2547   55.8400   33.2096 O   0  0  0  0  0  0  0  0  0  0  0  0
   47.9747   53.9390   33.8069 C   0  0  1  0  0  0  0  0  0  0  0  0
   48.1377   52.7242   34.5393 O   0  0  0  0  0  0  0  0  0  0  0  0
   47.5682   55.0719   34.7412 C   0  0  1  0  0  0  0  0  0  0  0  0
   47.9086   54.7985   36.0954 O   0  0  0  0  0  0  0  0  0  0  0  0
   48.3193   56.3548   34.2293 C   0  0  2  0  0  0  0  0  0  0  0  0
   47.8930   55.5820   27.6939 O   0  0  0  0  0  0  0  0  0  0  0  0
   47.8923   60.8670   31.5760 N   0  0  0  0  0  0  0  0  0  0  0  0
   48.9972   60.3292   32.1043 C   0  0  0  0  0  0  0  0  0  0  0  0
   48.9620   59.1665   32.7361 N   0  0  0  0  0  0  0  0  0  0  0  0
   47.8109   58.4943   32.9014 C   0  0  0  0  0  0  0  0  0  0  0  0
   46.6096   59.0311   32.3712 C   0  0  0  0  0  0  0  0  0  0  0  0
   46.6947   60.2687   31.6846 C   0  0  0  0  0  0  0  0  0  0  0  0
   45.5710   60.8492   31.1405 N   0  0  0  0  0  0  0  0  0  0  0  0
   45.6153   58.1732   32.6752 N   0  0  0  0  0  0  0  0  0  0  0  0
   46.1062   57.1736   33.3476 C   0  0  0  0  0  0  0  0  0  0  0  0
   47.4559   57.3163   33.5121 N   0  0  0  0  0  0  0  0  0  0  0  0
  2  1  1  1  0  0  0
  2  3  1  0  0  0  0
  2  5  1  0  0  0  0
  3  4  1  0  0  0  0
  3 17  1  0  0  0  0
  5  6  1  0  0  0  0
  7  6  1  6  0  0  0
  7  8  1  0  0  0  0
  7  9  1  0  0  0  0
 10  9  1  6  0  0  0
 10 11  1  0  0  0  0
 10 12  1  0  0  0  0
 11 16  1  0  0  0  0
 12 13  1  1  0  0  0
 12 14  1  0  0  0  0
 14 15  1  1  0  0  0
 14 16  1  0  0  0  0
 16 27  1  6  0  0  0
 18 19  2  0  0  0  0
 18 23  1  0  0  0  0
 19 20  1  0  0  0  0
 20 21  2  0  0  0  0
 21 22  1  0  0  0  0
 21 27  1  0  0  0  0
 22 23  2  0  0  0  0
 22 25  1  0  0  0  0
 23 24  1  0  0  0  0
 25 26  2  0  0  0  0
 26 27  1  0  0  0  0
M  END
>  <CHROM.1>
123.80451935,51.92115983,135.91569466,-88.19869527,-80.89037814,38.58363296
-63.67847455,48.21866183,56.69104116,31.58747982,-1.72949429,-1.16014738
2.04555716

>  <Name>
ligand

>  <RI>
0

>  <Rbt.Current_Directory>
/home/itssahil/PROJECTS/Mol_Feturizer/New_Systems/rnas/2GIS

>  <Rbt.Executable>
rbdock ($Id: //depot/dev/client3/rdock/2013.1/src/exe/rbdock.cxx#4 $)

>  <Rbt.Library>
libRbt.so (2013.1, Build901 2013/11/27)

>  <Rbt.Parameter_File>
/export/apps/rDock/src/rDock_2013.1_src/data/scripts/dock_solv.prm

>  <Rbt.Receptor>
prm/pocket_docking_2.prm

>  <SCORE>
-14.9814

>  <SCORE.INTER>
-13.4505

>  <SCORE.INTER.CONST>
1

>  <SCORE.INTER.POLAR>
0

>  <SCORE.INTER.ROT>
7

>  <SCORE.INTER.SOLV>
15.8523

>  <SCORE.INTER.VDW>
-22.5178

>  <SCORE.INTER.norm>
-0.498165

>  <SCORE.INTRA>
-1.53114

>  <SCORE.INTRA.DIHEDRAL>
1.69201

>  <SCORE.INTRA.DIHEDRAL.0>
9.40024

>  <SCORE.INTRA.POLAR>
0

>  <SCORE.INTRA.POLAR.0>
0

>  <SCORE.INTRA.REPUL>
0

>  <SCORE.INTRA.REPUL.0>
0

>  <SCORE.INTRA.SOLV>
-0.355769

>  <SCORE.INTRA.SOLV.lig_0>
-47.1049

>  <SCORE.INTRA.VDW>
-2.19927

>  <SCORE.INTRA.VDW.0>
-1.50278

>  <SCORE.INTRA.norm>
-0.056709

>  <SCORE.RESTR>
0.000189432

>  <SCORE.RESTR.CAVITY>
0.000189432

>  <SCORE.RESTR.norm>
7.01599e-06

>  <SCORE.SYSTEM>
0

>  <SCORE.SYSTEM.CONST>
0

>  <SCORE.SYSTEM.DIHEDRAL>
0

>  <SCORE.SYSTEM.SOLV>
0

>  <SCORE.SYSTEM.norm>
0

>  <SCORE.heavy>
27

>  <SCORE.norm>
-0.554867

>  <RMSD>
1.990

$$$$
ligand
 OpenBabel11021811433D
libRbt.so/2013.1/901 2013/11/27
 27 29  0  0  0  0  0  0  0  0999 V2000
   48.4019   57.6050   29.1548 N   0  0  0  0  0  0  0  0  0  0  0  0
   49.7007   57.0315   29.5212 C   0  0  2  0  0  0  0  0  0  0  0  0
   50.2008   56.1480   28.3923 C   0  0  0  0  0  0  0  0  0  0  0  0
   51.3887   55.8432   28.3322 O   0  0  0  0  0  0  0  0  0  0  0  0
   49.5886   56.2080   30.8198 C   0  0  0  0  0  0  0  0  0  0  0  0
   48.4215   55.2298   30.6949 C   0  0  0  0  0  0  0  0  0  0  0  0
   48.8230   53.4769   31.0831 S   0  0  2  0  0  0  0  0  0  0  0  0
   47.6134   52.5209   30.1161 C   0  0  0  0  0  0  0  0  0  0  0  0
   48.0580   53.4656   32.7182 C   0  0  0  0  0  0  0  0  0  0  0  0
   48.9868   53.9585   33.8413 C   0  0  1  0  0  0  0  0  0  0  0  0
   49.6646   55.1724   33.4009 O   0  0  0  0  0  0  0  0  0  0  0  0
   48.0156   54.3898   34.9100 C   0  0  1  0  0  0  0  0  0  0  0  0
   47.8469   53.3402   35.8632 O   0  0  0  0  0  0  0  0  0  0  0  0
   48.6901   55.5925   35.5582 C   0  0  1  0  0  0  0  0  0  0  0  0
   49.3986   55.2376   36.7400 O   0  0  0  0  0  0  0  0  0  0  0  0
   49.6713   56.1805   34.4795 C   0  0  2  0  0  0  0  0  0  0  0  0
   49.4327   55.7871   27.5003 O   0  0  0  0  0  0  0  0  0  0  0  0
   45.7209   58.8685   32.2998 N   0  0  0  0  0  0  0  0  0  0  0  0
   45.6929   57.6235   32.7879 C   0  0  0  0  0  0  0  0  0  0  0  0
   46.7675   57.0730   33.3305 N   0  0  0  0  0  0  0  0  0  0  0  0
   47.9386   57.7288   33.3841 C   0  0  0  0  0  0  0  0  0  0  0  0
   48.0220   59.0469   32.8664 C   0  0  0  0  0  0  0  0  0  0  0  0
   46.8430   59.6064   32.3121 C   0  0  0  0  0  0  0  0  0  0  0  0
   46.8472   60.8818   31.7934 N   0  0  0  0  0  0  0  0  0  0  0  0
   49.2905   59.4689   33.0391 N   0  0  0  0  0  0  0  0  0  0  0  0
   49.9807   58.5226   33.6052 C   0  0  0  0  0  0  0  0  0  0  0  0
   49.1969   57.4285   33.8457 N   0  0  0  0  0  0  0  0  0  0  0  0
  2  1  1  6  0  0  0
  2  3  1  0  0  0  0
  2  5  1  0  0  0  0
  3  4  1  0  0  0  0
  3 17  1  0  0  0  0
  5  6  1  0  0  0  0
  7  6  1  6  0  0  0
  7  8  1  0  0  0  0
  7  9  1  0  0  0  0
 10  9  1  6  0  0  0
 10 11  1  0  0  0  0
 10 12  1  0  0  0  0
 11 16  1  0  0  0  0
 12 13  1  1  0  0  0
 12 14  1  0  0  0  0
 14 15  1  1  0  0  0
 14 16  1  0  0  0  0
 16 27  1  6  0  0  0
 18 19  2  0  0  0  0
 18 23  1  0  0  0  0
 19 20  1  0  0  0  0
 20 21  2  0  0  0  0
 21 22  1  0  0  0  0
 21 27  1  0  0  0  0
 22 23  2  0  0  0  0
 22 25  1  0  0  0  0
 23 24  1  0  0  0  0
 25 26  2  0  0  0  0
 26 27  1  0  0  0  0
M  END
>  <CHROM.1>
161.64945083,50.35893531,128.40407448,-153.26848247,-86.11427854,45.37404901
69.58302774,48.56995240,56.20314923,32.23504341,0.87851673,1.29009884,-0.86911954

>  <Name>
ligand

>  <RI>
0

>  <Rbt.Current_Directory>
/home/itssahil/PROJECTS/Mol_Feturizer/New_Systems/rnas/2GIS

>  <Rbt.Executable>
rbdock ($Id: //depot/dev/client3/rdock/2013.1/src/exe/rbdock.cxx#4 $)

>  <Rbt.Library>
libRbt.so (2013.1, Build901 2013/11/27)

>  <Rbt.Parameter_File>
/export/apps/rDock/src/rDock_2013.1_src/data/scripts/dock_solv.prm

>  <Rbt.Receptor>
prm/pocket_docking_3.prm

>  <SCORE>
-15.6774

>  <SCORE.INTER>
-13.8581

>  <SCORE.INTER.CONST>
1

>  <SCORE.INTER.POLAR>
0

>  <SCORE.INTER.ROT>
7

>  <SCORE.INTER.SOLV>
15.1065

>  <SCORE.INTER.VDW>
-22.5409

>  <SCORE.INTER.norm>
-0.513262

>  <SCORE.INTRA>
-1.82715

>  <SCORE.INTRA.DIHEDRAL>
3.93023

>  <SCORE.INTRA.DIHEDRAL.0>
9.40024

>  <SCORE.INTRA.POLAR>
0

>  <SCORE.INTRA.POLAR.0>
0

>  <SCORE.INTRA.REPUL>
0

>  <SCORE.INTRA.REPUL.0>
0

>  <SCORE.INTRA.SOLV>
-1.99496

>  <SCORE.INTRA.SOLV.lig_0>
-47.1049

>  <SCORE.INTRA.VDW>
-2.79479

>  <SCORE.INTRA.VDW.0>
-1.50278

>  <SCORE.INTRA.norm>
-0.0676723

>  <SCORE.RESTR>
0.00787011

>  <SCORE.RESTR.CAVITY>
0.00787011

>  <SCORE.RESTR.norm>
0.000291486

>  <SCORE.SYSTEM>
0

>  <SCORE.SYSTEM.CONST>
0

>  <SCORE.SYSTEM.DIHEDRAL>
0

>  <SCORE.SYSTEM.SOLV>
0

>  <SCORE.SYSTEM.norm>
0

>  <SCORE.heavy>
27

>  <SCORE.norm>
-0.580643

>  <RMSD>
2.023

$$$$
ligand
 OpenBabel11021811433D
libRbt.so/2013.1/901 2013/11/27
 27 29  0  0  0  0  0  0  0  0999 V2000
   48.8192   56.9195   26.4360 N   0  0  0  0  0  0  0  0  0  0  0  0
   48.6521   56.9123   27.8927 C   0  0  2  0  0  0  0  0  0  0  0  0
   48.5818   58.3411   28.4014 C   0  0  0  0  0  0  0  0  0  0  0  0
   49.0382   58.6220   29.5061 O   0  0  0  0  0  0  0  0  0  0  0  0
   49.8197   56.1712   28.5740 C   0  0  0  0  0  0  0  0  0  0  0  0
   49.3714   55.6876   29.9524 C   0  0  0  0  0  0  0  0  0  0  0  0
   50.3159   54.2607   30.6278 S   0  0  2  0  0  0  0  0  0  0  0  0
   50.1659   52.9816   29.3419 C   0  0  0  0  0  0  0  0  0  0  0  0
   49.0489   53.7340   31.8010 C   0  0  0  0  0  0  0  0  0  0  0  0
   49.2263   54.3220   33.2116 C   0  0  1  0  0  0  0  0  0  0  0  0
   49.2681   55.7769   33.1196 O   0  0  0  0  0  0  0  0  0  0  0  0
   47.9173   53.9856   33.8785 C   0  0  1  0  0  0  0  0  0  0  0  0
   48.0566   52.7870   34.6418 O   0  0  0  0  0  0  0  0  0  0  0  0
   47.6553   55.1727   34.7971 C   0  0  1  0  0  0  0  0  0  0  0  0
   48.0780   54.9213   36.1322 O   0  0  0  0  0  0  0  0  0  0  0  0
   48.4465   56.3856   34.1846 C   0  0  2  0  0  0  0  0  0  0  0  0
   48.0122   59.2082   27.7384 O   0  0  0  0  0  0  0  0  0  0  0  0
   48.1010   60.8897   31.5060 N   0  0  0  0  0  0  0  0  0  0  0  0
   49.2036   60.3074   31.9899 C   0  0  0  0  0  0  0  0  0  0  0  0
   49.1454   59.1529   32.6348 N   0  0  0  0  0  0  0  0  0  0  0  0
   47.9742   58.5344   32.8585 C   0  0  0  0  0  0  0  0  0  0  0  0
   46.7752   59.1200   32.3769 C   0  0  0  0  0  0  0  0  0  0  0  0
   46.8841   60.3467   31.6743 C   0  0  0  0  0  0  0  0  0  0  0  0
   45.7638   60.9723   31.1750 N   0  0  0  0  0  0  0  0  0  0  0  0
   45.7586   58.3101   32.7340 N   0  0  0  0  0  0  0  0  0  0  0  0
   46.2345   57.2952   33.3943 C   0  0  0  0  0  0  0  0  0  0  0  0
   47.5952   57.3787   33.4967 N   0  0  0  0  0  0  0  0  0  0  0  0
  2  1  1  6  0  0  0
  2  3  1  0  0  0  0
  2  5  1  0  0  0  0
  3  4  1  0  0  0  0
  3 17  1  0  0  0  0
  5  6  1  0  0  0  0
  7  6  1  6  0  0  0
  7  8  1  0  0  0  0
  7  9  1  0  0  0  0
 10  9  1  6  0  0  0
 10 11  1  0  0  0  0
 10 12  1  0  0  0  0
 11 16  1  0  0  0  0
 12 13  1  1  0  0  0
 12 14  1  0  0  0  0
 14 15  1  1  0  0  0
 14 16  1  0  0  0  0
 16 27  1  6  0  0  0
 18 19  2  0  0  0  0
 18 23  1  0  0  0  0
 19 20  1  0  0  0  0
 20 21  2  0  0  0  0
 21 22  1  0  0  0  0
 21 27  1  0  0  0  0
 22 23  2  0  0  0  0
 22 25  1  0  0  0  0
 23 24  1  0  0  0  0
 25 26  2  0  0  0  0
 26 27  1  0  0  0  0
M  END
>  <CHROM.1>
-146.84586462,-157.29884511,156.55855308,-55.69494309,-93.60187575,55.96858548
-66.18376700,48.41651573,56.78532316,31.57566927,-1.79221664,-1.13983962
2.24775618

>  <Name>
ligand

>  <RI>
0

>  <Rbt.Current_Directory>
/home/itssahil/PROJECTS/Mol_Feturizer/New_Systems/rnas/2GIS

>  <Rbt.Executable>
rbdock ($Id: //depot/dev/client3/rdock/2013.1/src/exe/rbdock.cxx#4 $)

>  <Rbt.Library>
libRbt.so (2013.1, Build901 2013/11/27)

>  <Rbt.Parameter_File>
/export/apps/rDock/src/rDock_2013.1_src/data/scripts/dock_solv.prm

>  <Rbt.Receptor>
prm/pocket_docking_2.prm

>  <SCORE>
-16.8691

>  <SCORE.INTER>
-14.1587

>  <SCORE.INTER.CONST>
1

>  <SCORE.INTER.POLAR>
0

>  <SCORE.INTER.ROT>
7

>  <SCORE.INTER.SOLV>
20.5914

>  <SCORE.INTER.VDW>
-24.5696

>  <SCORE.INTER.norm>
-0.524398

>  <SCORE.INTRA>
-2.73762

>  <SCORE.INTRA.DIHEDRAL>
-0.347114

>  <SCORE.INTRA.DIHEDRAL.0>
9.40024

>  <SCORE.INTRA.POLAR>
0

>  <SCORE.INTRA.POLAR.0>
0

>  <SCORE.INTRA.REPUL>
0

>  <SCORE.INTRA.REPUL.0>
0

>  <SCORE.INTRA.SOLV>
-3.03281

>  <SCORE.INTRA.SOLV.lig_0>
-47.1049

>  <SCORE.INTRA.VDW>
-1.04766

>  <SCORE.INTRA.VDW.0>
-1.50278

>  <SCORE.INTRA.norm>
-0.101393

>  <SCORE.RESTR>
0.0273045

>  <SCORE.RESTR.CAVITY>
0.0273045

>  <SCORE.RESTR.norm>
0.00101128

>  <SCORE.SYSTEM>
0

>  <SCORE.SYSTEM.CONST>
0

>  <SCORE.SYSTEM.DIHEDRAL>
0

>  <SCORE.SYSTEM.SOLV>
0

>  <SCORE.SYSTEM.norm>
0

>  <SCORE.heavy>
27

>  <SCORE.norm>
-0.62478

>  <RMSD>
2.029

$$$$
ligand
 OpenBabel11021811433D
libRbt.so/2013.1/901 2013/11/27
 27 29  0  0  0  0  0  0  0  0999 V2000
   49.3460   56.9398   28.5452 N   0  0  0  0  0  0  0  0  0  0  0  0
   50.2660   55.8031   28.4386 C   0  0  2  0  0  0  0  0  0  0  0  0
   50.8150   55.7268   27.0251 C   0  0  0  0  0  0  0  0  0  0  0  0
   52.0146   55.5396   26.8423 O   0  0  0  0  0  0  0  0  0  0  0  0
   49.5505   54.4845   28.7939 C   0  0  0  0  0  0  0  0  0  0  0  0
   49.0865   54.5412   30.2486 C   0  0  0  0  0  0  0  0  0  0  0  0
   48.1523   53.0674   30.8313 S   0  0  2  0  0  0  0  0  0  0  0  0
   46.6583   53.0506   29.7922 C   0  0  0  0  0  0  0  0  0  0  0  0
   47.5238   53.8278   32.3432 C   0  0  0  0  0  0  0  0  0  0  0  0
   48.6153   54.1370   33.3824 C   0  0  1  0  0  0  0  0  0  0  0  0
   49.4091   55.2687   32.9175 O   0  0  0  0  0  0  0  0  0  0  0  0
   47.8201   54.6430   34.5585 C   0  0  1  0  0  0  0  0  0  0  0  0
   47.6001   53.5811   35.4872 O   0  0  0  0  0  0  0  0  0  0  0  0
   48.7136   55.7118   35.1758 C   0  0  1  0  0  0  0  0  0  0  0  0
   49.4763   55.2088   36.2666 O   0  0  0  0  0  0  0  0  0  0  0  0
   49.6586   56.2139   34.0239 C   0  0  2  0  0  0  0  0  0  0  0  0
   50.0733   55.9150   26.0606 O   0  0  0  0  0  0  0  0  0  0  0  0
   45.9542   59.4456   32.1758 N   0  0  0  0  0  0  0  0  0  0  0  0
   45.8062   58.1829   32.5912 C   0  0  0  0  0  0  0  0  0  0  0  0
   46.8320   57.4862   33.0543 N   0  0  0  0  0  0  0  0  0  0  0  0
   48.0697   58.0065   33.0959 C   0  0  0  0  0  0  0  0  0  0  0  0
   48.2799   59.3376   32.6529 C   0  0  0  0  0  0  0  0  0  0  0  0
   47.1510   60.0553   32.1831 C   0  0  0  0  0  0  0  0  0  0  0  0
   47.2777   61.3528   31.7400 N   0  0  0  0  0  0  0  0  0  0  0  0
   49.5928   59.6080   32.7955 N   0  0  0  0  0  0  0  0  0  0  0  0
   50.1939   58.5588   33.2753 C   0  0  0  0  0  0  0  0  0  0  0  0
   49.3029   57.5432   33.4848 N   0  0  0  0  0  0  0  0  0  0  0  0
  2  1  1  6  0  0  0
  2  3  1  0  0  0  0
  2  5  1  0  0  0  0
  3  4  1  0  0  0  0
  3 17  1  0  0  0  0
  5  6  1  0  0  0  0
  7  6  1  6  0  0  0
  7  8  1  0  0  0  0
  7  9  1  0  0  0  0
 10  9  1  6  0  0  0
 10 11  1  0  0  0  0
 10 12  1  0  0  0  0
 11 16  1  0  0  0  0
 12 13  1  1  0  0  0
 12 14  1  0  0  0  0
 14 15  1  1  0  0  0
 14 16  1  0  0  0  0
 16 27  1  6  0  0  0
 18 19  2  0  0  0  0
 18 23  1  0  0  0  0
 19 20  1  0  0  0  0
 20 21  2  0  0  0  0
 21 22  1  0  0  0  0
 21 27  1  0  0  0  0
 22 23  2  0  0  0  0
 22 25  1  0  0  0  0
 23 24  1  0  0  0  0
 25 26  2  0  0  0  0
 26 27  1  0  0  0  0
M  END
>  <CHROM.1>
134.79740737,-62.68243994,177.84093073,-62.99756760,-67.41346696,72.40175081
65.67238511,48.64128629,56.17456526,31.69629840,-0.03548661,1.28586730,-0.27035736

>  <Name>
ligand

>  <RI>
0

>  <Rbt.Current_Directory>
/home/itssahil/PROJECTS/Mol_Feturizer/New_Systems/rnas/2GIS

>  <Rbt.Executable>
rbdock ($Id: //depot/dev/client3/rdock/2013.1/src/exe/rbdock.cxx#4 $)

>  <Rbt.Library>
libRbt.so (2013.1, Build901 2013/11/27)

>  <Rbt.Parameter_File>
/export/apps/rDock/src/rDock_2013.1_src/data/scripts/dock_solv.prm

>  <Rbt.Receptor>
prm/pocket_docking_4.prm

>  <SCORE>
-17.4189

>  <SCORE.INTER>
-12.5746

>  <SCORE.INTER.CONST>
1

>  <SCORE.INTER.POLAR>
0

>  <SCORE.INTER.ROT>
7

>  <SCORE.INTER.SOLV>
17.2771

>  <SCORE.INTER.VDW>
-22.4088

>  <SCORE.INTER.norm>
-0.465726

>  <SCORE.INTRA>
-4.85034

>  <SCORE.INTRA.DIHEDRAL>
-5.45187

>  <SCORE.INTRA.DIHEDRAL.0>
9.40024

>  <SCORE.INTRA.POLAR>
0

>  <SCORE.INTRA.POLAR.0>
0

>  <SCORE.INTRA.REPUL>
0

>  <SCORE.INTRA.REPUL.0>
0

>  <SCORE.INTRA.SOLV>
-2.29699

>  <SCORE.INTRA.SOLV.lig_0>
-47.1049

>  <SCORE.INTRA.VDW>
-0.975909

>  <SCORE.INTRA.VDW.0>
-1.50278

>  <SCORE.INTRA.norm>
-0.179642

>  <SCORE.RESTR>
0.00602817

>  <SCORE.RESTR.CAVITY>
0.00602817

>  <SCORE.RESTR.norm>
0.000223265

>  <SCORE.SYSTEM>
0

>  <SCORE.SYSTEM.CONST>
0

>  <SCORE.SYSTEM.DIHEDRAL>
0

>  <SCORE.SYSTEM.SOLV>
0

>  <SCORE.SYSTEM.norm>
0

>  <SCORE.heavy>
27

>  <SCORE.norm>
-0.645145

>  <RMSD>
2.034

$$$$
ligand
 OpenBabel11021811433D
libRbt.so/2013.1/901 2013/11/27
 27 29  0  0  0  0  0  0  0  0999 V2000
   47.2046   57.7151   27.1320 N   0  0  0  0  0  0  0  0  0  0  0  0
   47.7261   57.0301   28.3190 C   0  0  2  0  0  0  0  0  0  0  0  0
   48.6734   57.9552   29.0622 C   0  0  0  0  0  0  0  0  0  0  0  0
   49.0996   58.9669   28.5125 O   0  0  0  0  0  0  0  0  0  0  0  0
   48.4626   55.7346   27.9240 C   0  0  0  0  0  0  0  0  0  0  0  0
   48.4011   54.7471   29.0883 C   0  0  0  0  0  0  0  0  0  0  0  0
   49.8364   54.8003   30.2379 S   0  0  2  0  0  0  0  0  0  0  0  0
   50.9847   53.5561   29.5706 C   0  0  0  0  0  0  0  0  0  0  0  0
   49.0455   53.8741   31.5704 C   0  0  0  0  0  0  0  0  0  0  0  0
   49.3052   54.4570   32.9704 C   0  0  1  0  0  0  0  0  0  0  0  0
   49.3051   55.9130   32.8880 O   0  0  0  0  0  0  0  0  0  0  0  0
   48.0537   54.0837   33.7227 C   0  0  1  0  0  0  0  0  0  0  0  0
   48.2744   52.8838   34.4646 O   0  0  0  0  0  0  0  0  0  0  0  0
   47.8266   55.2577   34.6670 C   0  0  1  0  0  0  0  0  0  0  0  0
   48.3462   55.0079   35.9679 O   0  0  0  0  0  0  0  0  0  0  0  0
   48.5441   56.4939   34.0119 C   0  0  2  0  0  0  0  0  0  0  0  0
   49.0668   57.6629   30.1916 O   0  0  0  0  0  0  0  0  0  0  0  0
   47.8968   61.0595   31.4983 N   0  0  0  0  0  0  0  0  0  0  0  0
   49.0424   60.5108   31.9173 C   0  0  0  0  0  0  0  0  0  0  0  0
   49.0600   59.3354   32.5259 N   0  0  0  0  0  0  0  0  0  0  0  0
   47.9263   58.6603   32.7772 C   0  0  0  0  0  0  0  0  0  0  0  0
   46.6845   59.2081   32.3646 C   0  0  0  0  0  0  0  0  0  0  0  0
   46.7120   60.4595   31.6986 C   0  0  0  0  0  0  0  0  0  0  0  0
   45.5463   61.0512   31.2665 N   0  0  0  0  0  0  0  0  0  0  0  0
   45.7187   58.3444   32.7366 N   0  0  0  0  0  0  0  0  0  0  0  0
   46.2643   57.3312   33.3432 C   0  0  0  0  0  0  0  0  0  0  0  0
   47.6235   57.4701   33.3924 N   0  0  0  0  0  0  0  0  0  0  0  0
  2  1  1  6  0  0  0
  2  3  1  0  0  0  0
  2  5  1  0  0  0  0
  3  4  1  0  0  0  0
  3 17  1  0  0  0  0
  5  6  1  0  0  0  0
  7  6  1  6  0  0  0
  7  8  1  0  0  0  0
  7  9  1  0  0  0  0
 10  9  1  6  0  0  0
 10 11  1  0  0  0  0
 10 12  1  0  0  0  0
 11 16  1  0  0  0  0
 12 13  1  1  0  0  0
 12 14  1  0  0  0  0
 14 15  1  1  0  0  0
 14 16  1  0  0  0  0
 16 27  1  6  0  0  0
 18 19  2  0  0  0  0
 18 23  1  0  0  0  0
 19 20  1  0  0  0  0
 20 21  2  0  0  0  0
 21 22  1  0  0  0  0
 21 27  1  0  0  0  0
 22 23  2  0  0  0  0
 22 25  1  0  0  0  0
 23 24  1  0  0  0  0
 25 26  2  0  0  0  0
 26 27  1  0  0  0  0
M  END
>  <CHROM.1>
-14.56723324,-153.15292903,-93.23718323,-92.17781299,-137.32447510,37.53834347
-68.50262420,48.29003707,56.84344527,31.55180556,-2.23498102,-1.18474504
2.07543743

>  <Name>
ligand

>  <RI>
0

>  <Rbt.Current_Directory>
/home/itssahil/PROJECTS/Mol_Feturizer/New_Systems/rnas/2GIS

>  <Rbt.Executable>
rbdock ($Id: //depot/dev/client3/rdock/2013.1/src/exe/rbdock.cxx#4 $)

>  <Rbt.Library>
libRbt.so (2013.1, Build901 2013/11/27)

>  <Rbt.Parameter_File>
/export/apps/rDock/src/rDock_2013.1_src/data/scripts/dock_solv.prm

>  <Rbt.Receptor>
prm/pocket_docking_2.prm

>  <SCORE>
-13.0201

>  <SCORE.INTER>
-11.9443

>  <SCORE.INTER.CONST>
1

>  <SCORE.INTER.POLAR>
0

>  <SCORE.INTER.ROT>
7

>  <SCORE.INTER.SOLV>
19.6006

>  <SCORE.INTER.VDW>
-22.7631

>  <SCORE.INTER.norm>
-0.442382

>  <SCORE.INTRA>
-1.09092

>  <SCORE.INTRA.DIHEDRAL>
6.50699

>  <SCORE.INTRA.DIHEDRAL.0>
9.40024

>  <SCORE.INTRA.POLAR>
0

>  <SCORE.INTRA.POLAR.0>
0

>  <SCORE.INTRA.REPUL>
0

>  <SCORE.INTRA.REPUL.0>
0

>  <SCORE.INTRA.SOLV>
-2.89884

>  <SCORE.INTRA.SOLV.lig_0>
-47.1049

>  <SCORE.INTRA.VDW>
-2.895

>  <SCORE.INTRA.VDW.0>
-1.50278

>  <SCORE.INTRA.norm>
-0.0404045

>  <SCORE.RESTR>
0.015154

>  <SCORE.RESTR.CAVITY>
0.015154

>  <SCORE.RESTR.norm>
0.00056126

>  <SCORE.SYSTEM>
0

>  <SCORE.SYSTEM.CONST>
0

>  <SCORE.SYSTEM.DIHEDRAL>
0

>  <SCORE.SYSTEM.SOLV>
0

>  <SCORE.SYSTEM.norm>
0

>  <SCORE.heavy>
27

>  <SCORE.norm>
-0.482225

>  <RMSD>
2.138

$$$$
ligand
 OpenBabel11021811433D
libRbt.so/2013.1/901 2013/11/27
 27 29  0  0  0  0  0  0  0  0999 V2000
   52.4303   54.5245   26.3669 N   0  0  0  0  0  0  0  0  0  0  0  0
   51.0457   54.3279   26.8076 C   0  0  2  0  0  0  0  0  0  0  0  0
   50.3098   55.6555   26.7729 C   0  0  0  0  0  0  0  0  0  0  0  0
   49.4180   55.8410   25.9497 O   0  0  0  0  0  0  0  0  0  0  0  0
   51.0029   53.7429   28.2334 C   0  0  0  0  0  0  0  0  0  0  0  0
   49.5624   53.3693   28.5798 C   0  0  0  0  0  0  0  0  0  0  0  0
   49.2451   53.0392   30.3615 S   0  0  2  0  0  0  0  0  0  0  0  0
   47.4504   52.7489   30.4455 C   0  0  0  0  0  0  0  0  0  0  0  0
   49.3510   54.7607   30.8944 C   0  0  0  0  0  0  0  0  0  0  0  0
   49.6040   54.9292   32.4026 C   0  0  1  0  0  0  0  0  0  0  0  0
   50.1032   56.2761   32.6545 O   0  0  0  0  0  0  0  0  0  0  0  0
   48.2123   54.8876   32.9794 C   0  0  1  0  0  0  0  0  0  0  0  0
   47.9178   53.5683   33.4391 O   0  0  0  0  0  0  0  0  0  0  0  0
   48.2698   55.8583   34.1525 C   0  0  1  0  0  0  0  0  0  0  0  0
   48.4990   55.1924   35.3888 O   0  0  0  0  0  0  0  0  0  0  0  0
   49.4400   56.8599   33.8373 C   0  0  2  0  0  0  0  0  0  0  0  0
   50.6457   56.5706   27.5249 O   0  0  0  0  0  0  0  0  0  0  0  0
   45.8384   59.7977   31.3921 N   0  0  0  0  0  0  0  0  0  0  0  0
   45.8374   58.4704   31.5574 C   0  0  0  0  0  0  0  0  0  0  0  0
   46.8085   57.8586   32.2168 N   0  0  0  0  0  0  0  0  0  0  0  0
   47.8513   58.5404   32.7188 C   0  0  0  0  0  0  0  0  0  0  0  0
   47.9045   59.9486   32.5567 C   0  0  0  0  0  0  0  0  0  0  0  0
   46.8345   60.5667   31.8616 C   0  0  0  0  0  0  0  0  0  0  0  0
   46.8163   61.9298   31.6684 N   0  0  0  0  0  0  0  0  0  0  0  0
   49.0398   60.3797   33.1419 N   0  0  0  0  0  0  0  0  0  0  0  0
   49.6794   59.3592   33.6336 C   0  0  0  0  0  0  0  0  0  0  0  0
   48.9905   58.2003   33.4068 N   0  0  0  0  0  0  0  0  0  0  0  0
  2  1  1  1  0  0  0
  2  3  1  0  0  0  0
  2  5  1  0  0  0  0
  3  4  1  0  0  0  0
  3 17  1  0  0  0  0
  5  6  1  0  0  0  0
  7  6  1  6  0  0  0
  7  8  1  0  0  0  0
  7  9  1  0  0  0  0
 10  9  1  6  0  0  0
 10 11  1  0  0  0  0
 10 12  1  0  0  0  0
 11 16  1  0  0  0  0
 12 13  1  1  0  0  0
 12 14  1  0  0  0  0
 14 15  1  1  0  0  0
 14 16  1  0  0  0  0
 16 27  1  6  0  0  0
 18 19  2  0  0  0  0
 18 23  1  0  0  0  0
 19 20  1  0  0  0  0
 20 21  2  0  0  0  0
 21 22  1  0  0  0  0
 21 27  1  0  0  0  0
 22 23  2  0  0  0  0
 22 25  1  0  0  0  0
 23 24  1  0  0  0  0
 25 26  2  0  0  0  0
 26 27  1  0  0  0  0
M  END
>  <CHROM.1>
111.35985089,-172.07920729,-165.86400049,176.08568581,-160.76677092,161.48083845
82.85476721,48.86452607,56.31007053,31.08110512,-0.09316943,1.21500782,-0.67036794

>  <Name>
ligand

>  <RI>
0

>  <Rbt.Current_Directory>
/home/itssahil/PROJECTS/Mol_Feturizer/New_Systems/rnas/2GIS

>  <Rbt.Executable>
rbdock ($Id: //depot/dev/client3/rdock/2013.1/src/exe/rbdock.cxx#4 $)

>  <Rbt.Library>
libRbt.so (2013.1, Build901 2013/11/27)

>  <Rbt.Parameter_File>
/export/apps/rDock/src/rDock_2013.1_src/data/scripts/dock_solv.prm

>  <Rbt.Receptor>
prm/pocket_docking_5.prm

>  <SCORE>
-15.7141

>  <SCORE.INTER>
-11.7667

>  <SCORE.INTER.CONST>
1

>  <SCORE.INTER.POLAR>
0

>  <SCORE.INTER.ROT>
7

>  <SCORE.INTER.SOLV>
18.785

>  <SCORE.INTER.VDW>
-22.3728

>  <SCORE.INTER.norm>
-0.435803

>  <SCORE.INTRA>
-3.9474

>  <SCORE.INTRA.DIHEDRAL>
-2.39329

>  <SCORE.INTRA.DIHEDRAL.0>
9.40024

>  <SCORE.INTRA.POLAR>
0

>  <SCORE.INTRA.POLAR.0>
0

>  <SCORE.INTRA.REPUL>
0

>  <SCORE.INTRA.REPUL.0>
0

>  <SCORE.INTRA.SOLV>
-2.81349

>  <SCORE.INTRA.SOLV.lig_0>
-47.1049

>  <SCORE.INTRA.VDW>
-1.34402

>  <SCORE.INTRA.VDW.0>
-1.50278

>  <SCORE.INTRA.norm>
-0.1462

>  <SCORE.RESTR>
0

>  <SCORE.RESTR.CAVITY>
0

>  <SCORE.RESTR.norm>
0

>  <SCORE.SYSTEM>
0

>  <SCORE.SYSTEM.CONST>
0

>  <SCORE.SYSTEM.DIHEDRAL>
0

>  <SCORE.SYSTEM.SOLV>
0

>  <SCORE.SYSTEM.norm>
0

>  <SCORE.heavy>
27

>  <SCORE.norm>
-0.582003

>  <RMSD>
2.187

$$$$
ligand
 OpenBabel11021811433D
libRbt.so/2013.1/901 2013/11/27
 27 29  0  0  0  0  0  0  0  0999 V2000
   49.3848   54.0614   26.9510 N   0  0  0  0  0  0  0  0  0  0  0  0
   48.8007   55.1916   27.6799 C   0  0  2  0  0  0  0  0  0  0  0  0
   48.4200   56.2852   26.6978 C   0  0  0  0  0  0  0  0  0  0  0  0
   49.0609   57.3320   26.6668 O   0  0  0  0  0  0  0  0  0  0  0  0
   49.7953   55.7452   28.7197 C   0  0  0  0  0  0  0  0  0  0  0  0
   49.3444   55.3266   30.1183 C   0  0  0  0  0  0  0  0  0  0  0  0
   49.8899   53.6518   30.6491 S   0  0  2  0  0  0  0  0  0  0  0  0
   49.1895   52.5385   29.3913 C   0  0  0  0  0  0  0  0  0  0  0  0
   48.6889   53.4768   31.9855 C   0  0  0  0  0  0  0  0  0  0  0  0
   49.0831   54.2174   33.2752 C   0  0  1  0  0  0  0  0  0  0  0  0
   49.1832   55.6448   32.9933 O   0  0  0  0  0  0  0  0  0  0  0  0
   47.8610   54.0499   34.1410 C   0  0  1  0  0  0  0  0  0  0  0  0
   48.0430   52.9453   35.0272 O   0  0  0  0  0  0  0  0  0  0  0  0
   47.7833   55.3535   34.9261 C   0  0  1  0  0  0  0  0  0  0  0  0
   48.3690   55.2374   36.2176 O   0  0  0  0  0  0  0  0  0  0  0  0
   48.5431   56.4295   34.0677 C   0  0  2  0  0  0  0  0  0  0  0  0
   47.4318   56.1535   25.9753 O   0  0  0  0  0  0  0  0  0  0  0  0
   48.0145   60.9676   31.4777 N   0  0  0  0  0  0  0  0  0  0  0  0
   49.1337   60.4409   31.9866 C   0  0  0  0  0  0  0  0  0  0  0  0
   49.1242   59.2699   32.6037 N   0  0  0  0  0  0  0  0  0  0  0  0
   47.9858   58.5773   32.7733 C   0  0  0  0  0  0  0  0  0  0  0  0
   46.7702   59.1015   32.2635 C   0  0  0  0  0  0  0  0  0  0  0  0
   46.8278   60.3489   31.5920 C   0  0  0  0  0  0  0  0  0  0  0  0
   45.6889   60.9182   31.0681 N   0  0  0  0  0  0  0  0  0  0  0  0
   45.7932   58.2240   32.5675 N   0  0  0  0  0  0  0  0  0  0  0  0
   46.3075   57.2239   33.2215 C   0  0  0  0  0  0  0  0  0  0  0  0
   47.6565   57.3861   33.3727 N   0  0  0  0  0  0  0  0  0  0  0  0
  2  1  1  6  0  0  0
  2  3  1  0  0  0  0
  2  5  1  0  0  0  0
  3  4  1  0  0  0  0
  3 17  1  0  0  0  0
  5  6  1  0  0  0  0
  7  6  1  6  0  0  0
  7  8  1  0  0  0  0
  7  9  1  0  0  0  0
 10  9  1  6  0  0  0
 10 11  1  0  0  0  0
 10 12  1  0  0  0  0
 11 16  1  0  0  0  0
 12 13  1  1  0  0  0
 12 14  1  0  0  0  0
 14 15  1  1  0  0  0
 14 16  1  0  0  0  0
 16 27  1  6  0  0  0
 18 19  2  0  0  0  0
 18 23  1  0  0  0  0
 19 20  1  0  0  0  0
 20 21  2  0  0  0  0
 21 22  1  0  0  0  0
 21 27  1  0  0  0  0
 22 23  2  0  0  0  0
 22 25  1  0  0  0  0
 23 24  1  0  0  0  0
 25 26  2  0  0  0  0
 26 27  1  0  0  0  0
M  END
>  <CHROM.1>
-109.31210385,-106.08885878,84.55690195,-58.75120883,-79.70722873,61.29210241
-80.57671172,48.33073847,56.30461074,31.36242869,-0.89595857,-1.27445979
1.93884334

>  <Name>
ligand

>  <RI>
0

>  <Rbt.Current_Directory>
/home/itssahil/PROJECTS/Mol_Feturizer/New_Systems/rnas/2GIS

>  <Rbt.Executable>
rbdock ($Id: //depot/dev/client3/rdock/2013.1/src/exe/rbdock.cxx#4 $)

>  <Rbt.Library>
libRbt.so (2013.1, Build901 2013/11/27)

>  <Rbt.Parameter_File>
/export/apps/rDock/src/rDock_2013.1_src/data/scripts/dock_solv.prm

>  <Rbt.Receptor>
prm/pocket_docking_2.prm

>  <SCORE>
-11.612

>  <SCORE.INTER>
-13.0611

>  <SCORE.INTER.CONST>
1

>  <SCORE.INTER.POLAR>
0

>  <SCORE.INTER.ROT>
7

>  <SCORE.INTER.SOLV>
15.6518

>  <SCORE.INTER.VDW>
-22.1913

>  <SCORE.INTER.norm>
-0.483745

>  <SCORE.INTRA>
1.27656

>  <SCORE.INTRA.DIHEDRAL>
1.73584

>  <SCORE.INTRA.DIHEDRAL.0>
9.40024

>  <SCORE.INTRA.POLAR>
0

>  <SCORE.INTRA.POLAR.0>
0

>  <SCORE.INTRA.REPUL>
0

>  <SCORE.INTRA.REPUL.0>
0

>  <SCORE.INTRA.SOLV>
-0.633534

>  <SCORE.INTRA.SOLV.lig_0>
-47.1049

>  <SCORE.INTRA.VDW>
0.725402

>  <SCORE.INTRA.VDW.0>
-1.50278

>  <SCORE.INTRA.norm>
0.0472799

>  <SCORE.RESTR>
0.172582

>  <SCORE.RESTR.CAVITY>
0.172582

>  <SCORE.RESTR.norm>
0.00639192

>  <SCORE.SYSTEM>
0

>  <SCORE.SYSTEM.CONST>
0

>  <SCORE.SYSTEM.DIHEDRAL>
0

>  <SCORE.SYSTEM.SOLV>
0

>  <SCORE.SYSTEM.norm>
0

>  <SCORE.heavy>
27

>  <SCORE.norm>
-0.430073

>  <RMSD>
2.192

$$$$
ligand
 OpenBabel11021811433D
libRbt.so/2013.1/901 2013/11/27
 27 29  0  0  0  0  0  0  0  0999 V2000
   47.7300   56.3965   29.0243 N   0  0  0  0  0  0  0  0  0  0  0  0
   48.7197   55.8768   28.0754 C   0  0  2  0  0  0  0  0  0  0  0  0
   48.3796   56.3562   26.6755 C   0  0  0  0  0  0  0  0  0  0  0  0
   48.9662   57.3240   26.1992 O   0  0  0  0  0  0  0  0  0  0  0  0
   48.7520   54.3357   28.1073 C   0  0  0  0  0  0  0  0  0  0  0  0
   49.3721   53.8736   29.4250 C   0  0  0  0  0  0  0  0  0  0  0  0
   48.8318   54.8068   30.9155 S   0  0  2  0  0  0  0  0  0  0  0  0
   49.9519   56.2401   30.9709 C   0  0  0  0  0  0  0  0  0  0  0  0
   49.6055   53.7056   32.1186 C   0  0  0  0  0  0  0  0  0  0  0  0
   49.4350   54.1626   33.5778 C   0  0  1  0  0  0  0  0  0  0  0  0
   49.5128   55.6178   33.6336 O   0  0  0  0  0  0  0  0  0  0  0  0
   47.9985   53.8121   33.8696 C   0  0  1  0  0  0  0  0  0  0  0  0
   47.9329   52.5478   34.5297 O   0  0  0  0  0  0  0  0  0  0  0  0
   47.5296   54.9227   34.8016 C   0  0  1  0  0  0  0  0  0  0  0  0
   47.6070   54.5424   36.1705 O   0  0  0  0  0  0  0  0  0  0  0  0
   48.4598   56.1579   34.5163 C   0  0  2  0  0  0  0  0  0  0  0  0
   47.4734   55.8185   26.0388 O   0  0  0  0  0  0  0  0  0  0  0  0
   48.9590   60.6090   31.7741 N   0  0  0  0  0  0  0  0  0  0  0  0
   49.9247   59.9042   32.3739 C   0  0  0  0  0  0  0  0  0  0  0  0
   49.6560   58.7807   33.0202 N   0  0  0  0  0  0  0  0  0  0  0  0
   48.3994   58.3189   33.1286 C   0  0  0  0  0  0  0  0  0  0  0  0
   47.3388   59.0391   32.5213 C   0  0  0  0  0  0  0  0  0  0  0  0
   47.6724   60.2265   31.8220 C   0  0  0  0  0  0  0  0  0  0  0  0
   46.6964   60.9762   31.2048 N   0  0  0  0  0  0  0  0  0  0  0  0
   46.1970   58.3711   32.7801 N   0  0  0  0  0  0  0  0  0  0  0  0
   46.4716   57.3196   33.4951 C   0  0  0  0  0  0  0  0  0  0  0  0
   47.8147   57.2342   33.7356 N   0  0  0  0  0  0  0  0  0  0  0  0
  2  1  1  1  0  0  0
  2  3  1  0  0  0  0
  2  5  1  0  0  0  0
  3  4  1  0  0  0  0
  3 17  1  0  0  0  0
  5  6  1  0  0  0  0
  7  6  1  6  0  0  0
  7  8  1  0  0  0  0
  7  9  1  0  0  0  0
 10  9  1  6  0  0  0
 10 11  1  0  0  0  0
 10 12  1  0  0  0  0
 11 16  1  0  0  0  0
 12 13  1  1  0  0  0
 12 14  1  0  0  0  0
 14 15  1  1  0  0  0
 14 16  1  0  0  0  0
 16 27  1  6  0  0  0
 18 19  2  0  0  0  0
 18 23  1  0  0  0  0
 19 20  1  0  0  0  0
 20 21  2  0  0  0  0
 21 22  1  0  0  0  0
 21 27  1  0  0  0  0
 22 23  2  0  0  0  0
 22 25  1  0  0  0  0
 23 24  1  0  0  0  0
 25 26  2  0  0  0  0
 26 27  1  0  0  0  0
M  END
>  <CHROM.1>
98.97915417,-70.57485928,41.84688597,-85.69563687,177.93936702,-36.83980763
-54.17135796,48.38187917,56.40737379,31.58651588,-1.22528073,-1.43438932
2.05081091

>  <Name>
ligand

>  <RI>
0

>  <Rbt.Current_Directory>
/home/itssahil/PROJECTS/Mol_Feturizer/New_Systems/rnas/2GIS

>  <Rbt.Executable>
rbdock ($Id: //depot/dev/client3/rdock/2013.1/src/exe/rbdock.cxx#4 $)

>  <Rbt.Library>
libRbt.so (2013.1, Build901 2013/11/27)

>  <Rbt.Parameter_File>
/export/apps/rDock/src/rDock_2013.1_src/data/scripts/dock_solv.prm

>  <Rbt.Receptor>
prm/pocket_docking_2.prm

>  <SCORE>
-8.34256

>  <SCORE.INTER>
-9.53487

>  <SCORE.INTER.CONST>
1

>  <SCORE.INTER.POLAR>
0

>  <SCORE.INTER.ROT>
7

>  <SCORE.INTER.SOLV>
13.8371

>  <SCORE.INTER.VDW>
-19.2356

>  <SCORE.INTER.norm>
-0.353143

>  <SCORE.INTRA>
0.779536

>  <SCORE.INTRA.DIHEDRAL>
-2.15238

>  <SCORE.INTRA.DIHEDRAL.0>
9.40024

>  <SCORE.INTRA.POLAR>
0

>  <SCORE.INTRA.POLAR.0>
0

>  <SCORE.INTRA.REPUL>
0

>  <SCORE.INTRA.REPUL.0>
0

>  <SCORE.INTRA.SOLV>
0.658316

>  <SCORE.INTRA.SOLV.lig_0>
-47.1049

>  <SCORE.INTRA.VDW>
1.52657

>  <SCORE.INTRA.VDW.0>
-1.50278

>  <SCORE.INTRA.norm>
0.0288717

>  <SCORE.RESTR>
0.412775

>  <SCORE.RESTR.CAVITY>
0.412775

>  <SCORE.RESTR.norm>
0.015288

>  <SCORE.SYSTEM>
0

>  <SCORE.SYSTEM.CONST>
0

>  <SCORE.SYSTEM.DIHEDRAL>
0

>  <SCORE.SYSTEM.SOLV>
0

>  <SCORE.SYSTEM.norm>
0

>  <SCORE.heavy>
27

>  <SCORE.norm>
-0.308984

>  <RMSD>
2.263

$$$$
ligand
 OpenBabel11021811433D
libRbt.so/2013.1/901 2013/11/27
 27 29  0  0  0  0  0  0  0  0999 V2000
   50.0355   55.1805   25.7852 N   0  0  0  0  0  0  0  0  0  0  0  0
   50.2470   55.4049   27.2187 C   0  0  2  0  0  0  0  0  0  0  0  0
   51.7206   55.6617   27.4791 C   0  0  0  0  0  0  0  0  0  0  0  0
   52.0731   56.2094   28.5199 O   0  0  0  0  0  0  0  0  0  0  0  0
   49.7752   54.1876   28.0388 C   0  0  0  0  0  0  0  0  0  0  0  0
   49.5883   54.6060   29.4964 C   0  0  0  0  0  0  0  0  0  0  0  0
   49.2192   53.2337   30.6647 S   0  0  2  0  0  0  0  0  0  0  0  0
   47.8277   52.3538   29.8891 C   0  0  0  0  0  0  0  0  0  0  0  0
   48.3602   54.2500   31.8845 C   0  0  0  0  0  0  0  0  0  0  0  0
   49.2647   54.7482   33.0250 C   0  0  1  0  0  0  0  0  0  0  0  0
   49.8951   55.9997   32.6212 O   0  0  0  0  0  0  0  0  0  0  0  0
   48.2734   55.1108   34.1007 C   0  0  1  0  0  0  0  0  0  0  0  0
   48.1433   54.0294   35.0239 O   0  0  0  0  0  0  0  0  0  0  0  0
   48.8972   56.3209   34.7848 C   0  0  1  0  0  0  0  0  0  0  0  0
   49.6152   55.9620   35.9596 O   0  0  0  0  0  0  0  0  0  0  0  0
   49.8578   56.9771   33.7272 C   0  0  2  0  0  0  0  0  0  0  0  0
   52.5599   55.3809   26.6232 O   0  0  0  0  0  0  0  0  0  0  0  0
   45.7228   59.7319   32.0258 N   0  0  0  0  0  0  0  0  0  0  0  0
   45.7271   58.5021   32.5516 C   0  0  0  0  0  0  0  0  0  0  0  0
   46.8501   57.9318   32.9589 N   0  0  0  0  0  0  0  0  0  0  0  0
   48.0355   58.5507   32.8315 C   0  0  0  0  0  0  0  0  0  0  0  0
   48.0841   59.8510   32.2666 C   0  0  0  0  0  0  0  0  0  0  0  0
   46.8565   60.4332   31.8616 C   0  0  0  0  0  0  0  0  0  0  0  0
   46.8253   61.6935   31.3080 N   0  0  0  0  0  0  0  0  0  0  0  0
   49.3758   60.2363   32.2511 N   0  0  0  0  0  0  0  0  0  0  0  0
   50.1102   59.2836   32.7465 C   0  0  0  0  0  0  0  0  0  0  0  0
   49.3364   58.2223   33.1258 N   0  0  0  0  0  0  0  0  0  0  0  0
  2  1  1  6  0  0  0
  2  3  1  0  0  0  0
  2  5  1  0  0  0  0
  3  4  1  0  0  0  0
  3 17  1  0  0  0  0
  5  6  1  0  0  0  0
  7  6  1  6  0  0  0
  7  8  1  0  0  0  0
  7  9  1  0  0  0  0
 10  9  1  6  0  0  0
 10 11  1  0  0  0  0
 10 12  1  0  0  0  0
 11 16  1  0  0  0  0
 12 13  1  1  0  0  0
 12 14  1  0  0  0  0
 14 15  1  1  0  0  0
 14 16  1  0  0  0  0
 16 27  1  6  0  0  0
 18 19  2  0  0  0  0
 18 23  1  0  0  0  0
 19 20  1  0  0  0  0
 20 21  2  0  0  0  0
 21 22  1  0  0  0  0
 21 27  1  0  0  0  0
 22 23  2  0  0  0  0
 22 25  1  0  0  0  0
 23 24  1  0  0  0  0
 25 26  2  0  0  0  0
 26 27  1  0  0  0  0
M  END
>  <CHROM.1>
160.91212768,-162.10647698,-173.04360784,-51.25646258,-94.35619867,87.25342233
79.20734699,49.03217291,56.41801339,31.38382229,-0.04814725,1.18436243,-0.59311171

>  <Name>
ligand

>  <RI>
0

>  <Rbt.Current_Directory>
/home/itssahil/PROJECTS/Mol_Feturizer/New_Systems/rnas/2GIS

>  <Rbt.Executable>
rbdock ($Id: //depot/dev/client3/rdock/2013.1/src/exe/rbdock.cxx#4 $)

>  <Rbt.Library>
libRbt.so (2013.1, Build901 2013/11/27)

>  <Rbt.Parameter_File>
/export/apps/rDock/src/rDock_2013.1_src/data/scripts/dock_solv.prm

>  <Rbt.Receptor>
prm/pocket_docking_7.prm

>  <SCORE>
-17.562

>  <SCORE.INTER>
-14.9463

>  <SCORE.INTER.CONST>
1

>  <SCORE.INTER.POLAR>
0

>  <SCORE.INTER.ROT>
7

>  <SCORE.INTER.SOLV>
18.1748

>  <SCORE.INTER.VDW>
-24.2892

>  <SCORE.INTER.norm>
-0.553568

>  <SCORE.INTRA>
-2.61565

>  <SCORE.INTRA.DIHEDRAL>
0.152262

>  <SCORE.INTRA.DIHEDRAL.0>
9.40024

>  <SCORE.INTRA.POLAR>
0

>  <SCORE.INTRA.POLAR.0>
0

>  <SCORE.INTRA.REPUL>
0

>  <SCORE.INTRA.REPUL.0>
0

>  <SCORE.INTRA.SOLV>
-3.09215

>  <SCORE.INTRA.SOLV.lig_0>
-47.1049

>  <SCORE.INTRA.VDW>
-1.14571

>  <SCORE.INTRA.VDW.0>
-1.50278

>  <SCORE.INTRA.norm>
-0.0968761

>  <SCORE.RESTR>
0

>  <SCORE.RESTR.CAVITY>
0

>  <SCORE.RESTR.norm>
0

>  <SCORE.SYSTEM>
0

>  <SCORE.SYSTEM.CONST>
0

>  <SCORE.SYSTEM.DIHEDRAL>
0

>  <SCORE.SYSTEM.SOLV>
0

>  <SCORE.SYSTEM.norm>
0

>  <SCORE.heavy>
27

>  <SCORE.norm>
-0.650444

>  <RMSD>
2.338

$$$$
ligand
 OpenBabel11021811433D
libRbt.so/2013.1/901 2013/11/27
 27 29  0  0  0  0  0  0  0  0999 V2000
   50.4185   55.8600   27.3695 N   0  0  0  0  0  0  0  0  0  0  0  0
   51.2095   55.5391   28.5617 C   0  0  2  0  0  0  0  0  0  0  0  0
   51.5261   54.0542   28.5747 C   0  0  0  0  0  0  0  0  0  0  0  0
   52.3973   53.6194   29.3228 O   0  0  0  0  0  0  0  0  0  0  0  0
   50.4458   55.9225   29.8449 C   0  0  0  0  0  0  0  0  0  0  0  0
   49.1085   55.1840   29.8730 C   0  0  0  0  0  0  0  0  0  0  0  0
   49.1837   53.4492   30.4805 S   0  0  2  0  0  0  0  0  0  0  0  0
   47.9266   52.5792   29.4931 C   0  0  0  0  0  0  0  0  0  0  0  0
   48.2835   53.7478   32.0165 C   0  0  0  0  0  0  0  0  0  0  0  0
   49.1814   54.1839   33.1873 C   0  0  1  0  0  0  0  0  0  0  0  0
   49.8523   55.4299   32.8349 O   0  0  0  0  0  0  0  0  0  0  0  0
   48.1818   54.5391   34.2578 C   0  0  1  0  0  0  0  0  0  0  0  0
   48.0065   53.4327   35.1431 O   0  0  0  0  0  0  0  0  0  0  0  0
   48.8262   55.7090   34.9911 C   0  0  1  0  0  0  0  0  0  0  0  0
   49.5138   55.2929   36.1652 O   0  0  0  0  0  0  0  0  0  0  0  0
   49.8224   56.3720   33.9712 C   0  0  2  0  0  0  0  0  0  0  0  0
   50.9576   53.2919   27.7928 O   0  0  0  0  0  0  0  0  0  0  0  0
   45.8054   59.2612   32.2112 N   0  0  0  0  0  0  0  0  0  0  0  0
   45.7694   58.0100   32.6827 C   0  0  0  0  0  0  0  0  0  0  0  0
   46.8652   57.4055   33.1138 N   0  0  0  0  0  0  0  0  0  0  0  0
   48.0635   58.0106   33.0656 C   0  0  0  0  0  0  0  0  0  0  0  0
   48.1550   59.3330   32.5604 C   0  0  0  0  0  0  0  0  0  0  0  0
   46.9547   59.9511   32.1276 C   0  0  0  0  0  0  0  0  0  0  0  0
   46.9655   61.2343   31.6284 N   0  0  0  0  0  0  0  0  0  0  0  0
   49.4513   59.6985   32.6184 N   0  0  0  0  0  0  0  0  0  0  0  0
   50.1498   58.7142   33.1038 C   0  0  0  0  0  0  0  0  0  0  0  0
   49.3453   57.6498   33.4022 N   0  0  0  0  0  0  0  0  0  0  0  0
  2  1  1  6  0  0  0
  2  3  1  0  0  0  0
  2  5  1  0  0  0  0
  3  4  1  0  0  0  0
  3 17  1  0  0  0  0
  5  6  1  0  0  0  0
  7  6  1  6  0  0  0
  7  8  1  0  0  0  0
  7  9  1  0  0  0  0
 10  9  1  6  0  0  0
 10 11  1  0  0  0  0
 10 12  1  0  0  0  0
 11 16  1  0  0  0  0
 12 13  1  1  0  0  0
 12 14  1  0  0  0  0
 14 15  1  1  0  0  0
 14 16  1  0  0  0  0
 16 27  1  6  0  0  0
 18 19  2  0  0  0  0
 18 23  1  0  0  0  0
 19 20  1  0  0  0  0
 20 21  2  0  0  0  0
 21 22  1  0  0  0  0
 21 27  1  0  0  0  0
 22 23  2  0  0  0  0
 22 25  1  0  0  0  0
 23 24  1  0  0  0  0
 25 26  2  0  0  0  0
 26 27  1  0  0  0  0
M  END
>  <CHROM.1>
165.04211259,57.97933458,81.92934485,-145.35756948,-87.83626624,60.52419489
77.36634758,49.02389302,55.97124058,31.78678859,-0.06571584,1.15528821,-0.76680285

>  <Name>
ligand

>  <RI>
0

>  <Rbt.Current_Directory>
/home/itssahil/PROJECTS/Mol_Feturizer/New_Systems/rnas/2GIS

>  <Rbt.Executable>
rbdock ($Id: //depot/dev/client3/rdock/2013.1/src/exe/rbdock.cxx#4 $)

>  <Rbt.Library>
libRbt.so (2013.1, Build901 2013/11/27)

>  <Rbt.Parameter_File>
/export/apps/rDock/src/rDock_2013.1_src/data/scripts/dock_solv.prm

>  <Rbt.Receptor>
prm/pocket_docking_4.prm

>  <SCORE>
-18.9345

>  <SCORE.INTER>
-15.8536

>  <SCORE.INTER.CONST>
1

>  <SCORE.INTER.POLAR>
0

>  <SCORE.INTER.ROT>
7

>  <SCORE.INTER.SOLV>
17.5529

>  <SCORE.INTER.VDW>
-24.6867

>  <SCORE.INTER.norm>
-0.587171

>  <SCORE.INTRA>
-3.08089

>  <SCORE.INTRA.DIHEDRAL>
0.237376

>  <SCORE.INTRA.DIHEDRAL.0>
9.40024

>  <SCORE.INTRA.POLAR>
0

>  <SCORE.INTRA.POLAR.0>
0

>  <SCORE.INTRA.REPUL>
0

>  <SCORE.INTRA.REPUL.0>
0

>  <SCORE.INTRA.SOLV>
-1.58718

>  <SCORE.INTRA.SOLV.lig_0>
-47.1049

>  <SCORE.INTRA.VDW>
-2.40599

>  <SCORE.INTRA.VDW.0>
-1.50278

>  <SCORE.INTRA.norm>
-0.114107

>  <SCORE.RESTR>
0

>  <SCORE.RESTR.CAVITY>
0

>  <SCORE.RESTR.norm>
0

>  <SCORE.SYSTEM>
0

>  <SCORE.SYSTEM.CONST>
0

>  <SCORE.SYSTEM.DIHEDRAL>
0

>  <SCORE.SYSTEM.SOLV>
0

>  <SCORE.SYSTEM.norm>
0

>  <SCORE.heavy>
27

>  <SCORE.norm>
-0.701278

>  <RMSD>
2.571

$$$$
ligand
 OpenBabel11021811433D
libRbt.so/2013.1/901 2013/11/27
 27 29  0  0  0  0  0  0  0  0999 V2000
   48.1359   54.7772   26.0054 N   0  0  0  0  0  0  0  0  0  0  0  0
   47.8245   53.6090   26.8349 C   0  0  2  0  0  0  0  0  0  0  0  0
   46.5329   52.9741   26.3512 C   0  0  0  0  0  0  0  0  0  0  0  0
   46.2484   51.8286   26.6892 O   0  0  0  0  0  0  0  0  0  0  0  0
   47.6870   54.0109   28.3169 C   0  0  0  0  0  0  0  0  0  0  0  0
   47.8755   52.7729   29.1925 C   0  0  0  0  0  0  0  0  0  0  0  0
   47.7003   53.0582   31.0014 S   0  0  2  0  0  0  0  0  0  0  0  0
   46.0467   53.7981   31.1751 C   0  0  0  0  0  0  0  0  0  0  0  0
   48.7526   54.5237   31.0643 C   0  0  0  0  0  0  0  0  0  0  0  0
   49.3169   54.8230   32.4639 C   0  0  1  0  0  0  0  0  0  0  0  0
   49.9517   56.1359   32.4511 O   0  0  0  0  0  0  0  0  0  0  0  0
   48.0713   54.9722   33.2991 C   0  0  1  0  0  0  0  0  0  0  0  0
   47.7824   53.7412   33.9622 O   0  0  0  0  0  0  0  0  0  0  0  0
   48.4341   56.0496   34.3138 C   0  0  1  0  0  0  0  0  0  0  0  0
   48.8605   55.4968   35.5536 O   0  0  0  0  0  0  0  0  0  0  0  0
   49.5849   56.8989   33.6607 C   0  0  2  0  0  0  0  0  0  0  0  0
   45.7991   53.5794   25.5695 O   0  0  0  0  0  0  0  0  0  0  0  0
   45.7201   59.9546   31.8419 N   0  0  0  0  0  0  0  0  0  0  0  0
   45.6468   58.6681   32.2004 C   0  0  0  0  0  0  0  0  0  0  0  0
   46.7050   58.0216   32.6636 N   0  0  0  0  0  0  0  0  0  0  0  0
   47.9033   58.6205   32.7622 C   0  0  0  0  0  0  0  0  0  0  0  0
   48.0346   59.9805   32.3807 C   0  0  0  0  0  0  0  0  0  0  0  0
   46.8724   60.6414   31.9087 C   0  0  0  0  0  0  0  0  0  0  0  0
   46.9228   61.9622   31.5234 N   0  0  0  0  0  0  0  0  0  0  0  0
   49.3222   60.3309   32.5720 N   0  0  0  0  0  0  0  0  0  0  0  0
   49.9800   59.3041   33.0252 C   0  0  0  0  0  0  0  0  0  0  0  0
   49.1544   58.2237   33.1670 N   0  0  0  0  0  0  0  0  0  0  0  0
  2  1  1  6  0  0  0
  2  3  1  0  0  0  0
  2  5  1  0  0  0  0
  3  4  1  0  0  0  0
  3 17  1  0  0  0  0
  5  6  1  0  0  0  0
  7  6  1  6  0  0  0
  7  8  1  0  0  0  0
  7  9  1  0  0  0  0
 10  9  1  6  0  0  0
 10 11  1  0  0  0  0
 10 12  1  0  0  0  0
 11 16  1  0  0  0  0
 12 13  1  1  0  0  0
 12 14  1  0  0  0  0
 14 15  1  1  0  0  0
 14 16  1  0  0  0  0
 16 27  1  6  0  0  0
 18 19  2  0  0  0  0
 18 23  1  0  0  0  0
 19 20  1  0  0  0  0
 20 21  2  0  0  0  0
 21 22  1  0  0  0  0
 21 27  1  0  0  0  0
 22 23  2  0  0  0  0
 22 25  1  0  0  0  0
 23 24  1  0  0  0  0
 25 26  2  0  0  0  0
 26 27  1  0  0  0  0
M  END
>  <CHROM.1>
163.17715495,-159.47104826,-178.48455365,56.01555857,-158.65861184,-170.29207373
87.80222637,47.79719666,55.98989669,31.14640814,1.99614855,1.23834015,-2.79138464

>  <Name>
ligand

>  <RI>
0

>  <Rbt.Current_Directory>
/home/itssahil/PROJECTS/Mol_Feturizer/New_Systems/rnas/2GIS

>  <Rbt.Executable>
rbdock ($Id: //depot/dev/client3/rdock/2013.1/src/exe/rbdock.cxx#4 $)

>  <Rbt.Library>
libRbt.so (2013.1, Build901 2013/11/27)

>  <Rbt.Parameter_File>
/export/apps/rDock/src/rDock_2013.1_src/data/scripts/dock_solv.prm

>  <Rbt.Receptor>
prm/pocket_docking_5.prm

>  <SCORE>
-14.4515

>  <SCORE.INTER>
-12.6824

>  <SCORE.INTER.CONST>
1

>  <SCORE.INTER.POLAR>
0

>  <SCORE.INTER.ROT>
7

>  <SCORE.INTER.SOLV>
17.1372

>  <SCORE.INTER.VDW>
-22.434

>  <SCORE.INTER.norm>
-0.469719

>  <SCORE.INTRA>
-1.76912

>  <SCORE.INTRA.DIHEDRAL>
-2.14182

>  <SCORE.INTRA.DIHEDRAL.0>
9.40024

>  <SCORE.INTRA.POLAR>
0

>  <SCORE.INTRA.POLAR.0>
0

>  <SCORE.INTRA.REPUL>
0

>  <SCORE.INTRA.REPUL.0>
0

>  <SCORE.INTRA.SOLV>
-2.71211

>  <SCORE.INTRA.SOLV.lig_0>
-47.1049

>  <SCORE.INTRA.VDW>
0.65784

>  <SCORE.INTRA.VDW.0>
-1.50278

>  <SCORE.INTRA.norm>
-0.065523

>  <SCORE.RESTR>
0

>  <SCORE.RESTR.CAVITY>
0

>  <SCORE.RESTR.norm>
0

>  <SCORE.SYSTEM>
0

>  <SCORE.SYSTEM.CONST>
0

>  <SCORE.SYSTEM.DIHEDRAL>
0

>  <SCORE.SYSTEM.SOLV>
0

>  <SCORE.SYSTEM.norm>
0

>  <SCORE.heavy>
27

>  <SCORE.norm>
-0.535242

>  <RMSD>
2.679

$$$$
ligand
 OpenBabel11021811433D
libRbt.so/2013.1/901 2013/11/27
 27 29  0  0  0  0  0  0  0  0999 V2000
   48.9338   52.1746   26.9415 N   0  0  0  0  0  0  0  0  0  0  0  0
   47.8437   52.5141   27.8615 C   0  0  2  0  0  0  0  0  0  0  0  0
   46.7669   53.2775   27.1112 C   0  0  0  0  0  0  0  0  0  0  0  0
   45.6101   52.8663   27.1118 O   0  0  0  0  0  0  0  0  0  0  0  0
   48.3646   53.3641   29.0376 C   0  0  0  0  0  0  0  0  0  0  0  0
   47.1953   53.7264   29.9519 C   0  0  0  0  0  0  0  0  0  0  0  0
   47.6201   54.8124   31.3747 S   0  0  2  0  0  0  0  0  0  0  0  0
   48.7603   56.0424   30.6682 C   0  0  0  0  0  0  0  0  0  0  0  0
   48.7755   53.6630   32.1512 C   0  0  0  0  0  0  0  0  0  0  0  0
   49.3188   54.1495   33.5059 C   0  0  1  0  0  0  0  0  0  0  0  0
   49.9411   55.4564   33.3282 O   0  0  0  0  0  0  0  0  0  0  0  0
   48.0611   54.3931   34.2998 C   0  0  1  0  0  0  0  0  0  0  0  0
   47.7754   53.2565   35.1153 O   0  0  0  0  0  0  0  0  0  0  0  0
   48.4005   55.5981   35.1684 C   0  0  1  0  0  0  0  0  0  0  0  0
   48.8161   55.2174   36.4749 O   0  0  0  0  0  0  0  0  0  0  0  0
   49.5515   56.3672   34.4229 C   0  0  2  0  0  0  0  0  0  0  0  0
   47.0599   54.2732   26.4488 O   0  0  0  0  0  0  0  0  0  0  0  0
   45.6765   59.1240   32.1944 N   0  0  0  0  0  0  0  0  0  0  0  0
   45.6098   57.8963   32.7213 C   0  0  0  0  0  0  0  0  0  0  0  0
   46.6698   57.3254   33.2715 N   0  0  0  0  0  0  0  0  0  0  0  0
   47.8634   57.9410   33.2948 C   0  0  0  0  0  0  0  0  0  0  0  0
   47.9877   59.2387   32.7356 C   0  0  0  0  0  0  0  0  0  0  0  0
   46.8238   59.8220   32.1743 C   0  0  0  0  0  0  0  0  0  0  0  0
   46.8674   61.0799   31.6162 N   0  0  0  0  0  0  0  0  0  0  0  0
   49.2718   59.6211   32.8844 N   0  0  0  0  0  0  0  0  0  0  0  0
   49.9340   58.6689   33.4737 C   0  0  0  0  0  0  0  0  0  0  0  0
   49.1149   57.6110   33.7547 N   0  0  0  0  0  0  0  0  0  0  0  0
  2  1  1  6  0  0  0
  2  3  1  0  0  0  0
  2  5  1  0  0  0  0
  3  4  1  0  0  0  0
  3 17  1  0  0  0  0
  5  6  1  0  0  0  0
  7  6  1  6  0  0  0
  7  8  1  0  0  0  0
  7  9  1  0  0  0  0
 10  9  1  6  0  0  0
 10 11  1  0  0  0  0
 10 12  1  0  0  0  0
 11 16  1  0  0  0  0
 12 13  1  1  0  0  0
 12 14  1  0  0  0  0
 14 15  1  1  0  0  0
 14 16  1  0  0  0  0
 16 27  1  6  0  0  0
 18 19  2  0  0  0  0
 18 23  1  0  0  0  0
 19 20  1  0  0  0  0
 20 21  2  0  0  0  0
 21 22  1  0  0  0  0
 21 27  1  0  0  0  0
 22 23  2  0  0  0  0
 22 25  1  0  0  0  0
 23 24  1  0  0  0  0
 25 26  2  0  0  0  0
 26 27  1  0  0  0  0
M  END
>  <CHROM.1>
123.99659691,178.55583352,-177.23406768,41.69559418,-175.36748663,-56.15419715
88.27461280,47.93801888,55.77103643,31.77275769,-1.89315259,-1.22750299,0.61384200

>  <Name>
ligand

>  <RI>
0

>  <Rbt.Current_Directory>
/home/itssahil/PROJECTS/Mol_Feturizer/New_Systems/rnas/2GIS

>  <Rbt.Executable>
rbdock ($Id: //depot/dev/client3/rdock/2013.1/src/exe/rbdock.cxx#4 $)

>  <Rbt.Library>
libRbt.so (2013.1, Build901 2013/11/27)

>  <Rbt.Parameter_File>
/export/apps/rDock/src/rDock_2013.1_src/data/scripts/dock_solv.prm

>  <Rbt.Receptor>
prm/pocket_docking_5.prm

>  <SCORE>
-15.8008

>  <SCORE.INTER>
-10.904

>  <SCORE.INTER.CONST>
1

>  <SCORE.INTER.POLAR>
0

>  <SCORE.INTER.ROT>
7

>  <SCORE.INTER.SOLV>
16.4684

>  <SCORE.INTER.VDW>
-21.0255

>  <SCORE.INTER.norm>
-0.403854

>  <SCORE.INTRA>
-4.89672

>  <SCORE.INTRA.DIHEDRAL>
-5.39227

>  <SCORE.INTRA.DIHEDRAL.0>
9.40024

>  <SCORE.INTRA.POLAR>
0

>  <SCORE.INTRA.POLAR.0>
0

>  <SCORE.INTRA.REPUL>
0

>  <SCORE.INTRA.REPUL.0>
0

>  <SCORE.INTRA.SOLV>
-2.75481

>  <SCORE.INTRA.SOLV.lig_0>
-47.1049

>  <SCORE.INTRA.VDW>
-0.823176

>  <SCORE.INTRA.VDW.0>
-1.50278

>  <SCORE.INTRA.norm>
-0.18136

>  <SCORE.RESTR>
0

>  <SCORE.RESTR.CAVITY>
0

>  <SCORE.RESTR.norm>
0

>  <SCORE.SYSTEM>
0

>  <SCORE.SYSTEM.CONST>
0

>  <SCORE.SYSTEM.DIHEDRAL>
0

>  <SCORE.SYSTEM.SOLV>
0

>  <SCORE.SYSTEM.norm>
0

>  <SCORE.heavy>
27

>  <SCORE.norm>
-0.585213

>  <RMSD>
2.773

$$$$
ligand
 OpenBabel11021811433D
libRbt.so/2013.1/901 2013/11/27
 27 29  0  0  0  0  0  0  0  0999 V2000
   51.1726   53.4077   26.1946 N   0  0  0  0  0  0  0  0  0  0  0  0
   50.2266   52.3006   26.3653 C   0  0  2  0  0  0  0  0  0  0  0  0
   48.8842   52.6849   25.7689 C   0  0  0  0  0  0  0  0  0  0  0  0
   48.5557   53.8664   25.7084 O   0  0  0  0  0  0  0  0  0  0  0  0
   50.0556   51.9517   27.8573 C   0  0  0  0  0  0  0  0  0  0  0  0
   49.8136   53.2361   28.6488 C   0  0  0  0  0  0  0  0  0  0  0  0
   49.2969   52.9935   30.3976 S   0  0  2  0  0  0  0  0  0  0  0  0
   47.4876   52.8203   30.3050 C   0  0  0  0  0  0  0  0  0  0  0  0
   49.4627   54.7237   30.8853 C   0  0  0  0  0  0  0  0  0  0  0  0
   49.5990   54.9302   32.4038 C   0  0  1  0  0  0  0  0  0  0  0  0
   50.0915   56.2790   32.6589 O   0  0  0  0  0  0  0  0  0  0  0  0
   48.1661   54.9163   32.8706 C   0  0  1  0  0  0  0  0  0  0  0  0
   47.8224   53.6123   33.3400 O   0  0  0  0  0  0  0  0  0  0  0  0
   48.1423   55.9174   34.0190 C   0  0  1  0  0  0  0  0  0  0  0  0
   48.2670   55.2829   35.2864 O   0  0  0  0  0  0  0  0  0  0  0  0
   49.3443   56.9000   33.7706 C   0  0  2  0  0  0  0  0  0  0  0  0
   48.0955   51.8131   25.4033 O   0  0  0  0  0  0  0  0  0  0  0  0
   45.6004   59.9812   31.7529 N   0  0  0  0  0  0  0  0  0  0  0  0
   45.5065   58.6888   32.0848 C   0  0  0  0  0  0  0  0  0  0  0  0
   46.5335   58.0360   32.6056 N   0  0  0  0  0  0  0  0  0  0  0  0
   47.7215   58.6344   32.7922 C   0  0  0  0  0  0  0  0  0  0  0  0
   47.8746   60.0006   32.4423 C   0  0  0  0  0  0  0  0  0  0  0  0
   46.7444   60.6679   31.9061 C   0  0  0  0  0  0  0  0  0  0  0  0
   46.8171   61.9950   31.5465 N   0  0  0  0  0  0  0  0  0  0  0  0
   49.1462   60.3492   32.7231 N   0  0  0  0  0  0  0  0  0  0  0  0
   49.7751   59.3158   33.2016 C   0  0  0  0  0  0  0  0  0  0  0  0
   48.9443   58.2323   33.2714 N   0  0  0  0  0  0  0  0  0  0  0  0
  2  1  1  1  0  0  0
  2  3  1  0  0  0  0
  2  5  1  0  0  0  0
  3  4  1  0  0  0  0
  3 17  1  0  0  0  0
  5  6  1  0  0  0  0
  7  6  1  6  0  0  0
  7  8  1  0  0  0  0
  7  9  1  0  0  0  0
 10  9  1  6  0  0  0
 10 11  1  0  0  0  0
 10 12  1  0  0  0  0
 11 16  1  0  0  0  0
 12 13  1  1  0  0  0
 12 14  1  0  0  0  0
 14 15  1  1  0  0  0
 14 16  1  0  0  0  0
 16 27  1  6  0  0  0
 18 19  2  0  0  0  0
 18 23  1  0  0  0  0
 19 20  1  0  0  0  0
 20 21  2  0  0  0  0
 21 22  1  0  0  0  0
 21 27  1  0  0  0  0
 22 23  2  0  0  0  0
 22 25  1  0  0  0  0
 23 24  1  0  0  0  0
 25 26  2  0  0  0  0
 26 27  1  0  0  0  0
M  END
>  <CHROM.1>
-27.21209774,48.16583061,169.79612557,-86.56381071,-159.70106182,164.38431173
101.29536102,48.53885341,55.80185629,30.90595979,0.84293470,1.28054930,-1.71201951

>  <Name>
ligand

>  <RI>
0

>  <Rbt.Current_Directory>
/home/itssahil/PROJECTS/Mol_Feturizer/New_Systems/rnas/2GIS

>  <Rbt.Executable>
rbdock ($Id: //depot/dev/client3/rdock/2013.1/src/exe/rbdock.cxx#4 $)

>  <Rbt.Library>
libRbt.so (2013.1, Build901 2013/11/27)

>  <Rbt.Parameter_File>
/export/apps/rDock/src/rDock_2013.1_src/data/scripts/dock_solv.prm

>  <Rbt.Receptor>
prm/pocket_docking_4.prm

>  <SCORE>
-15.8328

>  <SCORE.INTER>
-13.1708

>  <SCORE.INTER.CONST>
1

>  <SCORE.INTER.POLAR>
0

>  <SCORE.INTER.ROT>
7

>  <SCORE.INTER.SOLV>
16.6345

>  <SCORE.INTER.VDW>
-22.5921

>  <SCORE.INTER.norm>
-0.487809

>  <SCORE.INTRA>
-2.66944

>  <SCORE.INTRA.DIHEDRAL>
-1.81108

>  <SCORE.INTRA.DIHEDRAL.0>
9.40024

>  <SCORE.INTRA.POLAR>
0

>  <SCORE.INTRA.POLAR.0>
0

>  <SCORE.INTRA.REPUL>
0

>  <SCORE.INTRA.REPUL.0>
0

>  <SCORE.INTRA.SOLV>
-2.03705

>  <SCORE.INTRA.SOLV.lig_0>
-47.1049

>  <SCORE.INTRA.VDW>
-0.745373

>  <SCORE.INTRA.VDW.0>
-1.50278

>  <SCORE.INTRA.norm>
-0.098868

>  <SCORE.RESTR>
0.00750838

>  <SCORE.RESTR.CAVITY>
0.00750838

>  <SCORE.RESTR.norm>
0.000278088

>  <SCORE.SYSTEM>
0

>  <SCORE.SYSTEM.CONST>
0

>  <SCORE.SYSTEM.DIHEDRAL>
0

>  <SCORE.SYSTEM.SOLV>
0

>  <SCORE.SYSTEM.norm>
0

>  <SCORE.heavy>
27

>  <SCORE.norm>
-0.586399

>  <RMSD>
2.816

$$$$
ligand
 OpenBabel11021811433D
libRbt.so/2013.1/901 2013/11/27
 27 29  0  0  0  0  0  0  0  0999 V2000
   49.4704   53.3509   25.1760 N   0  0  0  0  0  0  0  0  0  0  0  0
   48.5907   52.3208   25.7373 C   0  0  2  0  0  0  0  0  0  0  0  0
   47.1588   52.8257   25.7427 C   0  0  0  0  0  0  0  0  0  0  0  0
   46.2298   52.0340   25.8752 O   0  0  0  0  0  0  0  0  0  0  0  0
   49.0219   51.9549   27.1716 C   0  0  0  0  0  0  0  0  0  0  0  0
   49.0510   53.2215   28.0257 C   0  0  0  0  0  0  0  0  0  0  0  0
   49.1632   52.9408   29.8404 S   0  0  2  0  0  0  0  0  0  0  0  0
   47.4494   52.5884   30.3409 C   0  0  0  0  0  0  0  0  0  0  0  0
   49.3134   54.6822   30.2919 C   0  0  0  0  0  0  0  0  0  0  0  0
   49.8671   54.9103   31.7091 C   0  0  1  0  0  0  0  0  0  0  0  0
   50.3636   56.2777   31.8123 O   0  0  0  0  0  0  0  0  0  0  0  0
   48.6268   54.8535   32.5633 C   0  0  1  0  0  0  0  0  0  0  0  0
   48.4766   53.5441   33.1126 O   0  0  0  0  0  0  0  0  0  0  0  0
   48.8939   55.8662   33.6699 C   0  0  1  0  0  0  0  0  0  0  0  0
   49.3953   55.2506   34.8507 O   0  0  0  0  0  0  0  0  0  0  0  0
   49.9406   56.8858   33.0894 C   0  0  2  0  0  0  0  0  0  0  0  0
   46.9210   54.0185   25.5512 O   0  0  0  0  0  0  0  0  0  0  0  0
   45.6821   59.7659   32.0161 N   0  0  0  0  0  0  0  0  0  0  0  0
   45.7342   58.4665   32.3291 C   0  0  0  0  0  0  0  0  0  0  0  0
   46.8847   57.8688   32.5963 N   0  0  0  0  0  0  0  0  0  0  0  0
   48.0501   58.5336   32.5326 C   0  0  0  0  0  0  0  0  0  0  0  0
   48.0478   59.9104   32.1909 C   0  0  0  0  0  0  0  0  0  0  0  0
   46.7926   60.5166   31.9317 C   0  0  0  0  0  0  0  0  0  0  0  0
   46.7119   61.8498   31.5972 N   0  0  0  0  0  0  0  0  0  0  0  0
   49.3290   60.3295   32.1949 N   0  0  0  0  0  0  0  0  0  0  0  0
   50.1032   59.3292   32.4987 C   0  0  0  0  0  0  0  0  0  0  0  0
   49.3685   58.1981   32.7225 N   0  0  0  0  0  0  0  0  0  0  0  0
  2  1  1  1  0  0  0
  2  3  1  0  0  0  0
  2  5  1  0  0  0  0
  3  4  1  0  0  0  0
  3 17  1  0  0  0  0
  5  6  1  0  0  0  0
  7  6  1  6  0  0  0
  7  8  1  0  0  0  0
  7  9  1  0  0  0  0
 10  9  1  6  0  0  0
 10 11  1  0  0  0  0
 10 12  1  0  0  0  0
 11 16  1  0  0  0  0
 12 13  1  1  0  0  0
 12 14  1  0  0  0  0
 14 15  1  1  0  0  0
 14 16  1  0  0  0  0
 16 27  1  6  0  0  0
 18 19  2  0  0  0  0
 18 23  1  0  0  0  0
 19 20  1  0  0  0  0
 20 21  2  0  0  0  0
 21 22  1  0  0  0  0
 21 27  1  0  0  0  0
 22 23  2  0  0  0  0
 22 25  1  0  0  0  0
 23 24  1  0  0  0  0
 25 26  2  0  0  0  0
 26 27  1  0  0  0  0
M  END
>  <CHROM.1>
163.15487413,55.78494989,166.52234474,-81.58610290,-162.05482104,161.19664938
97.06594226,48.36535495,55.75800726,30.56141747,1.55249038,1.09495064,-2.38327237

>  <Name>
ligand

>  <RI>
0

>  <Rbt.Current_Directory>
/home/itssahil/PROJECTS/Mol_Feturizer/New_Systems/rnas/2GIS

>  <Rbt.Executable>
rbdock ($Id: //depot/dev/client3/rdock/2013.1/src/exe/rbdock.cxx#4 $)

>  <Rbt.Library>
libRbt.so (2013.1, Build901 2013/11/27)

>  <Rbt.Parameter_File>
/export/apps/rDock/src/rDock_2013.1_src/data/scripts/dock_solv.prm

>  <Rbt.Receptor>
prm/pocket_docking_5.prm

>  <SCORE>
-16.3861

>  <SCORE.INTER>
-13.5149

>  <SCORE.INTER.CONST>
1

>  <SCORE.INTER.POLAR>
0

>  <SCORE.INTER.ROT>
7

>  <SCORE.INTER.SOLV>
16.3633

>  <SCORE.INTER.VDW>
-22.731

>  <SCORE.INTER.norm>
-0.500551

>  <SCORE.INTRA>
-2.87223

>  <SCORE.INTRA.DIHEDRAL>
-2.15956

>  <SCORE.INTRA.DIHEDRAL.0>
9.40024

>  <SCORE.INTRA.POLAR>
0

>  <SCORE.INTRA.POLAR.0>
0

>  <SCORE.INTRA.REPUL>
0

>  <SCORE.INTRA.REPUL.0>
0

>  <SCORE.INTRA.SOLV>
-2.08454

>  <SCORE.INTRA.SOLV.lig_0>
-47.1049

>  <SCORE.INTRA.VDW>
-0.750177

>  <SCORE.INTRA.VDW.0>
-1.50278

>  <SCORE.INTRA.norm>
-0.106379

>  <SCORE.RESTR>
0.000967975

>  <SCORE.RESTR.CAVITY>
0.000967975

>  <SCORE.RESTR.norm>
3.58509e-05

>  <SCORE.SYSTEM>
0

>  <SCORE.SYSTEM.CONST>
0

>  <SCORE.SYSTEM.DIHEDRAL>
0

>  <SCORE.SYSTEM.SOLV>
0

>  <SCORE.SYSTEM.norm>
0

>  <SCORE.heavy>
27

>  <SCORE.norm>
-0.606894

>  <RMSD>
2.849

$$$$
ligand
 OpenBabel11021811433D
libRbt.so/2013.1/901 2013/11/27
 27 29  0  0  0  0  0  0  0  0999 V2000
   47.5491   54.3132   25.1807 N   0  0  0  0  0  0  0  0  0  0  0  0
   48.7431   53.4695   25.2919 C   0  0  2  0  0  0  0  0  0  0  0  0
   48.3473   52.0973   25.8073 C   0  0  0  0  0  0  0  0  0  0  0  0
   47.3879   51.9798   26.5645 O   0  0  0  0  0  0  0  0  0  0  0  0
   49.7772   54.1067   26.2414 C   0  0  0  0  0  0  0  0  0  0  0  0
   49.1303   54.3380   27.6061 C   0  0  0  0  0  0  0  0  0  0  0  0
   50.2481   55.0206   28.8979 S   0  0  2  0  0  0  0  0  0  0  0  0
   51.5291   53.7430   29.0953 C   0  0  0  0  0  0  0  0  0  0  0  0
   49.1658   54.6562   30.2960 C   0  0  0  0  0  0  0  0  0  0  0  0
   49.8196   54.9005   31.6672 C   0  0  1  0  0  0  0  0  0  0  0  0
   50.3419   56.2615   31.7103 O   0  0  0  0  0  0  0  0  0  0  0  0
   48.6407   54.8783   32.6058 C   0  0  1  0  0  0  0  0  0  0  0  0
   48.5099   53.5814   33.1884 O   0  0  0  0  0  0  0  0  0  0  0  0
   48.9984   55.9061   33.6722 C   0  0  1  0  0  0  0  0  0  0  0  0
   49.5713   55.3035   34.8269 O   0  0  0  0  0  0  0  0  0  0  0  0
   50.0172   56.8986   33.0020 C   0  0  2  0  0  0  0  0  0  0  0  0
   49.0224   51.1085   25.5203 O   0  0  0  0  0  0  0  0  0  0  0  0
   45.7453   59.7828   31.9948 N   0  0  0  0  0  0  0  0  0  0  0  0
   45.8018   58.4811   32.2973 C   0  0  0  0  0  0  0  0  0  0  0  0
   46.9554   57.8825   32.5481 N   0  0  0  0  0  0  0  0  0  0  0  0
   48.1196   58.5488   32.4773 C   0  0  0  0  0  0  0  0  0  0  0  0
   48.1126   59.9281   32.1462 C   0  0  0  0  0  0  0  0  0  0  0  0
   46.8543   60.5351   31.9046 C   0  0  0  0  0  0  0  0  0  0  0  0
   46.7689   61.8707   31.5810 N   0  0  0  0  0  0  0  0  0  0  0  0
   49.3934   60.3483   32.1400 N   0  0  0  0  0  0  0  0  0  0  0  0
   50.1715   59.3465   32.4282 C   0  0  0  0  0  0  0  0  0  0  0  0
   49.4402   58.2131   32.6510 N   0  0  0  0  0  0  0  0  0  0  0  0
  2  1  1  1  0  0  0
  2  3  1  0  0  0  0
  2  5  1  0  0  0  0
  3  4  1  0  0  0  0
  3 17  1  0  0  0  0
  5  6  1  0  0  0  0
  7  6  1  6  0  0  0
  7  8  1  0  0  0  0
  7  9  1  0  0  0  0
 10  9  1  6  0  0  0
 10 11  1  0  0  0  0
 10 12  1  0  0  0  0
 11 16  1  0  0  0  0
 12 13  1  1  0  0  0
 12 14  1  0  0  0  0
 14 15  1  1  0  0  0
 14 16  1  0  0  0  0
 16 27  1  6  0  0  0
 18 19  2  0  0  0  0
 18 23  1  0  0  0  0
 19 20  1  0  0  0  0
 20 21  2  0  0  0  0
 21 22  1  0  0  0  0
 21 27  1  0  0  0  0
 22 23  2  0  0  0  0
 22 25  1  0  0  0  0
 23 24  1  0  0  0  0
 25 26  2  0  0  0  0
 26 27  1  0  0  0  0
M  END
>  <CHROM.1>
-30.86827547,57.00618609,177.12660563,-62.06366165,171.80574786,53.70405528
93.27703621,48.77710742,56.02961778,30.38245407,1.35823936,1.06950763,-2.15763653

>  <Name>
ligand

>  <RI>
0

>  <Rbt.Current_Directory>
/home/itssahil/PROJECTS/Mol_Feturizer/New_Systems/rnas/2GIS

>  <Rbt.Executable>
rbdock ($Id: //depot/dev/client3/rdock/2013.1/src/exe/rbdock.cxx#4 $)

>  <Rbt.Library>
libRbt.so (2013.1, Build901 2013/11/27)

>  <Rbt.Parameter_File>
/export/apps/rDock/src/rDock_2013.1_src/data/scripts/dock_solv.prm

>  <Rbt.Receptor>
prm/pocket_docking_5.prm

>  <SCORE>
-16.5302

>  <SCORE.INTER>
-11.7768

>  <SCORE.INTER.CONST>
1

>  <SCORE.INTER.POLAR>
0

>  <SCORE.INTER.ROT>
7

>  <SCORE.INTER.SOLV>
17.3924

>  <SCORE.INTER.VDW>
-21.9153

>  <SCORE.INTER.norm>
-0.436177

>  <SCORE.INTRA>
-4.75337

>  <SCORE.INTRA.DIHEDRAL>
-6.04874

>  <SCORE.INTRA.DIHEDRAL.0>
9.40024

>  <SCORE.INTRA.POLAR>
0

>  <SCORE.INTRA.POLAR.0>
0

>  <SCORE.INTRA.REPUL>
0

>  <SCORE.INTRA.REPUL.0>
0

>  <SCORE.INTRA.SOLV>
-2.372

>  <SCORE.INTRA.SOLV.lig_0>
-47.1049

>  <SCORE.INTRA.VDW>
-0.543006

>  <SCORE.INTRA.VDW.0>
-1.50278

>  <SCORE.INTRA.norm>
-0.176051

>  <SCORE.RESTR>
0

>  <SCORE.RESTR.CAVITY>
0

>  <SCORE.RESTR.norm>
0

>  <SCORE.SYSTEM>
0

>  <SCORE.SYSTEM.CONST>
0

>  <SCORE.SYSTEM.DIHEDRAL>
0

>  <SCORE.SYSTEM.SOLV>
0

>  <SCORE.SYSTEM.norm>
0

>  <SCORE.heavy>
27

>  <SCORE.norm>
-0.612228

>  <RMSD>
2.872

$$$$
ligand
 OpenBabel11021811433D
libRbt.so/2013.1/901 2013/11/27
 27 29  0  0  0  0  0  0  0  0999 V2000
   51.0541   53.0120   26.5664 N   0  0  0  0  0  0  0  0  0  0  0  0
   50.4687   53.7742   27.6738 C   0  0  2  0  0  0  0  0  0  0  0  0
   51.5778   54.4097   28.4931 C   0  0  0  0  0  0  0  0  0  0  0  0
   52.5379   53.7347   28.8537 O   0  0  0  0  0  0  0  0  0  0  0  0
   49.6109   52.8619   28.5730 C   0  0  0  0  0  0  0  0  0  0  0  0
   49.0047   53.6953   29.7011 C   0  0  0  0  0  0  0  0  0  0  0  0
   47.7145   52.8439   30.6985 S   0  0  2  0  0  0  0  0  0  0  0  0
   46.2200   52.9400   29.6644 C   0  0  0  0  0  0  0  0  0  0  0  0
   47.4368   54.2059   31.8503 C   0  0  0  0  0  0  0  0  0  0  0  0
   48.6463   54.5146   32.7497 C   0  0  1  0  0  0  0  0  0  0  0  0
   49.3608   55.6653   32.2090 O   0  0  0  0  0  0  0  0  0  0  0  0
   47.9990   54.9898   34.0250 C   0  0  1  0  0  0  0  0  0  0  0  0
   47.9110   53.9099   34.9550 O   0  0  0  0  0  0  0  0  0  0  0  0
   48.9492   56.0617   34.5443 C   0  0  1  0  0  0  0  0  0  0  0  0
   49.8494   55.5526   35.5215 O   0  0  0  0  0  0  0  0  0  0  0  0
   49.7354   56.5962   33.2919 C   0  0  2  0  0  0  0  0  0  0  0  0
   51.4887   55.5840   28.8522 O   0  0  0  0  0  0  0  0  0  0  0  0
   45.7838   59.8222   32.0430 N   0  0  0  0  0  0  0  0  0  0  0  0
   45.7046   58.5543   32.4617 C   0  0  0  0  0  0  0  0  0  0  0  0
   46.7908   57.8597   32.7615 N   0  0  0  0  0  0  0  0  0  0  0  0
   48.0185   58.3877   32.6269 C   0  0  0  0  0  0  0  0  0  0  0  0
   48.1548   59.7246   32.1725 C   0  0  0  0  0  0  0  0  0  0  0  0
   46.9656   60.4396   31.8814 C   0  0  0  0  0  0  0  0  0  0  0  0
   47.0194   61.7423   31.4389 N   0  0  0  0  0  0  0  0  0  0  0  0
   49.4730   60.0021   32.1240 N   0  0  0  0  0  0  0  0  0  0  0  0
   50.1432   58.9521   32.4988 C   0  0  0  0  0  0  0  0  0  0  0  0
   49.2978   57.9286   32.8256 N   0  0  0  0  0  0  0  0  0  0  0  0
  2  1  1  6  0  0  0
  2  3  1  0  0  0  0
  2  5  1  0  0  0  0
  3  4  1  0  0  0  0
  3 17  1  0  0  0  0
  5  6  1  0  0  0  0
  7  6  1  6  0  0  0
  7  8  1  0  0  0  0
  7  9  1  0  0  0  0
 10  9  1  6  0  0  0
 10 11  1  0  0  0  0
 10 12  1  0  0  0  0
 11 16  1  0  0  0  0
 12 13  1  1  0  0  0
 12 14  1  0  0  0  0
 14 15  1  1  0  0  0
 14 16  1  0  0  0  0
 16 27  1  6  0  0  0
 18 19  2  0  0  0  0
 18 23  1  0  0  0  0
 19 20  1  0  0  0  0
 20 21  2  0  0  0  0
 21 22  1  0  0  0  0
 21 27  1  0  0  0  0
 22 23  2  0  0  0  0
 22 25  1  0  0  0  0
 23 24  1  0  0  0  0
 25 26  2  0  0  0  0
 26 27  1  0  0  0  0
M  END
>  <CHROM.1>
-48.34905229,-179.23213411,169.57104627,-78.92194546,-66.04551621,100.09361739
67.02388084,48.76183710,55.96042077,31.47472254,-0.80197859,1.08897092,-0.11234759

>  <Name>
ligand

>  <RI>
0

>  <Rbt.Current_Directory>
/home/itssahil/PROJECTS/Mol_Feturizer/New_Systems/rnas/2GIS

>  <Rbt.Executable>
rbdock ($Id: //depot/dev/client3/rdock/2013.1/src/exe/rbdock.cxx#4 $)

>  <Rbt.Library>
libRbt.so (2013.1, Build901 2013/11/27)

>  <Rbt.Parameter_File>
/export/apps/rDock/src/rDock_2013.1_src/data/scripts/dock_solv.prm

>  <Rbt.Receptor>
prm/pocket_docking_5.prm

>  <SCORE>
-18.0935

>  <SCORE.INTER>
-14.4133

>  <SCORE.INTER.CONST>
1

>  <SCORE.INTER.POLAR>
0

>  <SCORE.INTER.ROT>
7

>  <SCORE.INTER.SOLV>
16.9901

>  <SCORE.INTER.VDW>
-23.5389

>  <SCORE.INTER.norm>
-0.533827

>  <SCORE.INTRA>
-3.68016

>  <SCORE.INTRA.DIHEDRAL>
-1.78296

>  <SCORE.INTRA.DIHEDRAL.0>
9.40024

>  <SCORE.INTRA.POLAR>
0

>  <SCORE.INTRA.POLAR.0>
0

>  <SCORE.INTRA.REPUL>
0

>  <SCORE.INTRA.REPUL.0>
0

>  <SCORE.INTRA.SOLV>
-3.08776

>  <SCORE.INTRA.SOLV.lig_0>
-47.1049

>  <SCORE.INTRA.VDW>
-1.2448

>  <SCORE.INTRA.VDW.0>
-1.50278

>  <SCORE.INTRA.norm>
-0.136302

>  <SCORE.RESTR>
0

>  <SCORE.RESTR.CAVITY>
0

>  <SCORE.RESTR.norm>
0

>  <SCORE.SYSTEM>
0

>  <SCORE.SYSTEM.CONST>
0

>  <SCORE.SYSTEM.DIHEDRAL>
0

>  <SCORE.SYSTEM.SOLV>
0

>  <SCORE.SYSTEM.norm>
0

>  <SCORE.heavy>
27

>  <SCORE.norm>
-0.67013

>  <RMSD>
2.882

$$$$
ligand
 OpenBabel11021811433D
libRbt.so/2013.1/901 2013/11/27
 27 29  0  0  0  0  0  0  0  0999 V2000
   51.2526   55.2615   28.7641 N   0  0  0  0  0  0  0  0  0  0  0  0
   51.4236   53.8328   29.0459 C   0  0  2  0  0  0  0  0  0  0  0  0
   51.1838   53.0341   27.7771 C   0  0  0  0  0  0  0  0  0  0  0  0
   51.1834   53.5996   26.6873 O   0  0  0  0  0  0  0  0  0  0  0  0
   50.4479   53.3714   30.1468 C   0  0  0  0  0  0  0  0  0  0  0  0
   49.0141   53.6377   29.6909 C   0  0  0  0  0  0  0  0  0  0  0  0
   47.7077   52.8173   30.6932 S   0  0  2  0  0  0  0  0  0  0  0  0
   46.1998   53.0007   29.6909 C   0  0  0  0  0  0  0  0  0  0  0  0
   47.5091   54.1616   31.8815 C   0  0  0  0  0  0  0  0  0  0  0  0
   48.7410   54.3870   32.7753 C   0  0  1  0  0  0  0  0  0  0  0  0
   49.4620   55.5642   32.3049 O   0  0  0  0  0  0  0  0  0  0  0  0
   48.1266   54.7764   34.0953 C   0  0  1  0  0  0  0  0  0  0  0  0
   48.0408   53.6327   34.9457 O   0  0  0  0  0  0  0  0  0  0  0  0
   49.1034   55.7943   34.6711 C   0  0  1  0  0  0  0  0  0  0  0  0
   50.0151   55.2026   35.5894 O   0  0  0  0  0  0  0  0  0  0  0  0
   49.8724   56.4081   33.4447 C   0  0  2  0  0  0  0  0  0  0  0  0
   50.9266   51.8318   27.8403 O   0  0  0  0  0  0  0  0  0  0  0  0
   46.0457   59.6210   31.8274 N   0  0  0  0  0  0  0  0  0  0  0  0
   45.9736   58.3018   32.0359 C   0  0  0  0  0  0  0  0  0  0  0  0
   47.0205   57.6150   32.4655 N   0  0  0  0  0  0  0  0  0  0  0  0
   48.2069   58.2077   32.6787 C   0  0  0  0  0  0  0  0  0  0  0  0
   48.3370   59.6030   32.4579 C   0  0  0  0  0  0  0  0  0  0  0  0
   47.1864   60.3043   32.0169 C   0  0  0  0  0  0  0  0  0  0  0  0
   47.2361   61.6605   31.7847 N   0  0  0  0  0  0  0  0  0  0  0  0
   49.6119   59.9390   32.7387 N   0  0  0  0  0  0  0  0  0  0  0  0
   50.2636   58.8725   33.0997 C   0  0  0  0  0  0  0  0  0  0  0  0
   49.4459   57.7770   33.0861 N   0  0  0  0  0  0  0  0  0  0  0  0
  2  1  1  6  0  0  0
  2  3  1  0  0  0  0
  2  5  1  0  0  0  0
  3  4  1  0  0  0  0
  3 17  1  0  0  0  0
  5  6  1  0  0  0  0
  7  6  1  6  0  0  0
  7  8  1  0  0  0  0
  7  9  1  0  0  0  0
 10  9  1  6  0  0  0
 10 11  1  0  0  0  0
 10 12  1  0  0  0  0
 11 16  1  0  0  0  0
 12 13  1  1  0  0  0
 12 14  1  0  0  0  0
 14 15  1  1  0  0  0
 14 16  1  0  0  0  0
 16 27  1  6  0  0  0
 18 19  2  0  0  0  0
 18 23  1  0  0  0  0
 19 20  1  0  0  0  0
 20 21  2  0  0  0  0
 21 22  1  0  0  0  0
 21 27  1  0  0  0  0
 22 23  2  0  0  0  0
 22 25  1  0  0  0  0
 23 24  1  0  0  0  0
 25 26  2  0  0  0  0
 26 27  1  0  0  0  0
M  END
>  <CHROM.1>
15.74244547,59.10593356,166.81213012,-167.21073361,-66.72227075,103.54955143
52.13099548,48.84108350,55.74952659,31.56915698,-0.59882197,1.23794045,-0.36090654

>  <Name>
ligand

>  <RI>
0

>  <Rbt.Current_Directory>
/home/itssahil/PROJECTS/Mol_Feturizer/New_Systems/rnas/2GIS

>  <Rbt.Executable>
rbdock ($Id: //depot/dev/client3/rdock/2013.1/src/exe/rbdock.cxx#4 $)

>  <Rbt.Library>
libRbt.so (2013.1, Build901 2013/11/27)

>  <Rbt.Parameter_File>
/export/apps/rDock/src/rDock_2013.1_src/data/scripts/dock_solv.prm

>  <Rbt.Receptor>
prm/pocket_docking_6.prm

>  <SCORE>
-15.7625

>  <SCORE.INTER>
-13.846

>  <SCORE.INTER.CONST>
1

>  <SCORE.INTER.POLAR>
0

>  <SCORE.INTER.ROT>
7

>  <SCORE.INTER.SOLV>
20.1522

>  <SCORE.INTER.VDW>
-24.2147

>  <SCORE.INTER.norm>
-0.512814

>  <SCORE.INTRA>
-1.91648

>  <SCORE.INTRA.DIHEDRAL>
-0.122049

>  <SCORE.INTRA.DIHEDRAL.0>
9.40024

>  <SCORE.INTRA.POLAR>
0

>  <SCORE.INTRA.POLAR.0>
0

>  <SCORE.INTRA.REPUL>
0

>  <SCORE.INTRA.REPUL.0>
0

>  <SCORE.INTRA.SOLV>
-1.94934

>  <SCORE.INTRA.SOLV.lig_0>
-47.1049

>  <SCORE.INTRA.VDW>
-0.880788

>  <SCORE.INTRA.VDW.0>
-1.50278

>  <SCORE.INTRA.norm>
-0.0709808

>  <SCORE.RESTR>
0

>  <SCORE.RESTR.CAVITY>
0

>  <SCORE.RESTR.norm>
0

>  <SCORE.SYSTEM>
0

>  <SCORE.SYSTEM.CONST>
0

>  <SCORE.SYSTEM.DIHEDRAL>
0

>  <SCORE.SYSTEM.SOLV>
0

>  <SCORE.SYSTEM.norm>
0

>  <SCORE.heavy>
27

>  <SCORE.norm>
-0.583794

>  <RMSD>
2.902

$$$$
ligand
 OpenBabel11021811433D
libRbt.so/2013.1/901 2013/11/27
 27 29  0  0  0  0  0  0  0  0999 V2000
   49.9471   54.2866   26.6716 N   0  0  0  0  0  0  0  0  0  0  0  0
   49.9479   53.7428   28.0333 C   0  0  2  0  0  0  0  0  0  0  0  0
   51.3764   53.4668   28.4676 C   0  0  0  0  0  0  0  0  0  0  0  0
   52.2023   53.0767   27.6472 O   0  0  0  0  0  0  0  0  0  0  0  0
   49.1193   52.4447   28.1048 C   0  0  0  0  0  0  0  0  0  0  0  0
   49.0267   51.9875   29.5598 C   0  0  0  0  0  0  0  0  0  0  0  0
   47.6905   52.7784   30.5465 S   0  0  2  0  0  0  0  0  0  0  0  0
   46.3463   53.0345   29.3466 C   0  0  0  0  0  0  0  0  0  0  0  0
   48.4390   54.4204   30.5959 C   0  0  0  0  0  0  0  0  0  0  0  0
   49.3823   54.6367   31.7920 C   0  0  1  0  0  0  0  0  0  0  0  0
   49.9827   55.9620   31.6917 O   0  0  0  0  0  0  0  0  0  0  0  0
   48.4302   54.6995   32.9586 C   0  0  1  0  0  0  0  0  0  0  0  0
   48.3483   53.4197   33.5862 O   0  0  0  0  0  0  0  0  0  0  0  0
   49.0673   55.7133   33.9009 C   0  0  1  0  0  0  0  0  0  0  0  0
   49.8349   55.0875   34.9225 O   0  0  0  0  0  0  0  0  0  0  0  0
   49.9784   56.6319   33.0074 C   0  0  2  0  0  0  0  0  0  0  0  0
   51.6957   53.5714   29.6520 O   0  0  0  0  0  0  0  0  0  0  0  0
   45.8412   59.5790   31.6733 N   0  0  0  0  0  0  0  0  0  0  0  0
   45.8959   58.2473   31.7851 C   0  0  0  0  0  0  0  0  0  0  0  0
   47.0096   57.6327   32.1514 N   0  0  0  0  0  0  0  0  0  0  0  0
   48.1394   58.3175   32.3943 C   0  0  0  0  0  0  0  0  0  0  0  0
   48.1353   59.7310   32.2752 C   0  0  0  0  0  0  0  0  0  0  0  0
   46.9167   60.3510   31.8999 C   0  0  0  0  0  0  0  0  0  0  0  0
   46.8360   61.7191   31.7675 N   0  0  0  0  0  0  0  0  0  0  0  0
   49.3782   60.1643   32.5658 N   0  0  0  0  0  0  0  0  0  0  0  0
   50.1326   59.1406   32.8401 C   0  0  0  0  0  0  0  0  0  0  0  0
   49.4202   57.9768   32.7551 N   0  0  0  0  0  0  0  0  0  0  0  0
  2  1  1  6  0  0  0
  2  3  1  0  0  0  0
  2  5  1  0  0  0  0
  3  4  1  0  0  0  0
  3 17  1  0  0  0  0
  5  6  1  0  0  0  0
  7  6  1  6  0  0  0
  7  8  1  0  0  0  0
  7  9  1  0  0  0  0
 10  9  1  6  0  0  0
 10 11  1  0  0  0  0
 10 12  1  0  0  0  0
 11 16  1  0  0  0  0
 12 13  1  1  0  0  0
 12 14  1  0  0  0  0
 14 15  1  1  0  0  0
 14 16  1  0  0  0  0
 16 27  1  6  0  0  0
 18 19  2  0  0  0  0
 18 23  1  0  0  0  0
 19 20  1  0  0  0  0
 20 21  2  0  0  0  0
 21 22  1  0  0  0  0
 21 27  1  0  0  0  0
 22 23  2  0  0  0  0
 22 25  1  0  0  0  0
 23 24  1  0  0  0  0
 25 26  2  0  0  0  0
 26 27  1  0  0  0  0
M  END
>  <CHROM.1>
-35.00549481,-174.32860990,84.17130263,33.83614573,-89.35955586,176.93443899
68.07456364,48.82060494,55.73473938,31.15724723,-0.00390773,1.30994171,-1.06222113

>  <Name>
ligand

>  <RI>
0

>  <Rbt.Current_Directory>
/home/itssahil/PROJECTS/Mol_Feturizer/New_Systems/rnas/2GIS

>  <Rbt.Executable>
rbdock ($Id: //depot/dev/client3/rdock/2013.1/src/exe/rbdock.cxx#4 $)

>  <Rbt.Library>
libRbt.so (2013.1, Build901 2013/11/27)

>  <Rbt.Parameter_File>
/export/apps/rDock/src/rDock_2013.1_src/data/scripts/dock_solv.prm

>  <Rbt.Receptor>
prm/pocket_docking_5.prm

>  <SCORE>
-16.7108

>  <SCORE.INTER>
-13.7431

>  <SCORE.INTER.CONST>
1

>  <SCORE.INTER.POLAR>
0

>  <SCORE.INTER.ROT>
7

>  <SCORE.INTER.SOLV>
16.5887

>  <SCORE.INTER.VDW>
-22.9583

>  <SCORE.INTER.norm>
-0.509003

>  <SCORE.INTRA>
-2.96879

>  <SCORE.INTRA.DIHEDRAL>
-2.03988

>  <SCORE.INTRA.DIHEDRAL.0>
9.40024

>  <SCORE.INTRA.POLAR>
0

>  <SCORE.INTRA.POLAR.0>
0

>  <SCORE.INTRA.REPUL>
0

>  <SCORE.INTRA.REPUL.0>
0

>  <SCORE.INTRA.SOLV>
-2.27712

>  <SCORE.INTRA.SOLV.lig_0>
-47.1049

>  <SCORE.INTRA.VDW>
-0.810292

>  <SCORE.INTRA.VDW.0>
-1.50278

>  <SCORE.INTRA.norm>
-0.109955

>  <SCORE.RESTR>
0.0010235

>  <SCORE.RESTR.CAVITY>
0.0010235

>  <SCORE.RESTR.norm>
3.79074e-05

>  <SCORE.SYSTEM>
0

>  <SCORE.SYSTEM.CONST>
0

>  <SCORE.SYSTEM.DIHEDRAL>
0

>  <SCORE.SYSTEM.SOLV>
0

>  <SCORE.SYSTEM.norm>
0

>  <SCORE.heavy>
27

>  <SCORE.norm>
-0.61892

>  <RMSD>
2.979

$$$$
ligand
 OpenBabel11021811433D
libRbt.so/2013.1/901 2013/11/27
 27 29  0  0  0  0  0  0  0  0999 V2000
   48.6739   55.5678   27.2293 N   0  0  0  0  0  0  0  0  0  0  0  0
   49.7245   55.7065   28.2426 C   0  0  2  0  0  0  0  0  0  0  0  0
   51.0805   55.7630   27.5618 C   0  0  0  0  0  0  0  0  0  0  0  0
   52.0873   56.0100   28.2196 O   0  0  0  0  0  0  0  0  0  0  0  0
   49.6864   54.5278   29.2356 C   0  0  0  0  0  0  0  0  0  0  0  0
   48.3708   54.5673   30.0116 C   0  0  0  0  0  0  0  0  0  0  0  0
   47.4341   52.9844   30.0475 S   0  0  2  0  0  0  0  0  0  0  0  0
   46.7376   52.8437   28.3720 C   0  0  0  0  0  0  0  0  0  0  0  0
   46.0184   53.6234   30.9674 C   0  0  0  0  0  0  0  0  0  0  0  0
   46.3088   53.8758   32.4570 C   0  0  1  0  0  0  0  0  0  0  0  0
   47.1035   55.0915   32.5883 O   0  0  0  0  0  0  0  0  0  0  0  0
   44.9465   54.2086   33.0091 C   0  0  1  0  0  0  0  0  0  0  0  0
   44.3600   53.0422   33.5872 O   0  0  0  0  0  0  0  0  0  0  0  0
   45.2286   55.2501   34.0849 C   0  0  1  0  0  0  0  0  0  0  0  0
   45.3042   54.6731   35.3833 O   0  0  0  0  0  0  0  0  0  0  0  0
   46.5956   55.9234   33.6973 C   0  0  2  0  0  0  0  0  0  0  0  0
   51.1680   55.6251   26.3414 O   0  0  0  0  0  0  0  0  0  0  0  0
   48.9339   60.2930   31.9596 N   0  0  0  0  0  0  0  0  0  0  0  0
   49.5159   59.1875   32.4373 C   0  0  0  0  0  0  0  0  0  0  0  0
   48.7983   58.1452   32.8256 N   0  0  0  0  0  0  0  0  0  0  0  0
   47.4558   58.1661   32.7868 C   0  0  0  0  0  0  0  0  0  0  0  0
   46.7919   59.3219   32.3011 C   0  0  0  0  0  0  0  0  0  0  0  0
   47.5983   60.4082   31.8769 C   0  0  0  0  0  0  0  0  0  0  0  0
   47.0245   61.5616   31.3910 N   0  0  0  0  0  0  0  0  0  0  0  0
   45.4666   59.0856   32.3710 N   0  0  0  0  0  0  0  0  0  0  0  0
   45.2715   57.8970   32.8626 C   0  0  0  0  0  0  0  0  0  0  0  0
   46.4626   57.2825   33.1323 N   0  0  0  0  0  0  0  0  0  0  0  0
  2  1  1  6  0  0  0
  2  3  1  0  0  0  0
  2  5  1  0  0  0  0
  3  4  1  0  0  0  0
  3 17  1  0  0  0  0
  5  6  1  0  0  0  0
  7  6  1  6  0  0  0
  7  8  1  0  0  0  0
  7  9  1  0  0  0  0
 10  9  1  6  0  0  0
 10 11  1  0  0  0  0
 10 12  1  0  0  0  0
 11 16  1  0  0  0  0
 12 13  1  1  0  0  0
 12 14  1  0  0  0  0
 14 15  1  1  0  0  0
 14 16  1  0  0  0  0
 16 27  1  6  0  0  0
 18 19  2  0  0  0  0
 18 23  1  0  0  0  0
 19 20  1  0  0  0  0
 20 21  2  0  0  0  0
 21 22  1  0  0  0  0
 21 27  1  0  0  0  0
 22 23  2  0  0  0  0
 22 25  1  0  0  0  0
 23 24  1  0  0  0  0
 25 26  2  0  0  0  0
 26 27  1  0  0  0  0
M  END
>  <CHROM.1>
172.83136702,-64.48743486,129.45601185,-73.87578645,-73.36298058,75.38950975
-71.60083303,47.56503725,56.07067390,31.20494384,0.50991447,-0.83578605,-2.76956927

>  <Name>
ligand

>  <RI>
0

>  <Rbt.Current_Directory>
/home/itssahil/PROJECTS/Mol_Feturizer/New_Systems/rnas/2GIS

>  <Rbt.Executable>
rbdock ($Id: //depot/dev/client3/rdock/2013.1/src/exe/rbdock.cxx#4 $)

>  <Rbt.Library>
libRbt.so (2013.1, Build901 2013/11/27)

>  <Rbt.Parameter_File>
/export/apps/rDock/src/rDock_2013.1_src/data/scripts/dock_solv.prm

>  <Rbt.Receptor>
prm/pocket_docking_6.prm

>  <SCORE>
-12.0601

>  <SCORE.INTER>
-10.9218

>  <SCORE.INTER.CONST>
1

>  <SCORE.INTER.POLAR>
0

>  <SCORE.INTER.ROT>
7

>  <SCORE.INTER.SOLV>
15.4917

>  <SCORE.INTER.VDW>
-20.7118

>  <SCORE.INTER.norm>
-0.404511

>  <SCORE.INTRA>
-1.13827

>  <SCORE.INTRA.DIHEDRAL>
0.110172

>  <SCORE.INTRA.DIHEDRAL.0>
9.40024

>  <SCORE.INTRA.POLAR>
0

>  <SCORE.INTRA.POLAR.0>
0

>  <SCORE.INTRA.REPUL>
0

>  <SCORE.INTRA.REPUL.0>
0

>  <SCORE.INTRA.SOLV>
-1.0247

>  <SCORE.INTRA.SOLV.lig_0>
-47.1049

>  <SCORE.INTRA.VDW>
-0.681003

>  <SCORE.INTRA.VDW.0>
-1.50278

>  <SCORE.INTRA.norm>
-0.042158

>  <SCORE.RESTR>
0

>  <SCORE.RESTR.CAVITY>
0

>  <SCORE.RESTR.norm>
0

>  <SCORE.SYSTEM>
0

>  <SCORE.SYSTEM.CONST>
0

>  <SCORE.SYSTEM.DIHEDRAL>
0

>  <SCORE.SYSTEM.SOLV>
0

>  <SCORE.SYSTEM.norm>
0

>  <SCORE.heavy>
27

>  <SCORE.norm>
-0.446669

>  <RMSD>
3.093

$$$$
ligand
 OpenBabel11021811433D
libRbt.so/2013.1/901 2013/11/27
 27 29  0  0  0  0  0  0  0  0999 V2000
   46.9313   56.9524   28.0234 N   0  0  0  0  0  0  0  0  0  0  0  0
   45.9589   56.2743   28.8862 C   0  0  2  0  0  0  0  0  0  0  0  0
   44.7346   57.1553   29.0594 C   0  0  0  0  0  0  0  0  0  0  0  0
   43.8581   56.8372   29.8582 O   0  0  0  0  0  0  0  0  0  0  0  0
   46.5756   55.9588   30.2635 C   0  0  0  0  0  0  0  0  0  0  0  0
   47.7304   54.9747   30.0832 C   0  0  0  0  0  0  0  0  0  0  0  0
   48.6691   54.5784   31.6149 S   0  0  2  0  0  0  0  0  0  0  0  0
   50.0135   53.4936   31.0424 C   0  0  0  0  0  0  0  0  0  0  0  0
   47.4878   53.3719   32.2535 C   0  0  0  0  0  0  0  0  0  0  0  0
   46.7524   53.8352   33.5230 C   0  0  1  0  0  0  0  0  0  0  0  0
   47.1305   55.2128   33.8168 O   0  0  0  0  0  0  0  0  0  0  0  0
   45.3147   53.8861   33.0739 C   0  0  1  0  0  0  0  0  0  0  0  0
   44.6493   52.6776   33.4419 O   0  0  0  0  0  0  0  0  0  0  0  0
   44.7308   55.0678   33.8383 C   0  0  1  0  0  0  0  0  0  0  0  0
   44.0535   54.6596   35.0211 O   0  0  0  0  0  0  0  0  0  0  0  0
   45.9425   56.0062   34.1895 C   0  0  2  0  0  0  0  0  0  0  0  0
   44.5854   58.1551   28.3566 O   0  0  0  0  0  0  0  0  0  0  0  0
   48.8034   60.0492   32.4428 N   0  0  0  0  0  0  0  0  0  0  0  0
   49.1866   59.0734   33.2735 C   0  0  0  0  0  0  0  0  0  0  0  0
   48.3597   58.0986   33.6175 N   0  0  0  0  0  0  0  0  0  0  0  0
   47.0925   58.0663   33.1733 C   0  0  0  0  0  0  0  0  0  0  0  0
   46.6349   59.0872   32.3011 C   0  0  0  0  0  0  0  0  0  0  0  0
   47.5583   60.1013   31.9419 C   0  0  0  0  0  0  0  0  0  0  0  0
   47.1865   61.1229   31.0970 N   0  0  0  0  0  0  0  0  0  0  0  0
   45.3449   58.8232   32.0123 N   0  0  0  0  0  0  0  0  0  0  0  0
   44.9813   57.7421   32.6377 C   0  0  0  0  0  0  0  0  0  0  0  0
   46.0198   57.2299   33.3644 N   0  0  0  0  0  0  0  0  0  0  0  0
  2  1  1  6  0  0  0
  2  3  1  0  0  0  0
  2  5  1  0  0  0  0
  3  4  1  0  0  0  0
  3 17  1  0  0  0  0
  5  6  1  0  0  0  0
  7  6  1  6  0  0  0
  7  8  1  0  0  0  0
  7  9  1  0  0  0  0
 10  9  1  6  0  0  0
 10 11  1  0  0  0  0
 10 12  1  0  0  0  0
 11 16  1  0  0  0  0
 12 13  1  1  0  0  0
 12 14  1  0  0  0  0
 14 15  1  1  0  0  0
 14 16  1  0  0  0  0
 16 27  1  6  0  0  0
 18 19  2  0  0  0  0
 18 23  1  0  0  0  0
 19 20  1  0  0  0  0
 20 21  2  0  0  0  0
 21 22  1  0  0  0  0
 21 27  1  0  0  0  0
 22 23  2  0  0  0  0
 22 25  1  0  0  0  0
 23 24  1  0  0  0  0
 25 26  2  0  0  0  0
 26 27  1  0  0  0  0
M  END
>  <CHROM.1>
-172.38588089,-63.82557199,175.66716729,-176.32997538,-111.67158018,5.01897634
-48.59930664,46.59945001,56.44125447,31.90683949,1.33833875,-1.25926457,-0.60352700

>  <Name>
ligand

>  <RI>
0

>  <Rbt.Current_Directory>
/home/itssahil/PROJECTS/Mol_Feturizer/New_Systems/rnas/2GIS

>  <Rbt.Executable>
rbdock ($Id: //depot/dev/client3/rdock/2013.1/src/exe/rbdock.cxx#4 $)

>  <Rbt.Library>
libRbt.so (2013.1, Build901 2013/11/27)

>  <Rbt.Parameter_File>
/export/apps/rDock/src/rDock_2013.1_src/data/scripts/dock_solv.prm

>  <Rbt.Receptor>
prm/pocket_docking_5.prm

>  <SCORE>
-14.0977

>  <SCORE.INTER>
-11.7348

>  <SCORE.INTER.CONST>
1

>  <SCORE.INTER.POLAR>
0

>  <SCORE.INTER.ROT>
7

>  <SCORE.INTER.SOLV>
16.439

>  <SCORE.INTER.VDW>
-21.5695

>  <SCORE.INTER.norm>
-0.434622

>  <SCORE.INTRA>
-2.36293

>  <SCORE.INTRA.DIHEDRAL>
2.92269

>  <SCORE.INTRA.DIHEDRAL.0>
9.40024

>  <SCORE.INTRA.POLAR>
0

>  <SCORE.INTRA.POLAR.0>
0

>  <SCORE.INTRA.REPUL>
0

>  <SCORE.INTRA.REPUL.0>
0

>  <SCORE.INTRA.SOLV>
-2.15521

>  <SCORE.INTRA.SOLV.lig_0>
-47.1049

>  <SCORE.INTRA.VDW>
-2.74667

>  <SCORE.INTRA.VDW.0>
-1.50278

>  <SCORE.INTRA.norm>
-0.0875159

>  <SCORE.RESTR>
0

>  <SCORE.RESTR.CAVITY>
0

>  <SCORE.RESTR.norm>
0

>  <SCORE.SYSTEM>
0

>  <SCORE.SYSTEM.CONST>
0

>  <SCORE.SYSTEM.DIHEDRAL>
0

>  <SCORE.SYSTEM.SOLV>
0

>  <SCORE.SYSTEM.norm>
0

>  <SCORE.heavy>
27

>  <SCORE.norm>
-0.522138

>  <RMSD>
3.103

$$$$
ligand
 OpenBabel11021811433D
libRbt.so/2013.1/901 2013/11/27
 27 29  0  0  0  0  0  0  0  0999 V2000
   48.5040   53.8635   26.4327 N   0  0  0  0  0  0  0  0  0  0  0  0
   48.6718   53.2811   27.7678 C   0  0  2  0  0  0  0  0  0  0  0  0
   49.2793   51.8952   27.6431 C   0  0  0  0  0  0  0  0  0  0  0  0
   49.2661   51.3148   26.5612 O   0  0  0  0  0  0  0  0  0  0  0  0
   47.3187   53.1951   28.5017 C   0  0  0  0  0  0  0  0  0  0  0  0
   47.5679   52.9231   29.9844 C   0  0  0  0  0  0  0  0  0  0  0  0
   48.6044   54.1743   30.8474 S   0  0  2  0  0  0  0  0  0  0  0  0
   50.2762   53.4556   30.8256 C   0  0  0  0  0  0  0  0  0  0  0  0
   48.0591   53.7528   32.5159 C   0  0  0  0  0  0  0  0  0  0  0  0
   49.0456   54.1781   33.6172 C   0  0  1  0  0  0  0  0  0  0  0  0
   49.7139   55.4085   33.2091 O   0  0  0  0  0  0  0  0  0  0  0  0
   48.1311   54.5594   34.7529 C   0  0  1  0  0  0  0  0  0  0  0  0
   47.9976   53.4620   35.6565 O   0  0  0  0  0  0  0  0  0  0  0  0
   48.8481   55.7208   35.4302 C   0  0  1  0  0  0  0  0  0  0  0  0
   49.6088   55.2983   36.5560 O   0  0  0  0  0  0  0  0  0  0  0  0
   49.7824   56.3579   34.3378 C   0  0  2  0  0  0  0  0  0  0  0  0
   49.7289   51.3233   28.6364 O   0  0  0  0  0  0  0  0  0  0  0  0
   46.0550   58.9721   31.7199 N   0  0  0  0  0  0  0  0  0  0  0  0
   46.0895   57.6668   32.0098 C   0  0  0  0  0  0  0  0  0  0  0  0
   47.0902   57.1413   32.6987 N   0  0  0  0  0  0  0  0  0  0  0  0
   48.1281   57.8900   33.1069 C   0  0  0  0  0  0  0  0  0  0  0  0
   48.1439   59.2773   32.8113 C   0  0  0  0  0  0  0  0  0  0  0  0
   47.0433   59.8034   32.0887 C   0  0  0  0  0  0  0  0  0  0  0  0
   46.9881   61.1413   31.7683 N   0  0  0  0  0  0  0  0  0  0  0  0
   49.2821   59.7863   33.3237 N   0  0  0  0  0  0  0  0  0  0  0  0
   49.9573   58.8311   33.8928 C   0  0  0  0  0  0  0  0  0  0  0  0
   49.2910   57.6413   33.7943 N   0  0  0  0  0  0  0  0  0  0  0  0
  2  1  1  6  0  0  0
  2  3  1  0  0  0  0
  2  5  1  0  0  0  0
  3  4  1  0  0  0  0
  3 17  1  0  0  0  0
  5  6  1  0  0  0  0
  7  6  1  6  0  0  0
  7  8  1  0  0  0  0
  7  9  1  0  0  0  0
 10  9  1  6  0  0  0
 10 11  1  0  0  0  0
 10 12  1  0  0  0  0
 11 16  1  0  0  0  0
 12 13  1  1  0  0  0
 12 14  1  0  0  0  0
 14 15  1  1  0  0  0
 14 16  1  0  0  0  0
 16 27  1  6  0  0  0
 18 19  2  0  0  0  0
 18 23  1  0  0  0  0
 19 20  1  0  0  0  0
 20 21  2  0  0  0  0
 21 22  1  0  0  0  0
 21 27  1  0  0  0  0
 22 23  2  0  0  0  0
 22 25  1  0  0  0  0
 23 24  1  0  0  0  0
 25 26  2  0  0  0  0
 26 27  1  0  0  0  0
M  END
>  <CHROM.1>
-16.64401682,-165.89864697,58.28588602,-96.86113809,157.85597401,32.93464286
51.64747086,48.49903141,55.46064963,31.80792271,1.32402039,1.27264470,-2.12551255

>  <Name>
ligand

>  <RI>
0

>  <Rbt.Current_Directory>
/home/itssahil/PROJECTS/Mol_Feturizer/New_Systems/rnas/2GIS

>  <Rbt.Executable>
rbdock ($Id: //depot/dev/client3/rdock/2013.1/src/exe/rbdock.cxx#4 $)

>  <Rbt.Library>
libRbt.so (2013.1, Build901 2013/11/27)

>  <Rbt.Parameter_File>
/export/apps/rDock/src/rDock_2013.1_src/data/scripts/dock_solv.prm

>  <Rbt.Receptor>
prm/pocket_docking_8.prm

>  <SCORE>
-18.1773

>  <SCORE.INTER>
-15.0384

>  <SCORE.INTER.CONST>
1

>  <SCORE.INTER.POLAR>
0

>  <SCORE.INTER.ROT>
7

>  <SCORE.INTER.SOLV>
15.4121

>  <SCORE.INTER.VDW>
-23.4296

>  <SCORE.INTER.norm>
-0.556978

>  <SCORE.INTRA>
-3.13885

>  <SCORE.INTRA.DIHEDRAL>
-0.813808

>  <SCORE.INTRA.DIHEDRAL.0>
9.40024

>  <SCORE.INTRA.POLAR>
0

>  <SCORE.INTRA.POLAR.0>
0

>  <SCORE.INTRA.REPUL>
0

>  <SCORE.INTRA.REPUL.0>
0

>  <SCORE.INTRA.SOLV>
-2.67593

>  <SCORE.INTRA.SOLV.lig_0>
-47.1049

>  <SCORE.INTRA.VDW>
-1.39398

>  <SCORE.INTRA.VDW.0>
-1.50278

>  <SCORE.INTRA.norm>
-0.116254

>  <SCORE.RESTR>
0

>  <SCORE.RESTR.CAVITY>
0

>  <SCORE.RESTR.norm>
0

>  <SCORE.SYSTEM>
0

>  <SCORE.SYSTEM.CONST>
0

>  <SCORE.SYSTEM.DIHEDRAL>
0

>  <SCORE.SYSTEM.SOLV>
0

>  <SCORE.SYSTEM.norm>
0

>  <SCORE.heavy>
27

>  <SCORE.norm>
-0.673232

>  <RMSD>
3.113

$$$$
ligand
 OpenBabel11021811433D
libRbt.so/2013.1/901 2013/11/27
 27 29  0  0  0  0  0  0  0  0999 V2000
   51.4828   54.1821   26.6987 N   0  0  0  0  0  0  0  0  0  0  0  0
   51.1122   53.1541   27.6763 C   0  0  2  0  0  0  0  0  0  0  0  0
   50.9659   51.8162   26.9734 C   0  0  0  0  0  0  0  0  0  0  0  0
   51.9234   51.0506   26.9065 O   0  0  0  0  0  0  0  0  0  0  0  0
   49.7920   53.5211   28.3828 C   0  0  0  0  0  0  0  0  0  0  0  0
   49.5593   52.5565   29.5448 C   0  0  0  0  0  0  0  0  0  0  0  0
   48.0593   52.8936   30.5550 S   0  0  2  0  0  0  0  0  0  0  0  0
   46.7173   53.0074   29.3310 C   0  0  0  0  0  0  0  0  0  0  0  0
   48.4184   54.6379   30.8502 C   0  0  0  0  0  0  0  0  0  0  0  0
   49.4268   54.8803   31.9866 C   0  0  1  0  0  0  0  0  0  0  0  0
   49.9611   56.2322   31.8694 O   0  0  0  0  0  0  0  0  0  0  0  0
   48.5504   54.8851   33.2127 C   0  0  1  0  0  0  0  0  0  0  0  0
   48.5653   53.5947   33.8237 O   0  0  0  0  0  0  0  0  0  0  0  0
   49.2024   55.9138   34.1284 C   0  0  1  0  0  0  0  0  0  0  0  0
   50.0610   55.3093   35.0885 O   0  0  0  0  0  0  0  0  0  0  0  0
   50.0128   56.8838   33.1932 C   0  0  2  0  0  0  0  0  0  0  0  0
   49.9092   51.5215   26.4144 O   0  0  0  0  0  0  0  0  0  0  0  0
   46.1207   59.7155   31.0922 N   0  0  0  0  0  0  0  0  0  0  0  0
   46.3186   58.3963   30.9942 C   0  0  0  0  0  0  0  0  0  0  0  0
   47.3399   57.8073   31.5960 N   0  0  0  0  0  0  0  0  0  0  0  0
   48.2379   58.5134   32.3026 C   0  0  0  0  0  0  0  0  0  0  0  0
   48.0787   59.9178   32.4238 C   0  0  0  0  0  0  0  0  0  0  0  0
   46.9606   60.5060   31.7804 C   0  0  0  0  0  0  0  0  0  0  0  0
   46.7395   61.8629   31.8567 N   0  0  0  0  0  0  0  0  0  0  0  0
   49.1029   60.3773   33.1701 N   0  0  0  0  0  0  0  0  0  0  0  0
   49.8691   59.3796   33.5018 C   0  0  0  0  0  0  0  0  0  0  0  0
   49.3812   58.2057   32.9989 N   0  0  0  0  0  0  0  0  0  0  0  0
  2  1  1  6  0  0  0
  2  3  1  0  0  0  0
  2  5  1  0  0  0  0
  3  4  1  0  0  0  0
  3 17  1  0  0  0  0
  5  6  1  0  0  0  0
  7  6  1  6  0  0  0
  7  8  1  0  0  0  0
  7  9  1  0  0  0  0
 10  9  1  6  0  0  0
 10 11  1  0  0  0  0
 10 12  1  0  0  0  0
 11 16  1  0  0  0  0
 12 13  1  1  0  0  0
 12 14  1  0  0  0  0
 14 15  1  1  0  0  0
 14 16  1  0  0  0  0
 16 27  1  6  0  0  0
 18 19  2  0  0  0  0
 18 23  1  0  0  0  0
 19 20  1  0  0  0  0
 20 21  2  0  0  0  0
 21 22  1  0  0  0  0
 21 27  1  0  0  0  0
 22 23  2  0  0  0  0
 22 25  1  0  0  0  0
 23 24  1  0  0  0  0
 25 26  2  0  0  0  0
 26 27  1  0  0  0  0
M  END
>  <CHROM.1>
92.60652438,-170.74778869,177.32996106,51.82455591,-81.01287483,162.25682344
43.48705661,48.94748323,55.68626602,30.99549863,0.63546311,1.25797280,-1.63808032

>  <Name>
ligand

>  <RI>
0

>  <Rbt.Current_Directory>
/home/itssahil/PROJECTS/Mol_Feturizer/New_Systems/rnas/2GIS

>  <Rbt.Executable>
rbdock ($Id: //depot/dev/client3/rdock/2013.1/src/exe/rbdock.cxx#4 $)

>  <Rbt.Library>
libRbt.so (2013.1, Build901 2013/11/27)

>  <Rbt.Parameter_File>
/export/apps/rDock/src/rDock_2013.1_src/data/scripts/dock_solv.prm

>  <Rbt.Receptor>
prm/pocket_docking_5.prm

>  <SCORE>
-17.0219

>  <SCORE.INTER>
-13.0185

>  <SCORE.INTER.CONST>
1

>  <SCORE.INTER.POLAR>
0

>  <SCORE.INTER.ROT>
7

>  <SCORE.INTER.SOLV>
18.2317

>  <SCORE.INTER.VDW>
-23.0229

>  <SCORE.INTER.norm>
-0.482166

>  <SCORE.INTRA>
-4.00337

>  <SCORE.INTRA.DIHEDRAL>
-4.44784

>  <SCORE.INTRA.DIHEDRAL.0>
9.40024

>  <SCORE.INTRA.POLAR>
0

>  <SCORE.INTRA.POLAR.0>
0

>  <SCORE.INTRA.REPUL>
0

>  <SCORE.INTRA.REPUL.0>
0

>  <SCORE.INTRA.SOLV>
-2.94262

>  <SCORE.INTRA.SOLV.lig_0>
-47.1049

>  <SCORE.INTRA.VDW>
-0.308137

>  <SCORE.INTRA.VDW.0>
-1.50278

>  <SCORE.INTRA.norm>
-0.148273

>  <SCORE.RESTR>
0

>  <SCORE.RESTR.CAVITY>
0

>  <SCORE.RESTR.norm>
0

>  <SCORE.SYSTEM>
0

>  <SCORE.SYSTEM.CONST>
0

>  <SCORE.SYSTEM.DIHEDRAL>
0

>  <SCORE.SYSTEM.SOLV>
0

>  <SCORE.SYSTEM.norm>
0

>  <SCORE.heavy>
27

>  <SCORE.norm>
-0.630439

>  <RMSD>
3.244

$$$$
ligand
 OpenBabel11021811433D
libRbt.so/2013.1/901 2013/11/27
 27 29  0  0  0  0  0  0  0  0999 V2000
   50.0491   53.6478   25.8477 N   0  0  0  0  0  0  0  0  0  0  0  0
   50.2209   52.2690   26.3160 C   0  0  2  0  0  0  0  0  0  0  0  0
   49.1713   51.3809   25.6717 C   0  0  0  0  0  0  0  0  0  0  0  0
   49.4443   50.2192   25.3831 O   0  0  0  0  0  0  0  0  0  0  0  0
   50.0998   52.1931   27.8510 C   0  0  0  0  0  0  0  0  0  0  0  0
   48.6974   52.6350   28.2666 C   0  0  0  0  0  0  0  0  0  0  0  0
   48.4164   52.7468   30.0812 S   0  0  2  0  0  0  0  0  0  0  0  0
   46.6467   53.1439   30.2317 C   0  0  0  0  0  0  0  0  0  0  0  0
   49.1642   54.3767   30.2881 C   0  0  0  0  0  0  0  0  0  0  0  0
   49.7301   54.6256   31.6970 C   0  0  1  0  0  0  0  0  0  0  0  0
   50.2789   55.9754   31.7584 O   0  0  0  0  0  0  0  0  0  0  0  0
   48.4908   54.6419   32.5545 C   0  0  1  0  0  0  0  0  0  0  0  0
   48.2921   53.3562   33.1429 O   0  0  0  0  0  0  0  0  0  0  0  0
   48.7996   55.6762   33.6299 C   0  0  1  0  0  0  0  0  0  0  0  0
   49.2802   55.0773   34.8277 O   0  0  0  0  0  0  0  0  0  0  0  0
   49.8830   56.6371   33.0175 C   0  0  2  0  0  0  0  0  0  0  0  0
   48.0665   51.8386   25.3789 O   0  0  0  0  0  0  0  0  0  0  0  0
   45.7270   59.6967   32.0438 N   0  0  0  0  0  0  0  0  0  0  0  0
   45.7285   58.4149   32.4260 C   0  0  0  0  0  0  0  0  0  0  0  0
   46.8596   57.7669   32.6562 N   0  0  0  0  0  0  0  0  0  0  0  0
   48.0529   58.3592   32.4843 C   0  0  0  0  0  0  0  0  0  0  0  0
   48.1034   59.7138   32.0662 C   0  0  0  0  0  0  0  0  0  0  0  0
   46.8689   60.3767   31.8498 C   0  0  0  0  0  0  0  0  0  0  0  0
   46.8393   61.6927   31.4460 N   0  0  0  0  0  0  0  0  0  0  0  0
   49.4030   60.0580   31.9685 N   0  0  0  0  0  0  0  0  0  0  0  0
   50.1397   59.0322   32.2808 C   0  0  0  0  0  0  0  0  0  0  0  0
   49.3606   57.9589   32.6124 N   0  0  0  0  0  0  0  0  0  0  0  0
  2  1  1  6  0  0  0
  2  3  1  0  0  0  0
  2  5  1  0  0  0  0
  3  4  1  0  0  0  0
  3 17  1  0  0  0  0
  5  6  1  0  0  0  0
  7  6  1  6  0  0  0
  7  8  1  0  0  0  0
  7  9  1  0  0  0  0
 10  9  1  6  0  0  0
 10 11  1  0  0  0  0
 10 12  1  0  0  0  0
 11 16  1  0  0  0  0
 12 13  1  1  0  0  0
 12 14  1  0  0  0  0
 14 15  1  1  0  0  0
 14 16  1  0  0  0  0
 16 27  1  6  0  0  0
 18 19  2  0  0  0  0
 18 23  1  0  0  0  0
 19 20  1  0  0  0  0
 20 21  2  0  0  0  0
 21 22  1  0  0  0  0
 21 27  1  0  0  0  0
 22 23  2  0  0  0  0
 22 25  1  0  0  0  0
 23 24  1  0  0  0  0
 25 26  2  0  0  0  0
 26 27  1  0  0  0  0
M  END
>  <CHROM.1>
145.63356986,62.37605738,-174.95184011,-175.17448429,-153.53900061,-178.73450116
100.93626905,48.59232651,55.42579373,30.59165086,0.98432996,1.32158321,-1.89161304

>  <Name>
ligand

>  <RI>
0

>  <Rbt.Current_Directory>
/home/itssahil/PROJECTS/Mol_Feturizer/New_Systems/rnas/2GIS

>  <Rbt.Executable>
rbdock ($Id: //depot/dev/client3/rdock/2013.1/src/exe/rbdock.cxx#4 $)

>  <Rbt.Library>
libRbt.so (2013.1, Build901 2013/11/27)

>  <Rbt.Parameter_File>
/export/apps/rDock/src/rDock_2013.1_src/data/scripts/dock_solv.prm

>  <Rbt.Receptor>
prm/pocket_docking_6.prm

>  <SCORE>
-17.8521

>  <SCORE.INTER>
-15.0623

>  <SCORE.INTER.CONST>
1

>  <SCORE.INTER.POLAR>
0

>  <SCORE.INTER.ROT>
7

>  <SCORE.INTER.SOLV>
16.1301

>  <SCORE.INTER.VDW>
-23.6849

>  <SCORE.INTER.norm>
-0.557864

>  <SCORE.INTRA>
-2.78979

>  <SCORE.INTRA.DIHEDRAL>
-2.81961

>  <SCORE.INTRA.DIHEDRAL.0>
9.40024

>  <SCORE.INTRA.POLAR>
0

>  <SCORE.INTRA.POLAR.0>
0

>  <SCORE.INTRA.REPUL>
0

>  <SCORE.INTRA.REPUL.0>
0

>  <SCORE.INTRA.SOLV>
-2.02054

>  <SCORE.INTRA.SOLV.lig_0>
-47.1049

>  <SCORE.INTRA.VDW>
-0.369712

>  <SCORE.INTRA.VDW.0>
-1.50278

>  <SCORE.INTRA.norm>
-0.103326

>  <SCORE.RESTR>
0

>  <SCORE.RESTR.CAVITY>
0

>  <SCORE.RESTR.norm>
0

>  <SCORE.SYSTEM>
0

>  <SCORE.SYSTEM.CONST>
0

>  <SCORE.SYSTEM.DIHEDRAL>
0

>  <SCORE.SYSTEM.SOLV>
0

>  <SCORE.SYSTEM.norm>
0

>  <SCORE.heavy>
27

>  <SCORE.norm>
-0.66119

>  <RMSD>
3.269

$$$$
ligand
 OpenBabel11021811433D
libRbt.so/2013.1/901 2013/11/27
 27 29  0  0  0  0  0  0  0  0999 V2000
   50.3153   54.0141   27.3177 N   0  0  0  0  0  0  0  0  0  0  0  0
   50.6108   52.7205   27.9415 C   0  0  2  0  0  0  0  0  0  0  0  0
   50.9694   51.7100   26.8665 C   0  0  0  0  0  0  0  0  0  0  0  0
   52.0914   51.2119   26.8427 O   0  0  0  0  0  0  0  0  0  0  0  0
   49.4011   52.2146   28.7525 C   0  0  0  0  0  0  0  0  0  0  0  0
   49.0552   53.2403   29.8309 C   0  0  0  0  0  0  0  0  0  0  0  0
   47.5782   52.8374   30.8510 S   0  0  2  0  0  0  0  0  0  0  0  0
   46.1870   52.9610   29.6843 C   0  0  0  0  0  0  0  0  0  0  0  0
   47.4837   54.4352   31.6858 C   0  0  0  0  0  0  0  0  0  0  0  0
   48.6642   54.7113   32.6330 C   0  0  1  0  0  0  0  0  0  0  0  0
   49.3672   55.9069   32.1823 O   0  0  0  0  0  0  0  0  0  0  0  0
   47.9762   55.0940   33.9182 C   0  0  1  0  0  0  0  0  0  0  0  0
   47.8885   53.9571   34.7776 O   0  0  0  0  0  0  0  0  0  0  0  0
   48.8908   56.1501   34.5263 C   0  0  1  0  0  0  0  0  0  0  0  0
   49.7775   55.5993   35.4931 O   0  0  0  0  0  0  0  0  0  0  0  0
   49.6957   56.7763   33.3295 C   0  0  2  0  0  0  0  0  0  0  0  0
   50.1609   51.4345   25.9798 O   0  0  0  0  0  0  0  0  0  0  0  0
   45.7480   59.9188   31.8730 N   0  0  0  0  0  0  0  0  0  0  0  0
   45.6926   58.6133   32.1584 C   0  0  0  0  0  0  0  0  0  0  0  0
   46.7717   57.9447   32.5337 N   0  0  0  0  0  0  0  0  0  0  0  0
   47.9726   58.5413   32.6120 C   0  0  0  0  0  0  0  0  0  0  0  0
   48.0848   59.9218   32.3052 C   0  0  0  0  0  0  0  0  0  0  0  0
   46.9014   60.6048   31.9269 C   0  0  0  0  0  0  0  0  0  0  0  0
   46.9326   61.9462   31.6178 N   0  0  0  0  0  0  0  0  0  0  0  0
   49.3795   60.2652   32.4573 N   0  0  0  0  0  0  0  0  0  0  0  0
   50.0586   59.2161   32.8187 C   0  0  0  0  0  0  0  0  0  0  0  0
   49.2415   58.1261   32.9347 N   0  0  0  0  0  0  0  0  0  0  0  0
  2  1  1  6  0  0  0
  2  3  1  0  0  0  0
  2  5  1  0  0  0  0
  3  4  1  0  0  0  0
  3 17  1  0  0  0  0
  5  6  1  0  0  0  0
  7  6  1  6  0  0  0
  7  8  1  0  0  0  0
  7  9  1  0  0  0  0
 10  9  1  6  0  0  0
 10 11  1  0  0  0  0
 10 12  1  0  0  0  0
 11 16  1  0  0  0  0
 12 13  1  1  0  0  0
 12 14  1  0  0  0  0
 14 15  1  1  0  0  0
 14 16  1  0  0  0  0
 16 27  1  6  0  0  0
 18 19  2  0  0  0  0
 18 23  1  0  0  0  0
 19 20  1  0  0  0  0
 20 21  2  0  0  0  0
 21 22  1  0  0  0  0
 21 27  1  0  0  0  0
 22 23  2  0  0  0  0
 22 25  1  0  0  0  0
 23 24  1  0  0  0  0
 25 26  2  0  0  0  0
 26 27  1  0  0  0  0
M  END
>  <CHROM.1>
116.72030779,-59.03307527,177.25357184,-67.37954219,-66.95951472,119.48428331
60.38112765,48.60611347,55.66252888,31.27612915,-0.25091386,1.31322873,-0.70036259

>  <Name>
ligand

>  <RI>
0

>  <Rbt.Current_Directory>
/home/itssahil/PROJECTS/Mol_Feturizer/New_Systems/rnas/2GIS

>  <Rbt.Executable>
rbdock ($Id: //depot/dev/client3/rdock/2013.1/src/exe/rbdock.cxx#4 $)

>  <Rbt.Library>
libRbt.so (2013.1, Build901 2013/11/27)

>  <Rbt.Parameter_File>
/export/apps/rDock/src/rDock_2013.1_src/data/scripts/dock_solv.prm

>  <Rbt.Receptor>
prm/pocket_docking_5.prm

>  <SCORE>
-18.2691

>  <SCORE.INTER>
-15.2431

>  <SCORE.INTER.CONST>
1

>  <SCORE.INTER.POLAR>
0

>  <SCORE.INTER.ROT>
7

>  <SCORE.INTER.SOLV>
17.2819

>  <SCORE.INTER.VDW>
-24.1893

>  <SCORE.INTER.norm>
-0.564558

>  <SCORE.INTRA>
-3.02602

>  <SCORE.INTRA.DIHEDRAL>
-1.213

>  <SCORE.INTRA.DIHEDRAL.0>
9.40024

>  <SCORE.INTRA.POLAR>
0

>  <SCORE.INTRA.POLAR.0>
0

>  <SCORE.INTRA.REPUL>
0

>  <SCORE.INTRA.REPUL.0>
0

>  <SCORE.INTRA.SOLV>
-2.33344

>  <SCORE.INTRA.SOLV.lig_0>
-47.1049

>  <SCORE.INTRA.VDW>
-1.25279

>  <SCORE.INTRA.VDW.0>
-1.50278

>  <SCORE.INTRA.norm>
-0.112075

>  <SCORE.RESTR>
0

>  <SCORE.RESTR.CAVITY>
0

>  <SCORE.RESTR.norm>
0

>  <SCORE.SYSTEM>
0

>  <SCORE.SYSTEM.CONST>
0

>  <SCORE.SYSTEM.DIHEDRAL>
0

>  <SCORE.SYSTEM.SOLV>
0

>  <SCORE.SYSTEM.norm>
0

>  <SCORE.heavy>
27

>  <SCORE.norm>
-0.676633

>  <RMSD>
3.290

$$$$
ligand
 OpenBabel11021811433D
libRbt.so/2013.1/901 2013/11/27
 27 29  0  0  0  0  0  0  0  0999 V2000
   48.3366   54.3509   23.6296 N   0  0  0  0  0  0  0  0  0  0  0  0
   48.7409   53.6735   24.8656 C   0  0  2  0  0  0  0  0  0  0  0  0
   47.5783   52.8550   25.3982 C   0  0  0  0  0  0  0  0  0  0  0  0
   47.7879   51.9148   26.1595 O   0  0  0  0  0  0  0  0  0  0  0  0
   49.1911   54.6959   25.9281 C   0  0  0  0  0  0  0  0  0  0  0  0
   49.8268   53.9530   27.1022 C   0  0  0  0  0  0  0  0  0  0  0  0
   50.5575   55.0261   28.4056 S   0  0  2  0  0  0  0  0  0  0  0  0
   52.1291   55.5925   27.6835 C   0  0  0  0  0  0  0  0  0  0  0  0
   51.1203   53.6782   29.4664 C   0  0  0  0  0  0  0  0  0  0  0  0
   50.2048   53.4157   30.6747 C   0  0  1  0  0  0  0  0  0  0  0  0
   50.1629   54.6109   31.5094 O   0  0  0  0  0  0  0  0  0  0  0  0
   48.8421   53.3041   30.0407 C   0  0  1  0  0  0  0  0  0  0  0  0
   48.5191   51.9300   29.8256 O   0  0  0  0  0  0  0  0  0  0  0  0
   47.9032   53.9150   31.0736 C   0  0  1  0  0  0  0  0  0  0  0  0
   47.2927   52.9262   31.8946 O   0  0  0  0  0  0  0  0  0  0  0  0
   48.7790   54.8914   31.9407 C   0  0  2  0  0  0  0  0  0  0  0  0
   46.4302   53.0895   25.0203 O   0  0  0  0  0  0  0  0  0  0  0  0
   45.7321   59.1446   32.3968 N   0  0  0  0  0  0  0  0  0  0  0  0
   45.5020   57.9174   32.8764 C   0  0  0  0  0  0  0  0  0  0  0  0
   46.3730   56.9360   32.7015 N   0  0  0  0  0  0  0  0  0  0  0  0
   47.5080   57.1228   32.0078 C   0  0  0  0  0  0  0  0  0  0  0  0
   47.7900   58.4036   31.4672 C   0  0  0  0  0  0  0  0  0  0  0  0
   46.8404   59.4316   31.6944 C   0  0  0  0  0  0  0  0  0  0  0  0
   47.0477   60.7009   31.2028 N   0  0  0  0  0  0  0  0  0  0  0  0
   48.9717   58.3191   30.8243 N   0  0  0  0  0  0  0  0  0  0  0  0
   49.4228   57.1027   30.9205 C   0  0  0  0  0  0  0  0  0  0  0  0
   48.5638   56.3231   31.6440 N   0  0  0  0  0  0  0  0  0  0  0  0
  2  1  1  6  0  0  0
  2  3  1  0  0  0  0
  2  5  1  0  0  0  0
  3  4  1  0  0  0  0
  3 17  1  0  0  0  0
  5  6  1  0  0  0  0
  7  6  1  6  0  0  0
  7  8  1  0  0  0  0
  7  9  1  0  0  0  0
 10  9  1  6  0  0  0
 10 11  1  0  0  0  0
 10 12  1  0  0  0  0
 11 16  1  0  0  0  0
 12 13  1  1  0  0  0
 12 14  1  0  0  0  0
 14 15  1  1  0  0  0
 14 16  1  0  0  0  0
 16 27  1  6  0  0  0
 18 19  2  0  0  0  0
 18 23  1  0  0  0  0
 19 20  1  0  0  0  0
 20 21  2  0  0  0  0
 21 22  1  0  0  0  0
 21 27  1  0  0  0  0
 22 23  2  0  0  0  0
 22 25  1  0  0  0  0
 23 24  1  0  0  0  0
 25 26  2  0  0  0  0
 26 27  1  0  0  0  0
M  END
>  <CHROM.1>
157.93977034,-170.34219349,174.91036773,-76.78160955,-101.30086935,-61.21917215
-170.80707480,48.53651703,55.26480900,29.45461644,1.08042627,1.12259345,-1.78636133

>  <Name>
ligand

>  <RI>
0

>  <Rbt.Current_Directory>
/home/itssahil/PROJECTS/Mol_Feturizer/New_Systems/rnas/2GIS

>  <Rbt.Executable>
rbdock ($Id: //depot/dev/client3/rdock/2013.1/src/exe/rbdock.cxx#4 $)

>  <Rbt.Library>
libRbt.so (2013.1, Build901 2013/11/27)

>  <Rbt.Parameter_File>
/export/apps/rDock/src/rDock_2013.1_src/data/scripts/dock_solv.prm

>  <Rbt.Receptor>
prm/pocket_docking_7.prm

>  <SCORE>
-10.732

>  <SCORE.INTER>
-7.60129

>  <SCORE.INTER.CONST>
1

>  <SCORE.INTER.POLAR>
0

>  <SCORE.INTER.ROT>
7

>  <SCORE.INTER.SOLV>
13.0882

>  <SCORE.INTER.VDW>
-17.6969

>  <SCORE.INTER.norm>
-0.281529

>  <SCORE.INTRA>
-3.14293

>  <SCORE.INTRA.DIHEDRAL>
-2.71969

>  <SCORE.INTRA.DIHEDRAL.0>
9.40024

>  <SCORE.INTRA.POLAR>
0

>  <SCORE.INTRA.POLAR.0>
0

>  <SCORE.INTRA.REPUL>
0

>  <SCORE.INTRA.REPUL.0>
0

>  <SCORE.INTRA.SOLV>
-2.69688

>  <SCORE.INTRA.SOLV.lig_0>
-47.1049

>  <SCORE.INTRA.VDW>
-0.434646

>  <SCORE.INTRA.VDW.0>
-1.50278

>  <SCORE.INTRA.norm>
-0.116405

>  <SCORE.RESTR>
0.0122327

>  <SCORE.RESTR.CAVITY>
0.0122327

>  <SCORE.RESTR.norm>
0.000453065

>  <SCORE.SYSTEM>
0

>  <SCORE.SYSTEM.CONST>
0

>  <SCORE.SYSTEM.DIHEDRAL>
0

>  <SCORE.SYSTEM.SOLV>
0

>  <SCORE.SYSTEM.norm>
0

>  <SCORE.heavy>
27

>  <SCORE.norm>
-0.397481

>  <RMSD>
3.403

$$$$
ligand
 OpenBabel11021811433D
libRbt.so/2013.1/901 2013/11/27
 27 29  0  0  0  0  0  0  0  0999 V2000
   49.9490   51.2341   25.4089 N   0  0  0  0  0  0  0  0  0  0  0  0
   50.3370   52.2709   26.3703 C   0  0  2  0  0  0  0  0  0  0  0  0
   51.8508   52.3226   26.4760 C   0  0  0  0  0  0  0  0  0  0  0  0
   52.5119   51.3000   26.3191 O   0  0  0  0  0  0  0  0  0  0  0  0
   49.7251   51.9883   27.7569 C   0  0  0  0  0  0  0  0  0  0  0  0
   49.9630   53.1933   28.6658 C   0  0  0  0  0  0  0  0  0  0  0  0
   49.3771   52.9960   30.3984 S   0  0  2  0  0  0  0  0  0  0  0  0
   47.5689   52.8621   30.2420 C   0  0  0  0  0  0  0  0  0  0  0  0
   49.5653   54.7310   30.8602 C   0  0  0  0  0  0  0  0  0  0  0  0
   49.7020   54.9586   32.3757 C   0  0  1  0  0  0  0  0  0  0  0  0
   50.1858   56.3139   32.6122 O   0  0  0  0  0  0  0  0  0  0  0  0
   48.2698   54.9412   32.8445 C   0  0  1  0  0  0  0  0  0  0  0  0
   47.9354   53.6414   33.3316 O   0  0  0  0  0  0  0  0  0  0  0  0
   48.2406   55.9574   33.9795 C   0  0  1  0  0  0  0  0  0  0  0  0
   48.3711   55.3406   35.2550 O   0  0  0  0  0  0  0  0  0  0  0  0
   49.4357   56.9446   33.7165 C   0  0  2  0  0  0  0  0  0  0  0  0
   52.4157   53.3732   26.7812 O   0  0  0  0  0  0  0  0  0  0  0  0
   45.6078   60.0461   31.8973 N   0  0  0  0  0  0  0  0  0  0  0  0
   45.5122   58.7701   32.2867 C   0  0  0  0  0  0  0  0  0  0  0  0
   46.5640   58.1102   32.7455 N   0  0  0  0  0  0  0  0  0  0  0  0
   47.7770   58.6836   32.8088 C   0  0  0  0  0  0  0  0  0  0  0  0
   47.9319   60.0312   32.3938 C   0  0  0  0  0  0  0  0  0  0  0  0
   46.7763   60.7077   31.9276 C   0  0  0  0  0  0  0  0  0  0  0  0
   46.8493   62.0180   31.5111 N   0  0  0  0  0  0  0  0  0  0  0  0
   49.2303   60.3562   32.5538 N   0  0  0  0  0  0  0  0  0  0  0  0
   49.8731   59.3252   33.0187 C   0  0  0  0  0  0  0  0  0  0  0  0
   49.0262   58.2674   33.2002 N   0  0  0  0  0  0  0  0  0  0  0  0
  2  1  1  6  0  0  0
  2  3  1  0  0  0  0
  2  5  1  0  0  0  0
  3  4  1  0  0  0  0
  3 17  1  0  0  0  0
  5  6  1  0  0  0  0
  7  6  1  6  0  0  0
  7  8  1  0  0  0  0
  7  9  1  0  0  0  0
 10  9  1  6  0  0  0
 10 11  1  0  0  0  0
 10 12  1  0  0  0  0
 11 16  1  0  0  0  0
 12 13  1  1  0  0  0
 12 14  1  0  0  0  0
 14 15  1  1  0  0  0
 14 16  1  0  0  0  0
 16 27  1  6  0  0  0
 18 19  2  0  0  0  0
 18 23  1  0  0  0  0
 19 20  1  0  0  0  0
 20 21  2  0  0  0  0
 21 22  1  0  0  0  0
 21 27  1  0  0  0  0
 22 23  2  0  0  0  0
 22 25  1  0  0  0  0
 23 24  1  0  0  0  0
 25 26  2  0  0  0  0
 26 27  1  0  0  0  0
M  END
>  <CHROM.1>
-31.42249075,-171.06705299,-176.80401348,-65.23653200,-157.59985733,165.55159739
106.56320858,48.97812770,55.69570503,30.96703237,-0.20507196,1.22117271,-0.68744854

>  <Name>
ligand

>  <RI>
0

>  <Rbt.Current_Directory>
/home/itssahil/PROJECTS/Mol_Feturizer/New_Systems/rnas/2GIS

>  <Rbt.Executable>
rbdock ($Id: //depot/dev/client3/rdock/2013.1/src/exe/rbdock.cxx#4 $)

>  <Rbt.Library>
libRbt.so (2013.1, Build901 2013/11/27)

>  <Rbt.Parameter_File>
/export/apps/rDock/src/rDock_2013.1_src/data/scripts/dock_solv.prm

>  <Rbt.Receptor>
prm/pocket_docking_7.prm

>  <SCORE>
-17.1386

>  <SCORE.INTER>
-13.2828

>  <SCORE.INTER.CONST>
1

>  <SCORE.INTER.POLAR>
0

>  <SCORE.INTER.ROT>
7

>  <SCORE.INTER.SOLV>
21.3512

>  <SCORE.INTER.VDW>
-24.2389

>  <SCORE.INTER.norm>
-0.491954

>  <SCORE.INTRA>
-3.85587

>  <SCORE.INTRA.DIHEDRAL>
-3.14664

>  <SCORE.INTRA.DIHEDRAL.0>
9.40024

>  <SCORE.INTRA.POLAR>
0

>  <SCORE.INTRA.POLAR.0>
0

>  <SCORE.INTRA.REPUL>
0

>  <SCORE.INTRA.REPUL.0>
0

>  <SCORE.INTRA.SOLV>
-2.85077

>  <SCORE.INTRA.SOLV.lig_0>
-47.1049

>  <SCORE.INTRA.VDW>
-0.857164

>  <SCORE.INTRA.VDW.0>
-1.50278

>  <SCORE.INTRA.norm>
-0.14281

>  <SCORE.RESTR>
0

>  <SCORE.RESTR.CAVITY>
0

>  <SCORE.RESTR.norm>
0

>  <SCORE.SYSTEM>
0

>  <SCORE.SYSTEM.CONST>
0

>  <SCORE.SYSTEM.DIHEDRAL>
0

>  <SCORE.SYSTEM.SOLV>
0

>  <SCORE.SYSTEM.norm>
0

>  <SCORE.heavy>
27

>  <SCORE.norm>
-0.634764

>  <RMSD>
3.443

$$$$
ligand
 OpenBabel11021811433D
libRbt.so/2013.1/901 2013/11/27
 27 29  0  0  0  0  0  0  0  0999 V2000
   49.7375   53.2690   25.8191 N   0  0  0  0  0  0  0  0  0  0  0  0
   50.5774   52.2678   26.4840 C   0  0  2  0  0  0  0  0  0  0  0  0
   50.6235   51.0054   25.6417 C   0  0  0  0  0  0  0  0  0  0  0  0
   51.7025   50.5645   25.2560 O   0  0  0  0  0  0  0  0  0  0  0  0
   50.0312   51.9404   27.8880 C   0  0  0  0  0  0  0  0  0  0  0  0
   50.1096   53.1914   28.7617 C   0  0  0  0  0  0  0  0  0  0  0  0
   49.4591   52.9956   30.4714 S   0  0  2  0  0  0  0  0  0  0  0  0
   47.6604   52.8355   30.2453 C   0  0  0  0  0  0  0  0  0  0  0  0
   49.6053   54.7356   30.9295 C   0  0  0  0  0  0  0  0  0  0  0  0
   49.6809   54.9734   32.4476 C   0  0  1  0  0  0  0  0  0  0  0  0
   50.1549   56.3304   32.6943 O   0  0  0  0  0  0  0  0  0  0  0  0
   48.2310   54.9590   32.8586 C   0  0  1  0  0  0  0  0  0  0  0  0
   47.8772   53.6624   33.3406 O   0  0  0  0  0  0  0  0  0  0  0  0
   48.1563   55.9828   33.9846 C   0  0  1  0  0  0  0  0  0  0  0  0
   48.2354   55.3746   35.2685 O   0  0  0  0  0  0  0  0  0  0  0  0
   49.3611   56.9684   33.7633 C   0  0  2  0  0  0  0  0  0  0  0  0
   49.5793   50.4562   25.2897 O   0  0  0  0  0  0  0  0  0  0  0  0
   45.5850   60.0932   31.8769 N   0  0  0  0  0  0  0  0  0  0  0  0
   45.4693   58.8259   32.2888 C   0  0  0  0  0  0  0  0  0  0  0  0
   46.5098   58.1588   32.7627 N   0  0  0  0  0  0  0  0  0  0  0  0
   47.7311   58.7152   32.8194 C   0  0  0  0  0  0  0  0  0  0  0  0
   47.9072   60.0527   32.3807 C   0  0  0  0  0  0  0  0  0  0  0  0
   46.7631   60.7377   31.8988 C   0  0  0  0  0  0  0  0  0  0  0  0
   46.8568   62.0391   31.4591 N   0  0  0  0  0  0  0  0  0  0  0  0
   49.2098   60.3612   32.5389 N   0  0  0  0  0  0  0  0  0  0  0  0
   49.8359   59.3293   33.0242 C   0  0  0  0  0  0  0  0  0  0  0  0
   48.9728   58.2877   33.2220 N   0  0  0  0  0  0  0  0  0  0  0  0
  2  1  1  6  0  0  0
  2  3  1  0  0  0  0
  2  5  1  0  0  0  0
  3  4  1  0  0  0  0
  3 17  1  0  0  0  0
  5  6  1  0  0  0  0
  7  6  1  6  0  0  0
  7  8  1  0  0  0  0
  7  9  1  0  0  0  0
 10  9  1  6  0  0  0
 10 11  1  0  0  0  0
 10 12  1  0  0  0  0
 11 16  1  0  0  0  0
 12 13  1  1  0  0  0
 12 14  1  0  0  0  0
 14 15  1  1  0  0  0
 14 16  1  0  0  0  0
 16 27  1  6  0  0  0
 18 19  2  0  0  0  0
 18 23  1  0  0  0  0
 19 20  1  0  0  0  0
 20 21  2  0  0  0  0
 21 22  1  0  0  0  0
 21 27  1  0  0  0  0
 22 23  2  0  0  0  0
 22 25  1  0  0  0  0
 23 24  1  0  0  0  0
 25 26  2  0  0  0  0
 26 27  1  0  0  0  0
M  END
>  <CHROM.1>
122.55857588,-64.00000620,178.61759608,-70.18006095,-157.53711816,164.72993754
108.95171288,48.79263085,55.59086540,30.87836288,0.39162110,1.28604988,-1.30099793

>  <Name>
ligand

>  <RI>
0

>  <Rbt.Current_Directory>
/home/itssahil/PROJECTS/Mol_Feturizer/New_Systems/rnas/2GIS

>  <Rbt.Executable>
rbdock ($Id: //depot/dev/client3/rdock/2013.1/src/exe/rbdock.cxx#4 $)

>  <Rbt.Library>
libRbt.so (2013.1, Build901 2013/11/27)

>  <Rbt.Parameter_File>
/export/apps/rDock/src/rDock_2013.1_src/data/scripts/dock_solv.prm

>  <Rbt.Receptor>
prm/pocket_docking_7.prm

>  <SCORE>
-19.1103

>  <SCORE.INTER>
-15.3957

>  <SCORE.INTER.CONST>
1

>  <SCORE.INTER.POLAR>
0

>  <SCORE.INTER.ROT>
7

>  <SCORE.INTER.SOLV>
17.4239

>  <SCORE.INTER.VDW>
-24.3385

>  <SCORE.INTER.norm>
-0.570212

>  <SCORE.INTRA>
-3.71461

>  <SCORE.INTRA.DIHEDRAL>
-3.20253

>  <SCORE.INTRA.DIHEDRAL.0>
9.40024

>  <SCORE.INTRA.POLAR>
0

>  <SCORE.INTRA.POLAR.0>
0

>  <SCORE.INTRA.REPUL>
0

>  <SCORE.INTRA.REPUL.0>
0

>  <SCORE.INTRA.SOLV>
-2.1669

>  <SCORE.INTRA.SOLV.lig_0>
-47.1049

>  <SCORE.INTRA.VDW>
-1.02989

>  <SCORE.INTRA.VDW.0>
-1.50278

>  <SCORE.INTRA.norm>
-0.137578

>  <SCORE.RESTR>
0

>  <SCORE.RESTR.CAVITY>
0

>  <SCORE.RESTR.norm>
0

>  <SCORE.SYSTEM>
0

>  <SCORE.SYSTEM.CONST>
0

>  <SCORE.SYSTEM.DIHEDRAL>
0

>  <SCORE.SYSTEM.SOLV>
0

>  <SCORE.SYSTEM.norm>
0

>  <SCORE.heavy>
27

>  <SCORE.norm>
-0.70779

>  <RMSD>
3.470

$$$$
ligand
 OpenBabel11021811433D
libRbt.so/2013.1/901 2013/11/27
 27 29  0  0  0  0  0  0  0  0999 V2000
   48.7424   53.8203   25.8517 N   0  0  0  0  0  0  0  0  0  0  0  0
   48.9258   53.1992   27.1672 C   0  0  2  0  0  0  0  0  0  0  0  0
   49.6434   51.8711   27.0046 C   0  0  0  0  0  0  0  0  0  0  0  0
   50.5935   51.5943   27.7313 O   0  0  0  0  0  0  0  0  0  0  0  0
   47.5675   52.9783   27.8624 C   0  0  0  0  0  0  0  0  0  0  0  0
   47.8070   52.5916   29.3211 C   0  0  0  0  0  0  0  0  0  0  0  0
   48.5920   53.8926   30.3582 S   0  0  2  0  0  0  0  0  0  0  0  0
   50.3464   53.4126   30.4182 C   0  0  0  0  0  0  0  0  0  0  0  0
   47.9966   53.2580   31.9398 C   0  0  0  0  0  0  0  0  0  0  0  0
   48.6933   53.8826   33.1611 C   0  0  1  0  0  0  0  0  0  0  0  0
   49.0102   55.2757   32.8681 O   0  0  0  0  0  0  0  0  0  0  0  0
   47.5931   53.9147   34.1906 C   0  0  1  0  0  0  0  0  0  0  0  0
   47.6932   52.7731   35.0422 O   0  0  0  0  0  0  0  0  0  0  0  0
   47.8624   55.1906   34.9789 C   0  0  1  0  0  0  0  0  0  0  0  0
   48.5907   54.9383   36.1749 O   0  0  0  0  0  0  0  0  0  0  0  0
   48.6780   56.1346   34.0221 C   0  0  2  0  0  0  0  0  0  0  0  0
   49.3176   51.0962   26.1050 O   0  0  0  0  0  0  0  0  0  0  0  0
   48.6272   60.8720   31.7558 N   0  0  0  0  0  0  0  0  0  0  0  0
   49.6921   60.1596   32.1400 C   0  0  0  0  0  0  0  0  0  0  0  0
   49.5574   58.9611   32.6857 N   0  0  0  0  0  0  0  0  0  0  0  0
   48.3459   58.4245   32.9062 C   0  0  0  0  0  0  0  0  0  0  0  0
   47.1856   59.1480   32.5288 C   0  0  0  0  0  0  0  0  0  0  0  0
   47.3748   60.4190   31.9296 C   0  0  0  0  0  0  0  0  0  0  0  0
   46.2956   61.1773   31.5345 N   0  0  0  0  0  0  0  0  0  0  0  0
   46.1162   58.3968   32.8591 N   0  0  0  0  0  0  0  0  0  0  0  0
   46.5260   57.2913   33.4089 C   0  0  0  0  0  0  0  0  0  0  0  0
   47.8916   57.2521   33.4592 N   0  0  0  0  0  0  0  0  0  0  0  0
  2  1  1  6  0  0  0
  2  3  1  0  0  0  0
  2  5  1  0  0  0  0
  3  4  1  0  0  0  0
  3 17  1  0  0  0  0
  5  6  1  0  0  0  0
  7  6  1  6  0  0  0
  7  8  1  0  0  0  0
  7  9  1  0  0  0  0
 10  9  1  6  0  0  0
 10 11  1  0  0  0  0
 10 12  1  0  0  0  0
 11 16  1  0  0  0  0
 12 13  1  1  0  0  0
 12 14  1  0  0  0  0
 14 15  1  1  0  0  0
 14 16  1  0  0  0  0
 16 27  1  6  0  0  0
 18 19  2  0  0  0  0
 18 23  1  0  0  0  0
 19 20  1  0  0  0  0
 20 21  2  0  0  0  0
 21 22  1  0  0  0  0
 21 27  1  0  0  0  0
 22 23  2  0  0  0  0
 22 25  1  0  0  0  0
 23 24  1  0  0  0  0
 25 26  2  0  0  0  0
 26 27  1  0  0  0  0
M  END
>  <CHROM.1>
132.96935460,-168.97491368,64.85736436,-99.55277348,166.71358706,34.19873493
-85.77910438,48.38419050,55.42226143,31.38700455,-0.00244725,1.41329630,-0.85174280

>  <Name>
ligand

>  <RI>
0

>  <Rbt.Current_Directory>
/home/itssahil/PROJECTS/Mol_Feturizer/New_Systems/rnas/2GIS

>  <Rbt.Executable>
rbdock ($Id: //depot/dev/client3/rdock/2013.1/src/exe/rbdock.cxx#4 $)

>  <Rbt.Library>
libRbt.so (2013.1, Build901 2013/11/27)

>  <Rbt.Parameter_File>
/export/apps/rDock/src/rDock_2013.1_src/data/scripts/dock_solv.prm

>  <Rbt.Receptor>
prm/pocket_docking_6.prm

>  <SCORE>
-17.1479

>  <SCORE.INTER>
-14.1157

>  <SCORE.INTER.CONST>
1

>  <SCORE.INTER.POLAR>
0

>  <SCORE.INTER.ROT>
7

>  <SCORE.INTER.SOLV>
15.3724

>  <SCORE.INTER.VDW>
-22.8013

>  <SCORE.INTER.norm>
-0.522805

>  <SCORE.INTRA>
-3.03212

>  <SCORE.INTRA.DIHEDRAL>
-1.22993

>  <SCORE.INTRA.DIHEDRAL.0>
9.40024

>  <SCORE.INTRA.POLAR>
0

>  <SCORE.INTRA.POLAR.0>
0

>  <SCORE.INTRA.REPUL>
0

>  <SCORE.INTRA.REPUL.0>
0

>  <SCORE.INTRA.SOLV>
-2.87895

>  <SCORE.INTRA.SOLV.lig_0>
-47.1049

>  <SCORE.INTRA.VDW>
-0.977684

>  <SCORE.INTRA.VDW.0>
-1.50278

>  <SCORE.INTRA.norm>
-0.112301

>  <SCORE.RESTR>
0

>  <SCORE.RESTR.CAVITY>
0

>  <SCORE.RESTR.norm>
0

>  <SCORE.SYSTEM>
0

>  <SCORE.SYSTEM.CONST>
0

>  <SCORE.SYSTEM.DIHEDRAL>
0

>  <SCORE.SYSTEM.SOLV>
0

>  <SCORE.SYSTEM.norm>
0

>  <SCORE.heavy>
27

>  <SCORE.norm>
-0.635106

>  <RMSD>
3.473

$$$$
ligand
 OpenBabel11021811433D
libRbt.so/2013.1/901 2013/11/27
 27 29  0  0  0  0  0  0  0  0999 V2000
   51.1755   53.8872   26.3906 N   0  0  0  0  0  0  0  0  0  0  0  0
   51.5184   52.6510   27.1007 C   0  0  2  0  0  0  0  0  0  0  0  0
   51.8136   51.5538   26.0936 C   0  0  0  0  0  0  0  0  0  0  0  0
   50.8895   50.9576   25.5476 O   0  0  0  0  0  0  0  0  0  0  0  0
   50.3662   52.2145   28.0274 C   0  0  0  0  0  0  0  0  0  0  0  0
   50.1420   53.2891   29.0902 C   0  0  0  0  0  0  0  0  0  0  0  0
   48.7461   52.9700   30.2452 S   0  0  2  0  0  0  0  0  0  0  0  0
   47.2827   52.9079   29.1651 C   0  0  0  0  0  0  0  0  0  0  0  0
   48.6424   54.6544   30.8861 C   0  0  0  0  0  0  0  0  0  0  0  0
   49.5490   54.9127   32.1020 C   0  0  1  0  0  0  0  0  0  0  0  0
   50.0690   56.2732   32.0282 O   0  0  0  0  0  0  0  0  0  0  0  0
   48.5739   54.9028   33.2512 C   0  0  1  0  0  0  0  0  0  0  0  0
   48.5590   53.6125   33.8625 O   0  0  0  0  0  0  0  0  0  0  0  0
   49.1307   55.9416   34.2168 C   0  0  1  0  0  0  0  0  0  0  0  0
   49.9164   55.3509   35.2455 O   0  0  0  0  0  0  0  0  0  0  0  0
   50.0000   56.9250   33.3512 C   0  0  2  0  0  0  0  0  0  0  0  0
   52.9756   51.2148   25.8684 O   0  0  0  0  0  0  0  0  0  0  0  0
   46.0019   59.6430   31.2993 N   0  0  0  0  0  0  0  0  0  0  0  0
   46.1858   58.3182   31.2819 C   0  0  0  0  0  0  0  0  0  0  0  0
   47.2390   57.7622   31.8598 N   0  0  0  0  0  0  0  0  0  0  0  0
   48.1829   58.5067   32.4590 C   0  0  0  0  0  0  0  0  0  0  0  0
   48.0396   59.9176   32.4912 C   0  0  0  0  0  0  0  0  0  0  0  0
   46.8873   60.4709   31.8778 C   0  0  0  0  0  0  0  0  0  0  0  0
   46.6791   61.8319   31.8724 N   0  0  0  0  0  0  0  0  0  0  0  0
   49.1106   60.4175   33.1394 N   0  0  0  0  0  0  0  0  0  0  0  0
   49.8900   59.4377   33.4926 C   0  0  0  0  0  0  0  0  0  0  0  0
   49.3653   58.2366   33.1038 N   0  0  0  0  0  0  0  0  0  0  0  0
  2  1  1  6  0  0  0
  2  3  1  0  0  0  0
  2  5  1  0  0  0  0
  3  4  1  0  0  0  0
  3 17  1  0  0  0  0
  5  6  1  0  0  0  0
  7  6  1  6  0  0  0
  7  8  1  0  0  0  0
  7  9  1  0  0  0  0
 10  9  1  6  0  0  0
 10 11  1  0  0  0  0
 10 12  1  0  0  0  0
 11 16  1  0  0  0  0
 12 13  1  1  0  0  0
 12 14  1  0  0  0  0
 14 15  1  1  0  0  0
 14 16  1  0  0  0  0
 16 27  1  6  0  0  0
 18 19  2  0  0  0  0
 18 23  1  0  0  0  0
 19 20  1  0  0  0  0
 20 21  2  0  0  0  0
 21 22  1  0  0  0  0
 21 27  1  0  0  0  0
 22 23  2  0  0  0  0
 22 25  1  0  0  0  0
 23 24  1  0  0  0  0
 25 26  2  0  0  0  0
 26 27  1  0  0  0  0
M  END
>  <CHROM.1>
-79.51856252,-62.53830898,177.36746677,-61.21963866,-88.60413826,144.06551546
52.78584235,49.16852945,55.62025293,30.86690122,0.49006587,1.21331273,-1.41178543

>  <Name>
ligand

>  <RI>
0

>  <Rbt.Current_Directory>
/home/itssahil/PROJECTS/Mol_Feturizer/New_Systems/rnas/2GIS

>  <Rbt.Executable>
rbdock ($Id: //depot/dev/client3/rdock/2013.1/src/exe/rbdock.cxx#4 $)

>  <Rbt.Library>
libRbt.so (2013.1, Build901 2013/11/27)

>  <Rbt.Parameter_File>
/export/apps/rDock/src/rDock_2013.1_src/data/scripts/dock_solv.prm

>  <Rbt.Receptor>
prm/pocket_docking_6.prm

>  <SCORE>
-18.0819

>  <SCORE.INTER>
-15.0184

>  <SCORE.INTER.CONST>
1

>  <SCORE.INTER.POLAR>
0

>  <SCORE.INTER.ROT>
7

>  <SCORE.INTER.SOLV>
17.6527

>  <SCORE.INTER.VDW>
-24.1631

>  <SCORE.INTER.norm>
-0.556236

>  <SCORE.INTRA>
-3.06357

>  <SCORE.INTRA.DIHEDRAL>
-1.42855

>  <SCORE.INTRA.DIHEDRAL.0>
9.40024

>  <SCORE.INTRA.POLAR>
0

>  <SCORE.INTRA.POLAR.0>
0

>  <SCORE.INTRA.REPUL>
0

>  <SCORE.INTRA.REPUL.0>
0

>  <SCORE.INTRA.SOLV>
-2.3755

>  <SCORE.INTRA.SOLV.lig_0>
-47.1049

>  <SCORE.INTRA.VDW>
-1.16155

>  <SCORE.INTRA.VDW.0>
-1.50278

>  <SCORE.INTRA.norm>
-0.113466

>  <SCORE.RESTR>
0

>  <SCORE.RESTR.CAVITY>
0

>  <SCORE.RESTR.norm>
0

>  <SCORE.SYSTEM>
0

>  <SCORE.SYSTEM.CONST>
0

>  <SCORE.SYSTEM.DIHEDRAL>
0

>  <SCORE.SYSTEM.SOLV>
0

>  <SCORE.SYSTEM.norm>
0

>  <SCORE.heavy>
27

>  <SCORE.norm>
-0.669702

>  <RMSD>
3.478

$$$$
ligand
 OpenBabel11021811433D
libRbt.so/2013.1/901 2013/11/27
 27 29  0  0  0  0  0  0  0  0999 V2000
   49.4007   51.2012   26.0859 N   0  0  0  0  0  0  0  0  0  0  0  0
   50.0943   52.1388   26.9747 C   0  0  2  0  0  0  0  0  0  0  0  0
   51.5920   52.0397   26.7460 C   0  0  0  0  0  0  0  0  0  0  0  0
   52.0590   51.0721   26.1518 O   0  0  0  0  0  0  0  0  0  0  0  0
   49.7692   51.8359   28.4510 C   0  0  0  0  0  0  0  0  0  0  0  0
   50.2259   53.0092   29.3166 C   0  0  0  0  0  0  0  0  0  0  0  0
   49.4260   54.6217   28.9365 S   0  0  2  0  0  0  0  0  0  0  0  0
   50.7748   55.8333   29.0942 C   0  0  0  0  0  0  0  0  0  0  0  0
   48.5989   54.8027   30.5309 C   0  0  0  0  0  0  0  0  0  0  0  0
   49.5652   54.9835   31.7144 C   0  0  1  0  0  0  0  0  0  0  0  0
   50.0885   56.3446   31.6986 O   0  0  0  0  0  0  0  0  0  0  0  0
   48.6474   54.9054   32.9073 C   0  0  1  0  0  0  0  0  0  0  0  0
   48.6553   53.5801   33.4384 O   0  0  0  0  0  0  0  0  0  0  0  0
   49.2565   55.8815   33.9062 C   0  0  1  0  0  0  0  0  0  0  0  0
   50.0883   55.2267   34.8569 O   0  0  0  0  0  0  0  0  0  0  0  0
   50.0879   56.9141   33.0608 C   0  0  2  0  0  0  0  0  0  0  0  0
   52.3480   52.8940   27.2091 O   0  0  0  0  0  0  0  0  0  0  0  0
   46.4157   59.8981   30.7821 N   0  0  0  0  0  0  0  0  0  0  0  0
   46.6615   58.6000   30.5731 C   0  0  0  0  0  0  0  0  0  0  0  0
   47.6144   57.9648   31.2369 N   0  0  0  0  0  0  0  0  0  0  0  0
   48.3952   58.6039   32.1236 C   0  0  0  0  0  0  0  0  0  0  0  0
   48.1824   59.9847   32.3693 C   0  0  0  0  0  0  0  0  0  0  0  0
   47.1388   60.6223   31.6519 C   0  0  0  0  0  0  0  0  0  0  0  0
   46.8716   61.9598   31.8405 N   0  0  0  0  0  0  0  0  0  0  0  0
   49.0902   60.3763   33.2857 N   0  0  0  0  0  0  0  0  0  0  0  0
   49.8358   59.3601   33.6075 C   0  0  0  0  0  0  0  0  0  0  0  0
   49.4491   58.2399   32.9257 N   0  0  0  0  0  0  0  0  0  0  0  0
  2  1  1  6  0  0  0
  2  3  1  0  0  0  0
  2  5  1  0  0  0  0
  3  4  1  0  0  0  0
  3 17  1  0  0  0  0
  5  6  1  0  0  0  0
  7  6  1  1  0  0  0
  7  8  1  0  0  0  0
  7  9  1  0  0  0  0
 10  9  1  6  0  0  0
 10 11  1  0  0  0  0
 10 12  1  0  0  0  0
 11 16  1  0  0  0  0
 12 13  1  1  0  0  0
 12 14  1  0  0  0  0
 14 15  1  1  0  0  0
 14 16  1  0  0  0  0
 16 27  1  6  0  0  0
 18 19  2  0  0  0  0
 18 23  1  0  0  0  0
 19 20  1  0  0  0  0
 20 21  2  0  0  0  0
 21 22  1  0  0  0  0
 21 27  1  0  0  0  0
 22 23  2  0  0  0  0
 22 25  1  0  0  0  0
 23 24  1  0  0  0  0
 25 26  2  0  0  0  0
 26 27  1  0  0  0  0
M  END
>  <CHROM.1>
-16.26581428,-166.66690844,60.67978927,-140.60564526,65.92523512,75.79615880
37.46670262,49.33412037,55.85747318,30.67820256,0.76529182,1.16837864,-1.75539259

>  <Name>
ligand

>  <RI>
0

>  <Rbt.Current_Directory>
/home/itssahil/PROJECTS/Mol_Feturizer/New_Systems/rnas/2GIS

>  <Rbt.Executable>
rbdock ($Id: //depot/dev/client3/rdock/2013.1/src/exe/rbdock.cxx#4 $)

>  <Rbt.Library>
libRbt.so (2013.1, Build901 2013/11/27)

>  <Rbt.Parameter_File>
/export/apps/rDock/src/rDock_2013.1_src/data/scripts/dock_solv.prm

>  <Rbt.Receptor>
prm/pocket_docking_5.prm

>  <SCORE>
-12.6524

>  <SCORE.INTER>
-11.3742

>  <SCORE.INTER.CONST>
1

>  <SCORE.INTER.POLAR>
0

>  <SCORE.INTER.ROT>
7

>  <SCORE.INTER.SOLV>
22.4991

>  <SCORE.INTER.VDW>
-23.3491

>  <SCORE.INTER.norm>
-0.421266

>  <SCORE.INTRA>
-1.27822

>  <SCORE.INTRA.DIHEDRAL>
-0.353449

>  <SCORE.INTRA.DIHEDRAL.0>
9.40024

>  <SCORE.INTRA.POLAR>
0

>  <SCORE.INTRA.POLAR.0>
0

>  <SCORE.INTRA.REPUL>
0

>  <SCORE.INTRA.REPUL.0>
0

>  <SCORE.INTRA.SOLV>
-2.71349

>  <SCORE.INTRA.SOLV.lig_0>
-47.1049

>  <SCORE.INTRA.VDW>
0.255254

>  <SCORE.INTRA.VDW.0>
-1.50278

>  <SCORE.INTRA.norm>
-0.0473414

>  <SCORE.RESTR>
0

>  <SCORE.RESTR.CAVITY>
0

>  <SCORE.RESTR.norm>
0

>  <SCORE.SYSTEM>
0

>  <SCORE.SYSTEM.CONST>
0

>  <SCORE.SYSTEM.DIHEDRAL>
0

>  <SCORE.SYSTEM.SOLV>
0

>  <SCORE.SYSTEM.norm>
0

>  <SCORE.heavy>
27

>  <SCORE.norm>
-0.468607

>  <RMSD>
3.527

$$$$
ligand
 OpenBabel11021811433D
libRbt.so/2013.1/901 2013/11/27
 27 29  0  0  0  0  0  0  0  0999 V2000
   49.5228   54.2517   27.1579 N   0  0  0  0  0  0  0  0  0  0  0  0
   49.8634   54.3650   28.5795 C   0  0  2  0  0  0  0  0  0  0  0  0
   51.3317   54.7249   28.7213 C   0  0  0  0  0  0  0  0  0  0  0  0
   51.6640   55.8971   28.8723 O   0  0  0  0  0  0  0  0  0  0  0  0
   49.5750   53.0430   29.3185 C   0  0  0  0  0  0  0  0  0  0  0  0
   49.7670   53.2546   30.8195 C   0  0  0  0  0  0  0  0  0  0  0  0
   48.5790   54.4189   31.6053 S   0  0  2  0  0  0  0  0  0  0  0  0
   49.6001   55.8563   32.0563 C   0  0  0  0  0  0  0  0  0  0  0  0
   48.4767   53.5479   33.1832 C   0  0  0  0  0  0  0  0  0  0  0  0
   47.3348   54.0387   34.0901 C   0  0  1  0  0  0  0  0  0  0  0  0
   47.5442   55.4485   34.3991 O   0  0  0  0  0  0  0  0  0  0  0  0
   46.1386   53.9875   33.1749 C   0  0  1  0  0  0  0  0  0  0  0  0
   45.4265   52.7664   33.3764 O   0  0  0  0  0  0  0  0  0  0  0  0
   45.2896   55.1755   33.6102 C   0  0  1  0  0  0  0  0  0  0  0  0
   44.2602   54.7956   34.5161 O   0  0  0  0  0  0  0  0  0  0  0  0
   46.2756   56.1955   34.2881 C   0  0  2  0  0  0  0  0  0  0  0  0
   52.1961   53.8538   28.6222 O   0  0  0  0  0  0  0  0  0  0  0  0
   49.6925   59.9684   32.9952 N   0  0  0  0  0  0  0  0  0  0  0  0
   49.8432   59.0065   33.9123 C   0  0  0  0  0  0  0  0  0  0  0  0
   48.8995   58.1023   34.1224 N   0  0  0  0  0  0  0  0  0  0  0  0
   47.7387   58.1322   33.4470 C   0  0  0  0  0  0  0  0  0  0  0  0
   47.5261   59.1421   32.4737 C   0  0  0  0  0  0  0  0  0  0  0  0
   48.5700   60.0787   32.2659 C   0  0  0  0  0  0  0  0  0  0  0  0
   48.4364   61.0849   31.3356 N   0  0  0  0  0  0  0  0  0  0  0  0
   46.2975   58.9492   31.9536 N   0  0  0  0  0  0  0  0  0  0  0  0
   45.7474   57.9213   32.5308 C   0  0  0  0  0  0  0  0  0  0  0  0
   46.5926   57.3752   33.4563 N   0  0  0  0  0  0  0  0  0  0  0  0
  2  1  1  6  0  0  0
  2  3  1  0  0  0  0
  2  5  1  0  0  0  0
  3  4  1  0  0  0  0
  3 17  1  0  0  0  0
  5  6  1  0  0  0  0
  7  6  1  6  0  0  0
  7  8  1  0  0  0  0
  7  9  1  0  0  0  0
 10  9  1  6  0  0  0
 10 11  1  0  0  0  0
 10 12  1  0  0  0  0
 11 16  1  0  0  0  0
 12 13  1  1  0  0  0
 12 14  1  0  0  0  0
 14 15  1  1  0  0  0
 14 16  1  0  0  0  0
 16 27  1  6  0  0  0
 18 19  2  0  0  0  0
 18 23  1  0  0  0  0
 19 20  1  0  0  0  0
 20 21  2  0  0  0  0
 21 22  1  0  0  0  0
 21 27  1  0  0  0  0
 22 23  2  0  0  0  0
 22 25  1  0  0  0  0
 23 24  1  0  0  0  0
 25 26  2  0  0  0  0
 26 27  1  0  0  0  0
M  END
>  <CHROM.1>
96.27048590,-172.65220818,65.29411872,-111.35951125,-168.18461727,-60.85692638
-37.29790974,48.25763026,55.95974926,31.99599926,-0.66933483,0.76680155,0.23512709

>  <Name>
ligand

>  <RI>
0

>  <Rbt.Current_Directory>
/home/itssahil/PROJECTS/Mol_Feturizer/New_Systems/rnas/2GIS

>  <Rbt.Executable>
rbdock ($Id: //depot/dev/client3/rdock/2013.1/src/exe/rbdock.cxx#4 $)

>  <Rbt.Library>
libRbt.so (2013.1, Build901 2013/11/27)

>  <Rbt.Parameter_File>
/export/apps/rDock/src/rDock_2013.1_src/data/scripts/dock_solv.prm

>  <Rbt.Receptor>
prm/pocket_docking_5.prm

>  <SCORE>
-15.7558

>  <SCORE.INTER>
-12.518

>  <SCORE.INTER.CONST>
1

>  <SCORE.INTER.POLAR>
0

>  <SCORE.INTER.ROT>
7

>  <SCORE.INTER.SOLV>
16.9368

>  <SCORE.INTER.VDW>
-22.2576

>  <SCORE.INTER.norm>
-0.46363

>  <SCORE.INTRA>
-3.2378

>  <SCORE.INTRA.DIHEDRAL>
-1.47237

>  <SCORE.INTRA.DIHEDRAL.0>
9.40024

>  <SCORE.INTRA.POLAR>
0

>  <SCORE.INTRA.POLAR.0>
0

>  <SCORE.INTRA.REPUL>
0

>  <SCORE.INTRA.REPUL.0>
0

>  <SCORE.INTRA.SOLV>
-2.69225

>  <SCORE.INTRA.SOLV.lig_0>
-47.1049

>  <SCORE.INTRA.VDW>
-1.15549

>  <SCORE.INTRA.VDW.0>
-1.50278

>  <SCORE.INTRA.norm>
-0.119918

>  <SCORE.RESTR>
0

>  <SCORE.RESTR.CAVITY>
0

>  <SCORE.RESTR.norm>
0

>  <SCORE.SYSTEM>
0

>  <SCORE.SYSTEM.CONST>
0

>  <SCORE.SYSTEM.DIHEDRAL>
0

>  <SCORE.SYSTEM.SOLV>
0

>  <SCORE.SYSTEM.norm>
0

>  <SCORE.heavy>
27

>  <SCORE.norm>
-0.583548

>  <RMSD>
3.534

$$$$
ligand
 OpenBabel11021811433D
libRbt.so/2013.1/901 2013/11/27
 27 29  0  0  0  0  0  0  0  0999 V2000
   45.7005   59.2221   30.3491 N   0  0  0  0  0  0  0  0  0  0  0  0
   46.0894   57.9117   29.8184 C   0  0  2  0  0  0  0  0  0  0  0  0
   47.4309   58.0273   29.1168 C   0  0  0  0  0  0  0  0  0  0  0  0
   47.5429   57.6756   27.9457 O   0  0  0  0  0  0  0  0  0  0  0  0
   45.0276   57.3830   28.8334 C   0  0  0  0  0  0  0  0  0  0  0  0
   44.0334   56.5042   29.5910 C   0  0  0  0  0  0  0  0  0  0  0  0
   44.7251   54.9372   30.2620 S   0  0  2  0  0  0  0  0  0  0  0  0
   43.4184   53.7084   29.9539 C   0  0  0  0  0  0  0  0  0  0  0  0
   44.4372   55.3325   31.9997 C   0  0  0  0  0  0  0  0  0  0  0  0
   45.0799   54.3341   32.9781 C   0  0  1  0  0  0  0  0  0  0  0  0
   46.5288   54.3746   32.8170 O   0  0  0  0  0  0  0  0  0  0  0  0
   44.7941   54.9548   34.3213 C   0  0  1  0  0  0  0  0  0  0  0  0
   43.6258   54.3626   34.8898 O   0  0  0  0  0  0  0  0  0  0  0  0
   46.0225   54.6123   35.1552 C   0  0  1  0  0  0  0  0  0  0  0  0
   45.8192   53.4566   35.9599 O   0  0  0  0  0  0  0  0  0  0  0  0
   47.1951   54.3774   34.1344 C   0  0  2  0  0  0  0  0  0  0  0  0
   48.4232   58.4128   29.7353 O   0  0  0  0  0  0  0  0  0  0  0  0
   48.2316   59.3639   32.8534 N   0  0  0  0  0  0  0  0  0  0  0  0
   47.0746   58.7070   32.7166 C   0  0  0  0  0  0  0  0  0  0  0  0
   46.9491   57.4470   33.1024 N   0  0  0  0  0  0  0  0  0  0  0  0
   47.9863   56.7659   33.6167 C   0  0  0  0  0  0  0  0  0  0  0  0
   49.2383   57.4154   33.7685 C   0  0  0  0  0  0  0  0  0  0  0  0
   49.3243   58.7707   33.3613 C   0  0  0  0  0  0  0  0  0  0  0  0
   50.5061   59.4669   33.4814 N   0  0  0  0  0  0  0  0  0  0  0  0
   50.0964   56.5197   34.2964 N   0  0  0  0  0  0  0  0  0  0  0  0
   49.4783   55.3880   34.4679 C   0  0  0  0  0  0  0  0  0  0  0  0
   48.1735   55.4832   34.0710 N   0  0  0  0  0  0  0  0  0  0  0  0
  2  1  1  6  0  0  0
  2  3  1  0  0  0  0
  2  5  1  0  0  0  0
  3  4  1  0  0  0  0
  3 17  1  0  0  0  0
  5  6  1  0  0  0  0
  7  6  1  6  0  0  0
  7  8  1  0  0  0  0
  7  9  1  0  0  0  0
 10  9  1  6  0  0  0
 10 11  1  0  0  0  0
 10 12  1  0  0  0  0
 11 16  1  0  0  0  0
 12 13  1  1  0  0  0
 12 14  1  0  0  0  0
 14 15  1  6  0  0  0
 14 16  1  0  0  0  0
 16 27  1  6  0  0  0
 18 19  2  0  0  0  0
 18 23  1  0  0  0  0
 19 20  1  0  0  0  0
 20 21  2  0  0  0  0
 21 22  1  0  0  0  0
 21 27  1  0  0  0  0
 22 23  2  0  0  0  0
 22 25  1  0  0  0  0
 23 24  1  0  0  0  0
 25 26  2  0  0  0  0
 26 27  1  0  0  0  0
M  END
>  <CHROM.1>
-124.17389179,-92.94113555,-66.56055208,-139.56444680,-171.32293867,63.15692294
46.68811857,46.62347775,56.36272965,32.22314003,1.11750703,-0.64823092,-1.03765170

>  <Name>
ligand

>  <RI>
0

>  <Rbt.Current_Directory>
/home/itssahil/PROJECTS/Mol_Feturizer/New_Systems/rnas/2GIS

>  <Rbt.Executable>
rbdock ($Id: //depot/dev/client3/rdock/2013.1/src/exe/rbdock.cxx#4 $)

>  <Rbt.Library>
libRbt.so (2013.1, Build901 2013/11/27)

>  <Rbt.Parameter_File>
/export/apps/rDock/src/rDock_2013.1_src/data/scripts/dock_solv.prm

>  <Rbt.Receptor>
prm/pocket_docking_6.prm

>  <SCORE>
-9.35852

>  <SCORE.INTER>
-7.48016

>  <SCORE.INTER.CONST>
1

>  <SCORE.INTER.POLAR>
0

>  <SCORE.INTER.ROT>
7

>  <SCORE.INTER.SOLV>
19.0057

>  <SCORE.INTER.VDW>
-19.5887

>  <SCORE.INTER.norm>
-0.277043

>  <SCORE.INTRA>
-1.87836

>  <SCORE.INTRA.DIHEDRAL>
2.08308

>  <SCORE.INTRA.DIHEDRAL.0>
9.40024

>  <SCORE.INTRA.POLAR>
0

>  <SCORE.INTRA.POLAR.0>
0

>  <SCORE.INTRA.REPUL>
0

>  <SCORE.INTRA.REPUL.0>
0

>  <SCORE.INTRA.SOLV>
-1.02413

>  <SCORE.INTRA.SOLV.lig_0>
-47.1049

>  <SCORE.INTRA.VDW>
-2.40783

>  <SCORE.INTRA.VDW.0>
-1.50278

>  <SCORE.INTRA.norm>
-0.0695689

>  <SCORE.RESTR>
0

>  <SCORE.RESTR.CAVITY>
0

>  <SCORE.RESTR.norm>
0

>  <SCORE.SYSTEM>
0

>  <SCORE.SYSTEM.CONST>
0

>  <SCORE.SYSTEM.DIHEDRAL>
0

>  <SCORE.SYSTEM.SOLV>
0

>  <SCORE.SYSTEM.norm>
0

>  <SCORE.heavy>
27

>  <SCORE.norm>
-0.346612

>  <RMSD>
3.641

$$$$
ligand
 OpenBabel11021811433D
libRbt.so/2013.1/901 2013/11/27
 27 29  0  0  0  0  0  0  0  0999 V2000
   47.8309   54.4345   28.1454 N   0  0  0  0  0  0  0  0  0  0  0  0
   47.4295   53.0371   28.3350 C   0  0  2  0  0  0  0  0  0  0  0  0
   46.6965   52.5484   27.0985 C   0  0  0  0  0  0  0  0  0  0  0  0
   47.2892   51.8753   26.2600 O   0  0  0  0  0  0  0  0  0  0  0  0
   46.5222   52.8913   29.5729 C   0  0  0  0  0  0  0  0  0  0  0  0
   47.3918   52.8207   30.8274 C   0  0  0  0  0  0  0  0  0  0  0  0
   48.3638   54.3390   31.1938 S   0  0  2  0  0  0  0  0  0  0  0  0
   50.0889   53.8443   30.8916 C   0  0  0  0  0  0  0  0  0  0  0  0
   48.2642   54.1980   32.9907 C   0  0  0  0  0  0  0  0  0  0  0  0
   47.6635   55.4364   33.6781 C   0  0  1  0  0  0  0  0  0  0  0  0
   48.2074   56.6378   33.0555 O   0  0  0  0  0  0  0  0  0  0  0  0
   46.2150   55.3749   33.2663 C   0  0  1  0  0  0  0  0  0  0  0  0
   45.4453   54.7511   34.2944 O   0  0  0  0  0  0  0  0  0  0  0  0
   45.8121   56.8364   33.1139 C   0  0  1  0  0  0  0  0  0  0  0  0
   45.1684   57.3395   34.2788 O   0  0  0  0  0  0  0  0  0  0  0  0
   47.1386   57.6305   32.8273 C   0  0  2  0  0  0  0  0  0  0  0  0
   45.5266   52.8772   26.9005 O   0  0  0  0  0  0  0  0  0  0  0  0
   45.2774   57.6296   27.9164 N   0  0  0  0  0  0  0  0  0  0  0  0
   44.7426   57.0464   28.9947 C   0  0  0  0  0  0  0  0  0  0  0  0
   45.3142   57.1446   30.1846 N   0  0  0  0  0  0  0  0  0  0  0  0
   46.4713   57.8057   30.3528 C   0  0  0  0  0  0  0  0  0  0  0  0
   47.0849   58.4292   29.2361 C   0  0  0  0  0  0  0  0  0  0  0  0
   46.4295   58.3166   27.9838 C   0  0  0  0  0  0  0  0  0  0  0  0
   46.9640   58.8985   26.8562 N   0  0  0  0  0  0  0  0  0  0  0  0
   48.2194   59.0122   29.6720 N   0  0  0  0  0  0  0  0  0  0  0  0
   48.3498   58.7893   30.9470 C   0  0  0  0  0  0  0  0  0  0  0  0
   47.2985   58.0549   31.4207 N   0  0  0  0  0  0  0  0  0  0  0  0
  2  1  1  6  0  0  0
  2  3  1  0  0  0  0
  2  5  1  0  0  0  0
  3  4  1  0  0  0  0
  3 17  1  0  0  0  0
  5  6  1  0  0  0  0
  7  6  1  6  0  0  0
  7  8  1  0  0  0  0
  7  9  1  0  0  0  0
 10  9  1  6  0  0  0
 10 11  1  0  0  0  0
 10 12  1  0  0  0  0
 11 16  1  0  0  0  0
 12 13  1  1  0  0  0
 12 14  1  0  0  0  0
 14 15  1  1  0  0  0
 14 16  1  0  0  0  0
 16 27  1  6  0  0  0
 18 19  2  0  0  0  0
 18 23  1  0  0  0  0
 19 20  1  0  0  0  0
 20 21  2  0  0  0  0
 21 22  1  0  0  0  0
 21 27  1  0  0  0  0
 22 23  2  0  0  0  0
 22 25  1  0  0  0  0
 23 24  1  0  0  0  0
 25 26  2  0  0  0  0
 26 27  1  0  0  0  0
M  END
>  <CHROM.1>
99.54258774,-82.04060152,64.40776160,-110.82720356,-123.69393492,-42.09721797
111.03532538,47.00295157,55.70906819,30.45070467,1.44815836,1.39136457,-2.02132808

>  <Name>
ligand

>  <RI>
0

>  <Rbt.Current_Directory>
/home/itssahil/PROJECTS/Mol_Feturizer/New_Systems/rnas/2GIS

>  <Rbt.Executable>
rbdock ($Id: //depot/dev/client3/rdock/2013.1/src/exe/rbdock.cxx#4 $)

>  <Rbt.Library>
libRbt.so (2013.1, Build901 2013/11/27)

>  <Rbt.Parameter_File>
/export/apps/rDock/src/rDock_2013.1_src/data/scripts/dock_solv.prm

>  <Rbt.Receptor>
prm/pocket_docking_5.prm

>  <SCORE>
-7.21682

>  <SCORE.INTER>
-6.80335

>  <SCORE.INTER.CONST>
1

>  <SCORE.INTER.POLAR>
0

>  <SCORE.INTER.ROT>
7

>  <SCORE.INTER.SOLV>
16.2402

>  <SCORE.INTER.VDW>
-18.2156

>  <SCORE.INTER.norm>
-0.251976

>  <SCORE.INTRA>
-0.413471

>  <SCORE.INTRA.DIHEDRAL>
4.48271

>  <SCORE.INTRA.DIHEDRAL.0>
9.40024

>  <SCORE.INTRA.POLAR>
0

>  <SCORE.INTRA.POLAR.0>
0

>  <SCORE.INTRA.REPUL>
0

>  <SCORE.INTRA.REPUL.0>
0

>  <SCORE.INTRA.SOLV>
-0.340013

>  <SCORE.INTRA.SOLV.lig_0>
-47.1049

>  <SCORE.INTRA.VDW>
-2.48482

>  <SCORE.INTRA.VDW.0>
-1.50278

>  <SCORE.INTRA.norm>
-0.0153137

>  <SCORE.RESTR>
0

>  <SCORE.RESTR.CAVITY>
0

>  <SCORE.RESTR.norm>
0

>  <SCORE.SYSTEM>
0

>  <SCORE.SYSTEM.CONST>
0

>  <SCORE.SYSTEM.DIHEDRAL>
0

>  <SCORE.SYSTEM.SOLV>
0

>  <SCORE.SYSTEM.norm>
0

>  <SCORE.heavy>
27

>  <SCORE.norm>
-0.26729

>  <RMSD>
3.682

$$$$
ligand
 OpenBabel11021811433D
libRbt.so/2013.1/901 2013/11/27
 27 29  0  0  0  0  0  0  0  0999 V2000
   50.3955   54.2181   27.4251 N   0  0  0  0  0  0  0  0  0  0  0  0
   50.8843   53.0301   28.1319 C   0  0  2  0  0  0  0  0  0  0  0  0
   50.8667   51.8382   27.1915 C   0  0  0  0  0  0  0  0  0  0  0  0
   51.8623   51.1281   27.0826 O   0  0  0  0  0  0  0  0  0  0  0  0
   50.0145   52.7330   29.3697 C   0  0  0  0  0  0  0  0  0  0  0  0
   48.5571   52.5847   28.9353 C   0  0  0  0  0  0  0  0  0  0  0  0
   47.3299   52.5554   30.3055 S   0  0  2  0  0  0  0  0  0  0  0  0
   45.7304   52.8009   29.4729 C   0  0  0  0  0  0  0  0  0  0  0  0
   47.6767   54.2224   30.9053 C   0  0  0  0  0  0  0  0  0  0  0  0
   47.2821   54.4478   32.3752 C   0  0  1  0  0  0  0  0  0  0  0  0
   47.7139   55.7788   32.7858 O   0  0  0  0  0  0  0  0  0  0  0  0
   45.7773   54.5011   32.3105 C   0  0  1  0  0  0  0  0  0  0  0  0
   45.2331   53.2205   32.6305 O   0  0  0  0  0  0  0  0  0  0  0  0
   45.3979   55.5210   33.3770 C   0  0  1  0  0  0  0  0  0  0  0  0
   45.0427   54.9026   34.6082 O   0  0  0  0  0  0  0  0  0  0  0  0
   46.6535   56.4485   33.5648 C   0  0  2  0  0  0  0  0  0  0  0  0
   49.8799   51.6168   26.4893 O   0  0  0  0  0  0  0  0  0  0  0  0
   48.9640   60.8158   31.7844 N   0  0  0  0  0  0  0  0  0  0  0  0
   49.5506   59.7369   32.3142 C   0  0  0  0  0  0  0  0  0  0  0  0
   48.8408   58.6910   32.7071 N   0  0  0  0  0  0  0  0  0  0  0  0
   47.5003   58.6824   32.6204 C   0  0  0  0  0  0  0  0  0  0  0  0
   46.8311   59.8096   32.0784 C   0  0  0  0  0  0  0  0  0  0  0  0
   47.6301   60.9003   31.6515 C   0  0  0  0  0  0  0  0  0  0  0  0
   47.0509   62.0271   31.1124 N   0  0  0  0  0  0  0  0  0  0  0  0
   45.5092   59.5473   32.1084 N   0  0  0  0  0  0  0  0  0  0  0  0
   45.3207   58.3692   32.6270 C   0  0  0  0  0  0  0  0  0  0  0  0
   46.5135   57.7880   32.9562 N   0  0  0  0  0  0  0  0  0  0  0  0
  2  1  1  6  0  0  0
  2  3  1  0  0  0  0
  2  5  1  0  0  0  0
  3  4  1  0  0  0  0
  3 17  1  0  0  0  0
  5  6  1  0  0  0  0
  7  6  1  6  0  0  0
  7  8  1  0  0  0  0
  7  9  1  0  0  0  0
 10  9  1  6  0  0  0
 10 11  1  0  0  0  0
 10 12  1  0  0  0  0
 11 16  1  0  0  0  0
 12 13  1  1  0  0  0
 12 14  1  0  0  0  0
 14 15  1  1  0  0  0
 14 16  1  0  0  0  0
 16 27  1  6  0  0  0
 18 19  2  0  0  0  0
 18 23  1  0  0  0  0
 19 20  1  0  0  0  0
 20 21  2  0  0  0  0
 21 22  1  0  0  0  0
 21 27  1  0  0  0  0
 22 23  2  0  0  0  0
 22 25  1  0  0  0  0
 23 24  1  0  0  0  0
 25 26  2  0  0  0  0
 26 27  1  0  0  0  0
M  END
>  <CHROM.1>
130.42568155,56.04649729,-168.52724314,166.04793642,-157.08105430,174.94786235
-47.22643631,47.75849640,55.56424732,31.00070278,-1.13071134,0.74189912,0.24805920

>  <Name>
ligand

>  <RI>
0

>  <Rbt.Current_Directory>
/home/itssahil/PROJECTS/Mol_Feturizer/New_Systems/rnas/2GIS

>  <Rbt.Executable>
rbdock ($Id: //depot/dev/client3/rdock/2013.1/src/exe/rbdock.cxx#4 $)

>  <Rbt.Library>
libRbt.so (2013.1, Build901 2013/11/27)

>  <Rbt.Parameter_File>
/export/apps/rDock/src/rDock_2013.1_src/data/scripts/dock_solv.prm

>  <Rbt.Receptor>
prm/pocket_docking_5.prm

>  <SCORE>
-14.8426

>  <SCORE.INTER>
-12.5636

>  <SCORE.INTER.CONST>
1

>  <SCORE.INTER.POLAR>
0

>  <SCORE.INTER.ROT>
7

>  <SCORE.INTER.SOLV>
18.3333

>  <SCORE.INTER.VDW>
-22.7535

>  <SCORE.INTER.norm>
-0.465317

>  <SCORE.INTRA>
-2.27902

>  <SCORE.INTRA.DIHEDRAL>
-3.19026

>  <SCORE.INTRA.DIHEDRAL.0>
9.40024

>  <SCORE.INTRA.POLAR>
0

>  <SCORE.INTRA.POLAR.0>
0

>  <SCORE.INTRA.REPUL>
0

>  <SCORE.INTRA.REPUL.0>
0

>  <SCORE.INTRA.SOLV>
-1.7812

>  <SCORE.INTRA.SOLV.lig_0>
-47.1049

>  <SCORE.INTRA.VDW>
0.206706

>  <SCORE.INTRA.VDW.0>
-1.50278

>  <SCORE.INTRA.norm>
-0.0844082

>  <SCORE.RESTR>
0

>  <SCORE.RESTR.CAVITY>
0

>  <SCORE.RESTR.norm>
0

>  <SCORE.SYSTEM>
0

>  <SCORE.SYSTEM.CONST>
0

>  <SCORE.SYSTEM.DIHEDRAL>
0

>  <SCORE.SYSTEM.SOLV>
0

>  <SCORE.SYSTEM.norm>
0

>  <SCORE.heavy>
27

>  <SCORE.norm>
-0.549725

>  <RMSD>
3.857

$$$$
ligand
 OpenBabel11021811433D
libRbt.so/2013.1/901 2013/11/27
 27 29  0  0  0  0  0  0  0  0999 V2000
   49.8988   55.9470   27.1854 N   0  0  0  0  0  0  0  0  0  0  0  0
   48.4887   56.3442   27.2454 C   0  0  2  0  0  0  0  0  0  0  0  0
   47.7379   55.7241   26.0805 C   0  0  0  0  0  0  0  0  0  0  0  0
   48.1618   55.8591   24.9361 O   0  0  0  0  0  0  0  0  0  0  0  0
   48.3498   57.8790   27.1999 C   0  0  0  0  0  0  0  0  0  0  0  0
   48.9639   58.4765   28.4651 C   0  0  0  0  0  0  0  0  0  0  0  0
   48.1471   57.9872   30.0392 S   0  0  2  0  0  0  0  0  0  0  0  0
   46.7509   59.1445   30.1921 C   0  0  0  0  0  0  0  0  0  0  0  0
   49.3642   58.7541   31.1298 C   0  0  0  0  0  0  0  0  0  0  0  0
   49.1507   58.4351   32.6197 C   0  0  1  0  0  0  0  0  0  0  0  0
   47.7343   58.5733   32.9384 O   0  0  0  0  0  0  0  0  0  0  0  0
   49.4498   56.9596   32.6894 C   0  0  1  0  0  0  0  0  0  0  0  0
   50.8006   56.7585   33.1061 O   0  0  0  0  0  0  0  0  0  0  0  0
   48.4846   56.4368   33.7462 C   0  0  1  0  0  0  0  0  0  0  0  0
   49.0955   56.3354   35.0272 O   0  0  0  0  0  0  0  0  0  0  0  0
   47.2832   57.4503   33.7840 C   0  0  2  0  0  0  0  0  0  0  0  0
   46.6709   55.1399   26.2707 O   0  0  0  0  0  0  0  0  0  0  0  0
   45.0680   54.5006   30.0459 N   0  0  0  0  0  0  0  0  0  0  0  0
   46.3723   54.6792   30.2823 C   0  0  0  0  0  0  0  0  0  0  0  0
   46.7926   55.4421   31.2791 N   0  0  0  0  0  0  0  0  0  0  0  0
   45.9282   56.0943   32.0739 C   0  0  0  0  0  0  0  0  0  0  0  0
   44.5345   55.9477   31.8539 C   0  0  0  0  0  0  0  0  0  0  0  0
   44.1267   55.1060   30.7884 C   0  0  0  0  0  0  0  0  0  0  0  0
   42.7907   54.9133   30.5170 N   0  0  0  0  0  0  0  0  0  0  0  0
   43.8992   56.6998   32.7747 N   0  0  0  0  0  0  0  0  0  0  0  0
   44.7827   57.2928   33.5232 C   0  0  0  0  0  0  0  0  0  0  0  0
   46.0499   56.9519   33.1399 N   0  0  0  0  0  0  0  0  0  0  0  0
  2  1  1  6  0  0  0
  2  3  1  0  0  0  0
  2  5  1  0  0  0  0
  3  4  1  0  0  0  0
  3 17  1  0  0  0  0
  5  6  1  0  0  0  0
  7  6  1  6  0  0  0
  7  8  1  0  0  0  0
  7  9  1  0  0  0  0
 10  9  1  6  0  0  0
 10 11  1  0  0  0  0
 10 12  1  0  0  0  0
 11 16  1  0  0  0  0
 12 13  1  1  0  0  0
 12 14  1  0  0  0  0
 14 15  1  1  0  0  0
 14 16  1  0  0  0  0
 16 27  1  6  0  0  0
 18 19  2  0  0  0  0
 18 23  1  0  0  0  0
 19 20  1  0  0  0  0
 20 21  2  0  0  0  0
 21 22  1  0  0  0  0
 21 27  1  0  0  0  0
 22 23  2  0  0  0  0
 22 25  1  0  0  0  0
 23 24  1  0  0  0  0
 25 26  2  0  0  0  0
 26 27  1  0  0  0  0
M  END
>  <CHROM.1>
-51.62479798,-65.69873986,-62.83575631,-83.86728150,-172.96307915,-44.73755094
81.95801529,47.32533696,56.74565141,30.64407457,-1.46579924,0.40366204,1.41427531

>  <Name>
ligand

>  <RI>
0

>  <Rbt.Current_Directory>
/home/itssahil/PROJECTS/Mol_Feturizer/New_Systems/rnas/2GIS

>  <Rbt.Executable>
rbdock ($Id: //depot/dev/client3/rdock/2013.1/src/exe/rbdock.cxx#4 $)

>  <Rbt.Library>
libRbt.so (2013.1, Build901 2013/11/27)

>  <Rbt.Parameter_File>
/export/apps/rDock/src/rDock_2013.1_src/data/scripts/dock_solv.prm

>  <Rbt.Receptor>
prm/pocket_docking_5.prm

>  <SCORE>
-11.7496

>  <SCORE.INTER>
-6.08112

>  <SCORE.INTER.CONST>
1

>  <SCORE.INTER.POLAR>
0

>  <SCORE.INTER.ROT>
7

>  <SCORE.INTER.SOLV>
10.2565

>  <SCORE.INTER.VDW>
-15.7396

>  <SCORE.INTER.norm>
-0.225227

>  <SCORE.INTRA>
-5.8226

>  <SCORE.INTRA.DIHEDRAL>
-4.07124

>  <SCORE.INTRA.DIHEDRAL.0>
9.40024

>  <SCORE.INTRA.POLAR>
0

>  <SCORE.INTRA.POLAR.0>
0

>  <SCORE.INTRA.REPUL>
0

>  <SCORE.INTRA.REPUL.0>
0

>  <SCORE.INTRA.SOLV>
-1.55005

>  <SCORE.INTRA.SOLV.lig_0>
-47.1049

>  <SCORE.INTRA.VDW>
-3.01195

>  <SCORE.INTRA.VDW.0>
-1.50278

>  <SCORE.INTRA.norm>
-0.215652

>  <SCORE.RESTR>
0.154079

>  <SCORE.RESTR.CAVITY>
0.154079

>  <SCORE.RESTR.norm>
0.00570664

>  <SCORE.SYSTEM>
0

>  <SCORE.SYSTEM.CONST>
0

>  <SCORE.SYSTEM.DIHEDRAL>
0

>  <SCORE.SYSTEM.SOLV>
0

>  <SCORE.SYSTEM.norm>
0

>  <SCORE.heavy>
27

>  <SCORE.norm>
-0.435172

>  <RMSD>
4.206

$$$$
ligand
 OpenBabel11021811433D
libRbt.so/2013.1/901 2013/11/27
 27 29  0  0  0  0  0  0  0  0999 V2000
   49.1209   57.1550   28.8511 N   0  0  0  0  0  0  0  0  0  0  0  0
   47.8282   57.6650   29.3188 C   0  0  2  0  0  0  0  0  0  0  0  0
   47.1901   58.5051   28.2268 C   0  0  0  0  0  0  0  0  0  0  0  0
   45.9863   58.7439   28.2613 O   0  0  0  0  0  0  0  0  0  0  0  0
   48.0032   58.5116   30.5953 C   0  0  0  0  0  0  0  0  0  0  0  0
   48.4010   57.5977   31.7534 C   0  0  0  0  0  0  0  0  0  0  0  0
   48.7009   58.4490   33.3564 S   0  0  2  0  0  0  0  0  0  0  0  0
   50.1255   59.5314   33.0235 C   0  0  0  0  0  0  0  0  0  0  0  0
   49.5015   57.0487   34.1670 C   0  0  0  0  0  0  0  0  0  0  0  0
   48.5152   56.0415   34.7834 C   0  0  1  0  0  0  0  0  0  0  0  0
   47.4273   55.8028   33.8419 O   0  0  0  0  0  0  0  0  0  0  0  0
   49.3203   54.7680   34.8192 C   0  0  1  0  0  0  0  0  0  0  0  0
   49.9003   54.5978   36.1127 O   0  0  0  0  0  0  0  0  0  0  0  0
   48.2938   53.6747   34.5494 C   0  0  1  0  0  0  0  0  0  0  0  0
   47.8189   53.0770   35.7501 O   0  0  0  0  0  0  0  0  0  0  0  0
   47.1148   54.3617   33.7684 C   0  0  2  0  0  0  0  0  0  0  0  0
   47.8622   58.8954   27.2720 O   0  0  0  0  0  0  0  0  0  0  0  0
   45.3847   55.5875   28.9637 N   0  0  0  0  0  0  0  0  0  0  0  0
   45.1330   56.2255   30.1120 C   0  0  0  0  0  0  0  0  0  0  0  0
   45.6550   55.8135   31.2566 N   0  0  0  0  0  0  0  0  0  0  0  0
   46.4321   54.7196   31.3179 C   0  0  0  0  0  0  0  0  0  0  0  0
   46.7163   54.0008   30.1285 C   0  0  0  0  0  0  0  0  0  0  0  0
   46.1537   54.4871   28.9214 C   0  0  0  0  0  0  0  0  0  0  0  0
   46.3883   53.8432   27.7273 N   0  0  0  0  0  0  0  0  0  0  0  0
   47.5033   52.9592   30.4646 N   0  0  0  0  0  0  0  0  0  0  0  0
   47.7116   52.9799   31.7486 C   0  0  0  0  0  0  0  0  0  0  0  0
   47.0795   54.0464   32.3250 N   0  0  0  0  0  0  0  0  0  0  0  0
  2  1  1  6  0  0  0
  2  3  1  0  0  0  0
  2  5  1  0  0  0  0
  3  4  1  0  0  0  0
  3 17  1  0  0  0  0
  5  6  1  0  0  0  0
  7  6  1  6  0  0  0
  7  8  1  0  0  0  0
  7  9  1  0  0  0  0
 10  9  1  6  0  0  0
 10 11  1  0  0  0  0
 10 12  1  0  0  0  0
 11 16  1  0  0  0  0
 12 13  1  1  0  0  0
 12 14  1  0  0  0  0
 14 15  1  1  0  0  0
 14 16  1  0  0  0  0
 16 27  1  6  0  0  0
 18 19  2  0  0  0  0
 18 23  1  0  0  0  0
 19 20  1  0  0  0  0
 20 21  2  0  0  0  0
 21 22  1  0  0  0  0
 21 27  1  0  0  0  0
 22 23  2  0  0  0  0
 22 25  1  0  0  0  0
 23 24  1  0  0  0  0
 25 26  2  0  0  0  0
 26 27  1  0  0  0  0
M  END
>  <CHROM.1>
161.48342651,-69.27137733,178.33900545,-63.29738890,-83.65612424,43.67060432
-48.00538017,47.68948944,56.05888519,31.66097525,-2.13169926,1.06759794,2.41808502

>  <Name>
ligand

>  <RI>
0

>  <Rbt.Current_Directory>
/home/itssahil/PROJECTS/Mol_Feturizer/New_Systems/rnas/2GIS

>  <Rbt.Executable>
rbdock ($Id: //depot/dev/client3/rdock/2013.1/src/exe/rbdock.cxx#4 $)

>  <Rbt.Library>
libRbt.so (2013.1, Build901 2013/11/27)

>  <Rbt.Parameter_File>
/export/apps/rDock/src/rDock_2013.1_src/data/scripts/dock_solv.prm

>  <Rbt.Receptor>
prm/pocket_docking_6.prm

>  <SCORE>
-18.1373

>  <SCORE.INTER>
-12.1197

>  <SCORE.INTER.CONST>
1

>  <SCORE.INTER.POLAR>
0

>  <SCORE.INTER.ROT>
7

>  <SCORE.INTER.SOLV>
10.3132

>  <SCORE.INTER.VDW>
-19.7842

>  <SCORE.INTER.norm>
-0.448876

>  <SCORE.INTRA>
-6.01763

>  <SCORE.INTRA.DIHEDRAL>
-4.08674

>  <SCORE.INTRA.DIHEDRAL.0>
9.40024

>  <SCORE.INTRA.POLAR>
0

>  <SCORE.INTRA.POLAR.0>
0

>  <SCORE.INTRA.REPUL>
0

>  <SCORE.INTRA.REPUL.0>
0

>  <SCORE.INTRA.SOLV>
-2.00392

>  <SCORE.INTRA.SOLV.lig_0>
-47.1049

>  <SCORE.INTRA.VDW>
-2.9723

>  <SCORE.INTRA.VDW.0>
-1.50278

>  <SCORE.INTRA.norm>
-0.222875

>  <SCORE.RESTR>
0

>  <SCORE.RESTR.CAVITY>
0

>  <SCORE.RESTR.norm>
0

>  <SCORE.SYSTEM>
0

>  <SCORE.SYSTEM.CONST>
0

>  <SCORE.SYSTEM.DIHEDRAL>
0

>  <SCORE.SYSTEM.SOLV>
0

>  <SCORE.SYSTEM.norm>
0

>  <SCORE.heavy>
27

>  <SCORE.norm>
-0.671751

>  <RMSD>
4.406

$$$$
ligand
 OpenBabel11021811433D
libRbt.so/2013.1/901 2013/11/27
 27 29  0  0  0  0  0  0  0  0999 V2000
   47.6735   55.6939   28.4707 N   0  0  0  0  0  0  0  0  0  0  0  0
   47.7283   57.1396   28.7094 C   0  0  2  0  0  0  0  0  0  0  0  0
   47.7325   57.8725   27.3797 C   0  0  0  0  0  0  0  0  0  0  0  0
   46.9511   58.8000   27.1881 O   0  0  0  0  0  0  0  0  0  0  0  0
   48.9870   57.5138   29.5172 C   0  0  0  0  0  0  0  0  0  0  0  0
   48.8490   58.9479   30.0261 C   0  0  0  0  0  0  0  0  0  0  0  0
   47.7185   59.1651   31.4610 S   0  0  2  0  0  0  0  0  0  0  0  0
   47.3275   60.9425   31.4518 C   0  0  0  0  0  0  0  0  0  0  0  0
   49.0036   59.0915   32.7267 C   0  0  0  0  0  0  0  0  0  0  0  0
   48.9375   57.8305   33.6057 C   0  0  1  0  0  0  0  0  0  0  0  0
   47.5713   57.6545   34.0846 O   0  0  0  0  0  0  0  0  0  0  0  0
   49.1757   56.7214   32.6135 C   0  0  1  0  0  0  0  0  0  0  0  0
   50.5530   56.3454   32.6288 O   0  0  0  0  0  0  0  0  0  0  0  0
   48.3073   55.5776   33.1228 C   0  0  1  0  0  0  0  0  0  0  0  0
   49.0473   54.6519   33.9102 O   0  0  0  0  0  0  0  0  0  0  0  0
   47.1637   56.2397   33.9748 C   0  0  2  0  0  0  0  0  0  0  0  0
   48.4725   57.5004   26.4688 O   0  0  0  0  0  0  0  0  0  0  0  0
   42.5692   53.8730   33.0419 N   0  0  0  0  0  0  0  0  0  0  0  0
   43.5813   53.4281   33.7947 C   0  0  0  0  0  0  0  0  0  0  0  0
   44.6829   54.1437   33.9587 N   0  0  0  0  0  0  0  0  0  0  0  0
   44.8436   55.3305   33.3506 C   0  0  0  0  0  0  0  0  0  0  0  0
   43.8036   55.8383   32.5304 C   0  0  0  0  0  0  0  0  0  0  0  0
   42.6329   55.0496   32.3973 C   0  0  0  0  0  0  0  0  0  0  0  0
   41.5807   55.4793   31.6201 N   0  0  0  0  0  0  0  0  0  0  0  0
   44.2160   57.0262   32.0446 N   0  0  0  0  0  0  0  0  0  0  0  0
   45.4125   57.2759   32.4899 C   0  0  0  0  0  0  0  0  0  0  0  0
   45.8471   56.2672   33.3039 N   0  0  0  0  0  0  0  0  0  0  0  0
  2  1  1  6  0  0  0
  2  3  1  0  0  0  0
  2  5  1  0  0  0  0
  3  4  1  0  0  0  0
  3 17  1  0  0  0  0
  5  6  1  0  0  0  0
  7  6  1  6  0  0  0
  7  8  1  0  0  0  0
  7  9  1  0  0  0  0
 10  9  1  6  0  0  0
 10 11  1  0  0  0  0
 10 12  1  0  0  0  0
 11 16  1  0  0  0  0
 12 13  1  1  0  0  0
 12 14  1  0  0  0  0
 14 15  1  1  0  0  0
 14 16  1  0  0  0  0
 16 27  1  6  0  0  0
 18 19  2  0  0  0  0
 18 23  1  0  0  0  0
 19 20  1  0  0  0  0
 20 21  2  0  0  0  0
 21 22  1  0  0  0  0
 21 27  1  0  0  0  0
 22 23  2  0  0  0  0
 22 25  1  0  0  0  0
 23 24  1  0  0  0  0
 25 26  2  0  0  0  0
 26 27  1  0  0  0  0
M  END
>  <CHROM.1>
130.37327056,-166.78860618,76.16061668,-161.19622848,-111.46710469,-49.33698561
-155.95312739,46.81906557,56.87841692,31.64778132,0.75068045,-0.41694844
-1.24669747

>  <Name>
ligand

>  <RI>
0

>  <Rbt.Current_Directory>
/home/itssahil/PROJECTS/Mol_Feturizer/New_Systems/rnas/2GIS

>  <Rbt.Executable>
rbdock ($Id: //depot/dev/client3/rdock/2013.1/src/exe/rbdock.cxx#4 $)

>  <Rbt.Library>
libRbt.so (2013.1, Build901 2013/11/27)

>  <Rbt.Parameter_File>
/export/apps/rDock/src/rDock_2013.1_src/data/scripts/dock_solv.prm

>  <Rbt.Receptor>
prm/pocket_docking_7.prm

>  <SCORE>
-15.3852

>  <SCORE.INTER>
-12.7738

>  <SCORE.INTER.CONST>
1

>  <SCORE.INTER.POLAR>
0

>  <SCORE.INTER.ROT>
7

>  <SCORE.INTER.SOLV>
9.98458

>  <SCORE.INTER.VDW>
-20.1108

>  <SCORE.INTER.norm>
-0.473105

>  <SCORE.INTRA>
-2.61133

>  <SCORE.INTRA.DIHEDRAL>
1.45926

>  <SCORE.INTRA.DIHEDRAL.0>
9.40024

>  <SCORE.INTRA.POLAR>
0

>  <SCORE.INTRA.POLAR.0>
0

>  <SCORE.INTRA.REPUL>
0

>  <SCORE.INTRA.REPUL.0>
0

>  <SCORE.INTRA.SOLV>
-2.46605

>  <SCORE.INTRA.SOLV.lig_0>
-47.1049

>  <SCORE.INTRA.VDW>
-2.10794

>  <SCORE.INTRA.VDW.0>
-1.50278

>  <SCORE.INTRA.norm>
-0.0967161

>  <SCORE.RESTR>
0

>  <SCORE.RESTR.CAVITY>
0

>  <SCORE.RESTR.norm>
0

>  <SCORE.SYSTEM>
0

>  <SCORE.SYSTEM.CONST>
0

>  <SCORE.SYSTEM.DIHEDRAL>
0

>  <SCORE.SYSTEM.SOLV>
0

>  <SCORE.SYSTEM.norm>
0

>  <SCORE.heavy>
27

>  <SCORE.norm>
-0.569821

>  <RMSD>
4.551

$$$$
ligand
 OpenBabel11021811433D
libRbt.so/2013.1/901 2013/11/27
 27 29  0  0  0  0  0  0  0  0999 V2000
   47.8343   57.6545   33.8078 N   0  0  0  0  0  0  0  0  0  0  0  0
   49.0739   57.8522   33.0500 C   0  0  2  0  0  0  0  0  0  0  0  0
   49.3709   59.3374   32.9435 C   0  0  0  0  0  0  0  0  0  0  0  0
   48.9612   59.9771   31.9789 O   0  0  0  0  0  0  0  0  0  0  0  0
   48.9572   57.2395   31.6400 C   0  0  0  0  0  0  0  0  0  0  0  0
   48.9331   55.7161   31.7550 C   0  0  0  0  0  0  0  0  0  0  0  0
   47.5336   55.0255   32.7290 S   0  0  2  0  0  0  0  0  0  0  0  0
   48.2627   54.6640   34.3568 C   0  0  0  0  0  0  0  0  0  0  0  0
   47.5560   53.3924   31.9601 C   0  0  0  0  0  0  0  0  0  0  0  0
   46.8026   53.3269   30.6202 C   0  0  1  0  0  0  0  0  0  0  0  0
   45.8841   54.4565   30.5342 O   0  0  0  0  0  0  0  0  0  0  0  0
   47.8909   53.5992   29.6138 C   0  0  1  0  0  0  0  0  0  0  0  0
   48.3916   52.3662   29.0965 O   0  0  0  0  0  0  0  0  0  0  0  0
   47.1893   54.3897   28.5162 C   0  0  1  0  0  0  0  0  0  0  0  0
   46.7833   53.5602   27.4338 O   0  0  0  0  0  0  0  0  0  0  0  0
   45.9424   55.0686   29.1919 C   0  0  2  0  0  0  0  0  0  0  0  0
   50.0752   59.8911   33.7880 O   0  0  0  0  0  0  0  0  0  0  0  0
   45.3475   59.1501   32.4429 N   0  0  0  0  0  0  0  0  0  0  0  0
   45.0277   57.8709   32.6677 C   0  0  0  0  0  0  0  0  0  0  0  0
   45.2523   56.9356   31.7583 N   0  0  0  0  0  0  0  0  0  0  0  0
   45.7800   57.2366   30.5603 C   0  0  0  0  0  0  0  0  0  0  0  0
   46.1227   58.5821   30.2694 C   0  0  0  0  0  0  0  0  0  0  0  0
   45.8842   59.5493   31.2782 C   0  0  0  0  0  0  0  0  0  0  0  0
   46.1944   60.8743   31.0688 N   0  0  0  0  0  0  0  0  0  0  0  0
   46.6223   58.6098   29.0177 N   0  0  0  0  0  0  0  0  0  0  0  0
   46.6034   57.4060   28.5250 C   0  0  0  0  0  0  0  0  0  0  0  0
   46.0991   56.5181   29.4340 N   0  0  0  0  0  0  0  0  0  0  0  0
  2  1  1  6  0  0  0
  2  3  1  0  0  0  0
  2  5  1  0  0  0  0
  3  4  1  0  0  0  0
  3 17  1  0  0  0  0
  5  6  1  0  0  0  0
  7  6  1  6  0  0  0
  7  8  1  0  0  0  0
  7  9  1  0  0  0  0
 10  9  1  1  0  0  0
 10 11  1  0  0  0  0
 10 12  1  0  0  0  0
 11 16  1  0  0  0  0
 12 13  1  6  0  0  0
 12 14  1  0  0  0  0
 14 15  1  6  0  0  0
 14 16  1  0  0  0  0
 16 27  1  1  0  0  0
 18 19  2  0  0  0  0
 18 23  1  0  0  0  0
 19 20  1  0  0  0  0
 20 21  2  0  0  0  0
 21 22  1  0  0  0  0
 21 27  1  0  0  0  0
 22 23  2  0  0  0  0
 22 25  1  0  0  0  0
 23 24  1  0  0  0  0
 25 26  2  0  0  0  0
 26 27  1  0  0  0  0
M  END
>  <CHROM.1>
-91.93214677,-69.90532198,60.74918416,-100.19418729,-82.75238008,-19.50072817
-21.85156878,47.25875090,56.55053125,31.19573825,-1.38632920,0.97797111,-2.81926299

>  <Name>
ligand

>  <RI>
0

>  <Rbt.Current_Directory>
/home/itssahil/PROJECTS/Mol_Feturizer/New_Systems/rnas/2GIS

>  <Rbt.Executable>
rbdock ($Id: //depot/dev/client3/rdock/2013.1/src/exe/rbdock.cxx#4 $)

>  <Rbt.Library>
libRbt.so (2013.1, Build901 2013/11/27)

>  <Rbt.Parameter_File>
/export/apps/rDock/src/rDock_2013.1_src/data/scripts/dock_solv.prm

>  <Rbt.Receptor>
prm/pocket_docking_4.prm

>  <SCORE>
-8.18631

>  <SCORE.INTER>
-6.31673

>  <SCORE.INTER.CONST>
1

>  <SCORE.INTER.POLAR>
0

>  <SCORE.INTER.ROT>
7

>  <SCORE.INTER.SOLV>
16.0605

>  <SCORE.INTER.VDW>
-17.8313

>  <SCORE.INTER.norm>
-0.233953

>  <SCORE.INTRA>
-1.86959

>  <SCORE.INTRA.DIHEDRAL>
1.21725

>  <SCORE.INTRA.DIHEDRAL.0>
9.40024

>  <SCORE.INTRA.POLAR>
0

>  <SCORE.INTRA.POLAR.0>
0

>  <SCORE.INTRA.REPUL>
0

>  <SCORE.INTRA.REPUL.0>
0

>  <SCORE.INTRA.SOLV>
2.75214

>  <SCORE.INTRA.SOLV.lig_0>
-47.1049

>  <SCORE.INTRA.VDW>
-3.85428

>  <SCORE.INTRA.VDW.0>
-1.50278

>  <SCORE.INTRA.norm>
-0.0692439

>  <SCORE.RESTR>
0

>  <SCORE.RESTR.CAVITY>
0

>  <SCORE.RESTR.norm>
0

>  <SCORE.SYSTEM>
0

>  <SCORE.SYSTEM.CONST>
0

>  <SCORE.SYSTEM.DIHEDRAL>
0

>  <SCORE.SYSTEM.SOLV>
0

>  <SCORE.SYSTEM.norm>
0

>  <SCORE.heavy>
27

>  <SCORE.norm>
-0.303197

>  <RMSD>
4.586

$$$$
ligand
 OpenBabel11021811433D
libRbt.so/2013.1/901 2013/11/27
 27 29  0  0  0  0  0  0  0  0999 V2000
   48.2264   56.7376   25.4334 N   0  0  0  0  0  0  0  0  0  0  0  0
   47.8345   56.9738   26.8264 C   0  0  2  0  0  0  0  0  0  0  0  0
   47.0332   58.2604   26.9159 C   0  0  0  0  0  0  0  0  0  0  0  0
   47.1201   59.1002   26.0245 O   0  0  0  0  0  0  0  0  0  0  0  0
   49.0757   57.0661   27.7362 C   0  0  0  0  0  0  0  0  0  0  0  0
   48.8653   56.1811   28.9639 C   0  0  0  0  0  0  0  0  0  0  0  0
   50.1471   56.3403   30.2739 S   0  0  2  0  0  0  0  0  0  0  0  0
   49.6533   55.1172   31.5278 C   0  0  0  0  0  0  0  0  0  0  0  0
   49.4968   57.8644   30.9901 C   0  0  0  0  0  0  0  0  0  0  0  0
   47.9666   57.9918   30.8941 C   0  0  1  0  0  0  0  0  0  0  0  0
   47.3574   56.7271   31.2894 O   0  0  0  0  0  0  0  0  0  0  0  0
   47.6451   58.9695   31.9951 C   0  0  1  0  0  0  0  0  0  0  0  0
   47.5294   60.2862   31.4551 O   0  0  0  0  0  0  0  0  0  0  0  0
   46.2995   58.4945   32.5294 C   0  0  1  0  0  0  0  0  0  0  0  0
   45.2120   59.2120   31.9577 O   0  0  0  0  0  0  0  0  0  0  0  0
   46.2013   56.9655   32.1761 C   0  0  2  0  0  0  0  0  0  0  0  0
   46.3447   58.4944   27.9094 O   0  0  0  0  0  0  0  0  0  0  0  0
   49.3047   55.3376   36.0877 N   0  0  0  0  0  0  0  0  0  0  0  0
   49.5598   56.2876   35.1813 C   0  0  0  0  0  0  0  0  0  0  0  0
   48.6713   56.6111   34.2550 N   0  0  0  0  0  0  0  0  0  0  0  0
   47.4904   55.9771   34.1662 C   0  0  0  0  0  0  0  0  0  0  0  0
   47.1794   54.9523   35.0964 C   0  0  0  0  0  0  0  0  0  0  0  0
   48.1506   54.6506   36.0844 C   0  0  0  0  0  0  0  0  0  0  0  0
   47.9175   53.6702   37.0226 N   0  0  0  0  0  0  0  0  0  0  0  0
   45.9535   54.4847   34.7871 N   0  0  0  0  0  0  0  0  0  0  0  0
   45.5017   55.1278   33.7505 C   0  0  0  0  0  0  0  0  0  0  0  0
   46.4050   56.0633   33.3288 N   0  0  0  0  0  0  0  0  0  0  0  0
  2  1  1  6  0  0  0
  2  3  1  0  0  0  0
  2  5  1  0  0  0  0
  3  4  1  0  0  0  0
  3 17  1  0  0  0  0
  5  6  1  0  0  0  0
  7  6  1  6  0  0  0
  7  8  1  0  0  0  0
  7  9  1  0  0  0  0
 10  9  1  1  0  0  0
 10 11  1  0  0  0  0
 10 12  1  0  0  0  0
 11 16  1  0  0  0  0
 12 13  1  6  0  0  0
 12 14  1  0  0  0  0
 14 15  1  6  0  0  0
 14 16  1  0  0  0  0
 16 27  1  1  0  0  0
 18 19  2  0  0  0  0
 18 23  1  0  0  0  0
 19 20  1  0  0  0  0
 20 21  2  0  0  0  0
 21 22  1  0  0  0  0
 21 27  1  0  0  0  0
 22 23  2  0  0  0  0
 22 25  1  0  0  0  0
 23 24  1  0  0  0  0
 25 26  2  0  0  0  0
 26 27  1  0  0  0  0
M  END
>  <CHROM.1>
-20.47954348,-131.94512102,-172.09498527,-177.28732723,31.91094594,45.51561495
55.66672206,47.81504690,56.85153354,31.49241862,-1.56146482,-0.67828748,1.90296815

>  <Name>
ligand

>  <RI>
0

>  <Rbt.Current_Directory>
/home/itssahil/PROJECTS/Mol_Feturizer/New_Systems/rnas/2GIS

>  <Rbt.Executable>
rbdock ($Id: //depot/dev/client3/rdock/2013.1/src/exe/rbdock.cxx#4 $)

>  <Rbt.Library>
libRbt.so (2013.1, Build901 2013/11/27)

>  <Rbt.Parameter_File>
/export/apps/rDock/src/rDock_2013.1_src/data/scripts/dock_solv.prm

>  <Rbt.Receptor>
prm/pocket_docking_3.prm

>  <SCORE>
-12.5616

>  <SCORE.INTER>
-11.8632

>  <SCORE.INTER.CONST>
1

>  <SCORE.INTER.POLAR>
0

>  <SCORE.INTER.ROT>
7

>  <SCORE.INTER.SOLV>
16.7062

>  <SCORE.INTER.VDW>
-21.7442

>  <SCORE.INTER.norm>
-0.439376

>  <SCORE.INTRA>
-0.698681

>  <SCORE.INTRA.DIHEDRAL>
1.44122

>  <SCORE.INTRA.DIHEDRAL.0>
9.40024

>  <SCORE.INTRA.POLAR>
0

>  <SCORE.INTRA.POLAR.0>
0

>  <SCORE.INTRA.REPUL>
0

>  <SCORE.INTRA.REPUL.0>
0

>  <SCORE.INTRA.SOLV>
-2.6087

>  <SCORE.INTRA.SOLV.lig_0>
-47.1049

>  <SCORE.INTRA.VDW>
-0.114941

>  <SCORE.INTRA.VDW.0>
-1.50278

>  <SCORE.INTRA.norm>
-0.0258771

>  <SCORE.RESTR>
0.000223983

>  <SCORE.RESTR.CAVITY>
0.000223983

>  <SCORE.RESTR.norm>
8.29566e-06

>  <SCORE.SYSTEM>
0

>  <SCORE.SYSTEM.CONST>
0

>  <SCORE.SYSTEM.DIHEDRAL>
0

>  <SCORE.SYSTEM.SOLV>
0

>  <SCORE.SYSTEM.norm>
0

>  <SCORE.heavy>
27

>  <SCORE.norm>
-0.465245

>  <RMSD>
4.693

$$$$
ligand
 OpenBabel11021811433D
libRbt.so/2013.1/901 2013/11/27
 27 29  0  0  0  0  0  0  0  0999 V2000
   48.3721   56.3950   29.4035 N   0  0  0  0  0  0  0  0  0  0  0  0
   47.5775   57.5896   29.7056 C   0  0  2  0  0  0  0  0  0  0  0  0
   46.5073   57.7680   28.6435 C   0  0  0  0  0  0  0  0  0  0  0  0
   45.3271   57.8556   28.9706 O   0  0  0  0  0  0  0  0  0  0  0  0
   48.4732   58.8432   29.7615 C   0  0  0  0  0  0  0  0  0  0  0  0
   49.4318   58.7231   30.9453 C   0  0  0  0  0  0  0  0  0  0  0  0
   48.6315   58.6884   32.6015 S   0  0  2  0  0  0  0  0  0  0  0  0
   49.8882   59.3899   33.7154 C   0  0  0  0  0  0  0  0  0  0  0  0
   48.8563   56.9194   32.8828 C   0  0  0  0  0  0  0  0  0  0  0  0
   48.3588   56.4416   34.2580 C   0  0  1  0  0  0  0  0  0  0  0  0
   46.9038   56.3465   34.2317 O   0  0  0  0  0  0  0  0  0  0  0  0
   48.8664   55.0239   34.3205 C   0  0  1  0  0  0  0  0  0  0  0  0
   50.0989   54.9820   35.0401 O   0  0  0  0  0  0  0  0  0  0  0  0
   47.7801   54.2761   35.0836 C   0  0  1  0  0  0  0  0  0  0  0  0
   48.0871   54.1494   36.4672 O   0  0  0  0  0  0  0  0  0  0  0  0
   46.4558   55.0996   34.8830 C   0  0  2  0  0  0  0  0  0  0  0  0
   46.8105   57.7616   27.4503 O   0  0  0  0  0  0  0  0  0  0  0  0
   43.1656   55.7078   30.8351 N   0  0  0  0  0  0  0  0  0  0  0  0
   43.9026   56.6463   31.4392 C   0  0  0  0  0  0  0  0  0  0  0  0
   44.7098   56.3457   32.4444 N   0  0  0  0  0  0  0  0  0  0  0  0
   44.7980   55.0929   32.9207 C   0  0  0  0  0  0  0  0  0  0  0  0
   44.0250   54.0651   32.3220 C   0  0  0  0  0  0  0  0  0  0  0  0
   43.1886   54.4260   31.2355 C   0  0  0  0  0  0  0  0  0  0  0  0
   42.4118   53.4815   30.6028 N   0  0  0  0  0  0  0  0  0  0  0  0
   44.2938   52.9211   32.9823 N   0  0  0  0  0  0  0  0  0  0  0  0
   45.1509   53.1675   33.9294 C   0  0  0  0  0  0  0  0  0  0  0  0
   45.5008   54.4891   33.9347 N   0  0  0  0  0  0  0  0  0  0  0  0
  2  1  1  6  0  0  0
  2  3  1  0  0  0  0
  2  5  1  0  0  0  0
  3  4  1  0  0  0  0
  3 17  1  0  0  0  0
  5  6  1  0  0  0  0
  7  6  1  6  0  0  0
  7  8  1  0  0  0  0
  7  9  1  0  0  0  0
 10  9  1  6  0  0  0
 10 11  1  0  0  0  0
 10 12  1  0  0  0  0
 11 16  1  0  0  0  0
 12 13  1  1  0  0  0
 12 14  1  0  0  0  0
 14 15  1  1  0  0  0
 14 16  1  0  0  0  0
 16 27  1  6  0  0  0
 18 19  2  0  0  0  0
 18 23  1  0  0  0  0
 19 20  1  0  0  0  0
 20 21  2  0  0  0  0
 21 22  1  0  0  0  0
 21 27  1  0  0  0  0
 22 23  2  0  0  0  0
 22 25  1  0  0  0  0
 23 24  1  0  0  0  0
 25 26  2  0  0  0  0
 26 27  1  0  0  0  0
M  END
>  <CHROM.1>
124.90466249,-65.86192789,-63.93241321,-151.80824422,177.29710549,76.96889864
-21.03938681,46.74827801,56.18924255,32.28160174,0.81733453,-0.54884036,-0.99967224

>  <Name>
ligand

>  <RI>
0

>  <Rbt.Current_Directory>
/home/itssahil/PROJECTS/Mol_Feturizer/New_Systems/rnas/2GIS

>  <Rbt.Executable>
rbdock ($Id: //depot/dev/client3/rdock/2013.1/src/exe/rbdock.cxx#4 $)

>  <Rbt.Library>
libRbt.so (2013.1, Build901 2013/11/27)

>  <Rbt.Parameter_File>
/export/apps/rDock/src/rDock_2013.1_src/data/scripts/dock_solv.prm

>  <Rbt.Receptor>
prm/pocket_docking_6.prm

>  <SCORE>
-15.5117

>  <SCORE.INTER>
-12.079

>  <SCORE.INTER.CONST>
1

>  <SCORE.INTER.POLAR>
0

>  <SCORE.INTER.ROT>
7

>  <SCORE.INTER.SOLV>
6.55288

>  <SCORE.INTER.VDW>
-18.5036

>  <SCORE.INTER.norm>
-0.447369

>  <SCORE.INTRA>
-3.43276

>  <SCORE.INTRA.DIHEDRAL>
-2.06264

>  <SCORE.INTRA.DIHEDRAL.0>
9.40024

>  <SCORE.INTRA.POLAR>
0

>  <SCORE.INTRA.POLAR.0>
0

>  <SCORE.INTRA.REPUL>
0

>  <SCORE.INTRA.REPUL.0>
0

>  <SCORE.INTRA.SOLV>
-1.09247

>  <SCORE.INTRA.SOLV.lig_0>
-47.1049

>  <SCORE.INTRA.VDW>
-1.85521

>  <SCORE.INTRA.VDW.0>
-1.50278

>  <SCORE.INTRA.norm>
-0.127139

>  <SCORE.RESTR>
0

>  <SCORE.RESTR.CAVITY>
0

>  <SCORE.RESTR.norm>
0

>  <SCORE.SYSTEM>
0

>  <SCORE.SYSTEM.CONST>
0

>  <SCORE.SYSTEM.DIHEDRAL>
0

>  <SCORE.SYSTEM.SOLV>
0

>  <SCORE.SYSTEM.norm>
0

>  <SCORE.heavy>
27

>  <SCORE.norm>
-0.574508

>  <RMSD>
4.708

$$$$
ligand
 OpenBabel11021811433D
libRbt.so/2013.1/901 2013/11/27
 27 29  0  0  0  0  0  0  0  0999 V2000
   45.7266   54.7007   29.3739 N   0  0  0  0  0  0  0  0  0  0  0  0
   46.8088   54.2865   28.4753 C   0  0  2  0  0  0  0  0  0  0  0  0
   46.2753   53.2821   27.4695 C   0  0  0  0  0  0  0  0  0  0  0  0
   46.7676   53.2181   26.3465 O   0  0  0  0  0  0  0  0  0  0  0  0
   47.9725   53.6625   29.2711 C   0  0  0  0  0  0  0  0  0  0  0  0
   48.6219   54.7395   30.1389 C   0  0  0  0  0  0  0  0  0  0  0  0
   49.4254   56.1121   29.2143 S   0  0  2  0  0  0  0  0  0  0  0  0
   50.9423   55.3646   28.5416 C   0  0  0  0  0  0  0  0  0  0  0  0
   50.0670   56.9688   30.6679 C   0  0  0  0  0  0  0  0  0  0  0  0
   49.3039   58.2588   31.0152 C   0  0  1  0  0  0  0  0  0  0  0  0
   47.8823   57.9548   31.1315 O   0  0  0  0  0  0  0  0  0  0  0  0
   49.7797   58.5599   32.4132 C   0  0  1  0  0  0  0  0  0  0  0  0
   50.8449   59.5097   32.3681 O   0  0  0  0  0  0  0  0  0  0  0  0
   48.5589   59.1632   33.0968 C   0  0  1  0  0  0  0  0  0  0  0  0
   48.5849   60.5858   33.0832 O   0  0  0  0  0  0  0  0  0  0  0  0
   47.3060   58.6245   32.3144 C   0  0  2  0  0  0  0  0  0  0  0  0
   45.3087   52.5741   27.7529 O   0  0  0  0  0  0  0  0  0  0  0  0
   47.3866   54.4407   35.4878 N   0  0  0  0  0  0  0  0  0  0  0  0
   48.4278   55.1599   35.0545 C   0  0  0  0  0  0  0  0  0  0  0  0
   48.2584   56.2099   34.2666 N   0  0  0  0  0  0  0  0  0  0  0  0
   47.0378   56.5775   33.8432 C   0  0  0  0  0  0  0  0  0  0  0  0
   45.9033   55.8373   34.2643 C   0  0  0  0  0  0  0  0  0  0  0  0
   46.1271   54.7320   35.1237 C   0  0  0  0  0  0  0  0  0  0  0  0
   45.0740   53.9689   35.5757 N   0  0  0  0  0  0  0  0  0  0  0  0
   44.8185   56.4061   33.7015 N   0  0  0  0  0  0  0  0  0  0  0  0
   45.1966   57.4153   32.9730 C   0  0  0  0  0  0  0  0  0  0  0  0
   46.5537   57.5710   33.0274 N   0  0  0  0  0  0  0  0  0  0  0  0
  2  1  1  1  0  0  0
  2  3  1  0  0  0  0
  2  5  1  0  0  0  0
  3  4  1  0  0  0  0
  3 17  1  0  0  0  0
  5  6  1  0  0  0  0
  7  6  1  1  0  0  0
  7  8  1  0  0  0  0
  7  9  1  0  0  0  0
 10  9  1  1  0  0  0
 10 11  1  0  0  0  0
 10 12  1  0  0  0  0
 11 16  1  0  0  0  0
 12 13  1  6  0  0  0
 12 14  1  0  0  0  0
 14 15  1  6  0  0  0
 14 16  1  0  0  0  0
 16 27  1  1  0  0  0
 18 19  2  0  0  0  0
 18 23  1  0  0  0  0
 19 20  1  0  0  0  0
 20 21  2  0  0  0  0
 21 22  1  0  0  0  0
 21 27  1  0  0  0  0
 22 23  2  0  0  0  0
 22 25  1  0  0  0  0
 23 24  1  0  0  0  0
 25 26  2  0  0  0  0
 26 27  1  0  0  0  0
M  END
>  <CHROM.1>
149.61395753,-66.63373631,-64.21314979,-73.52229459,-106.15848782,53.61748648
78.31847478,47.71630845,56.15516905,31.49926541,1.65012603,-0.79936999,-2.05574889

>  <Name>
ligand

>  <RI>
0

>  <Rbt.Current_Directory>
/home/itssahil/PROJECTS/Mol_Feturizer/New_Systems/rnas/2GIS

>  <Rbt.Executable>
rbdock ($Id: //depot/dev/client3/rdock/2013.1/src/exe/rbdock.cxx#4 $)

>  <Rbt.Library>
libRbt.so (2013.1, Build901 2013/11/27)

>  <Rbt.Parameter_File>
/export/apps/rDock/src/rDock_2013.1_src/data/scripts/dock_solv.prm

>  <Rbt.Receptor>
prm/pocket_docking_8.prm

>  <SCORE>
-15.6862

>  <SCORE.INTER>
-11.486

>  <SCORE.INTER.CONST>
1

>  <SCORE.INTER.POLAR>
0

>  <SCORE.INTER.ROT>
7

>  <SCORE.INTER.SOLV>
11.6792

>  <SCORE.INTER.VDW>
-19.8171

>  <SCORE.INTER.norm>
-0.425408

>  <SCORE.INTRA>
-4.20014

>  <SCORE.INTRA.DIHEDRAL>
-2.39902

>  <SCORE.INTRA.DIHEDRAL.0>
9.40024

>  <SCORE.INTRA.POLAR>
0

>  <SCORE.INTRA.POLAR.0>
0

>  <SCORE.INTRA.REPUL>
0

>  <SCORE.INTRA.REPUL.0>
0

>  <SCORE.INTRA.SOLV>
-1.82172

>  <SCORE.INTRA.SOLV.lig_0>
-47.1049

>  <SCORE.INTRA.VDW>
-2.08978

>  <SCORE.INTRA.VDW.0>
-1.50278

>  <SCORE.INTRA.norm>
-0.155561

>  <SCORE.RESTR>
0

>  <SCORE.RESTR.CAVITY>
0

>  <SCORE.RESTR.norm>
0

>  <SCORE.SYSTEM>
0

>  <SCORE.SYSTEM.CONST>
0

>  <SCORE.SYSTEM.DIHEDRAL>
0

>  <SCORE.SYSTEM.SOLV>
0

>  <SCORE.SYSTEM.norm>
0

>  <SCORE.heavy>
27

>  <SCORE.norm>
-0.580969

>  <RMSD>
4.800

$$$$
ligand
 OpenBabel11021811433D
libRbt.so/2013.1/901 2013/11/27
 27 29  0  0  0  0  0  0  0  0999 V2000
   48.7255   58.7585   27.8740 N   0  0  0  0  0  0  0  0  0  0  0  0
   47.8265   58.0738   28.8083 C   0  0  2  0  0  0  0  0  0  0  0  0
   46.4889   57.8254   28.1341 C   0  0  0  0  0  0  0  0  0  0  0  0
   45.4753   58.3689   28.5638 O   0  0  0  0  0  0  0  0  0  0  0  0
   47.6210   58.9133   30.0850 C   0  0  0  0  0  0  0  0  0  0  0  0
   47.8060   58.0185   31.3096 C   0  0  0  0  0  0  0  0  0  0  0  0
   48.0374   58.9085   32.9029 S   0  0  2  0  0  0  0  0  0  0  0  0
   49.5071   59.9445   32.6222 C   0  0  0  0  0  0  0  0  0  0  0  0
   48.7532   57.5128   33.7966 C   0  0  0  0  0  0  0  0  0  0  0  0
   47.7545   56.3759   34.0746 C   0  0  1  0  0  0  0  0  0  0  0  0
   47.2526   55.8616   32.8056 O   0  0  0  0  0  0  0  0  0  0  0  0
   48.6347   55.2924   34.6427 C   0  0  1  0  0  0  0  0  0  0  0  0
   48.5907   55.3311   36.0694 O   0  0  0  0  0  0  0  0  0  0  0  0
   48.0107   54.0016   34.1270 C   0  0  1  0  0  0  0  0  0  0  0  0
   47.1408   53.4070   35.0832 O   0  0  0  0  0  0  0  0  0  0  0  0
   47.2209   54.3856   32.8228 C   0  0  2  0  0  0  0  0  0  0  0  0
   46.4047   57.0314   27.1969 O   0  0  0  0  0  0  0  0  0  0  0  0
   50.7577   55.4137   29.0790 N   0  0  0  0  0  0  0  0  0  0  0  0
   50.4559   56.1597   30.1474 C   0  0  0  0  0  0  0  0  0  0  0  0
   49.5488   55.7660   31.0274 N   0  0  0  0  0  0  0  0  0  0  0  0
   48.8707   54.6176   30.8674 C   0  0  0  0  0  0  0  0  0  0  0  0
   49.1454   53.7986   29.7422 C   0  0  0  0  0  0  0  0  0  0  0  0
   50.1379   54.2474   28.8347 C   0  0  0  0  0  0  0  0  0  0  0  0
   50.4603   53.5038   27.7217 N   0  0  0  0  0  0  0  0  0  0  0  0
   48.3361   52.7232   29.8185 N   0  0  0  0  0  0  0  0  0  0  0  0
   47.5931   52.8241   30.8815 C   0  0  0  0  0  0  0  0  0  0  0  0
   47.8835   53.9696   31.5689 N   0  0  0  0  0  0  0  0  0  0  0  0
  2  1  1  6  0  0  0
  2  3  1  0  0  0  0
  2  5  1  0  0  0  0
  3  4  1  0  0  0  0
  3 17  1  0  0  0  0
  5  6  1  0  0  0  0
  7  6  1  6  0  0  0
  7  8  1  0  0  0  0
  7  9  1  0  0  0  0
 10  9  1  6  0  0  0
 10 11  1  0  0  0  0
 10 12  1  0  0  0  0
 11 16  1  0  0  0  0
 12 13  1  1  0  0  0
 12 14  1  0  0  0  0
 14 15  1  1  0  0  0
 14 16  1  0  0  0  0
 16 27  1  6  0  0  0
 18 19  2  0  0  0  0
 18 23  1  0  0  0  0
 19 20  1  0  0  0  0
 20 21  2  0  0  0  0
 21 22  1  0  0  0  0
 21 27  1  0  0  0  0
 22 23  2  0  0  0  0
 22 25  1  0  0  0  0
 23 24  1  0  0  0  0
 25 26  2  0  0  0  0
 26 27  1  0  0  0  0
M  END
>  <CHROM.1>
-115.83305735,-132.21854046,164.62052661,-58.15315793,-69.08621838,60.46106818
29.66896367,48.25973366,56.14869189,31.25973085,1.61613780,1.37631245,-1.30176635

>  <Name>
ligand

>  <RI>
0

>  <Rbt.Current_Directory>
/home/itssahil/PROJECTS/Mol_Feturizer/New_Systems/rnas/2GIS

>  <Rbt.Executable>
rbdock ($Id: //depot/dev/client3/rdock/2013.1/src/exe/rbdock.cxx#4 $)

>  <Rbt.Library>
libRbt.so (2013.1, Build901 2013/11/27)

>  <Rbt.Parameter_File>
/export/apps/rDock/src/rDock_2013.1_src/data/scripts/dock_solv.prm

>  <Rbt.Receptor>
prm/pocket_docking_2.prm

>  <SCORE>
-11.6879

>  <SCORE.INTER>
-10.0715

>  <SCORE.INTER.CONST>
1

>  <SCORE.INTER.POLAR>
0

>  <SCORE.INTER.ROT>
7

>  <SCORE.INTER.SOLV>
12.6625

>  <SCORE.INTER.VDW>
-19.2019

>  <SCORE.INTER.norm>
-0.373019

>  <SCORE.INTRA>
-1.90402

>  <SCORE.INTRA.DIHEDRAL>
0.285277

>  <SCORE.INTRA.DIHEDRAL.0>
9.40024

>  <SCORE.INTRA.POLAR>
0

>  <SCORE.INTRA.POLAR.0>
0

>  <SCORE.INTRA.REPUL>
0

>  <SCORE.INTRA.REPUL.0>
0

>  <SCORE.INTRA.SOLV>
-2.71674

>  <SCORE.INTRA.SOLV.lig_0>
-47.1049

>  <SCORE.INTRA.VDW>
-0.688289

>  <SCORE.INTRA.VDW.0>
-1.50278

>  <SCORE.INTRA.norm>
-0.0705192

>  <SCORE.RESTR>
0.287666

>  <SCORE.RESTR.CAVITY>
0.287666

>  <SCORE.RESTR.norm>
0.0106543

>  <SCORE.SYSTEM>
0

>  <SCORE.SYSTEM.CONST>
0

>  <SCORE.SYSTEM.DIHEDRAL>
0

>  <SCORE.SYSTEM.SOLV>
0

>  <SCORE.SYSTEM.norm>
0

>  <SCORE.heavy>
27

>  <SCORE.norm>
-0.432884

>  <RMSD>
4.813

$$$$
ligand
 OpenBabel11021811433D
libRbt.so/2013.1/901 2013/11/27
 27 29  0  0  0  0  0  0  0  0999 V2000
   47.1695   58.8585   26.8313 N   0  0  0  0  0  0  0  0  0  0  0  0
   47.6382   58.1094   28.0014 C   0  0  2  0  0  0  0  0  0  0  0  0
   47.0041   56.7298   28.0067 C   0  0  0  0  0  0  0  0  0  0  0  0
   46.4252   56.3248   29.0109 O   0  0  0  0  0  0  0  0  0  0  0  0
   47.2848   58.8528   29.3050 C   0  0  0  0  0  0  0  0  0  0  0  0
   48.4112   58.6535   30.3179 C   0  0  0  0  0  0  0  0  0  0  0  0
   48.6651   56.9193   30.8768 S   0  0  2  0  0  0  0  0  0  0  0  0
   49.6084   57.0862   32.4242 C   0  0  0  0  0  0  0  0  0  0  0  0
   49.9790   56.5324   29.7009 C   0  0  0  0  0  0  0  0  0  0  0  0
   50.3527   55.0406   29.6565 C   0  0  1  0  0  0  0  0  0  0  0  0
   50.4862   54.5420   31.0205 O   0  0  0  0  0  0  0  0  0  0  0  0
   49.1055   54.4023   29.1013 C   0  0  1  0  0  0  0  0  0  0  0  0
   49.2440   54.2130   27.6929 O   0  0  0  0  0  0  0  0  0  0  0  0
   49.0310   53.0571   29.8131 C   0  0  1  0  0  0  0  0  0  0  0  0
   49.5805   52.0044   29.0293 O   0  0  0  0  0  0  0  0  0  0  0  0
   49.8326   53.2250   31.1553 C   0  0  2  0  0  0  0  0  0  0  0  0
   47.1222   55.9891   27.0304 O   0  0  0  0  0  0  0  0  0  0  0  0
   45.0249   53.7583   33.2005 N   0  0  0  0  0  0  0  0  0  0  0  0
   45.3630   53.7019   31.9076 C   0  0  0  0  0  0  0  0  0  0  0  0
   46.6227   53.5453   31.5322 N   0  0  0  0  0  0  0  0  0  0  0  0
   47.6170   53.4693   32.4322 C   0  0  0  0  0  0  0  0  0  0  0  0
   47.3100   53.5385   33.8154 C   0  0  0  0  0  0  0  0  0  0  0  0
   45.9465   53.6865   34.1749 C   0  0  0  0  0  0  0  0  0  0  0  0
   45.5724   53.7578   35.4980 N   0  0  0  0  0  0  0  0  0  0  0  0
   48.4719   53.4426   34.4921 N   0  0  0  0  0  0  0  0  0  0  0  0
   49.4511   53.3311   33.6430 C   0  0  0  0  0  0  0  0  0  0  0  0
   48.9821   53.3364   32.3588 N   0  0  0  0  0  0  0  0  0  0  0  0
  2  1  1  6  0  0  0
  2  3  1  0  0  0  0
  2  5  1  0  0  0  0
  3  4  1  0  0  0  0
  3 17  1  0  0  0  0
  5  6  1  0  0  0  0
  7  6  1  6  0  0  0
  7  8  1  0  0  0  0
  7  9  1  0  0  0  0
 10  9  1  1  0  0  0
 10 11  1  0  0  0  0
 10 12  1  0  0  0  0
 11 16  1  0  0  0  0
 12 13  1  6  0  0  0
 12 14  1  0  0  0  0
 14 15  1  6  0  0  0
 14 16  1  0  0  0  0
 16 27  1  1  0  0  0
 18 19  2  0  0  0  0
 18 23  1  0  0  0  0
 19 20  1  0  0  0  0
 20 21  2  0  0  0  0
 21 22  1  0  0  0  0
 21 27  1  0  0  0  0
 22 23  2  0  0  0  0
 22 25  1  0  0  0  0
 23 24  1  0  0  0  0
 25 26  2  0  0  0  0
 26 27  1  0  0  0  0
M  END
>  <CHROM.1>
-128.09028223,-144.03520918,-64.38797450,-161.08879650,-170.15885295,-45.95936106
105.00084690,48.10844027,55.15592977,30.73984461,1.42017239,0.78805750,-0.83820188

>  <Name>
ligand

>  <RI>
0

>  <Rbt.Current_Directory>
/home/itssahil/PROJECTS/Mol_Feturizer/New_Systems/rnas/2GIS

>  <Rbt.Executable>
rbdock ($Id: //depot/dev/client3/rdock/2013.1/src/exe/rbdock.cxx#4 $)

>  <Rbt.Library>
libRbt.so (2013.1, Build901 2013/11/27)

>  <Rbt.Parameter_File>
/export/apps/rDock/src/rDock_2013.1_src/data/scripts/dock_solv.prm

>  <Rbt.Receptor>
prm/pocket_docking_3.prm

>  <SCORE>
-8.15124

>  <SCORE.INTER>
-4.74234

>  <SCORE.INTER.CONST>
1

>  <SCORE.INTER.POLAR>
0

>  <SCORE.INTER.ROT>
7

>  <SCORE.INTER.SOLV>
16.1133

>  <SCORE.INTER.VDW>
-16.7993

>  <SCORE.INTER.norm>
-0.175642

>  <SCORE.INTRA>
-3.4089

>  <SCORE.INTRA.DIHEDRAL>
1.00032

>  <SCORE.INTRA.DIHEDRAL.0>
9.40024

>  <SCORE.INTRA.POLAR>
0

>  <SCORE.INTRA.POLAR.0>
0

>  <SCORE.INTRA.REPUL>
0

>  <SCORE.INTRA.REPUL.0>
0

>  <SCORE.INTRA.SOLV>
-2.27034

>  <SCORE.INTRA.SOLV.lig_0>
-47.1049

>  <SCORE.INTRA.VDW>
-2.77389

>  <SCORE.INTRA.VDW.0>
-1.50278

>  <SCORE.INTRA.norm>
-0.126256

>  <SCORE.RESTR>
0

>  <SCORE.RESTR.CAVITY>
0

>  <SCORE.RESTR.norm>
0

>  <SCORE.SYSTEM>
0

>  <SCORE.SYSTEM.CONST>
0

>  <SCORE.SYSTEM.DIHEDRAL>
0

>  <SCORE.SYSTEM.SOLV>
0

>  <SCORE.SYSTEM.norm>
0

>  <SCORE.heavy>
27

>  <SCORE.norm>
-0.301898

>  <RMSD>
4.877

$$$$
ligand
 OpenBabel11021811433D
libRbt.so/2013.1/901 2013/11/27
 27 29  0  0  0  0  0  0  0  0999 V2000
   47.4454   53.0972   26.6348 N   0  0  0  0  0  0  0  0  0  0  0  0
   47.9801   53.6451   27.8854 C   0  0  2  0  0  0  0  0  0  0  0  0
   47.7956   52.6325   29.0016 C   0  0  0  0  0  0  0  0  0  0  0  0
   48.7505   51.9640   29.3872 O   0  0  0  0  0  0  0  0  0  0  0  0
   47.2709   54.9638   28.2528 C   0  0  0  0  0  0  0  0  0  0  0  0
   48.0113   55.6255   29.4140 C   0  0  0  0  0  0  0  0  0  0  0  0
   49.6382   56.3691   28.9844 S   0  0  2  0  0  0  0  0  0  0  0  0
   50.7662   54.9439   28.8920 C   0  0  0  0  0  0  0  0  0  0  0  0
   49.9995   57.0005   30.6365 C   0  0  0  0  0  0  0  0  0  0  0  0
   49.3267   58.3490   30.9465 C   0  0  1  0  0  0  0  0  0  0  0  0
   47.8790   58.1729   30.9352 O   0  0  0  0  0  0  0  0  0  0  0  0
   49.7049   58.5856   32.3860 C   0  0  1  0  0  0  0  0  0  0  0  0
   50.8501   59.4358   32.4524 O   0  0  0  0  0  0  0  0  0  0  0  0
   48.4880   59.2867   32.9770 C   0  0  1  0  0  0  0  0  0  0  0  0
   48.6412   60.7011   32.9973 O   0  0  0  0  0  0  0  0  0  0  0  0
   47.2644   58.8747   32.0796 C   0  0  2  0  0  0  0  0  0  0  0  0
   46.6786   52.4326   29.4794 O   0  0  0  0  0  0  0  0  0  0  0  0
   46.6981   54.6626   35.1650 N   0  0  0  0  0  0  0  0  0  0  0  0
   47.8323   55.2923   34.8392 C   0  0  0  0  0  0  0  0  0  0  0  0
   47.8256   56.3626   34.0602 N   0  0  0  0  0  0  0  0  0  0  0  0
   46.6842   56.8413   33.5383 C   0  0  0  0  0  0  0  0  0  0  0  0
   45.4568   56.1989   33.8434 C   0  0  0  0  0  0  0  0  0  0  0  0
   45.5062   55.0681   34.6972 C   0  0  0  0  0  0  0  0  0  0  0  0
   44.3548   54.3954   35.0398 N   0  0  0  0  0  0  0  0  0  0  0  0
   44.4800   56.8678   33.1986 N   0  0  0  0  0  0  0  0  0  0  0  0
   45.0078   57.8483   32.5262 C   0  0  0  0  0  0  0  0  0  0  0  0
   46.3630   57.8831   32.7028 N   0  0  0  0  0  0  0  0  0  0  0  0
  2  1  1  6  0  0  0
  2  3  1  0  0  0  0
  2  5  1  0  0  0  0
  3  4  1  0  0  0  0
  3 17  1  0  0  0  0
  5  6  1  0  0  0  0
  7  6  1  1  0  0  0
  7  8  1  0  0  0  0
  7  9  1  0  0  0  0
 10  9  1  1  0  0  0
 10 11  1  0  0  0  0
 10 12  1  0  0  0  0
 11 16  1  0  0  0  0
 12 13  1  6  0  0  0
 12 14  1  0  0  0  0
 14 15  1  6  0  0  0
 14 16  1  0  0  0  0
 16 27  1  1  0  0  0
 18 19  2  0  0  0  0
 18 23  1  0  0  0  0
 19 20  1  0  0  0  0
 20 21  2  0  0  0  0
 21 22  1  0  0  0  0
 21 27  1  0  0  0  0
 22 23  2  0  0  0  0
 22 25  1  0  0  0  0
 23 24  1  0  0  0  0
 25 26  2  0  0  0  0
 26 27  1  0  0  0  0
M  END
>  <CHROM.1>
102.83719918,-170.20206345,72.51592538,-78.08937181,-82.31499223,63.95043711
78.58191256,47.80637822,56.21415929,31.40780345,1.29459574,-0.81408412,-2.42590252

>  <Name>
ligand

>  <RI>
0

>  <Rbt.Current_Directory>
/home/itssahil/PROJECTS/Mol_Feturizer/New_Systems/rnas/2GIS

>  <Rbt.Executable>
rbdock ($Id: //depot/dev/client3/rdock/2013.1/src/exe/rbdock.cxx#4 $)

>  <Rbt.Library>
libRbt.so (2013.1, Build901 2013/11/27)

>  <Rbt.Parameter_File>
/export/apps/rDock/src/rDock_2013.1_src/data/scripts/dock_solv.prm

>  <Rbt.Receptor>
prm/pocket_docking_6.prm

>  <SCORE>
-17.4078

>  <SCORE.INTER>
-12.2641

>  <SCORE.INTER.CONST>
1

>  <SCORE.INTER.POLAR>
0

>  <SCORE.INTER.ROT>
7

>  <SCORE.INTER.SOLV>
12.6967

>  <SCORE.INTER.VDW>
-20.675

>  <SCORE.INTER.norm>
-0.454226

>  <SCORE.INTRA>
-5.14369

>  <SCORE.INTRA.DIHEDRAL>
-4.36771

>  <SCORE.INTRA.DIHEDRAL.0>
9.40024

>  <SCORE.INTRA.POLAR>
0

>  <SCORE.INTRA.POLAR.0>
0

>  <SCORE.INTRA.REPUL>
0

>  <SCORE.INTRA.REPUL.0>
0

>  <SCORE.INTRA.SOLV>
-2.6323

>  <SCORE.INTRA.SOLV.lig_0>
-47.1049

>  <SCORE.INTRA.VDW>
-1.64369

>  <SCORE.INTRA.VDW.0>
-1.50278

>  <SCORE.INTRA.norm>
-0.190507

>  <SCORE.RESTR>
0

>  <SCORE.RESTR.CAVITY>
0

>  <SCORE.RESTR.norm>
0

>  <SCORE.SYSTEM>
0

>  <SCORE.SYSTEM.CONST>
0

>  <SCORE.SYSTEM.DIHEDRAL>
0

>  <SCORE.SYSTEM.SOLV>
0

>  <SCORE.SYSTEM.norm>
0

>  <SCORE.heavy>
27

>  <SCORE.norm>
-0.644733

>  <RMSD>
4.896

$$$$
ligand
 OpenBabel11021811433D
libRbt.so/2013.1/901 2013/11/27
 27 29  0  0  0  0  0  0  0  0999 V2000
   50.7981   51.9406   26.9769 N   0  0  0  0  0  0  0  0  0  0  0  0
   50.5484   52.8471   28.1020 C   0  0  2  0  0  0  0  0  0  0  0  0
   49.0539   52.9456   28.3511 C   0  0  0  0  0  0  0  0  0  0  0  0
   48.6015   52.7102   29.4679 O   0  0  0  0  0  0  0  0  0  0  0  0
   51.1244   54.2480   27.8144 C   0  0  0  0  0  0  0  0  0  0  0  0
   50.9594   55.1233   29.0559 C   0  0  0  0  0  0  0  0  0  0  0  0
   49.3325   55.9685   29.2085 S   0  0  2  0  0  0  0  0  0  0  0  0
   49.3447   57.1984   27.8672 C   0  0  0  0  0  0  0  0  0  0  0  0
   49.7820   56.9884   30.6286 C   0  0  0  0  0  0  0  0  0  0  0  0
   48.9618   58.2847   30.7462 C   0  0  1  0  0  0  0  0  0  0  0  0
   47.5424   57.9593   30.6676 O   0  0  0  0  0  0  0  0  0  0  0  0
   49.2123   58.7081   32.1707 C   0  0  1  0  0  0  0  0  0  0  0  0
   50.2624   59.6747   32.2111 O   0  0  0  0  0  0  0  0  0  0  0  0
   47.8945   59.3369   32.6062 C   0  0  1  0  0  0  0  0  0  0  0  0
   47.9086   60.7540   32.4786 O   0  0  0  0  0  0  0  0  0  0  0  0
   46.7833   58.7090   31.6881 C   0  0  2  0  0  0  0  0  0  0  0  0
   48.2858   53.1986   27.4227 O   0  0  0  0  0  0  0  0  0  0  0  0
   42.6069   55.5298   31.5086 N   0  0  0  0  0  0  0  0  0  0  0  0
   43.0405   56.3662   30.5592 C   0  0  0  0  0  0  0  0  0  0  0  0
   44.1280   57.1005   30.7337 N   0  0  0  0  0  0  0  0  0  0  0  0
   44.8225   57.0608   31.8828 C   0  0  0  0  0  0  0  0  0  0  0  0
   44.3938   56.1994   32.9251 C   0  0  0  0  0  0  0  0  0  0  0  0
   43.2359   55.4156   32.6898 C   0  0  0  0  0  0  0  0  0  0  0  0
   42.7623   54.5545   33.6541 N   0  0  0  0  0  0  0  0  0  0  0  0
   45.2515   56.3523   33.9537 N   0  0  0  0  0  0  0  0  0  0  0  0
   46.1521   57.2334   33.6296 C   0  0  0  0  0  0  0  0  0  0  0  0
   45.9399   57.6997   32.3621 N   0  0  0  0  0  0  0  0  0  0  0  0
  2  1  1  6  0  0  0
  2  3  1  0  0  0  0
  2  5  1  0  0  0  0
  3  4  1  0  0  0  0
  3 17  1  0  0  0  0
  5  6  1  0  0  0  0
  7  6  1  6  0  0  0
  7  8  1  0  0  0  0
  7  9  1  0  0  0  0
 10  9  1  1  0  0  0
 10 11  1  0  0  0  0
 10 12  1  0  0  0  0
 11 16  1  0  0  0  0
 12 13  1  6  0  0  0
 12 14  1  0  0  0  0
 14 15  1  6  0  0  0
 14 16  1  0  0  0  0
 16 27  1  1  0  0  0
 18 19  2  0  0  0  0
 18 23  1  0  0  0  0
 19 20  1  0  0  0  0
 20 21  2  0  0  0  0
 21 22  1  0  0  0  0
 21 27  1  0  0  0  0
 22 23  2  0  0  0  0
 22 25  1  0  0  0  0
 23 24  1  0  0  0  0
 25 26  2  0  0  0  0
 26 27  1  0  0  0  0
M  END
>  <CHROM.1>
125.61411275,-174.82803977,-85.40827615,-68.88143132,154.69662004,51.13740059
-72.88244451,47.53901994,56.29848139,30.67085749,0.71216038,-0.40072317,-2.61713635

>  <Name>
ligand

>  <RI>
0

>  <Rbt.Current_Directory>
/home/itssahil/PROJECTS/Mol_Feturizer/New_Systems/rnas/2GIS

>  <Rbt.Executable>
rbdock ($Id: //depot/dev/client3/rdock/2013.1/src/exe/rbdock.cxx#4 $)

>  <Rbt.Library>
libRbt.so (2013.1, Build901 2013/11/27)

>  <Rbt.Parameter_File>
/export/apps/rDock/src/rDock_2013.1_src/data/scripts/dock_solv.prm

>  <Rbt.Receptor>
prm/pocket_docking_7.prm

>  <SCORE>
-14.7149

>  <SCORE.INTER>
-11.1487

>  <SCORE.INTER.CONST>
1

>  <SCORE.INTER.POLAR>
0

>  <SCORE.INTER.ROT>
7

>  <SCORE.INTER.SOLV>
11.7163

>  <SCORE.INTER.VDW>
-19.6045

>  <SCORE.INTER.norm>
-0.412914

>  <SCORE.INTRA>
-3.56624

>  <SCORE.INTRA.DIHEDRAL>
-2.7749

>  <SCORE.INTRA.DIHEDRAL.0>
9.40024

>  <SCORE.INTRA.POLAR>
0

>  <SCORE.INTRA.POLAR.0>
0

>  <SCORE.INTRA.REPUL>
0

>  <SCORE.INTRA.REPUL.0>
0

>  <SCORE.INTRA.SOLV>
-2.94582

>  <SCORE.INTRA.SOLV.lig_0>
-47.1049

>  <SCORE.INTRA.VDW>
-0.705878

>  <SCORE.INTRA.VDW.0>
-1.50278

>  <SCORE.INTRA.norm>
-0.132083

>  <SCORE.RESTR>
0

>  <SCORE.RESTR.CAVITY>
0

>  <SCORE.RESTR.norm>
0

>  <SCORE.SYSTEM>
0

>  <SCORE.SYSTEM.CONST>
0

>  <SCORE.SYSTEM.DIHEDRAL>
0

>  <SCORE.SYSTEM.SOLV>
0

>  <SCORE.SYSTEM.norm>
0

>  <SCORE.heavy>
27

>  <SCORE.norm>
-0.544997

>  <RMSD>
4.902

$$$$
ligand
 OpenBabel11021811433D
libRbt.so/2013.1/901 2013/11/27
 27 29  0  0  0  0  0  0  0  0999 V2000
   48.6066   55.4091   25.8708 N   0  0  0  0  0  0  0  0  0  0  0  0
   48.5025   56.1659   27.1224 C   0  0  2  0  0  0  0  0  0  0  0  0
   47.4869   55.5002   28.0338 C   0  0  0  0  0  0  0  0  0  0  0  0
   46.3380   55.3171   27.6415 O   0  0  0  0  0  0  0  0  0  0  0  0
   48.0824   57.6236   26.8473 C   0  0  0  0  0  0  0  0  0  0  0  0
   48.3979   58.4772   28.0747 C   0  0  0  0  0  0  0  0  0  0  0  0
   47.3697   58.1259   29.5591 S   0  0  2  0  0  0  0  0  0  0  0  0
   45.7207   58.7547   29.1148 C   0  0  0  0  0  0  0  0  0  0  0  0
   48.0101   59.4860   30.5586 C   0  0  0  0  0  0  0  0  0  0  0  0
   48.0415   59.1863   32.0673 C   0  0  1  0  0  0  0  0  0  0  0  0
   46.7170   58.7500   32.4942 O   0  0  0  0  0  0  0  0  0  0  0  0
   48.9251   57.9678   32.1454 C   0  0  1  0  0  0  0  0  0  0  0  0
   50.2623   58.3585   32.4581 O   0  0  0  0  0  0  0  0  0  0  0  0
   48.3295   57.1525   33.2865 C   0  0  1  0  0  0  0  0  0  0  0  0
   49.0077   57.3770   34.5170 O   0  0  0  0  0  0  0  0  0  0  0  0
   46.8224   57.5868   33.3973 C   0  0  2  0  0  0  0  0  0  0  0  0
   47.7924   55.2000   29.1881 O   0  0  0  0  0  0  0  0  0  0  0  0
   43.6585   53.4925   34.2961 N   0  0  0  0  0  0  0  0  0  0  0  0
   44.4262   54.1430   35.1774 C   0  0  0  0  0  0  0  0  0  0  0  0
   45.1655   55.1788   34.8130 N   0  0  0  0  0  0  0  0  0  0  0  0
   45.2008   55.5994   33.5378 C   0  0  0  0  0  0  0  0  0  0  0  0
   44.4145   54.9327   32.5634 C   0  0  0  0  0  0  0  0  0  0  0  0
   43.6221   53.8408   32.9995 C   0  0  0  0  0  0  0  0  0  0  0  0
   42.8310   53.1476   32.1110 N   0  0  0  0  0  0  0  0  0  0  0  0
   44.6330   55.5432   31.3816 N   0  0  0  0  0  0  0  0  0  0  0  0
   45.4856   56.5105   31.5534 C   0  0  0  0  0  0  0  0  0  0  0  0
   45.8655   56.5948   32.8640 N   0  0  0  0  0  0  0  0  0  0  0  0
  2  1  1  6  0  0  0
  2  3  1  0  0  0  0
  2  5  1  0  0  0  0
  3  4  1  0  0  0  0
  3 17  1  0  0  0  0
  5  6  1  0  0  0  0
  7  6  1  6  0  0  0
  7  8  1  0  0  0  0
  7  9  1  0  0  0  0
 10  9  1  6  0  0  0
 10 11  1  0  0  0  0
 10 12  1  0  0  0  0
 11 16  1  0  0  0  0
 12 13  1  1  0  0  0
 12 14  1  0  0  0  0
 14 15  1  1  0  0  0
 14 16  1  0  0  0  0
 16 27  1  6  0  0  0
 18 19  2  0  0  0  0
 18 23  1  0  0  0  0
 19 20  1  0  0  0  0
 20 21  2  0  0  0  0
 21 22  1  0  0  0  0
 21 27  1  0  0  0  0
 22 23  2  0  0  0  0
 22 25  1  0  0  0  0
 23 24  1  0  0  0  0
 25 26  2  0  0  0  0
 26 27  1  0  0  0  0
M  END
>  <CHROM.1>
-56.57720374,-162.62722122,-68.56665186,-70.42968606,-148.37868059,-53.26029100
-153.09205279,46.75077004,56.62066787,31.12626668,0.80569799,-0.79028927
-1.75308251

>  <Name>
ligand

>  <RI>
0

>  <Rbt.Current_Directory>
/home/itssahil/PROJECTS/Mol_Feturizer/New_Systems/rnas/2GIS

>  <Rbt.Executable>
rbdock ($Id: //depot/dev/client3/rdock/2013.1/src/exe/rbdock.cxx#4 $)

>  <Rbt.Library>
libRbt.so (2013.1, Build901 2013/11/27)

>  <Rbt.Parameter_File>
/export/apps/rDock/src/rDock_2013.1_src/data/scripts/dock_solv.prm

>  <Rbt.Receptor>
prm/pocket_docking_6.prm

>  <SCORE>
-13.1523

>  <SCORE.INTER>
-8.95703

>  <SCORE.INTER.CONST>
1

>  <SCORE.INTER.POLAR>
0

>  <SCORE.INTER.ROT>
7

>  <SCORE.INTER.SOLV>
8.29929

>  <SCORE.INTER.VDW>
-17.0045

>  <SCORE.INTER.norm>
-0.331742

>  <SCORE.INTRA>
-4.19522

>  <SCORE.INTRA.DIHEDRAL>
-1.45398

>  <SCORE.INTRA.DIHEDRAL.0>
9.40024

>  <SCORE.INTRA.POLAR>
0

>  <SCORE.INTRA.POLAR.0>
0

>  <SCORE.INTRA.REPUL>
0

>  <SCORE.INTRA.REPUL.0>
0

>  <SCORE.INTRA.SOLV>
-2.72562

>  <SCORE.INTRA.SOLV.lig_0>
-47.1049

>  <SCORE.INTRA.VDW>
-2.10542

>  <SCORE.INTRA.VDW.0>
-1.50278

>  <SCORE.INTRA.norm>
-0.155378

>  <SCORE.RESTR>
0

>  <SCORE.RESTR.CAVITY>
0

>  <SCORE.RESTR.norm>
0

>  <SCORE.SYSTEM>
0

>  <SCORE.SYSTEM.CONST>
0

>  <SCORE.SYSTEM.DIHEDRAL>
0

>  <SCORE.SYSTEM.SOLV>
0

>  <SCORE.SYSTEM.norm>
0

>  <SCORE.heavy>
27

>  <SCORE.norm>
-0.48712

>  <RMSD>
4.926

$$$$
ligand
 OpenBabel11021811433D
libRbt.so/2013.1/901 2013/11/27
 27 29  0  0  0  0  0  0  0  0999 V2000
   45.0808   57.4762   28.4282 N   0  0  0  0  0  0  0  0  0  0  0  0
   46.1219   58.4539   28.0964 C   0  0  2  0  0  0  0  0  0  0  0  0
   46.9421   57.9427   26.9255 C   0  0  0  0  0  0  0  0  0  0  0  0
   47.2568   56.7574   26.8682 O   0  0  0  0  0  0  0  0  0  0  0  0
   47.0410   58.7074   29.3080 C   0  0  0  0  0  0  0  0  0  0  0  0
   46.1987   59.2044   30.4820 C   0  0  0  0  0  0  0  0  0  0  0  0
   47.0592   59.2322   32.1077 S   0  0  2  0  0  0  0  0  0  0  0  0
   48.5331   60.2578   31.8114 C   0  0  0  0  0  0  0  0  0  0  0  0
   47.7529   57.5703   31.9827 C   0  0  0  0  0  0  0  0  0  0  0  0
   48.3921   57.0647   33.2876 C   0  0  1  0  0  0  0  0  0  0  0  0
   47.3364   56.6939   34.2229 O   0  0  0  0  0  0  0  0  0  0  0  0
   49.0411   55.7732   32.8608 C   0  0  1  0  0  0  0  0  0  0  0  0
   50.4220   55.9965   32.5748 O   0  0  0  0  0  0  0  0  0  0  0  0
   48.8903   54.8653   34.0751 C   0  0  1  0  0  0  0  0  0  0  0  0
   50.0586   54.8574   34.8872 O   0  0  0  0  0  0  0  0  0  0  0  0
   47.6576   55.4129   34.8831 C   0  0  2  0  0  0  0  0  0  0  0  0
   47.3477   58.7237   26.0644 O   0  0  0  0  0  0  0  0  0  0  0  0
   42.8718   54.8186   32.8035 N   0  0  0  0  0  0  0  0  0  0  0  0
   43.7195   55.8385   32.6291 C   0  0  0  0  0  0  0  0  0  0  0  0
   44.9116   55.8484   33.2045 N   0  0  0  0  0  0  0  0  0  0  0  0
   45.3069   54.8511   34.0128 C   0  0  0  0  0  0  0  0  0  0  0  0
   44.4371   53.7538   34.2402 C   0  0  0  0  0  0  0  0  0  0  0  0
   43.1777   53.7732   33.5893 C   0  0  0  0  0  0  0  0  0  0  0  0
   42.2825   52.7411   33.7601 N   0  0  0  0  0  0  0  0  0  0  0  0
   45.0662   52.9072   35.0796 N   0  0  0  0  0  0  0  0  0  0  0  0
   46.2313   53.3984   35.3856 C   0  0  0  0  0  0  0  0  0  0  0  0
   46.4352   54.5928   34.7524 N   0  0  0  0  0  0  0  0  0  0  0  0
  2  1  1  1  0  0  0
  2  3  1  0  0  0  0
  2  5  1  0  0  0  0
  3  4  1  0  0  0  0
  3 17  1  0  0  0  0
  5  6  1  0  0  0  0
  7  6  1  6  0  0  0
  7  8  1  0  0  0  0
  7  9  1  0  0  0  0
 10  9  1  6  0  0  0
 10 11  1  0  0  0  0
 10 12  1  0  0  0  0
 11 16  1  0  0  0  0
 12 13  1  1  0  0  0
 12 14  1  0  0  0  0
 14 15  1  1  0  0  0
 14 16  1  0  0  0  0
 16 27  1  6  0  0  0
 18 19  2  0  0  0  0
 18 23  1  0  0  0  0
 19 20  1  0  0  0  0
 20 21  2  0  0  0  0
 21 22  1  0  0  0  0
 21 27  1  0  0  0  0
 22 23  2  0  0  0  0
 22 25  1  0  0  0  0
 23 24  1  0  0  0  0
 25 26  2  0  0  0  0
 26 27  1  0  0  0  0
M  END
>  <CHROM.1>
-40.83835095,-58.21886542,168.00720114,55.90129516,-170.20537051,75.23969772
9.03760644,46.61224515,56.40330884,32.09934626,1.34499170,-0.42161649,-1.03265019

>  <Name>
ligand

>  <RI>
0

>  <Rbt.Current_Directory>
/home/itssahil/PROJECTS/Mol_Feturizer/New_Systems/rnas/2GIS

>  <Rbt.Executable>
rbdock ($Id: //depot/dev/client3/rdock/2013.1/src/exe/rbdock.cxx#4 $)

>  <Rbt.Library>
libRbt.so (2013.1, Build901 2013/11/27)

>  <Rbt.Parameter_File>
/export/apps/rDock/src/rDock_2013.1_src/data/scripts/dock_solv.prm

>  <Rbt.Receptor>
prm/pocket_docking_6.prm

>  <SCORE>
-16.2158

>  <SCORE.INTER>
-12.9656

>  <SCORE.INTER.CONST>
1

>  <SCORE.INTER.POLAR>
0

>  <SCORE.INTER.ROT>
7

>  <SCORE.INTER.SOLV>
12.5654

>  <SCORE.INTER.VDW>
-21.0989

>  <SCORE.INTER.norm>
-0.480208

>  <SCORE.INTRA>
-3.25017

>  <SCORE.INTRA.DIHEDRAL>
-4.12234

>  <SCORE.INTRA.DIHEDRAL.0>
9.40024

>  <SCORE.INTRA.POLAR>
0

>  <SCORE.INTRA.POLAR.0>
0

>  <SCORE.INTRA.REPUL>
0

>  <SCORE.INTRA.REPUL.0>
0

>  <SCORE.INTRA.SOLV>
-2.19438

>  <SCORE.INTRA.SOLV.lig_0>
-47.1049

>  <SCORE.INTRA.VDW>
-0.0918068

>  <SCORE.INTRA.VDW.0>
-1.50278

>  <SCORE.INTRA.norm>
-0.120377

>  <SCORE.RESTR>
0

>  <SCORE.RESTR.CAVITY>
0

>  <SCORE.RESTR.norm>
0

>  <SCORE.SYSTEM>
0

>  <SCORE.SYSTEM.CONST>
0

>  <SCORE.SYSTEM.DIHEDRAL>
0

>  <SCORE.SYSTEM.SOLV>
0

>  <SCORE.SYSTEM.norm>
0

>  <SCORE.heavy>
27

>  <SCORE.norm>
-0.600584

>  <RMSD>
4.978

$$$$
ligand
 OpenBabel11021811433D
libRbt.so/2013.1/901 2013/11/27
 27 29  0  0  0  0  0  0  0  0999 V2000
   46.8432   59.1230   26.6349 N   0  0  0  0  0  0  0  0  0  0  0  0
   47.9357   58.3532   27.2381 C   0  0  2  0  0  0  0  0  0  0  0  0
   47.8689   56.9153   26.7551 C   0  0  0  0  0  0  0  0  0  0  0  0
   48.8816   56.3611   26.3369 O   0  0  0  0  0  0  0  0  0  0  0  0
   47.8487   58.3928   28.7769 C   0  0  0  0  0  0  0  0  0  0  0  0
   46.4154   58.0841   29.2069 C   0  0  0  0  0  0  0  0  0  0  0  0
   46.2311   57.4541   30.9255 S   0  0  2  0  0  0  0  0  0  0  0  0
   44.4499   57.1168   31.0850 C   0  0  0  0  0  0  0  0  0  0  0  0
   46.3606   59.0640   31.7317 C   0  0  0  0  0  0  0  0  0  0  0  0
   47.6023   59.2111   32.6282 C   0  0  1  0  0  0  0  0  0  0  0  0
   47.9037   57.9221   33.2402 O   0  0  0  0  0  0  0  0  0  0  0  0
   48.7035   59.4648   31.6310 C   0  0  1  0  0  0  0  0  0  0  0  0
   48.9393   60.8684   31.5165 O   0  0  0  0  0  0  0  0  0  0  0  0
   49.9170   58.7701   32.2364 C   0  0  1  0  0  0  0  0  0  0  0  0
   50.7465   59.6725   32.9591 O   0  0  0  0  0  0  0  0  0  0  0  0
   49.3542   57.6520   33.1878 C   0  0  2  0  0  0  0  0  0  0  0  0
   46.7907   56.3218   26.7212 O   0  0  0  0  0  0  0  0  0  0  0  0
   50.1079   54.5316   29.0313 N   0  0  0  0  0  0  0  0  0  0  0  0
   50.0701   55.8684   29.0554 C   0  0  0  0  0  0  0  0  0  0  0  0
   49.8893   56.5312   30.1868 N   0  0  0  0  0  0  0  0  0  0  0  0
   49.7040   55.8893   31.3521 C   0  0  0  0  0  0  0  0  0  0  0  0
   49.7216   54.4710   31.3754 C   0  0  0  0  0  0  0  0  0  0  0  0
   49.9378   53.8005   30.1451 C   0  0  0  0  0  0  0  0  0  0  0  0
   49.9709   52.4251   30.0907 N   0  0  0  0  0  0  0  0  0  0  0  0
   49.5107   54.0856   32.6498 N   0  0  0  0  0  0  0  0  0  0  0  0
   49.3588   55.1415   33.3944 C   0  0  0  0  0  0  0  0  0  0  0  0
   49.4734   56.2813   32.6482 N   0  0  0  0  0  0  0  0  0  0  0  0
  2  1  1  6  0  0  0
  2  3  1  0  0  0  0
  2  5  1  0  0  0  0
  3  4  1  0  0  0  0
  3 17  1  0  0  0  0
  5  6  1  0  0  0  0
  7  6  1  6  0  0  0
  7  8  1  0  0  0  0
  7  9  1  0  0  0  0
 10  9  1  6  0  0  0
 10 11  1  0  0  0  0
 10 12  1  0  0  0  0
 11 16  1  0  0  0  0
 12 13  1  1  0  0  0
 12 14  1  0  0  0  0
 14 15  1  1  0  0  0
 14 16  1  0  0  0  0
 16 27  1  6  0  0  0
 18 19  2  0  0  0  0
 18 23  1  0  0  0  0
 19 20  1  0  0  0  0
 20 21  2  0  0  0  0
 21 22  1  0  0  0  0
 21 27  1  0  0  0  0
 22 23  2  0  0  0  0
 22 25  1  0  0  0  0
 23 24  1  0  0  0  0
 25 26  2  0  0  0  0
 26 27  1  0  0  0  0
M  END
>  <CHROM.1>
131.83569242,47.73983002,157.46539088,-177.36185047,-115.27439985,-33.89470341
96.65368735,48.39374299,57.10993646,30.47860113,2.02779579,1.00687660,-2.13301313

>  <Name>
ligand

>  <RI>
0

>  <Rbt.Current_Directory>
/home/itssahil/PROJECTS/Mol_Feturizer/New_Systems/rnas/2GIS

>  <Rbt.Executable>
rbdock ($Id: //depot/dev/client3/rdock/2013.1/src/exe/rbdock.cxx#4 $)

>  <Rbt.Library>
libRbt.so (2013.1, Build901 2013/11/27)

>  <Rbt.Parameter_File>
/export/apps/rDock/src/rDock_2013.1_src/data/scripts/dock_solv.prm

>  <Rbt.Receptor>
prm/pocket_docking_3.prm

>  <SCORE>
-10.6487

>  <SCORE.INTER>
-8.17153

>  <SCORE.INTER.CONST>
1

>  <SCORE.INTER.POLAR>
0

>  <SCORE.INTER.ROT>
7

>  <SCORE.INTER.SOLV>
21.306

>  <SCORE.INTER.VDW>
-20.8163

>  <SCORE.INTER.norm>
-0.302649

>  <SCORE.INTRA>
-2.50017

>  <SCORE.INTRA.DIHEDRAL>
2.58866

>  <SCORE.INTRA.DIHEDRAL.0>
9.40024

>  <SCORE.INTRA.POLAR>
0

>  <SCORE.INTRA.POLAR.0>
0

>  <SCORE.INTRA.REPUL>
0

>  <SCORE.INTRA.REPUL.0>
0

>  <SCORE.INTRA.SOLV>
-1.8737

>  <SCORE.INTRA.SOLV.lig_0>
-47.1049

>  <SCORE.INTRA.VDW>
-2.85765

>  <SCORE.INTRA.VDW.0>
-1.50278

>  <SCORE.INTRA.norm>
-0.0925987

>  <SCORE.RESTR>
0.0229543

>  <SCORE.RESTR.CAVITY>
0.0229543

>  <SCORE.RESTR.norm>
0.000850158

>  <SCORE.SYSTEM>
0

>  <SCORE.SYSTEM.CONST>
0

>  <SCORE.SYSTEM.DIHEDRAL>
0

>  <SCORE.SYSTEM.SOLV>
0

>  <SCORE.SYSTEM.norm>
0

>  <SCORE.heavy>
27

>  <SCORE.norm>
-0.394398

>  <RMSD>
4.989

$$$$
ligand
 OpenBabel11021811433D
libRbt.so/2013.1/901 2013/11/27
 27 29  0  0  0  0  0  0  0  0999 V2000
   50.4559   53.0587   26.5189 N   0  0  0  0  0  0  0  0  0  0  0  0
   50.5716   54.4539   26.9550 C   0  0  2  0  0  0  0  0  0  0  0  0
   51.8666   54.6377   27.7260 C   0  0  0  0  0  0  0  0  0  0  0  0
   52.5147   55.6727   27.5986 O   0  0  0  0  0  0  0  0  0  0  0  0
   49.3742   54.8516   27.8409 C   0  0  0  0  0  0  0  0  0  0  0  0
   49.4523   56.3461   28.1493 C   0  0  0  0  0  0  0  0  0  0  0  0
   48.2685   56.9464   29.4231 S   0  0  2  0  0  0  0  0  0  0  0  0
   46.6721   57.0059   28.5513 C   0  0  0  0  0  0  0  0  0  0  0  0
   48.7761   58.6773   29.3518 C   0  0  0  0  0  0  0  0  0  0  0  0
   48.5481   59.4456   30.6651 C   0  0  1  0  0  0  0  0  0  0  0  0
   47.1298   59.4030   31.0021 O   0  0  0  0  0  0  0  0  0  0  0  0
   49.2427   58.5774   31.6825 C   0  0  1  0  0  0  0  0  0  0  0  0
   50.5600   59.0728   31.9233 O   0  0  0  0  0  0  0  0  0  0  0  0
   48.3855   58.7177   32.9344 C   0  0  1  0  0  0  0  0  0  0  0  0
   48.9012   59.6949   33.8308 O   0  0  0  0  0  0  0  0  0  0  0  0
   46.9488   59.1224   32.4402 C   0  0  2  0  0  0  0  0  0  0  0  0
   52.3035   53.7274   28.4306 O   0  0  0  0  0  0  0  0  0  0  0  0
   45.4995   54.5059   34.4821 N   0  0  0  0  0  0  0  0  0  0  0  0
   46.6068   55.2074   34.7481 C   0  0  0  0  0  0  0  0  0  0  0  0
   46.8370   56.3754   34.1692 N   0  0  0  0  0  0  0  0  0  0  0  0
   45.9850   56.8892   33.2668 C   0  0  0  0  0  0  0  0  0  0  0  0
   44.8033   56.1755   32.9408 C   0  0  0  0  0  0  0  0  0  0  0  0
   44.5854   54.9383   33.5981 C   0  0  0  0  0  0  0  0  0  0  0  0
   43.4591   54.1915   33.3348 N   0  0  0  0  0  0  0  0  0  0  0  0
   44.1353   56.8995   32.0205 N   0  0  0  0  0  0  0  0  0  0  0  0
   44.8110   57.9792   31.7560 C   0  0  0  0  0  0  0  0  0  0  0  0
   45.9574   58.0280   32.4992 N   0  0  0  0  0  0  0  0  0  0  0  0
  2  1  1  1  0  0  0
  2  3  1  0  0  0  0
  2  5  1  0  0  0  0
  3  4  1  0  0  0  0
  3 17  1  0  0  0  0
  5  6  1  0  0  0  0
  7  6  1  6  0  0  0
  7  8  1  0  0  0  0
  7  9  1  0  0  0  0
 10  9  1  6  0  0  0
 10 11  1  0  0  0  0
 10 12  1  0  0  0  0
 11 16  1  0  0  0  0
 12 13  1  1  0  0  0
 12 14  1  0  0  0  0
 14 15  1  1  0  0  0
 14 16  1  0  0  0  0
 16 27  1  6  0  0  0
 18 19  2  0  0  0  0
 18 23  1  0  0  0  0
 19 20  1  0  0  0  0
 20 21  2  0  0  0  0
 21 22  1  0  0  0  0
 21 27  1  0  0  0  0
 22 23  2  0  0  0  0
 22 25  1  0  0  0  0
 23 24  1  0  0  0  0
 25 26  2  0  0  0  0
 26 27  1  0  0  0  0
M  END
>  <CHROM.1>
142.30498731,-173.95579193,-170.14573464,-75.93401332,-152.49836696,-59.23510740
135.25974976,47.98560982,56.72737060,30.89877945,0.54015431,-0.66720499,-2.66852257

>  <Name>
ligand

>  <RI>
0

>  <Rbt.Current_Directory>
/home/itssahil/PROJECTS/Mol_Feturizer/New_Systems/rnas/2GIS

>  <Rbt.Executable>
rbdock ($Id: //depot/dev/client3/rdock/2013.1/src/exe/rbdock.cxx#4 $)

>  <Rbt.Library>
libRbt.so (2013.1, Build901 2013/11/27)

>  <Rbt.Parameter_File>
/export/apps/rDock/src/rDock_2013.1_src/data/scripts/dock_solv.prm

>  <Rbt.Receptor>
prm/pocket_docking_6.prm

>  <SCORE>
-14.7826

>  <SCORE.INTER>
-11.0391

>  <SCORE.INTER.CONST>
1

>  <SCORE.INTER.POLAR>
0

>  <SCORE.INTER.ROT>
7

>  <SCORE.INTER.SOLV>
8.20195

>  <SCORE.INTER.VDW>
-18.36

>  <SCORE.INTER.norm>
-0.408855

>  <SCORE.INTRA>
-3.74352

>  <SCORE.INTRA.DIHEDRAL>
-2.63548

>  <SCORE.INTRA.DIHEDRAL.0>
9.40024

>  <SCORE.INTRA.POLAR>
0

>  <SCORE.INTRA.POLAR.0>
0

>  <SCORE.INTRA.REPUL>
0

>  <SCORE.INTRA.REPUL.0>
0

>  <SCORE.INTRA.SOLV>
-2.84506

>  <SCORE.INTRA.SOLV.lig_0>
-47.1049

>  <SCORE.INTRA.VDW>
-1.00325

>  <SCORE.INTRA.VDW.0>
-1.50278

>  <SCORE.INTRA.norm>
-0.138649

>  <SCORE.RESTR>
0

>  <SCORE.RESTR.CAVITY>
0

>  <SCORE.RESTR.norm>
0

>  <SCORE.SYSTEM>
0

>  <SCORE.SYSTEM.CONST>
0

>  <SCORE.SYSTEM.DIHEDRAL>
0

>  <SCORE.SYSTEM.SOLV>
0

>  <SCORE.SYSTEM.norm>
0

>  <SCORE.heavy>
27

>  <SCORE.norm>
-0.547504

>  <RMSD>
4.992

$$$$
ligand
 OpenBabel11021811433D
libRbt.so/2013.1/901 2013/11/27
 27 29  0  0  0  0  0  0  0  0999 V2000
   50.7488   53.9000   27.3874 N   0  0  0  0  0  0  0  0  0  0  0  0
   50.2616   54.7748   26.3163 C   0  0  2  0  0  0  0  0  0  0  0  0
   51.4163   55.1509   25.4050 C   0  0  0  0  0  0  0  0  0  0  0  0
   51.2028   55.4338   24.2294 O   0  0  0  0  0  0  0  0  0  0  0  0
   49.6192   56.0490   26.8999 C   0  0  0  0  0  0  0  0  0  0  0  0
   48.3262   55.6738   27.6225 C   0  0  0  0  0  0  0  0  0  0  0  0
   47.4482   57.0715   28.4348 S   0  0  2  0  0  0  0  0  0  0  0  0
   47.5916   58.4381   27.2416 C   0  0  0  0  0  0  0  0  0  0  0  0
   48.7698   57.4751   29.5964 C   0  0  0  0  0  0  0  0  0  0  0  0
   48.4315   58.6419   30.5405 C   0  0  1  0  0  0  0  0  0  0  0  0
   47.0545   58.4996   30.9994 O   0  0  0  0  0  0  0  0  0  0  0  0
   49.2999   58.3611   31.7398 C   0  0  1  0  0  0  0  0  0  0  0  0
   50.5057   59.1208   31.6531 O   0  0  0  0  0  0  0  0  0  0  0  0
   48.4603   58.8305   32.9215 C   0  0  1  0  0  0  0  0  0  0  0  0
   48.8034   60.1485   33.3333 O   0  0  0  0  0  0  0  0  0  0  0  0
   46.9623   58.7703   32.4479 C   0  0  2  0  0  0  0  0  0  0  0  0
   52.5739   55.1122   25.8224 O   0  0  0  0  0  0  0  0  0  0  0  0
   46.9241   54.3969   35.3554 N   0  0  0  0  0  0  0  0  0  0  0  0
   47.9648   55.1937   35.0886 C   0  0  0  0  0  0  0  0  0  0  0  0
   47.8254   56.2834   34.3502 N   0  0  0  0  0  0  0  0  0  0  0  0
   46.6410   56.6169   33.8112 C   0  0  0  0  0  0  0  0  0  0  0  0
   45.5104   55.7953   34.0539 C   0  0  0  0  0  0  0  0  0  0  0  0
   45.6988   54.6486   34.8662 C   0  0  0  0  0  0  0  0  0  0  0  0
   44.6467   53.8062   35.1476 N   0  0  0  0  0  0  0  0  0  0  0  0
   44.4649   56.3452   33.4044 N   0  0  0  0  0  0  0  0  0  0  0  0
   44.8644   57.4174   32.7856 C   0  0  0  0  0  0  0  0  0  0  0  0
   46.1959   57.6363   33.0055 N   0  0  0  0  0  0  0  0  0  0  0  0
  2  1  1  1  0  0  0
  2  3  1  0  0  0  0
  2  5  1  0  0  0  0
  3  4  1  0  0  0  0
  3 17  1  0  0  0  0
  5  6  1  0  0  0  0
  7  6  1  6  0  0  0
  7  8  1  0  0  0  0
  7  9  1  0  0  0  0
 10  9  1  6  0  0  0
 10 11  1  0  0  0  0
 10 12  1  0  0  0  0
 11 16  1  0  0  0  0
 12 13  1  6  0  0  0
 12 14  1  0  0  0  0
 14 15  1  6  0  0  0
 14 16  1  0  0  0  0
 16 27  1  1  0  0  0
 18 19  2  0  0  0  0
 18 23  1  0  0  0  0
 19 20  1  0  0  0  0
 20 21  2  0  0  0  0
 21 22  1  0  0  0  0
 21 27  1  0  0  0  0
 22 23  2  0  0  0  0
 22 25  1  0  0  0  0
 23 24  1  0  0  0  0
 25 26  2  0  0  0  0
 26 27  1  0  0  0  0
M  END
>  <CHROM.1>
153.05282010,-68.22799780,178.02359028,40.73749897,-179.08539837,42.03192301
109.82265673,48.12624366,56.71196328,30.68555717,0.37502904,-1.05121372,-2.79971799

>  <Name>
ligand

>  <RI>
0

>  <Rbt.Current_Directory>
/home/itssahil/PROJECTS/Mol_Feturizer/New_Systems/rnas/2GIS

>  <Rbt.Executable>
rbdock ($Id: //depot/dev/client3/rdock/2013.1/src/exe/rbdock.cxx#4 $)

>  <Rbt.Library>
libRbt.so (2013.1, Build901 2013/11/27)

>  <Rbt.Parameter_File>
/export/apps/rDock/src/rDock_2013.1_src/data/scripts/dock_solv.prm

>  <Rbt.Receptor>
prm/pocket_docking_7.prm

>  <SCORE>
-14.8494

>  <SCORE.INTER>
-11.5593

>  <SCORE.INTER.CONST>
1

>  <SCORE.INTER.POLAR>
0

>  <SCORE.INTER.ROT>
7

>  <SCORE.INTER.SOLV>
9.6624

>  <SCORE.INTER.VDW>
-19.1937

>  <SCORE.INTER.norm>
-0.428124

>  <SCORE.INTRA>
-3.29006

>  <SCORE.INTRA.DIHEDRAL>
-4.28157

>  <SCORE.INTRA.DIHEDRAL.0>
9.40024

>  <SCORE.INTRA.POLAR>
0

>  <SCORE.INTRA.POLAR.0>
0

>  <SCORE.INTRA.REPUL>
0

>  <SCORE.INTRA.REPUL.0>
0

>  <SCORE.INTRA.SOLV>
-2.38572

>  <SCORE.INTRA.SOLV.lig_0>
-47.1049

>  <SCORE.INTRA.VDW>
0.0435861

>  <SCORE.INTRA.VDW.0>
-1.50278

>  <SCORE.INTRA.norm>
-0.121854

>  <SCORE.RESTR>
0

>  <SCORE.RESTR.CAVITY>
0

>  <SCORE.RESTR.norm>
0

>  <SCORE.SYSTEM>
0

>  <SCORE.SYSTEM.CONST>
0

>  <SCORE.SYSTEM.DIHEDRAL>
0

>  <SCORE.SYSTEM.SOLV>
0

>  <SCORE.SYSTEM.norm>
0

>  <SCORE.heavy>
27

>  <SCORE.norm>
-0.549978

>  <RMSD>
4.995

$$$$
ligand
 OpenBabel11021811433D
libRbt.so/2013.1/901 2013/11/27
 27 29  0  0  0  0  0  0  0  0999 V2000
   46.7974   53.2170   31.7751 N   0  0  0  0  0  0  0  0  0  0  0  0
   46.9766   53.8473   30.4634 C   0  0  2  0  0  0  0  0  0  0  0  0
   47.0437   52.7745   29.3910 C   0  0  0  0  0  0  0  0  0  0  0  0
   46.1136   52.6376   28.6014 O   0  0  0  0  0  0  0  0  0  0  0  0
   48.2630   54.6965   30.4352 C   0  0  0  0  0  0  0  0  0  0  0  0
   48.2230   55.6286   29.2251 C   0  0  0  0  0  0  0  0  0  0  0  0
   49.7789   56.5536   28.8964 S   0  0  2  0  0  0  0  0  0  0  0  0
   51.0306   55.2509   28.6764 C   0  0  0  0  0  0  0  0  0  0  0  0
   50.0734   57.0424   30.6090 C   0  0  0  0  0  0  0  0  0  0  0  0
   49.3449   58.3338   31.0199 C   0  0  1  0  0  0  0  0  0  0  0  0
   47.9187   58.0567   31.1465 O   0  0  0  0  0  0  0  0  0  0  0  0
   49.8484   58.5675   32.4211 C   0  0  1  0  0  0  0  0  0  0  0  0
   50.9340   59.4946   32.3973 O   0  0  0  0  0  0  0  0  0  0  0  0
   48.6519   59.1693   33.1477 C   0  0  1  0  0  0  0  0  0  0  0  0
   48.7100   60.5903   33.1908 O   0  0  0  0  0  0  0  0  0  0  0  0
   47.3755   58.6905   32.3643 C   0  0  2  0  0  0  0  0  0  0  0  0
   47.9988   51.9987   29.3488 O   0  0  0  0  0  0  0  0  0  0  0  0
   47.3965   54.4657   35.4841 N   0  0  0  0  0  0  0  0  0  0  0  0
   48.4451   55.1932   35.0839 C   0  0  0  0  0  0  0  0  0  0  0  0
   48.2905   56.2531   34.3060 N   0  0  0  0  0  0  0  0  0  0  0  0
   47.0787   56.6230   33.8598 C   0  0  0  0  0  0  0  0  0  0  0  0
   45.9372   55.8744   34.2455 C   0  0  0  0  0  0  0  0  0  0  0  0
   46.1447   54.7585   35.0952 C   0  0  0  0  0  0  0  0  0  0  0  0
   45.0838   53.9868   35.5133 N   0  0  0  0  0  0  0  0  0  0  0  0
   44.8637   56.4477   33.6657 N   0  0  0  0  0  0  0  0  0  0  0  0
   45.2553   57.4673   32.9591 C   0  0  0  0  0  0  0  0  0  0  0  0
   46.6104   57.6258   33.0463 N   0  0  0  0  0  0  0  0  0  0  0  0
  2  1  1  1  0  0  0
  2  3  1  0  0  0  0
  2  5  1  0  0  0  0
  3  4  1  0  0  0  0
  3 17  1  0  0  0  0
  5  6  1  0  0  0  0
  7  6  1  1  0  0  0
  7  8  1  0  0  0  0
  7  9  1  0  0  0  0
 10  9  1  1  0  0  0
 10 11  1  0  0  0  0
 10 12  1  0  0  0  0
 11 16  1  0  0  0  0
 12 13  1  6  0  0  0
 12 14  1  0  0  0  0
 14 15  1  6  0  0  0
 14 16  1  0  0  0  0
 16 27  1  1  0  0  0
 18 19  2  0  0  0  0
 18 23  1  0  0  0  0
 19 20  1  0  0  0  0
 20 21  2  0  0  0  0
 21 22  1  0  0  0  0
 21 27  1  0  0  0  0
 22 23  2  0  0  0  0
 22 25  1  0  0  0  0
 23 24  1  0  0  0  0
 25 26  2  0  0  0  0
 26 27  1  0  0  0  0
M  END
>  <CHROM.1>
109.17399276,-164.49753720,-171.89155850,58.18339970,-85.69435806,72.47037416
81.36481926,47.92623048,56.14935316,31.86258737,1.51720637,-0.89208857,-2.37748552

>  <Name>
ligand

>  <RI>
0

>  <Rbt.Current_Directory>
/home/itssahil/PROJECTS/Mol_Feturizer/New_Systems/rnas/2GIS

>  <Rbt.Executable>
rbdock ($Id: //depot/dev/client3/rdock/2013.1/src/exe/rbdock.cxx#4 $)

>  <Rbt.Library>
libRbt.so (2013.1, Build901 2013/11/27)

>  <Rbt.Parameter_File>
/export/apps/rDock/src/rDock_2013.1_src/data/scripts/dock_solv.prm

>  <Rbt.Receptor>
prm/pocket_docking_6.prm

>  <SCORE>
-16.1733

>  <SCORE.INTER>
-11.6644

>  <SCORE.INTER.CONST>
1

>  <SCORE.INTER.POLAR>
0

>  <SCORE.INTER.ROT>
7

>  <SCORE.INTER.SOLV>
14.1332

>  <SCORE.INTER.VDW>
-20.754

>  <SCORE.INTER.norm>
-0.432013

>  <SCORE.INTRA>
-4.50891

>  <SCORE.INTRA.DIHEDRAL>
-3.49341

>  <SCORE.INTRA.DIHEDRAL.0>
9.40024

>  <SCORE.INTRA.POLAR>
0

>  <SCORE.INTRA.POLAR.0>
0

>  <SCORE.INTRA.REPUL>
0

>  <SCORE.INTRA.REPUL.0>
0

>  <SCORE.INTRA.SOLV>
-2.21254

>  <SCORE.INTRA.SOLV.lig_0>
-47.1049

>  <SCORE.INTRA.VDW>
-1.65593

>  <SCORE.INTRA.VDW.0>
-1.50278

>  <SCORE.INTRA.norm>
-0.166997

>  <SCORE.RESTR>
0

>  <SCORE.RESTR.CAVITY>
0

>  <SCORE.RESTR.norm>
0

>  <SCORE.SYSTEM>
0

>  <SCORE.SYSTEM.CONST>
0

>  <SCORE.SYSTEM.DIHEDRAL>
0

>  <SCORE.SYSTEM.SOLV>
0

>  <SCORE.SYSTEM.norm>
0

>  <SCORE.heavy>
27

>  <SCORE.norm>
-0.59901

>  <RMSD>
4.996

$$$$
ligand
 OpenBabel11021811433D
libRbt.so/2013.1/901 2013/11/27
 27 29  0  0  0  0  0  0  0  0999 V2000
   49.3647   52.2914   28.5004 N   0  0  0  0  0  0  0  0  0  0  0  0
   49.4761   52.7605   29.8851 C   0  0  2  0  0  0  0  0  0  0  0  0
   48.1592   53.3804   30.3174 C   0  0  0  0  0  0  0  0  0  0  0  0
   47.3026   53.6473   29.4792 O   0  0  0  0  0  0  0  0  0  0  0  0
   50.6114   53.7945   30.0232 C   0  0  0  0  0  0  0  0  0  0  0  0
   50.4486   54.8657   28.9459 C   0  0  0  0  0  0  0  0  0  0  0  0
   49.1044   56.0845   29.2492 S   0  0  2  0  0  0  0  0  0  0  0  0
   49.2432   57.2519   27.8599 C   0  0  0  0  0  0  0  0  0  0  0  0
   49.9599   56.9874   30.5576 C   0  0  0  0  0  0  0  0  0  0  0  0
   49.2526   58.2870   30.9795 C   0  0  1  0  0  0  0  0  0  0  0  0
   47.8267   58.0241   31.1366 O   0  0  0  0  0  0  0  0  0  0  0  0
   49.7873   58.5198   32.3692 C   0  0  1  0  0  0  0  0  0  0  0  0
   50.8810   59.4363   32.3201 O   0  0  0  0  0  0  0  0  0  0  0  0
   48.6120   59.1352   33.1187 C   0  0  1  0  0  0  0  0  0  0  0  0
   48.6846   60.5557   33.1562 O   0  0  0  0  0  0  0  0  0  0  0  0
   47.3151   58.6665   32.3635 C   0  0  2  0  0  0  0  0  0  0  0  0
   47.9705   53.6756   31.4976 O   0  0  0  0  0  0  0  0  0  0  0  0
   47.3612   54.4446   35.4868 N   0  0  0  0  0  0  0  0  0  0  0  0
   48.4083   55.1598   35.0613 C   0  0  0  0  0  0  0  0  0  0  0  0
   48.2476   56.2206   34.2860 N   0  0  0  0  0  0  0  0  0  0  0  0
   47.0299   56.6039   33.8679 C   0  0  0  0  0  0  0  0  0  0  0  0
   45.8893   55.8687   34.2811 C   0  0  0  0  0  0  0  0  0  0  0  0
   46.1040   54.7513   35.1271 C   0  0  0  0  0  0  0  0  0  0  0  0
   45.0446   53.9921   35.5708 N   0  0  0  0  0  0  0  0  0  0  0  0
   44.8091   56.4536   33.7260 N   0  0  0  0  0  0  0  0  0  0  0  0
   45.1956   57.4681   33.0092 C   0  0  0  0  0  0  0  0  0  0  0  0
   46.5541   57.6112   33.0645 N   0  0  0  0  0  0  0  0  0  0  0  0
  2  1  1  6  0  0  0
  2  3  1  0  0  0  0
  2  5  1  0  0  0  0
  3  4  1  0  0  0  0
  3 17  1  0  0  0  0
  5  6  1  0  0  0  0
  7  6  1  6  0  0  0
  7  8  1  0  0  0  0
  7  9  1  0  0  0  0
 10  9  1  1  0  0  0
 10 11  1  0  0  0  0
 10 12  1  0  0  0  0
 11 16  1  0  0  0  0
 12 13  1  6  0  0  0
 12 14  1  0  0  0  0
 14 15  1  6  0  0  0
 14 16  1  0  0  0  0
 16 27  1  1  0  0  0
 18 19  2  0  0  0  0
 18 23  1  0  0  0  0
 19 20  1  0  0  0  0
 20 21  2  0  0  0  0
 21 22  1  0  0  0  0
 21 27  1  0  0  0  0
 22 23  2  0  0  0  0
 22 25  1  0  0  0  0
 23 24  1  0  0  0  0
 25 26  2  0  0  0  0
 26 27  1  0  0  0  0
M  END
>  <CHROM.1>
-13.30327679,50.09968792,75.15080528,176.80375429,170.88833904,45.39843453
81.15128018,48.18880913,56.17113571,31.84758325,0.68994554,-0.95829484,-2.74675745

>  <Name>
ligand

>  <RI>
0

>  <Rbt.Current_Directory>
/home/itssahil/PROJECTS/Mol_Feturizer/New_Systems/rnas/2GIS

>  <Rbt.Executable>
rbdock ($Id: //depot/dev/client3/rdock/2013.1/src/exe/rbdock.cxx#4 $)

>  <Rbt.Library>
libRbt.so (2013.1, Build901 2013/11/27)

>  <Rbt.Parameter_File>
/export/apps/rDock/src/rDock_2013.1_src/data/scripts/dock_solv.prm

>  <Rbt.Receptor>
prm/pocket_docking_6.prm

>  <SCORE>
-17.3351

>  <SCORE.INTER>
-12.7892

>  <SCORE.INTER.CONST>
1

>  <SCORE.INTER.POLAR>
0

>  <SCORE.INTER.ROT>
7

>  <SCORE.INTER.SOLV>
14.0418

>  <SCORE.INTER.VDW>
-21.4734

>  <SCORE.INTER.norm>
-0.473674

>  <SCORE.INTRA>
-4.54591

>  <SCORE.INTRA.DIHEDRAL>
-4.33618

>  <SCORE.INTRA.DIHEDRAL.0>
9.40024

>  <SCORE.INTRA.POLAR>
0

>  <SCORE.INTRA.POLAR.0>
0

>  <SCORE.INTRA.REPUL>
0

>  <SCORE.INTRA.REPUL.0>
0

>  <SCORE.INTRA.SOLV>
-1.58636

>  <SCORE.INTRA.SOLV.lig_0>
-47.1049

>  <SCORE.INTRA.VDW>
-1.58464

>  <SCORE.INTRA.VDW.0>
-1.50278

>  <SCORE.INTRA.norm>
-0.168367

>  <SCORE.RESTR>
0

>  <SCORE.RESTR.CAVITY>
0

>  <SCORE.RESTR.norm>
0

>  <SCORE.SYSTEM>
0

>  <SCORE.SYSTEM.CONST>
0

>  <SCORE.SYSTEM.DIHEDRAL>
0

>  <SCORE.SYSTEM.SOLV>
0

>  <SCORE.SYSTEM.norm>
0

>  <SCORE.heavy>
27

>  <SCORE.norm>
-0.642041

>  <RMSD>
5.017

$$$$
ligand
 OpenBabel11021811433D
libRbt.so/2013.1/901 2013/11/27
 27 29  0  0  0  0  0  0  0  0999 V2000
   47.5101   53.2073   26.5730 N   0  0  0  0  0  0  0  0  0  0  0  0
   47.6883   54.4137   27.3871 C   0  0  2  0  0  0  0  0  0  0  0  0
   46.9532   54.2483   28.7052 C   0  0  0  0  0  0  0  0  0  0  0  0
   45.7337   54.1057   28.7137 O   0  0  0  0  0  0  0  0  0  0  0  0
   47.1594   55.6576   26.6456 C   0  0  0  0  0  0  0  0  0  0  0  0
   47.7351   56.9136   27.2979 C   0  0  0  0  0  0  0  0  0  0  0  0
   47.1253   57.2638   28.9979 S   0  0  2  0  0  0  0  0  0  0  0  0
   45.4141   57.8301   28.7467 C   0  0  0  0  0  0  0  0  0  0  0  0
   47.9939   58.8346   29.1903 C   0  0  0  0  0  0  0  0  0  0  0  0
   48.0156   59.3586   30.6366 C   0  0  1  0  0  0  0  0  0  0  0  0
   46.6664   59.2957   31.1867 O   0  0  0  0  0  0  0  0  0  0  0  0
   48.8089   58.3015   31.3609 C   0  0  1  0  0  0  0  0  0  0  0  0
   50.1735   58.7079   31.4672 O   0  0  0  0  0  0  0  0  0  0  0  0
   48.1649   58.2369   32.7403 C   0  0  1  0  0  0  0  0  0  0  0  0
   48.8676   59.0209   33.6974 O   0  0  0  0  0  0  0  0  0  0  0  0
   46.6944   58.7647   32.5640 C   0  0  2  0  0  0  0  0  0  0  0  0
   47.5662   54.3199   29.7705 O   0  0  0  0  0  0  0  0  0  0  0  0
   44.9642   54.2601   34.6368 N   0  0  0  0  0  0  0  0  0  0  0  0
   46.0773   54.9318   34.9512 C   0  0  0  0  0  0  0  0  0  0  0  0
   46.3827   56.0742   34.3562 N   0  0  0  0  0  0  0  0  0  0  0  0
   45.6051   56.5897   33.3898 C   0  0  0  0  0  0  0  0  0  0  0  0
   44.4209   55.9065   33.0114 C   0  0  0  0  0  0  0  0  0  0  0  0
   44.1207   54.6968   33.6872 C   0  0  0  0  0  0  0  0  0  0  0  0
   42.9870   53.9805   33.3756 N   0  0  0  0  0  0  0  0  0  0  0  0
   43.8354   56.6252   32.0328 N   0  0  0  0  0  0  0  0  0  0  0  0
   44.5631   57.6738   31.7811 C   0  0  0  0  0  0  0  0  0  0  0  0
   45.6636   57.7060   32.5916 N   0  0  0  0  0  0  0  0  0  0  0  0
  2  1  1  6  0  0  0
  2  3  1  0  0  0  0
  2  5  1  0  0  0  0
  3  4  1  0  0  0  0
  3 17  1  0  0  0  0
  5  6  1  0  0  0  0
  7  6  1  6  0  0  0
  7  8  1  0  0  0  0
  7  9  1  0  0  0  0
 10  9  1  6  0  0  0
 10 11  1  0  0  0  0
 10 12  1  0  0  0  0
 11 16  1  0  0  0  0
 12 13  1  1  0  0  0
 12 14  1  0  0  0  0
 14 15  1  1  0  0  0
 14 16  1  0  0  0  0
 16 27  1  6  0  0  0
 18 19  2  0  0  0  0
 18 23  1  0  0  0  0
 19 20  1  0  0  0  0
 20 21  2  0  0  0  0
 21 22  1  0  0  0  0
 21 27  1  0  0  0  0
 22 23  2  0  0  0  0
 22 25  1  0  0  0  0
 23 24  1  0  0  0  0
 25 26  2  0  0  0  0
 26 27  1  0  0  0  0
M  END
>  <CHROM.1>
-62.34500774,-162.59881620,-68.20855966,-72.68978240,-166.98842867,-48.39013331
152.62233748,46.62908751,56.61380384,30.94172627,1.04533930,-0.89620862,-2.07315952

>  <Name>
ligand

>  <RI>
0

>  <Rbt.Current_Directory>
/home/itssahil/PROJECTS/Mol_Feturizer/New_Systems/rnas/2GIS

>  <Rbt.Executable>
rbdock ($Id: //depot/dev/client3/rdock/2013.1/src/exe/rbdock.cxx#4 $)

>  <Rbt.Library>
libRbt.so (2013.1, Build901 2013/11/27)

>  <Rbt.Parameter_File>
/export/apps/rDock/src/rDock_2013.1_src/data/scripts/dock_solv.prm

>  <Rbt.Receptor>
prm/pocket_docking_6.prm

>  <SCORE>
-14.0743

>  <SCORE.INTER>
-9.45824

>  <SCORE.INTER.CONST>
1

>  <SCORE.INTER.POLAR>
0

>  <SCORE.INTER.ROT>
7

>  <SCORE.INTER.SOLV>
8.35081

>  <SCORE.INTER.VDW>
-17.3558

>  <SCORE.INTER.norm>
-0.350305

>  <SCORE.INTRA>
-4.61606

>  <SCORE.INTRA.DIHEDRAL>
-3.15382

>  <SCORE.INTRA.DIHEDRAL.0>
9.40024

>  <SCORE.INTRA.POLAR>
0

>  <SCORE.INTRA.POLAR.0>
0

>  <SCORE.INTRA.REPUL>
0

>  <SCORE.INTRA.REPUL.0>
0

>  <SCORE.INTRA.SOLV>
-2.71881

>  <SCORE.INTRA.SOLV.lig_0>
-47.1049

>  <SCORE.INTRA.VDW>
-1.67975

>  <SCORE.INTRA.VDW.0>
-1.50278

>  <SCORE.INTRA.norm>
-0.170965

>  <SCORE.RESTR>
0

>  <SCORE.RESTR.CAVITY>
0

>  <SCORE.RESTR.norm>
0

>  <SCORE.SYSTEM>
0

>  <SCORE.SYSTEM.CONST>
0

>  <SCORE.SYSTEM.DIHEDRAL>
0

>  <SCORE.SYSTEM.SOLV>
0

>  <SCORE.SYSTEM.norm>
0

>  <SCORE.heavy>
27

>  <SCORE.norm>
-0.521271

>  <RMSD>
5.035

$$$$
ligand
 OpenBabel11021811433D
libRbt.so/2013.1/901 2013/11/27
 27 29  0  0  0  0  0  0  0  0999 V2000
   45.4596   57.9832   30.4267 N   0  0  0  0  0  0  0  0  0  0  0  0
   46.7559   58.5149   30.8587 C   0  0  2  0  0  0  0  0  0  0  0  0
   46.5622   59.3853   32.0876 C   0  0  0  0  0  0  0  0  0  0  0  0
   47.5347   59.8924   32.6395 O   0  0  0  0  0  0  0  0  0  0  0  0
   47.4128   59.3380   29.7327 C   0  0  0  0  0  0  0  0  0  0  0  0
   47.1460   58.6566   28.3914 C   0  0  0  0  0  0  0  0  0  0  0  0
   48.5113   57.5935   27.7669 S   0  0  2  0  0  0  0  0  0  0  0  0
   47.9598   57.0945   26.1059 C   0  0  0  0  0  0  0  0  0  0  0  0
   48.0749   56.1357   28.7381 C   0  0  0  0  0  0  0  0  0  0  0  0
   49.1907   55.0787   28.8064 C   0  0  1  0  0  0  0  0  0  0  0  0
   49.8174   55.1317   30.1222 O   0  0  0  0  0  0  0  0  0  0  0  0
   48.4230   53.7824   28.7642 C   0  0  1  0  0  0  0  0  0  0  0  0
   48.3879   53.2836   27.4268 O   0  0  0  0  0  0  0  0  0  0  0  0
   49.2277   52.8475   29.6587 C   0  0  1  0  0  0  0  0  0  0  0  0
   50.1138   52.0217   28.9120 O   0  0  0  0  0  0  0  0  0  0  0  0
   50.0305   53.7688   30.6482 C   0  0  2  0  0  0  0  0  0  0  0  0
   45.4399   59.5340   32.5716 O   0  0  0  0  0  0  0  0  0  0  0  0
   46.9067   56.0791   34.1817 N   0  0  0  0  0  0  0  0  0  0  0  0
   47.1123   56.4404   32.9103 C   0  0  0  0  0  0  0  0  0  0  0  0
   47.9193   55.7494   32.1207 N   0  0  0  0  0  0  0  0  0  0  0  0
   48.5901   54.6766   32.5718 C   0  0  0  0  0  0  0  0  0  0  0  0
   48.4159   54.2625   33.9173 C   0  0  0  0  0  0  0  0  0  0  0  0
   47.5276   55.0185   34.7233 C   0  0  0  0  0  0  0  0  0  0  0  0
   47.3060   54.6744   36.0379 N   0  0  0  0  0  0  0  0  0  0  0  0
   49.1945   53.1792   34.1103 N   0  0  0  0  0  0  0  0  0  0  0  0
   49.8284   52.9085   33.0071 C   0  0  0  0  0  0  0  0  0  0  0  0
   49.4903   53.7958   32.0235 N   0  0  0  0  0  0  0  0  0  0  0  0
  2  1  1  6  0  0  0
  2  3  1  0  0  0  0
  2  5  1  0  0  0  0
  3  4  1  0  0  0  0
  3 17  1  0  0  0  0
  5  6  1  0  0  0  0
  7  6  1  1  0  0  0
  7  8  1  0  0  0  0
  7  9  1  0  0  0  0
 10  9  1  1  0  0  0
 10 11  1  0  0  0  0
 10 12  1  0  0  0  0
 11 16  1  0  0  0  0
 12 13  1  6  0  0  0
 12 14  1  0  0  0  0
 14 15  1  6  0  0  0
 14 16  1  0  0  0  0
 16 27  1  1  0  0  0
 18 19  2  0  0  0  0
 18 23  1  0  0  0  0
 19 20  1  0  0  0  0
 20 21  2  0  0  0  0
 21 22  1  0  0  0  0
 21 27  1  0  0  0  0
 22 23  2  0  0  0  0
 22 25  1  0  0  0  0
 23 24  1  0  0  0  0
 25 26  2  0  0  0  0
 26 27  1  0  0  0  0
M  END
>  <CHROM.1>
177.45508631,-38.44660043,-97.77345451,-174.01941099,-164.76152287,104.75631981
20.47051970,48.10463198,55.92270540,30.84971665,1.97967105,1.12132931,-1.24479680

>  <Name>
ligand

>  <RI>
0

>  <Rbt.Current_Directory>
/home/itssahil/PROJECTS/Mol_Feturizer/New_Systems/rnas/2GIS

>  <Rbt.Executable>
rbdock ($Id: //depot/dev/client3/rdock/2013.1/src/exe/rbdock.cxx#4 $)

>  <Rbt.Library>
libRbt.so (2013.1, Build901 2013/11/27)

>  <Rbt.Parameter_File>
/export/apps/rDock/src/rDock_2013.1_src/data/scripts/dock_solv.prm

>  <Rbt.Receptor>
prm/pocket_docking_2.prm

>  <SCORE>
-0.59504

>  <SCORE.INTER>
-2.09336

>  <SCORE.INTER.CONST>
1

>  <SCORE.INTER.POLAR>
0

>  <SCORE.INTER.ROT>
7

>  <SCORE.INTER.SOLV>
11.9761

>  <SCORE.INTER.VDW>
-13.6543

>  <SCORE.INTER.norm>
-0.077532

>  <SCORE.INTRA>
1.03738

>  <SCORE.INTRA.DIHEDRAL>
5.54002

>  <SCORE.INTRA.DIHEDRAL.0>
9.40024

>  <SCORE.INTRA.POLAR>
0

>  <SCORE.INTRA.POLAR.0>
0

>  <SCORE.INTRA.REPUL>
0

>  <SCORE.INTRA.REPUL.0>
0

>  <SCORE.INTRA.SOLV>
-0.447654

>  <SCORE.INTRA.SOLV.lig_0>
-47.1049

>  <SCORE.INTRA.VDW>
-1.5088

>  <SCORE.INTRA.VDW.0>
-1.50278

>  <SCORE.INTRA.norm>
0.0384215

>  <SCORE.RESTR>
0.460945

>  <SCORE.RESTR.CAVITY>
0.460945

>  <SCORE.RESTR.norm>
0.017072

>  <SCORE.SYSTEM>
0

>  <SCORE.SYSTEM.CONST>
0

>  <SCORE.SYSTEM.DIHEDRAL>
0

>  <SCORE.SYSTEM.SOLV>
0

>  <SCORE.SYSTEM.norm>
0

>  <SCORE.heavy>
27

>  <SCORE.norm>
-0.0220385

>  <RMSD>
5.041

$$$$
ligand
 OpenBabel11021811433D
libRbt.so/2013.1/901 2013/11/27
 27 29  0  0  0  0  0  0  0  0999 V2000
   46.6042   58.6658   27.3162 N   0  0  0  0  0  0  0  0  0  0  0  0
   47.7119   58.0399   28.0450 C   0  0  2  0  0  0  0  0  0  0  0  0
   47.4289   56.5587   28.2218 C   0  0  0  0  0  0  0  0  0  0  0  0
   46.6869   55.9778   27.4347 O   0  0  0  0  0  0  0  0  0  0  0  0
   47.9050   58.7038   29.4229 C   0  0  0  0  0  0  0  0  0  0  0  0
   46.6311   58.5280   30.2480 C   0  0  0  0  0  0  0  0  0  0  0  0
   46.5924   59.4540   31.8372 S   0  0  2  0  0  0  0  0  0  0  0  0
   46.9589   61.1711   31.3583 C   0  0  0  0  0  0  0  0  0  0  0  0
   48.2073   58.8963   32.4201 C   0  0  0  0  0  0  0  0  0  0  0  0
   48.1334   57.8300   33.5266 C   0  0  1  0  0  0  0  0  0  0  0  0
   47.6846   56.5701   32.9451 O   0  0  0  0  0  0  0  0  0  0  0  0
   49.5821   57.6269   33.8893 C   0  0  1  0  0  0  0  0  0  0  0  0
   49.9108   58.4178   35.0318 O   0  0  0  0  0  0  0  0  0  0  0  0
   49.6740   56.1437   34.2259 C   0  0  1  0  0  0  0  0  0  0  0  0
   49.5813   55.9046   35.6254 O   0  0  0  0  0  0  0  0  0  0  0  0
   48.4883   55.4460   33.4648 C   0  0  2  0  0  0  0  0  0  0  0  0
   47.8894   55.9503   29.1880 O   0  0  0  0  0  0  0  0  0  0  0  0
   51.0672   55.3459   28.8909 N   0  0  0  0  0  0  0  0  0  0  0  0
   50.9401   56.3741   29.7368 C   0  0  0  0  0  0  0  0  0  0  0  0
   50.2719   56.2517   30.8729 N   0  0  0  0  0  0  0  0  0  0  0  0
   49.6664   55.1006   31.2083 C   0  0  0  0  0  0  0  0  0  0  0  0
   49.7606   53.9854   30.3365 C   0  0  0  0  0  0  0  0  0  0  0  0
   50.5021   54.1531   29.1397 C   0  0  0  0  0  0  0  0  0  0  0  0
   50.6395   53.1141   28.2468 N   0  0  0  0  0  0  0  0  0  0  0  0
   49.0714   52.9732   30.9000 N   0  0  0  0  0  0  0  0  0  0  0  0
   48.5634   53.3793   32.0266 C   0  0  0  0  0  0  0  0  0  0  0  0
   48.9023   54.6812   32.2698 N   0  0  0  0  0  0  0  0  0  0  0  0
  2  1  1  1  0  0  0
  2  3  1  0  0  0  0
  2  5  1  0  0  0  0
  3  4  1  0  0  0  0
  3 17  1  0  0  0  0
  5  6  1  0  0  0  0
  7  6  1  6  0  0  0
  7  8  1  0  0  0  0
  7  9  1  0  0  0  0
 10  9  1  6  0  0  0
 10 11  1  0  0  0  0
 10 12  1  0  0  0  0
 11 16  1  0  0  0  0
 12 13  1  1  0  0  0
 12 14  1  0  0  0  0
 14 15  1  1  0  0  0
 14 16  1  0  0  0  0
 16 27  1  6  0  0  0
 18 19  2  0  0  0  0
 18 23  1  0  0  0  0
 19 20  1  0  0  0  0
 20 21  2  0  0  0  0
 21 22  1  0  0  0  0
 21 27  1  0  0  0  0
 22 23  2  0  0  0  0
 22 25  1  0  0  0  0
 23 24  1  0  0  0  0
 25 26  2  0  0  0  0
 26 27  1  0  0  0  0
M  END
>  <CHROM.1>
25.05660829,60.92527594,-172.02653512,53.47708387,-104.71788840,71.87379752
61.11525541,48.57037184,56.68344851,31.10267031,1.23037868,1.03572792,-1.93159267

>  <Name>
ligand

>  <RI>
0

>  <Rbt.Current_Directory>
/home/itssahil/PROJECTS/Mol_Feturizer/New_Systems/rnas/2GIS

>  <Rbt.Executable>
rbdock ($Id: //depot/dev/client3/rdock/2013.1/src/exe/rbdock.cxx#4 $)

>  <Rbt.Library>
libRbt.so (2013.1, Build901 2013/11/27)

>  <Rbt.Parameter_File>
/export/apps/rDock/src/rDock_2013.1_src/data/scripts/dock_solv.prm

>  <Rbt.Receptor>
prm/pocket_docking_3.prm

>  <SCORE>
-16.282

>  <SCORE.INTER>
-12.5532

>  <SCORE.INTER.CONST>
1

>  <SCORE.INTER.POLAR>
0

>  <SCORE.INTER.ROT>
7

>  <SCORE.INTER.SOLV>
15.0321

>  <SCORE.INTER.VDW>
-21.6462

>  <SCORE.INTER.norm>
-0.464935

>  <SCORE.INTRA>
-3.73022

>  <SCORE.INTRA.DIHEDRAL>
-2.24765

>  <SCORE.INTRA.DIHEDRAL.0>
9.40024

>  <SCORE.INTRA.POLAR>
0

>  <SCORE.INTRA.POLAR.0>
0

>  <SCORE.INTRA.REPUL>
0

>  <SCORE.INTRA.REPUL.0>
0

>  <SCORE.INTRA.SOLV>
-2.30126

>  <SCORE.INTRA.SOLV.lig_0>
-47.1049

>  <SCORE.INTRA.VDW>
-1.45576

>  <SCORE.INTRA.VDW.0>
-1.50278

>  <SCORE.INTRA.norm>
-0.138156

>  <SCORE.RESTR>
0.00148928

>  <SCORE.RESTR.CAVITY>
0.00148928

>  <SCORE.RESTR.norm>
5.51584e-05

>  <SCORE.SYSTEM>
0

>  <SCORE.SYSTEM.CONST>
0

>  <SCORE.SYSTEM.DIHEDRAL>
0

>  <SCORE.SYSTEM.SOLV>
0

>  <SCORE.SYSTEM.norm>
0

>  <SCORE.heavy>
27

>  <SCORE.norm>
-0.603036

>  <RMSD>
5.041

$$$$
ligand
 OpenBabel11021811433D
libRbt.so/2013.1/901 2013/11/27
 27 29  0  0  0  0  0  0  0  0999 V2000
   46.4675   56.4778   28.8306 N   0  0  0  0  0  0  0  0  0  0  0  0
   47.3186   57.3609   28.0271 C   0  0  2  0  0  0  0  0  0  0  0  0
   48.0554   56.5413   26.9827 C   0  0  0  0  0  0  0  0  0  0  0  0
   48.0589   56.9033   25.8095 O   0  0  0  0  0  0  0  0  0  0  0  0
   48.3324   58.1046   28.9193 C   0  0  0  0  0  0  0  0  0  0  0  0
   47.6227   59.2516   29.6372 C   0  0  0  0  0  0  0  0  0  0  0  0
   46.6979   58.7742   31.1541 S   0  0  2  0  0  0  0  0  0  0  0  0
   45.8357   60.2996   31.6458 C   0  0  0  0  0  0  0  0  0  0  0  0
   48.1238   58.8006   32.2609 C   0  0  0  0  0  0  0  0  0  0  0  0
   47.9660   57.8997   33.4980 C   0  0  1  0  0  0  0  0  0  0  0  0
   47.2513   56.6871   33.1164 O   0  0  0  0  0  0  0  0  0  0  0  0
   49.3836   57.4741   33.7818 C   0  0  1  0  0  0  0  0  0  0  0  0
   49.9497   58.3153   34.7871 O   0  0  0  0  0  0  0  0  0  0  0  0
   49.2443   56.0478   34.2994 C   0  0  1  0  0  0  0  0  0  0  0  0
   49.2402   55.9912   35.7211 O   0  0  0  0  0  0  0  0  0  0  0  0
   47.8895   55.5000   33.7192 C   0  0  2  0  0  0  0  0  0  0  0  0
   48.5968   55.4806   27.2953 O   0  0  0  0  0  0  0  0  0  0  0  0
   50.3414   54.1899   29.2635 N   0  0  0  0  0  0  0  0  0  0  0  0
   50.5378   55.2775   30.0168 C   0  0  0  0  0  0  0  0  0  0  0  0
   49.8562   55.4723   31.1347 N   0  0  0  0  0  0  0  0  0  0  0  0
   48.9166   54.6032   31.5420 C   0  0  0  0  0  0  0  0  0  0  0  0
   48.6619   53.4413   30.7691 C   0  0  0  0  0  0  0  0  0  0  0  0
   49.4277   53.2610   29.5896 C   0  0  0  0  0  0  0  0  0  0  0  0
   49.2381   52.1557   28.7908 N   0  0  0  0  0  0  0  0  0  0  0  0
   47.6847   52.7501   31.3892 N   0  0  0  0  0  0  0  0  0  0  0  0
   47.3215   53.3937   32.4598 C   0  0  0  0  0  0  0  0  0  0  0  0
   48.0510   54.5406   32.6068 N   0  0  0  0  0  0  0  0  0  0  0  0
  2  1  1  1  0  0  0
  2  3  1  0  0  0  0
  2  5  1  0  0  0  0
  3  4  1  0  0  0  0
  3 17  1  0  0  0  0
  5  6  1  0  0  0  0
  7  6  1  6  0  0  0
  7  8  1  0  0  0  0
  7  9  1  0  0  0  0
 10  9  1  6  0  0  0
 10 11  1  0  0  0  0
 10 12  1  0  0  0  0
 11 16  1  0  0  0  0
 12 13  1  1  0  0  0
 12 14  1  0  0  0  0
 14 15  1  1  0  0  0
 14 16  1  0  0  0  0
 16 27  1  6  0  0  0
 18 19  2  0  0  0  0
 18 23  1  0  0  0  0
 19 20  1  0  0  0  0
 20 21  2  0  0  0  0
 21 22  1  0  0  0  0
 21 27  1  0  0  0  0
 22 23  2  0  0  0  0
 22 25  1  0  0  0  0
 23 24  1  0  0  0  0
 25 26  2  0  0  0  0
 26 27  1  0  0  0  0
M  END
>  <CHROM.1>
131.04002960,-77.46256852,82.01985422,-173.88369609,-154.94488666,36.90918416
71.16053997,48.28153791,56.30238956,31.02191051,1.57426436,1.23063398,-1.85987533

>  <Name>
ligand

>  <RI>
0

>  <Rbt.Current_Directory>
/home/itssahil/PROJECTS/Mol_Feturizer/New_Systems/rnas/2GIS

>  <Rbt.Executable>
rbdock ($Id: //depot/dev/client3/rdock/2013.1/src/exe/rbdock.cxx#4 $)

>  <Rbt.Library>
libRbt.so (2013.1, Build901 2013/11/27)

>  <Rbt.Parameter_File>
/export/apps/rDock/src/rDock_2013.1_src/data/scripts/dock_solv.prm

>  <Rbt.Receptor>
prm/pocket_docking_5.prm

>  <SCORE>
-13.3823

>  <SCORE.INTER>
-9.96578

>  <SCORE.INTER.CONST>
1

>  <SCORE.INTER.POLAR>
0

>  <SCORE.INTER.ROT>
7

>  <SCORE.INTER.SOLV>
13.1377

>  <SCORE.INTER.VDW>
-19.2898

>  <SCORE.INTER.norm>
-0.369103

>  <SCORE.INTRA>
-3.41651

>  <SCORE.INTRA.DIHEDRAL>
1.29927

>  <SCORE.INTRA.DIHEDRAL.0>
9.40024

>  <SCORE.INTRA.POLAR>
0

>  <SCORE.INTRA.POLAR.0>
0

>  <SCORE.INTRA.REPUL>
0

>  <SCORE.INTRA.REPUL.0>
0

>  <SCORE.INTRA.SOLV>
-0.998269

>  <SCORE.INTRA.SOLV.lig_0>
-47.1049

>  <SCORE.INTRA.VDW>
-3.56701

>  <SCORE.INTRA.VDW.0>
-1.50278

>  <SCORE.INTRA.norm>
-0.126537

>  <SCORE.RESTR>
0

>  <SCORE.RESTR.CAVITY>
0

>  <SCORE.RESTR.norm>
0

>  <SCORE.SYSTEM>
0

>  <SCORE.SYSTEM.CONST>
0

>  <SCORE.SYSTEM.DIHEDRAL>
0

>  <SCORE.SYSTEM.SOLV>
0

>  <SCORE.SYSTEM.norm>
0

>  <SCORE.heavy>
27

>  <SCORE.norm>
-0.495641

>  <RMSD>
5.044

$$$$
ligand
 OpenBabel11021811433D
libRbt.so/2013.1/901 2013/11/27
 27 29  0  0  0  0  0  0  0  0999 V2000
   46.8740   55.5813   28.0514 N   0  0  0  0  0  0  0  0  0  0  0  0
   46.8103   57.0357   28.2263 C   0  0  2  0  0  0  0  0  0  0  0  0
   47.9626   57.6863   27.4818 C   0  0  0  0  0  0  0  0  0  0  0  0
   49.0559   57.1293   27.4365 O   0  0  0  0  0  0  0  0  0  0  0  0
   46.8745   57.4107   29.7203 C   0  0  0  0  0  0  0  0  0  0  0  0
   46.8020   58.9305   29.8601 C   0  0  0  0  0  0  0  0  0  0  0  0
   46.5976   59.5506   31.5800 S   0  0  2  0  0  0  0  0  0  0  0  0
   46.8586   61.3461   31.4375 C   0  0  0  0  0  0  0  0  0  0  0  0
   48.2131   59.0035   32.1713 C   0  0  0  0  0  0  0  0  0  0  0  0
   48.1404   57.9847   33.3220 C   0  0  1  0  0  0  0  0  0  0  0  0
   47.6830   56.7037   32.7961 O   0  0  0  0  0  0  0  0  0  0  0  0
   49.5901   57.7905   33.6854 C   0  0  1  0  0  0  0  0  0  0  0  0
   49.9282   58.6270   34.7920 O   0  0  0  0  0  0  0  0  0  0  0  0
   49.6774   56.3223   34.0834 C   0  0  1  0  0  0  0  0  0  0  0  0
   49.5910   56.1425   35.4922 O   0  0  0  0  0  0  0  0  0  0  0  0
   48.4846   55.5987   33.3584 C   0  0  2  0  0  0  0  0  0  0  0  0
   47.8243   58.8004   26.9765 O   0  0  0  0  0  0  0  0  0  0  0  0
   51.0393   55.2950   28.7798 N   0  0  0  0  0  0  0  0  0  0  0  0
   50.9213   56.3583   29.5827 C   0  0  0  0  0  0  0  0  0  0  0  0
   50.2584   56.2868   30.7262 N   0  0  0  0  0  0  0  0  0  0  0  0
   49.6494   55.1535   31.1124 C   0  0  0  0  0  0  0  0  0  0  0  0
   49.7341   54.0025   30.2877 C   0  0  0  0  0  0  0  0  0  0  0  0
   50.4701   54.1164   29.0813 C   0  0  0  0  0  0  0  0  0  0  0  0
   50.5981   53.0403   28.2319 N   0  0  0  0  0  0  0  0  0  0  0  0
   49.0432   53.0180   30.8964 N   0  0  0  0  0  0  0  0  0  0  0  0
   48.5428   53.4733   32.0076 C   0  0  0  0  0  0  0  0  0  0  0  0
   48.8889   54.7826   32.1944 N   0  0  0  0  0  0  0  0  0  0  0  0
  2  1  1  1  0  0  0
  2  3  1  0  0  0  0
  2  5  1  0  0  0  0
  3  4  1  0  0  0  0
  3 17  1  0  0  0  0
  5  6  1  0  0  0  0
  7  6  1  6  0  0  0
  7  8  1  0  0  0  0
  7  9  1  0  0  0  0
 10  9  1  6  0  0  0
 10 11  1  0  0  0  0
 10 12  1  0  0  0  0
 11 16  1  0  0  0  0
 12 13  1  1  0  0  0
 12 14  1  0  0  0  0
 14 15  1  1  0  0  0
 14 16  1  0  0  0  0
 16 27  1  6  0  0  0
 18 19  2  0  0  0  0
 18 23  1  0  0  0  0
 19 20  1  0  0  0  0
 20 21  2  0  0  0  0
 21 22  1  0  0  0  0
 21 27  1  0  0  0  0
 22 23  2  0  0  0  0
 22 25  1  0  0  0  0
 23 24  1  0  0  0  0
 25 26  2  0  0  0  0
 26 27  1  0  0  0  0
M  END
>  <CHROM.1>
-36.13075821,-179.86156741,170.74868369,169.80959936,-118.84816989,72.19854858
61.13070722,48.62025307,56.77542736,30.92399228,1.17843533,1.07083899,-1.83078361

>  <Name>
ligand

>  <RI>
0

>  <Rbt.Current_Directory>
/home/itssahil/PROJECTS/Mol_Feturizer/New_Systems/rnas/2GIS

>  <Rbt.Executable>
rbdock ($Id: //depot/dev/client3/rdock/2013.1/src/exe/rbdock.cxx#4 $)

>  <Rbt.Library>
libRbt.so (2013.1, Build901 2013/11/27)

>  <Rbt.Parameter_File>
/export/apps/rDock/src/rDock_2013.1_src/data/scripts/dock_solv.prm

>  <Rbt.Receptor>
prm/pocket_docking_3.prm

>  <SCORE>
-20.1068

>  <SCORE.INTER>
-14.8625

>  <SCORE.INTER.CONST>
1

>  <SCORE.INTER.POLAR>
0

>  <SCORE.INTER.ROT>
7

>  <SCORE.INTER.SOLV>
10.9197

>  <SCORE.INTER.VDW>
-21.8149

>  <SCORE.INTER.norm>
-0.550464

>  <SCORE.INTRA>
-5.24431

>  <SCORE.INTRA.DIHEDRAL>
-1.2341

>  <SCORE.INTRA.DIHEDRAL.0>
9.40024

>  <SCORE.INTRA.POLAR>
0

>  <SCORE.INTRA.POLAR.0>
0

>  <SCORE.INTRA.REPUL>
0

>  <SCORE.INTRA.REPUL.0>
0

>  <SCORE.INTRA.SOLV>
-2.98942

>  <SCORE.INTRA.SOLV.lig_0>
-47.1049

>  <SCORE.INTRA.VDW>
-3.13255

>  <SCORE.INTRA.VDW.0>
-1.50278

>  <SCORE.INTRA.norm>
-0.194234

>  <SCORE.RESTR>
0

>  <SCORE.RESTR.CAVITY>
0

>  <SCORE.RESTR.norm>
0

>  <SCORE.SYSTEM>
0

>  <SCORE.SYSTEM.CONST>
0

>  <SCORE.SYSTEM.DIHEDRAL>
0

>  <SCORE.SYSTEM.SOLV>
0

>  <SCORE.SYSTEM.norm>
0

>  <SCORE.heavy>
27

>  <SCORE.norm>
-0.744698

>  <RMSD>
5.045

$$$$
ligand
 OpenBabel11021811433D
libRbt.so/2013.1/901 2013/11/27
 27 29  0  0  0  0  0  0  0  0999 V2000
   49.8342   52.1467   26.8350 N   0  0  0  0  0  0  0  0  0  0  0  0
   50.3711   53.2493   27.6388 C   0  0  2  0  0  0  0  0  0  0  0  0
   51.8711   53.3479   27.4254 C   0  0  0  0  0  0  0  0  0  0  0  0
   52.4487   54.4147   27.6146 O   0  0  0  0  0  0  0  0  0  0  0  0
   50.0685   53.0338   29.1351 C   0  0  0  0  0  0  0  0  0  0  0  0
   50.4107   54.3083   29.9052 C   0  0  0  0  0  0  0  0  0  0  0  0
   49.3052   55.7420   29.5787 S   0  0  2  0  0  0  0  0  0  0  0  0
   49.9676   56.4727   28.0491 C   0  0  0  0  0  0  0  0  0  0  0  0
   50.0261   56.8252   30.8300 C   0  0  0  0  0  0  0  0  0  0  0  0
   49.3260   58.1902   30.9471 C   0  0  1  0  0  0  0  0  0  0  0  0
   47.8841   57.9965   30.8456 O   0  0  0  0  0  0  0  0  0  0  0  0
   49.5929   58.5784   32.3787 C   0  0  1  0  0  0  0  0  0  0  0  0
   50.7260   59.4448   32.4424 O   0  0  0  0  0  0  0  0  0  0  0  0
   48.3316   59.3219   32.8009 C   0  0  1  0  0  0  0  0  0  0  0  0
   48.4768   60.7326   32.6858 O   0  0  0  0  0  0  0  0  0  0  0  0
   47.1815   58.8049   31.8617 C   0  0  2  0  0  0  0  0  0  0  0  0
   52.5023   52.3793   27.0020 O   0  0  0  0  0  0  0  0  0  0  0  0
   46.4403   54.7209   35.0794 N   0  0  0  0  0  0  0  0  0  0  0  0
   47.5997   55.2923   34.7354 C   0  0  0  0  0  0  0  0  0  0  0  0
   47.6376   56.3364   33.9226 N   0  0  0  0  0  0  0  0  0  0  0  0
   46.5171   56.8450   33.3839 C   0  0  0  0  0  0  0  0  0  0  0  0
   45.2640   56.2642   33.7074 C   0  0  0  0  0  0  0  0  0  0  0  0
   45.2664   55.1602   34.5970 C   0  0  0  0  0  0  0  0  0  0  0  0
   44.0879   54.5471   34.9592 N   0  0  0  0  0  0  0  0  0  0  0  0
   44.3160   56.9519   33.0401 N   0  0  0  0  0  0  0  0  0  0  0  0
   44.8841   57.8877   32.3374 C   0  0  0  0  0  0  0  0  0  0  0  0
   46.2396   57.8720   32.5150 N   0  0  0  0  0  0  0  0  0  0  0  0
  2  1  1  6  0  0  0
  2  3  1  0  0  0  0
  2  5  1  0  0  0  0
  3  4  1  0  0  0  0
  3 17  1  0  0  0  0
  5  6  1  0  0  0  0
  7  6  1  1  0  0  0
  7  8  1  0  0  0  0
  7  9  1  0  0  0  0
 10  9  1  1  0  0  0
 10 11  1  0  0  0  0
 10 12  1  0  0  0  0
 11 16  1  0  0  0  0
 12 13  1  6  0  0  0
 12 14  1  0  0  0  0
 14 15  1  6  0  0  0
 14 16  1  0  0  0  0
 16 27  1  1  0  0  0
 18 19  2  0  0  0  0
 18 23  1  0  0  0  0
 19 20  1  0  0  0  0
 20 21  2  0  0  0  0
 21 22  1  0  0  0  0
 21 27  1  0  0  0  0
 22 23  2  0  0  0  0
 22 25  1  0  0  0  0
 23 24  1  0  0  0  0
 25 26  2  0  0  0  0
 26 27  1  0  0  0  0
M  END
>  <CHROM.1>
155.55220279,-169.75417836,69.20448846,-82.73742020,-177.55477034,40.80343703
72.00396984,48.52841769,56.17465544,31.18217841,0.66182428,-0.73217665,-2.81625518

>  <Name>
ligand

>  <RI>
0

>  <Rbt.Current_Directory>
/home/itssahil/PROJECTS/Mol_Feturizer/New_Systems/rnas/2GIS

>  <Rbt.Executable>
rbdock ($Id: //depot/dev/client3/rdock/2013.1/src/exe/rbdock.cxx#4 $)

>  <Rbt.Library>
libRbt.so (2013.1, Build901 2013/11/27)

>  <Rbt.Parameter_File>
/export/apps/rDock/src/rDock_2013.1_src/data/scripts/dock_solv.prm

>  <Rbt.Receptor>
prm/pocket_docking_5.prm

>  <SCORE>
-17.6585

>  <SCORE.INTER>
-13.0285

>  <SCORE.INTER.CONST>
1

>  <SCORE.INTER.POLAR>
0

>  <SCORE.INTER.ROT>
7

>  <SCORE.INTER.SOLV>
14.0292

>  <SCORE.INTER.VDW>
-21.6287

>  <SCORE.INTER.norm>
-0.482537

>  <SCORE.INTRA>
-4.62994

>  <SCORE.INTRA.DIHEDRAL>
-3.40018

>  <SCORE.INTRA.DIHEDRAL.0>
9.40024

>  <SCORE.INTRA.POLAR>
0

>  <SCORE.INTRA.POLAR.0>
0

>  <SCORE.INTRA.REPUL>
0

>  <SCORE.INTRA.REPUL.0>
0

>  <SCORE.INTRA.SOLV>
-2.68214

>  <SCORE.INTRA.SOLV.lig_0>
-47.1049

>  <SCORE.INTRA.VDW>
-1.58878

>  <SCORE.INTRA.VDW.0>
-1.50278

>  <SCORE.INTRA.norm>
-0.171479

>  <SCORE.RESTR>
0

>  <SCORE.RESTR.CAVITY>
0

>  <SCORE.RESTR.norm>
0

>  <SCORE.SYSTEM>
0

>  <SCORE.SYSTEM.CONST>
0

>  <SCORE.SYSTEM.DIHEDRAL>
0

>  <SCORE.SYSTEM.SOLV>
0

>  <SCORE.SYSTEM.norm>
0

>  <SCORE.heavy>
27

>  <SCORE.norm>
-0.654017

>  <RMSD>
5.047

$$$$
ligand
 OpenBabel11021811433D
libRbt.so/2013.1/901 2013/11/27
 27 29  0  0  0  0  0  0  0  0999 V2000
   48.3591   55.4383   24.9383 N   0  0  0  0  0  0  0  0  0  0  0  0
   48.9428   55.9199   26.1942 C   0  0  2  0  0  0  0  0  0  0  0  0
   50.4340   55.6347   26.2018 C   0  0  0  0  0  0  0  0  0  0  0  0
   51.1222   55.9932   27.1533 O   0  0  0  0  0  0  0  0  0  0  0  0
   48.2738   55.2395   27.4051 C   0  0  0  0  0  0  0  0  0  0  0  0
   46.8203   55.7011   27.5008 C   0  0  0  0  0  0  0  0  0  0  0  0
   46.5697   57.3427   28.2924 S   0  0  2  0  0  0  0  0  0  0  0  0
   47.4119   58.5064   27.1751 C   0  0  0  0  0  0  0  0  0  0  0  0
   47.8154   57.1235   29.5804 C   0  0  0  0  0  0  0  0  0  0  0  0
   47.7906   58.2188   30.6606 C   0  0  1  0  0  0  0  0  0  0  0  0
   46.6488   57.9952   31.5398 O   0  0  0  0  0  0  0  0  0  0  0  0
   49.0146   57.9033   31.4813 C   0  0  1  0  0  0  0  0  0  0  0  0
   50.1083   58.7142   31.0513 O   0  0  0  0  0  0  0  0  0  0  0  0
   48.6095   58.2690   32.9039 C   0  0  1  0  0  0  0  0  0  0  0  0
   49.0465   59.5734   33.2674 O   0  0  0  0  0  0  0  0  0  0  0  0
   47.0406   58.1770   32.9516 C   0  0  2  0  0  0  0  0  0  0  0  0
   50.9685   55.1015   25.2292 O   0  0  0  0  0  0  0  0  0  0  0  0
   48.0458   53.5912   35.3058 N   0  0  0  0  0  0  0  0  0  0  0  0
   48.9214   54.4342   34.7474 C   0  0  0  0  0  0  0  0  0  0  0  0
   48.5270   55.5739   34.2016 N   0  0  0  0  0  0  0  0  0  0  0  0
   47.2289   55.9161   34.1567 C   0  0  0  0  0  0  0  0  0  0  0  0
   46.2606   55.0479   34.7232 C   0  0  0  0  0  0  0  0  0  0  0  0
   46.7273   53.8470   35.3151 C   0  0  0  0  0  0  0  0  0  0  0  0
   45.8462   52.9572   35.8874 N   0  0  0  0  0  0  0  0  0  0  0  0
   45.0525   55.6182   34.5432 N   0  0  0  0  0  0  0  0  0  0  0  0
   45.2038   56.7458   33.9124 C   0  0  0  0  0  0  0  0  0  0  0  0
   46.5250   56.9828   33.6532 N   0  0  0  0  0  0  0  0  0  0  0  0
  2  1  1  6  0  0  0
  2  3  1  0  0  0  0
  2  5  1  0  0  0  0
  3  4  1  0  0  0  0
  3 17  1  0  0  0  0
  5  6  1  0  0  0  0
  7  6  1  6  0  0  0
  7  8  1  0  0  0  0
  7  9  1  0  0  0  0
 10  9  1  6  0  0  0
 10 11  1  0  0  0  0
 10 12  1  0  0  0  0
 11 16  1  0  0  0  0
 12 13  1  6  0  0  0
 12 14  1  0  0  0  0
 14 15  1  6  0  0  0
 14 16  1  0  0  0  0
 16 27  1  1  0  0  0
 18 19  2  0  0  0  0
 18 23  1  0  0  0  0
 19 20  1  0  0  0  0
 20 21  2  0  0  0  0
 21 22  1  0  0  0  0
 21 27  1  0  0  0  0
 22 23  2  0  0  0  0
 22 25  1  0  0  0  0
 23 24  1  0  0  0  0
 25 26  2  0  0  0  0
 26 27  1  0  0  0  0
M  END
>  <CHROM.1>
178.02087309,-67.17314780,-80.79036588,63.66732670,-170.43508358,75.03443573
107.55667888,47.88916003,56.45047550,30.87171392,-0.09290643,-1.31666352
3.13976522

>  <Name>
ligand

>  <RI>
0

>  <Rbt.Current_Directory>
/home/itssahil/PROJECTS/Mol_Feturizer/New_Systems/rnas/2GIS

>  <Rbt.Executable>
rbdock ($Id: //depot/dev/client3/rdock/2013.1/src/exe/rbdock.cxx#4 $)

>  <Rbt.Library>
libRbt.so (2013.1, Build901 2013/11/27)

>  <Rbt.Parameter_File>
/export/apps/rDock/src/rDock_2013.1_src/data/scripts/dock_solv.prm

>  <Rbt.Receptor>
prm/pocket_docking_5.prm

>  <SCORE>
-10.7383

>  <SCORE.INTER>
-9.4194

>  <SCORE.INTER.CONST>
1

>  <SCORE.INTER.POLAR>
0

>  <SCORE.INTER.ROT>
7

>  <SCORE.INTER.SOLV>
14.035

>  <SCORE.INTER.VDW>
-19.2246

>  <SCORE.INTER.norm>
-0.348867

>  <SCORE.INTRA>
-1.3189

>  <SCORE.INTRA.DIHEDRAL>
-2.54429

>  <SCORE.INTRA.DIHEDRAL.0>
9.40024

>  <SCORE.INTRA.POLAR>
0

>  <SCORE.INTRA.POLAR.0>
0

>  <SCORE.INTRA.REPUL>
0

>  <SCORE.INTRA.REPUL.0>
0

>  <SCORE.INTRA.SOLV>
-1.54033

>  <SCORE.INTRA.SOLV.lig_0>
-47.1049

>  <SCORE.INTRA.VDW>
0.723406

>  <SCORE.INTRA.VDW.0>
-1.50278

>  <SCORE.INTRA.norm>
-0.0488483

>  <SCORE.RESTR>
0

>  <SCORE.RESTR.CAVITY>
0

>  <SCORE.RESTR.norm>
0

>  <SCORE.SYSTEM>
0

>  <SCORE.SYSTEM.CONST>
0

>  <SCORE.SYSTEM.DIHEDRAL>
0

>  <SCORE.SYSTEM.SOLV>
0

>  <SCORE.SYSTEM.norm>
0

>  <SCORE.heavy>
27

>  <SCORE.norm>
-0.397715

>  <RMSD>
5.048

$$$$
ligand
 OpenBabel11021811433D
libRbt.so/2013.1/901 2013/11/27
 27 29  0  0  0  0  0  0  0  0999 V2000
   50.2336   54.4276   26.6421 N   0  0  0  0  0  0  0  0  0  0  0  0
   50.7721   55.6306   27.2845 C   0  0  2  0  0  0  0  0  0  0  0  0
   52.1630   55.3396   27.8194 C   0  0  0  0  0  0  0  0  0  0  0  0
   53.0696   56.1487   27.6431 O   0  0  0  0  0  0  0  0  0  0  0  0
   49.8557   56.0939   28.4345 C   0  0  0  0  0  0  0  0  0  0  0  0
   48.4913   56.4797   27.8650 C   0  0  0  0  0  0  0  0  0  0  0  0
   47.3005   57.1726   29.0841 S   0  0  2  0  0  0  0  0  0  0  0  0
   45.8362   57.5876   28.0863 C   0  0  0  0  0  0  0  0  0  0  0  0
   48.0978   58.7855   29.2311 C   0  0  0  0  0  0  0  0  0  0  0  0
   48.1033   59.3469   30.6636 C   0  0  1  0  0  0  0  0  0  0  0  0
   46.7452   59.3126   31.1940 O   0  0  0  0  0  0  0  0  0  0  0  0
   48.8738   58.3006   31.4272 C   0  0  1  0  0  0  0  0  0  0  0  0
   50.2410   58.6952   31.5442 O   0  0  0  0  0  0  0  0  0  0  0  0
   48.2081   58.2790   32.7977 C   0  0  1  0  0  0  0  0  0  0  0  0
   48.9047   59.0802   33.7449 O   0  0  0  0  0  0  0  0  0  0  0  0
   46.7463   58.8174   32.5849 C   0  0  2  0  0  0  0  0  0  0  0  0
   52.4023   54.2669   28.3743 O   0  0  0  0  0  0  0  0  0  0  0  0
   45.0464   54.2705   34.5893 N   0  0  0  0  0  0  0  0  0  0  0  0
   46.1807   54.9186   34.8762 C   0  0  0  0  0  0  0  0  0  0  0  0
   46.4756   56.0755   34.3045 N   0  0  0  0  0  0  0  0  0  0  0  0
   45.6644   56.6306   33.3889 C   0  0  0  0  0  0  0  0  0  0  0  0
   44.4563   55.9738   33.0406 C   0  0  0  0  0  0  0  0  0  0  0  0
   44.1691   54.7471   33.6909 C   0  0  0  0  0  0  0  0  0  0  0  0
   43.0136   54.0545   33.4062 N   0  0  0  0  0  0  0  0  0  0  0  0
   43.8392   56.7301   32.1109 N   0  0  0  0  0  0  0  0  0  0  0  0
   44.5693   57.7773   31.8609 C   0  0  0  0  0  0  0  0  0  0  0  0
   45.7037   57.7707   32.6239 N   0  0  0  0  0  0  0  0  0  0  0  0
  2  1  1  1  0  0  0
  2  3  1  0  0  0  0
  2  5  1  0  0  0  0
  3  4  1  0  0  0  0
  3 17  1  0  0  0  0
  5  6  1  0  0  0  0
  7  6  1  6  0  0  0
  7  8  1  0  0  0  0
  7  9  1  0  0  0  0
 10  9  1  6  0  0  0
 10 11  1  0  0  0  0
 10 12  1  0  0  0  0
 11 16  1  0  0  0  0
 12 13  1  1  0  0  0
 12 14  1  0  0  0  0
 14 15  1  1  0  0  0
 14 16  1  0  0  0  0
 16 27  1  6  0  0  0
 18 19  2  0  0  0  0
 18 23  1  0  0  0  0
 19 20  1  0  0  0  0
 20 21  2  0  0  0  0
 21 22  1  0  0  0  0
 21 27  1  0  0  0  0
 22 23  2  0  0  0  0
 22 25  1  0  0  0  0
 23 24  1  0  0  0  0
 25 26  2  0  0  0  0
 26 27  1  0  0  0  0
M  END
>  <CHROM.1>
135.47517252,-63.00311513,-175.86915195,177.57326143,-141.27274509,-51.82634453
147.93702526,47.67960878,56.81697069,30.89394712,0.33622411,-0.67609535,-2.67476953

>  <Name>
ligand

>  <RI>
0

>  <Rbt.Current_Directory>
/home/itssahil/PROJECTS/Mol_Feturizer/New_Systems/rnas/2GIS

>  <Rbt.Executable>
rbdock ($Id: //depot/dev/client3/rdock/2013.1/src/exe/rbdock.cxx#4 $)

>  <Rbt.Library>
libRbt.so (2013.1, Build901 2013/11/27)

>  <Rbt.Parameter_File>
/export/apps/rDock/src/rDock_2013.1_src/data/scripts/dock_solv.prm

>  <Rbt.Receptor>
prm/pocket_docking_5.prm

>  <SCORE>
-16.7515

>  <SCORE.INTER>
-13.421

>  <SCORE.INTER.CONST>
1

>  <SCORE.INTER.POLAR>
0

>  <SCORE.INTER.ROT>
7

>  <SCORE.INTER.SOLV>
7.99704

>  <SCORE.INTER.VDW>
-19.8797

>  <SCORE.INTER.norm>
-0.497073

>  <SCORE.INTRA>
-3.33059

>  <SCORE.INTRA.DIHEDRAL>
-1.76723

>  <SCORE.INTRA.DIHEDRAL.0>
9.40024

>  <SCORE.INTRA.POLAR>
0

>  <SCORE.INTRA.POLAR.0>
0

>  <SCORE.INTRA.REPUL>
0

>  <SCORE.INTRA.REPUL.0>
0

>  <SCORE.INTRA.SOLV>
-2.07982

>  <SCORE.INTRA.SOLV.lig_0>
-47.1049

>  <SCORE.INTRA.VDW>
-1.40706

>  <SCORE.INTRA.VDW.0>
-1.50278

>  <SCORE.INTRA.norm>
-0.123355

>  <SCORE.RESTR>
0

>  <SCORE.RESTR.CAVITY>
0

>  <SCORE.RESTR.norm>
0

>  <SCORE.SYSTEM>
0

>  <SCORE.SYSTEM.CONST>
0

>  <SCORE.SYSTEM.DIHEDRAL>
0

>  <SCORE.SYSTEM.SOLV>
0

>  <SCORE.SYSTEM.norm>
0

>  <SCORE.heavy>
27

>  <SCORE.norm>
-0.620428

>  <RMSD>
5.052

$$$$
ligand
 OpenBabel11021811433D
libRbt.so/2013.1/901 2013/11/27
 27 29  0  0  0  0  0  0  0  0999 V2000
   50.5127   55.7548   28.1472 N   0  0  0  0  0  0  0  0  0  0  0  0
   50.5951   55.6387   29.6065 C   0  0  2  0  0  0  0  0  0  0  0  0
   50.2775   54.2127   30.0199 C   0  0  0  0  0  0  0  0  0  0  0  0
   50.0223   53.3688   29.1653 O   0  0  0  0  0  0  0  0  0  0  0  0
   49.6139   56.6123   30.2894 C   0  0  0  0  0  0  0  0  0  0  0  0
   49.9186   56.6650   31.7857 C   0  0  0  0  0  0  0  0  0  0  0  0
   49.0548   57.9971   32.7151 S   0  0  2  0  0  0  0  0  0  0  0  0
   50.1916   59.4148   32.6164 C   0  0  0  0  0  0  0  0  0  0  0  0
   49.4314   57.3547   34.3596 C   0  0  0  0  0  0  0  0  0  0  0  0
   48.5365   56.1782   34.7862 C   0  0  1  0  0  0  0  0  0  0  0  0
   47.3441   56.1576   33.9469 O   0  0  0  0  0  0  0  0  0  0  0  0
   49.3512   54.9771   34.3797 C   0  0  1  0  0  0  0  0  0  0  0  0
   50.0861   54.4880   35.5019 O   0  0  0  0  0  0  0  0  0  0  0  0
   48.3091   53.9555   33.9412 C   0  0  1  0  0  0  0  0  0  0  0  0
   47.9894   53.0363   34.9791 O   0  0  0  0  0  0  0  0  0  0  0  0
   47.0376   54.7783   33.5187 C   0  0  2  0  0  0  0  0  0  0  0  0
   50.2120   53.9125   31.2121 O   0  0  0  0  0  0  0  0  0  0  0  0
   47.3925   52.4824   28.8086 N   0  0  0  0  0  0  0  0  0  0  0  0
   47.7415   51.9741   29.9956 C   0  0  0  0  0  0  0  0  0  0  0  0
   47.5781   52.6632   31.1140 N   0  0  0  0  0  0  0  0  0  0  0  0
   47.0858   53.9129   31.1004 C   0  0  0  0  0  0  0  0  0  0  0  0
   46.7144   54.5008   29.8640 C   0  0  0  0  0  0  0  0  0  0  0  0
   46.8872   53.7213   28.6924 C   0  0  0  0  0  0  0  0  0  0  0  0
   46.5459   54.2244   27.4570 N   0  0  0  0  0  0  0  0  0  0  0  0
   46.2603   55.7424   30.1276 N   0  0  0  0  0  0  0  0  0  0  0  0
   46.3328   55.9592   31.4083 C   0  0  0  0  0  0  0  0  0  0  0  0
   46.8294   54.8637   32.0580 N   0  0  0  0  0  0  0  0  0  0  0  0
  2  1  1  6  0  0  0
  2  3  1  0  0  0  0
  2  5  1  0  0  0  0
  3  4  1  0  0  0  0
  3 17  1  0  0  0  0
  5  6  1  0  0  0  0
  7  6  1  6  0  0  0
  7  8  1  0  0  0  0
  7  9  1  0  0  0  0
 10  9  1  6  0  0  0
 10 11  1  0  0  0  0
 10 12  1  0  0  0  0
 11 16  1  0  0  0  0
 12 13  1  1  0  0  0
 12 14  1  0  0  0  0
 14 15  1  1  0  0  0
 14 16  1  0  0  0  0
 16 27  1  6  0  0  0
 18 19  2  0  0  0  0
 18 23  1  0  0  0  0
 19 20  1  0  0  0  0
 20 21  2  0  0  0  0
 21 22  1  0  0  0  0
 21 27  1  0  0  0  0
 22 23  2  0  0  0  0
 22 25  1  0  0  0  0
 23 24  1  0  0  0  0
 25 26  2  0  0  0  0
 26 27  1  0  0  0  0
M  END
>  <CHROM.1>
0.85241732,-168.92719455,169.38741389,-89.64424655,-78.41239423,-18.17329340
148.96396668,48.51436075,55.14155424,31.65427077,-1.97612858,1.05750997,1.43396903

>  <Name>
ligand

>  <RI>
0

>  <Rbt.Current_Directory>
/home/itssahil/PROJECTS/Mol_Feturizer/New_Systems/rnas/2GIS

>  <Rbt.Executable>
rbdock ($Id: //depot/dev/client3/rdock/2013.1/src/exe/rbdock.cxx#4 $)

>  <Rbt.Library>
libRbt.so (2013.1, Build901 2013/11/27)

>  <Rbt.Parameter_File>
/export/apps/rDock/src/rDock_2013.1_src/data/scripts/dock_solv.prm

>  <Rbt.Receptor>
prm/pocket_docking_5.prm

>  <SCORE>
-15.7257

>  <SCORE.INTER>
-10.3833

>  <SCORE.INTER.CONST>
1

>  <SCORE.INTER.POLAR>
0

>  <SCORE.INTER.ROT>
7

>  <SCORE.INTER.SOLV>
10.207

>  <SCORE.INTER.VDW>
-18.5912

>  <SCORE.INTER.norm>
-0.384566

>  <SCORE.INTRA>
-5.34239

>  <SCORE.INTRA.DIHEDRAL>
0.270608

>  <SCORE.INTRA.DIHEDRAL.0>
9.40024

>  <SCORE.INTRA.POLAR>
0

>  <SCORE.INTRA.POLAR.0>
0

>  <SCORE.INTRA.REPUL>
0

>  <SCORE.INTRA.REPUL.0>
0

>  <SCORE.INTRA.SOLV>
-2.56138

>  <SCORE.INTRA.SOLV.lig_0>
-47.1049

>  <SCORE.INTRA.VDW>
-4.197

>  <SCORE.INTRA.VDW.0>
-1.50278

>  <SCORE.INTRA.norm>
-0.197866

>  <SCORE.RESTR>
0

>  <SCORE.RESTR.CAVITY>
0

>  <SCORE.RESTR.norm>
0

>  <SCORE.SYSTEM>
0

>  <SCORE.SYSTEM.CONST>
0

>  <SCORE.SYSTEM.DIHEDRAL>
0

>  <SCORE.SYSTEM.SOLV>
0

>  <SCORE.SYSTEM.norm>
0

>  <SCORE.heavy>
27

>  <SCORE.norm>
-0.582432

>  <RMSD>
5.054

$$$$
ligand
 OpenBabel11021811433D
libRbt.so/2013.1/901 2013/11/27
 27 29  0  0  0  0  0  0  0  0999 V2000
   42.0099   55.2820   30.9744 N   0  0  0  0  0  0  0  0  0  0  0  0
   43.2333   55.2112   31.7795 C   0  0  2  0  0  0  0  0  0  0  0  0
   44.4275   54.9921   30.8679 C   0  0  0  0  0  0  0  0  0  0  0  0
   45.2560   55.8857   30.7170 O   0  0  0  0  0  0  0  0  0  0  0  0
   43.1450   54.0680   32.8101 C   0  0  0  0  0  0  0  0  0  0  0  0
   44.3004   54.1956   33.8018 C   0  0  0  0  0  0  0  0  0  0  0  0
   44.4410   52.8260   35.0219 S   0  0  2  0  0  0  0  0  0  0  0  0
   42.8917   52.9186   35.9722 C   0  0  0  0  0  0  0  0  0  0  0  0
   45.5867   53.6757   36.1284 C   0  0  0  0  0  0  0  0  0  0  0  0
   47.0560   53.5988   35.6787 C   0  0  1  0  0  0  0  0  0  0  0  0
   47.1834   54.2092   34.3603 O   0  0  0  0  0  0  0  0  0  0  0  0
   47.7462   54.5344   36.6377 C   0  0  1  0  0  0  0  0  0  0  0  0
   48.3083   53.7910   37.7195 O   0  0  0  0  0  0  0  0  0  0  0  0
   48.8490   55.1722   35.8020 C   0  0  1  0  0  0  0  0  0  0  0  0
   50.1009   54.5193   35.9779 O   0  0  0  0  0  0  0  0  0  0  0  0
   48.3786   55.0742   34.3049 C   0  0  2  0  0  0  0  0  0  0  0  0
   44.5363   53.9453   30.2290 O   0  0  0  0  0  0  0  0  0  0  0  0
   49.4445   60.0353   32.9509 N   0  0  0  0  0  0  0  0  0  0  0  0
   50.2725   59.1411   33.5023 C   0  0  0  0  0  0  0  0  0  0  0  0
   49.8716   57.9096   33.7761 N   0  0  0  0  0  0  0  0  0  0  0  0
   48.6087   57.5164   33.5419 C   0  0  0  0  0  0  0  0  0  0  0  0
   47.6892   58.4333   32.9711 C   0  0  0  0  0  0  0  0  0  0  0  0
   48.1647   59.7358   32.6750 C   0  0  0  0  0  0  0  0  0  0  0  0
   47.3305   60.6784   32.1169 N   0  0  0  0  0  0  0  0  0  0  0  0
   46.5083   57.7955   32.8456 N   0  0  0  0  0  0  0  0  0  0  0  0
   46.6301   56.5815   33.2968 C   0  0  0  0  0  0  0  0  0  0  0  0
   47.9050   56.3525   33.7340 N   0  0  0  0  0  0  0  0  0  0  0  0
  2  1  1  6  0  0  0
  2  3  1  0  0  0  0
  2  5  1  0  0  0  0
  3  4  1  0  0  0  0
  3 17  1  0  0  0  0
  5  6  1  0  0  0  0
  7  6  1  6  0  0  0
  7  8  1  0  0  0  0
  7  9  1  0  0  0  0
 10  9  1  1  0  0  0
 10 11  1  0  0  0  0
 10 12  1  0  0  0  0
 11 16  1  0  0  0  0
 12 13  1  1  0  0  0
 12 14  1  0  0  0  0
 14 15  1  6  0  0  0
 14 16  1  0  0  0  0
 16 27  1  1  0  0  0
 18 19  2  0  0  0  0
 18 23  1  0  0  0  0
 19 20  1  0  0  0  0
 20 21  2  0  0  0  0
 21 22  1  0  0  0  0
 21 27  1  0  0  0  0
 22 23  2  0  0  0  0
 22 25  1  0  0  0  0
 23 24  1  0  0  0  0
 25 26  2  0  0  0  0
 26 27  1  0  0  0  0
M  END
>  <CHROM.1>
111.08108744,-168.96401844,-174.87679045,-62.56154483,-82.04943628,59.91802319
176.07763759,46.52494383,55.62810291,33.79320932,2.59274048,0.56472120,2.37934881

>  <Name>
ligand

>  <RI>
0

>  <Rbt.Current_Directory>
/home/itssahil/PROJECTS/Mol_Feturizer/New_Systems/rnas/2GIS

>  <Rbt.Executable>
rbdock ($Id: //depot/dev/client3/rdock/2013.1/src/exe/rbdock.cxx#4 $)

>  <Rbt.Library>
libRbt.so (2013.1, Build901 2013/11/27)

>  <Rbt.Parameter_File>
/export/apps/rDock/src/rDock_2013.1_src/data/scripts/dock_solv.prm

>  <Rbt.Receptor>
prm/pocket_docking_7.prm

>  <SCORE>
-20.5429

>  <SCORE.INTER>
-15.2268

>  <SCORE.INTER.CONST>
1

>  <SCORE.INTER.POLAR>
0

>  <SCORE.INTER.ROT>
7

>  <SCORE.INTER.SOLV>
15.4945

>  <SCORE.INTER.VDW>
-23.5827

>  <SCORE.INTER.norm>
-0.563955

>  <SCORE.INTRA>
-5.317

>  <SCORE.INTRA.DIHEDRAL>
-4.94669

>  <SCORE.INTRA.DIHEDRAL.0>
9.40024

>  <SCORE.INTRA.POLAR>
0

>  <SCORE.INTRA.POLAR.0>
0

>  <SCORE.INTRA.REPUL>
0

>  <SCORE.INTRA.REPUL.0>
0

>  <SCORE.INTRA.SOLV>
-3.03592

>  <SCORE.INTRA.SOLV.lig_0>
-47.1049

>  <SCORE.INTRA.VDW>
-1.3257

>  <SCORE.INTRA.VDW.0>
-1.50278

>  <SCORE.INTRA.norm>
-0.196926

>  <SCORE.RESTR>
0.000913742

>  <SCORE.RESTR.CAVITY>
0.000913742

>  <SCORE.RESTR.norm>
3.38423e-05

>  <SCORE.SYSTEM>
0

>  <SCORE.SYSTEM.CONST>
0

>  <SCORE.SYSTEM.DIHEDRAL>
0

>  <SCORE.SYSTEM.SOLV>
0

>  <SCORE.SYSTEM.norm>
0

>  <SCORE.heavy>
27

>  <SCORE.norm>
-0.760847

>  <RMSD>
5.061

$$$$
ligand
 OpenBabel11021811433D
libRbt.so/2013.1/901 2013/11/27
 27 29  0  0  0  0  0  0  0  0999 V2000
   50.8460   52.8221   27.1192 N   0  0  0  0  0  0  0  0  0  0  0  0
   49.8585   53.9029   27.0383 C   0  0  2  0  0  0  0  0  0  0  0  0
   50.5123   55.1440   26.4573 C   0  0  0  0  0  0  0  0  0  0  0  0
   49.9773   55.7408   25.5272 O   0  0  0  0  0  0  0  0  0  0  0  0
   49.2790   54.2203   28.4313 C   0  0  0  0  0  0  0  0  0  0  0  0
   48.0937   55.1722   28.2771 C   0  0  0  0  0  0  0  0  0  0  0  0
   47.3597   55.7718   29.8538 S   0  0  2  0  0  0  0  0  0  0  0  0
   46.4399   54.3354   30.4886 C   0  0  0  0  0  0  0  0  0  0  0  0
   46.0348   56.7325   29.0919 C   0  0  0  0  0  0  0  0  0  0  0  0
   45.3042   57.6676   30.0712 C   0  0  1  0  0  0  0  0  0  0  0  0
   44.8452   56.8923   31.2179 O   0  0  0  0  0  0  0  0  0  0  0  0
   46.4162   58.5469   30.5828 C   0  0  1  0  0  0  0  0  0  0  0  0
   46.4466   59.7684   29.8440 O   0  0  0  0  0  0  0  0  0  0  0  0
   46.0378   58.8135   32.0344 C   0  0  1  0  0  0  0  0  0  0  0  0
   45.3620   60.0556   32.1931 O   0  0  0  0  0  0  0  0  0  0  0  0
   45.1137   57.6199   32.4742 C   0  0  2  0  0  0  0  0  0  0  0  0
   51.6092   55.5191   26.8721 O   0  0  0  0  0  0  0  0  0  0  0  0
   49.4385   56.1124   35.0443 N   0  0  0  0  0  0  0  0  0  0  0  0
   49.2787   57.1948   34.2750 C   0  0  0  0  0  0  0  0  0  0  0  0
   48.1178   57.4639   33.6985 N   0  0  0  0  0  0  0  0  0  0  0  0
   47.0620   56.6448   33.8352 C   0  0  0  0  0  0  0  0  0  0  0  0
   47.1864   55.4764   34.6299 C   0  0  0  0  0  0  0  0  0  0  0  0
   48.4408   55.2360   35.2455 C   0  0  0  0  0  0  0  0  0  0  0  0
   48.6351   54.1239   36.0337 N   0  0  0  0  0  0  0  0  0  0  0  0
   45.9994   54.8383   34.5982 N   0  0  0  0  0  0  0  0  0  0  0  0
   45.1745   55.5107   33.8500 C   0  0  0  0  0  0  0  0  0  0  0  0
   45.7742   56.6363   33.3576 N   0  0  0  0  0  0  0  0  0  0  0  0
  2  1  1  1  0  0  0
  2  3  1  0  0  0  0
  2  5  1  0  0  0  0
  3  4  1  0  0  0  0
  3 17  1  0  0  0  0
  5  6  1  0  0  0  0
  7  6  1  6  0  0  0
  7  8  1  0  0  0  0
  7  9  1  0  0  0  0
 10  9  1  6  0  0  0
 10 11  1  0  0  0  0
 10 12  1  0  0  0  0
 11 16  1  0  0  0  0
 12 13  1  6  0  0  0
 12 14  1  0  0  0  0
 14 15  1  6  0  0  0
 14 16  1  0  0  0  0
 16 27  1  1  0  0  0
 18 19  2  0  0  0  0
 18 23  1  0  0  0  0
 19 20  1  0  0  0  0
 20 21  2  0  0  0  0
 21 22  1  0  0  0  0
 21 27  1  0  0  0  0
 22 23  2  0  0  0  0
 22 25  1  0  0  0  0
 23 24  1  0  0  0  0
 25 26  2  0  0  0  0
 26 27  1  0  0  0  0
M  END
>  <CHROM.1>
130.18399341,-170.39235603,-175.18330773,-74.22521676,-168.22721102,-53.39756247
113.93102671,47.56994686,56.22710265,31.02630078,-0.96884017,-0.77966029
1.76256367

>  <Name>
ligand

>  <RI>
0

>  <Rbt.Current_Directory>
/home/itssahil/PROJECTS/Mol_Feturizer/New_Systems/rnas/2GIS

>  <Rbt.Executable>
rbdock ($Id: //depot/dev/client3/rdock/2013.1/src/exe/rbdock.cxx#4 $)

>  <Rbt.Library>
libRbt.so (2013.1, Build901 2013/11/27)

>  <Rbt.Parameter_File>
/export/apps/rDock/src/rDock_2013.1_src/data/scripts/dock_solv.prm

>  <Rbt.Receptor>
prm/pocket_docking_8.prm

>  <SCORE>
-12.0043

>  <SCORE.INTER>
-6.82718

>  <SCORE.INTER.CONST>
1

>  <SCORE.INTER.POLAR>
0

>  <SCORE.INTER.ROT>
7

>  <SCORE.INTER.SOLV>
10.5345

>  <SCORE.INTER.VDW>
-16.3296

>  <SCORE.INTER.norm>
-0.252858

>  <SCORE.INTRA>
-5.17716

>  <SCORE.INTRA.DIHEDRAL>
-4.42293

>  <SCORE.INTRA.DIHEDRAL.0>
9.40024

>  <SCORE.INTRA.POLAR>
0

>  <SCORE.INTRA.POLAR.0>
0

>  <SCORE.INTRA.REPUL>
0

>  <SCORE.INTRA.REPUL.0>
0

>  <SCORE.INTRA.SOLV>
-2.81972

>  <SCORE.INTRA.SOLV.lig_0>
-47.1049

>  <SCORE.INTRA.VDW>
-1.55584

>  <SCORE.INTRA.VDW.0>
-1.50278

>  <SCORE.INTRA.norm>
-0.191747

>  <SCORE.RESTR>
0

>  <SCORE.RESTR.CAVITY>
0

>  <SCORE.RESTR.norm>
0

>  <SCORE.SYSTEM>
0

>  <SCORE.SYSTEM.CONST>
0

>  <SCORE.SYSTEM.DIHEDRAL>
0

>  <SCORE.SYSTEM.SOLV>
0

>  <SCORE.SYSTEM.norm>
0

>  <SCORE.heavy>
27

>  <SCORE.norm>
-0.444605

>  <RMSD>
5.068

$$$$
ligand
 OpenBabel11021811433D
libRbt.so/2013.1/901 2013/11/27
 27 29  0  0  0  0  0  0  0  0999 V2000
   48.8477   57.2781   28.6814 N   0  0  0  0  0  0  0  0  0  0  0  0
   47.5540   57.6121   29.2853 C   0  0  2  0  0  0  0  0  0  0  0  0
   46.7225   58.4067   28.2941 C   0  0  0  0  0  0  0  0  0  0  0  0
   45.6012   58.7965   28.6077 O   0  0  0  0  0  0  0  0  0  0  0  0
   47.7481   58.4288   30.5785 C   0  0  0  0  0  0  0  0  0  0  0  0
   48.4197   57.5491   31.6319 C   0  0  0  0  0  0  0  0  0  0  0  0
   48.7136   58.3586   33.2575 S   0  0  2  0  0  0  0  0  0  0  0  0
   50.1564   59.4286   32.9652 C   0  0  0  0  0  0  0  0  0  0  0  0
   49.4861   56.9289   34.0435 C   0  0  0  0  0  0  0  0  0  0  0  0
   48.4795   55.9187   34.6208 C   0  0  1  0  0  0  0  0  0  0  0  0
   47.4937   55.5904   33.5975 O   0  0  0  0  0  0  0  0  0  0  0  0
   49.3187   54.6799   34.8013 C   0  0  1  0  0  0  0  0  0  0  0  0
   49.7793   54.5993   36.1504 O   0  0  0  0  0  0  0  0  0  0  0  0
   48.3585   53.5362   34.4988 C   0  0  1  0  0  0  0  0  0  0  0  0
   47.7921   52.9843   35.6816 O   0  0  0  0  0  0  0  0  0  0  0  0
   47.2366   54.1368   33.5753 C   0  0  2  0  0  0  0  0  0  0  0  0
   47.1414   58.6079   27.1539 O   0  0  0  0  0  0  0  0  0  0  0  0
   50.3155   53.1433   29.4382 N   0  0  0  0  0  0  0  0  0  0  0  0
   50.6904   53.5113   30.6683 C   0  0  0  0  0  0  0  0  0  0  0  0
   49.8007   53.7115   31.6277 N   0  0  0  0  0  0  0  0  0  0  0  0
   48.4832   53.5856   31.3978 C   0  0  0  0  0  0  0  0  0  0  0  0
   48.0354   53.2109   30.1050 C   0  0  0  0  0  0  0  0  0  0  0  0
   49.0221   52.9867   29.1118 C   0  0  0  0  0  0  0  0  0  0  0  0
   48.6627   52.6175   27.8350 N   0  0  0  0  0  0  0  0  0  0  0  0
   46.6889   53.1601   30.1432 N   0  0  0  0  0  0  0  0  0  0  0  0
   46.2846   53.4786   31.3379 C   0  0  0  0  0  0  0  0  0  0  0  0
   47.3481   53.7456   32.1544 N   0  0  0  0  0  0  0  0  0  0  0  0
  2  1  1  6  0  0  0
  2  3  1  0  0  0  0
  2  5  1  0  0  0  0
  3  4  1  0  0  0  0
  3 17  1  0  0  0  0
  5  6  1  0  0  0  0
  7  6  1  6  0  0  0
  7  8  1  0  0  0  0
  7  9  1  0  0  0  0
 10  9  1  6  0  0  0
 10 11  1  0  0  0  0
 10 12  1  0  0  0  0
 11 16  1  0  0  0  0
 12 13  1  1  0  0  0
 12 14  1  0  0  0  0
 14 15  1  1  0  0  0
 14 16  1  0  0  0  0
 16 27  1  6  0  0  0
 18 19  2  0  0  0  0
 18 23  1  0  0  0  0
 19 20  1  0  0  0  0
 20 21  2  0  0  0  0
 21 22  1  0  0  0  0
 21 27  1  0  0  0  0
 22 23  2  0  0  0  0
 22 25  1  0  0  0  0
 23 24  1  0  0  0  0
 25 26  2  0  0  0  0
 26 27  1  0  0  0  0
M  END
>  <CHROM.1>
-179.44399454,-66.52182195,-179.31035111,-76.52429166,-83.43359773,50.64536374
75.89948768,48.31236533,55.61267792,31.64861244,-3.04336800,1.38395221,-2.73406141

>  <Name>
ligand

>  <RI>
0

>  <Rbt.Current_Directory>
/home/itssahil/PROJECTS/Mol_Feturizer/New_Systems/rnas/2GIS

>  <Rbt.Executable>
rbdock ($Id: //depot/dev/client3/rdock/2013.1/src/exe/rbdock.cxx#4 $)

>  <Rbt.Library>
libRbt.so (2013.1, Build901 2013/11/27)

>  <Rbt.Parameter_File>
/export/apps/rDock/src/rDock_2013.1_src/data/scripts/dock_solv.prm

>  <Rbt.Receptor>
prm/pocket_docking_4.prm

>  <SCORE>
-21.7375

>  <SCORE.INTER>
-16.2513

>  <SCORE.INTER.CONST>
1

>  <SCORE.INTER.POLAR>
0

>  <SCORE.INTER.ROT>
7

>  <SCORE.INTER.SOLV>
10.5057

>  <SCORE.INTER.VDW>
-22.6028

>  <SCORE.INTER.norm>
-0.601902

>  <SCORE.INTRA>
-5.48617

>  <SCORE.INTRA.DIHEDRAL>
-4.83202

>  <SCORE.INTRA.DIHEDRAL.0>
9.40024

>  <SCORE.INTRA.POLAR>
0

>  <SCORE.INTRA.POLAR.0>
0

>  <SCORE.INTRA.REPUL>
0

>  <SCORE.INTRA.REPUL.0>
0

>  <SCORE.INTRA.SOLV>
-2.30707

>  <SCORE.INTRA.SOLV.lig_0>
-47.1049

>  <SCORE.INTRA.VDW>
-1.91662

>  <SCORE.INTRA.VDW.0>
-1.50278

>  <SCORE.INTRA.norm>
-0.203192

>  <SCORE.RESTR>
0

>  <SCORE.RESTR.CAVITY>
0

>  <SCORE.RESTR.norm>
0

>  <SCORE.SYSTEM>
0

>  <SCORE.SYSTEM.CONST>
0

>  <SCORE.SYSTEM.DIHEDRAL>
0

>  <SCORE.SYSTEM.SOLV>
0

>  <SCORE.SYSTEM.norm>
0

>  <SCORE.heavy>
27

>  <SCORE.norm>
-0.805093

>  <RMSD>
5.079

$$$$
ligand
 OpenBabel11021811433D
libRbt.so/2013.1/901 2013/11/27
 27 29  0  0  0  0  0  0  0  0999 V2000
   45.5402   56.9011   28.3273 N   0  0  0  0  0  0  0  0  0  0  0  0
   46.7492   57.6220   28.7379 C   0  0  2  0  0  0  0  0  0  0  0  0
   47.5704   57.9739   27.5103 C   0  0  0  0  0  0  0  0  0  0  0  0
   47.6961   59.1475   27.1722 O   0  0  0  0  0  0  0  0  0  0  0  0
   47.5935   56.7686   29.7052 C   0  0  0  0  0  0  0  0  0  0  0  0
   48.5812   57.6727   30.4410 C   0  0  0  0  0  0  0  0  0  0  0  0
   47.8562   58.6909   31.7908 S   0  0  2  0  0  0  0  0  0  0  0  0
   48.7044   60.2941   31.6407 C   0  0  0  0  0  0  0  0  0  0  0  0
   48.7892   57.9205   33.1305 C   0  0  0  0  0  0  0  0  0  0  0  0
   47.9675   56.9231   33.9654 C   0  0  1  0  0  0  0  0  0  0  0  0
   47.0588   56.1989   33.0841 O   0  0  0  0  0  0  0  0  0  0  0  0
   49.0058   55.9226   34.4039 C   0  0  1  0  0  0  0  0  0  0  0  0
   49.4654   56.2452   35.7166 O   0  0  0  0  0  0  0  0  0  0  0  0
   48.2580   54.5950   34.4143 C   0  0  1  0  0  0  0  0  0  0  0  0
   47.7878   54.2546   35.7134 O   0  0  0  0  0  0  0  0  0  0  0  0
   47.0552   54.7601   33.4153 C   0  0  2  0  0  0  0  0  0  0  0  0
   48.0590   57.0832   26.8147 O   0  0  0  0  0  0  0  0  0  0  0  0
   50.3449   52.9264   29.7551 N   0  0  0  0  0  0  0  0  0  0  0  0
   50.6551   53.5647   30.8889 C   0  0  0  0  0  0  0  0  0  0  0  0
   49.7168   53.9575   31.7360 N   0  0  0  0  0  0  0  0  0  0  0  0
   48.4135   53.7609   31.4773 C   0  0  0  0  0  0  0  0  0  0  0  0
   48.0338   53.1009   30.2804 C   0  0  0  0  0  0  0  0  0  0  0  0
   49.0706   52.6790   29.4103 C   0  0  0  0  0  0  0  0  0  0  0  0
   48.7784   52.0293   28.2320 N   0  0  0  0  0  0  0  0  0  0  0  0
   46.6874   53.0366   30.2645 N   0  0  0  0  0  0  0  0  0  0  0  0
   46.2213   53.6054   31.3376 C   0  0  0  0  0  0  0  0  0  0  0  0
   47.2406   54.0653   32.1241 N   0  0  0  0  0  0  0  0  0  0  0  0
  2  1  1  6  0  0  0
  2  3  1  0  0  0  0
  2  5  1  0  0  0  0
  3  4  1  0  0  0  0
  3 17  1  0  0  0  0
  5  6  1  0  0  0  0
  7  6  1  6  0  0  0
  7  8  1  0  0  0  0
  7  9  1  0  0  0  0
 10  9  1  6  0  0  0
 10 11  1  0  0  0  0
 10 12  1  0  0  0  0
 11 16  1  0  0  0  0
 12 13  1  1  0  0  0
 12 14  1  0  0  0  0
 14 15  1  1  0  0  0
 14 16  1  0  0  0  0
 16 27  1  6  0  0  0
 18 19  2  0  0  0  0
 18 23  1  0  0  0  0
 19 20  1  0  0  0  0
 20 21  2  0  0  0  0
 21 22  1  0  0  0  0
 21 27  1  0  0  0  0
 22 23  2  0  0  0  0
 22 25  1  0  0  0  0
 23 24  1  0  0  0  0
 25 26  2  0  0  0  0
 26 27  1  0  0  0  0
M  END
>  <CHROM.1>
112.36095534,-162.51833813,76.33330148,-140.71010686,-103.18946094,37.02956588
85.83763722,48.09205269,55.83967053,31.21814386,-2.62305893,-1.42720079,0.92909572

>  <Name>
ligand

>  <RI>
0

>  <Rbt.Current_Directory>
/home/itssahil/PROJECTS/Mol_Feturizer/New_Systems/rnas/2GIS

>  <Rbt.Executable>
rbdock ($Id: //depot/dev/client3/rdock/2013.1/src/exe/rbdock.cxx#4 $)

>  <Rbt.Library>
libRbt.so (2013.1, Build901 2013/11/27)

>  <Rbt.Parameter_File>
/export/apps/rDock/src/rDock_2013.1_src/data/scripts/dock_solv.prm

>  <Rbt.Receptor>
prm/pocket_docking_3.prm

>  <SCORE>
-11.8115

>  <SCORE.INTER>
-9.30795

>  <SCORE.INTER.CONST>
1

>  <SCORE.INTER.POLAR>
0

>  <SCORE.INTER.ROT>
7

>  <SCORE.INTER.SOLV>
14.6466

>  <SCORE.INTER.VDW>
-19.3542

>  <SCORE.INTER.norm>
-0.344739

>  <SCORE.INTRA>
-2.56873

>  <SCORE.INTRA.DIHEDRAL>
4.20643

>  <SCORE.INTRA.DIHEDRAL.0>
9.40024

>  <SCORE.INTRA.POLAR>
0

>  <SCORE.INTRA.POLAR.0>
0

>  <SCORE.INTRA.REPUL>
0

>  <SCORE.INTRA.REPUL.0>
0

>  <SCORE.INTRA.SOLV>
-2.80593

>  <SCORE.INTRA.SOLV.lig_0>
-47.1049

>  <SCORE.INTRA.VDW>
-3.26898

>  <SCORE.INTRA.VDW.0>
-1.50278

>  <SCORE.INTRA.norm>
-0.0951383

>  <SCORE.RESTR>
0.0651578

>  <SCORE.RESTR.CAVITY>
0.0651578

>  <SCORE.RESTR.norm>
0.00241325

>  <SCORE.SYSTEM>
0

>  <SCORE.SYSTEM.CONST>
0

>  <SCORE.SYSTEM.DIHEDRAL>
0

>  <SCORE.SYSTEM.SOLV>
0

>  <SCORE.SYSTEM.norm>
0

>  <SCORE.heavy>
27

>  <SCORE.norm>
-0.437464

>  <RMSD>
5.083

$$$$
ligand
 OpenBabel11021811433D
libRbt.so/2013.1/901 2013/11/27
 27 29  0  0  0  0  0  0  0  0999 V2000
   45.8519   55.6403   30.7115 N   0  0  0  0  0  0  0  0  0  0  0  0
   44.4515   55.2794   30.4698 C   0  0  2  0  0  0  0  0  0  0  0  0
   43.5497   56.4080   30.9370 C   0  0  0  0  0  0  0  0  0  0  0  0
   43.9452   57.1950   31.7925 O   0  0  0  0  0  0  0  0  0  0  0  0
   44.0862   53.9773   31.2101 C   0  0  0  0  0  0  0  0  0  0  0  0
   44.3540   54.1567   32.7036 C   0  0  0  0  0  0  0  0  0  0  0  0
   43.8942   52.7226   33.7602 S   0  0  2  0  0  0  0  0  0  0  0  0
   42.0806   52.8209   33.8757 C   0  0  0  0  0  0  0  0  0  0  0  0
   44.3902   53.4741   35.3249 C   0  0  0  0  0  0  0  0  0  0  0  0
   45.6446   52.8382   35.9487 C   0  0  1  0  0  0  0  0  0  0  0  0
   46.7854   53.0754   35.0718 O   0  0  0  0  0  0  0  0  0  0  0  0
   45.8759   53.6899   37.1704 C   0  0  1  0  0  0  0  0  0  0  0  0
   45.3026   53.0593   38.3160 O   0  0  0  0  0  0  0  0  0  0  0  0
   47.3931   53.7466   37.2990 C   0  0  1  0  0  0  0  0  0  0  0  0
   47.8895   52.7838   38.2215 O   0  0  0  0  0  0  0  0  0  0  0  0
   47.9665   53.4815   35.8591 C   0  0  2  0  0  0  0  0  0  0  0  0
   42.3993   56.5007   30.5083 O   0  0  0  0  0  0  0  0  0  0  0  0
   46.9675   57.8936   33.1914 N   0  0  0  0  0  0  0  0  0  0  0  0
   46.0869   56.9996   33.6544 C   0  0  0  0  0  0  0  0  0  0  0  0
   46.4811   55.9334   34.3326 N   0  0  0  0  0  0  0  0  0  0  0  0
   47.7826   55.6877   34.5560 C   0  0  0  0  0  0  0  0  0  0  0  0
   48.7556   56.5996   34.0723 C   0  0  0  0  0  0  0  0  0  0  0  0
   48.2899   57.7387   33.3681 C   0  0  0  0  0  0  0  0  0  0  0  0
   49.1756   58.6688   32.8720 N   0  0  0  0  0  0  0  0  0  0  0  0
   49.9663   56.1224   34.4240 N   0  0  0  0  0  0  0  0  0  0  0  0
   49.8119   55.0022   35.0671 C   0  0  0  0  0  0  0  0  0  0  0  0
   48.4863   54.6883   35.1826 N   0  0  0  0  0  0  0  0  0  0  0  0
  2  1  1  1  0  0  0
  2  3  1  0  0  0  0
  2  5  1  0  0  0  0
  3  4  1  0  0  0  0
  3 17  1  0  0  0  0
  5  6  1  0  0  0  0
  7  6  1  6  0  0  0
  7  8  1  0  0  0  0
  7  9  1  0  0  0  0
 10  9  1  6  0  0  0
 10 11  1  0  0  0  0
 10 12  1  0  0  0  0
 11 16  1  0  0  0  0
 12 13  1  1  0  0  0
 12 14  1  0  0  0  0
 14 15  1  1  0  0  0
 14 16  1  0  0  0  0
 16 27  1  6  0  0  0
 18 19  2  0  0  0  0
 18 23  1  0  0  0  0
 19 20  1  0  0  0  0
 20 21  2  0  0  0  0
 21 22  1  0  0  0  0
 21 27  1  0  0  0  0
 22 23  2  0  0  0  0
 22 25  1  0  0  0  0
 23 24  1  0  0  0  0
 25 26  2  0  0  0  0
 26 27  1  0  0  0  0
M  END
>  <CHROM.1>
-23.86333072,57.52172485,177.09229748,-76.15198217,-109.85681218,64.64233740
35.32582432,46.03079324,54.89104735,34.07151931,-2.24896077,0.48691942,2.26949824

>  <Name>
ligand

>  <RI>
0

>  <Rbt.Current_Directory>
/home/itssahil/PROJECTS/Mol_Feturizer/New_Systems/rnas/2GIS

>  <Rbt.Executable>
rbdock ($Id: //depot/dev/client3/rdock/2013.1/src/exe/rbdock.cxx#4 $)

>  <Rbt.Library>
libRbt.so (2013.1, Build901 2013/11/27)

>  <Rbt.Parameter_File>
/export/apps/rDock/src/rDock_2013.1_src/data/scripts/dock_solv.prm

>  <Rbt.Receptor>
prm/pocket_docking_7.prm

>  <SCORE>
-19.6318

>  <SCORE.INTER>
-15.1273

>  <SCORE.INTER.CONST>
1

>  <SCORE.INTER.POLAR>
0

>  <SCORE.INTER.ROT>
7

>  <SCORE.INTER.SOLV>
9.69631

>  <SCORE.INTER.VDW>
-21.5836

>  <SCORE.INTER.norm>
-0.560271

>  <SCORE.INTRA>
-4.50447

>  <SCORE.INTRA.DIHEDRAL>
-2.38803

>  <SCORE.INTRA.DIHEDRAL.0>
9.40024

>  <SCORE.INTRA.POLAR>
0

>  <SCORE.INTRA.POLAR.0>
0

>  <SCORE.INTRA.REPUL>
0

>  <SCORE.INTRA.REPUL.0>
0

>  <SCORE.INTRA.SOLV>
-1.47149

>  <SCORE.INTRA.SOLV.lig_0>
-47.1049

>  <SCORE.INTRA.VDW>
-2.5747

>  <SCORE.INTRA.VDW.0>
-1.50278

>  <SCORE.INTRA.norm>
-0.166832

>  <SCORE.RESTR>
0

>  <SCORE.RESTR.CAVITY>
0

>  <SCORE.RESTR.norm>
0

>  <SCORE.SYSTEM>
0

>  <SCORE.SYSTEM.CONST>
0

>  <SCORE.SYSTEM.DIHEDRAL>
0

>  <SCORE.SYSTEM.SOLV>
0

>  <SCORE.SYSTEM.norm>
0

>  <SCORE.heavy>
27

>  <SCORE.norm>
-0.727103

>  <RMSD>
5.087

$$$$
ligand
 OpenBabel11021811433D
libRbt.so/2013.1/901 2013/11/27
 27 29  0  0  0  0  0  0  0  0999 V2000
   46.6813   58.4256   30.6843 N   0  0  0  0  0  0  0  0  0  0  0  0
   47.8005   57.9998   29.8381 C   0  0  2  0  0  0  0  0  0  0  0  0
   47.2713   57.5429   28.4904 C   0  0  0  0  0  0  0  0  0  0  0  0
   47.8289   57.9042   27.4580 O   0  0  0  0  0  0  0  0  0  0  0  0
   48.5875   56.8550   30.5067 C   0  0  0  0  0  0  0  0  0  0  0  0
   49.5758   57.4450   31.5115 C   0  0  0  0  0  0  0  0  0  0  0  0
   48.8203   58.1421   33.0372 S   0  0  2  0  0  0  0  0  0  0  0  0
   49.9033   59.5395   33.4691 C   0  0  0  0  0  0  0  0  0  0  0  0
   49.4321   56.8616   34.1529 C   0  0  0  0  0  0  0  0  0  0  0  0
   48.4478   55.6976   34.3610 C   0  0  1  0  0  0  0  0  0  0  0  0
   47.9267   55.2769   33.0655 O   0  0  0  0  0  0  0  0  0  0  0  0
   49.3468   54.5822   34.8289 C   0  0  1  0  0  0  0  0  0  0  0  0
   49.3288   54.5115   36.2549 O   0  0  0  0  0  0  0  0  0  0  0  0
   48.7236   53.3287   34.2272 C   0  0  1  0  0  0  0  0  0  0  0  0
   47.8762   52.6549   35.1504 O   0  0  0  0  0  0  0  0  0  0  0  0
   47.9069   53.8037   32.9704 C   0  0  2  0  0  0  0  0  0  0  0  0
   46.2470   56.8629   28.4244 O   0  0  0  0  0  0  0  0  0  0  0  0
   47.3729   52.5401   27.9009 N   0  0  0  0  0  0  0  0  0  0  0  0
   46.4041   52.7468   28.7996 C   0  0  0  0  0  0  0  0  0  0  0  0
   46.6849   53.0808   30.0493 N   0  0  0  0  0  0  0  0  0  0  0  0
   47.9538   53.1940   30.4753 C   0  0  0  0  0  0  0  0  0  0  0  0
   49.0165   52.9705   29.5626 C   0  0  0  0  0  0  0  0  0  0  0  0
   48.6719   52.6343   28.2290 C   0  0  0  0  0  0  0  0  0  0  0  0
   49.6497   52.4061   27.2869 N   0  0  0  0  0  0  0  0  0  0  0  0
   50.1708   53.1421   30.2372 N   0  0  0  0  0  0  0  0  0  0  0  0
   49.9007   53.4397   31.4745 C   0  0  0  0  0  0  0  0  0  0  0  0
   48.5496   53.4907   31.6768 N   0  0  0  0  0  0  0  0  0  0  0  0
  2  1  1  1  0  0  0
  2  3  1  0  0  0  0
  2  5  1  0  0  0  0
  3  4  1  0  0  0  0
  3 17  1  0  0  0  0
  5  6  1  0  0  0  0
  7  6  1  6  0  0  0
  7  8  1  0  0  0  0
  7  9  1  0  0  0  0
 10  9  1  6  0  0  0
 10 11  1  0  0  0  0
 10 12  1  0  0  0  0
 11 16  1  0  0  0  0
 12 13  1  1  0  0  0
 12 14  1  0  0  0  0
 14 15  1  1  0  0  0
 14 16  1  0  0  0  0
 16 27  1  6  0  0  0
 18 19  2  0  0  0  0
 18 23  1  0  0  0  0
 19 20  1  0  0  0  0
 20 21  2  0  0  0  0
 21 22  1  0  0  0  0
 21 27  1  0  0  0  0
 22 23  2  0  0  0  0
 22 25  1  0  0  0  0
 23 24  1  0  0  0  0
 25 26  2  0  0  0  0
 26 27  1  0  0  0  0
M  END
>  <CHROM.1>
135.23528401,-82.54261621,71.47830371,-146.74221822,-92.89762698,46.31408051
-98.72624773,48.38889038,55.28061744,31.40122367,2.69935985,1.37716761,-2.99621106

>  <Name>
ligand

>  <RI>
0

>  <Rbt.Current_Directory>
/home/itssahil/PROJECTS/Mol_Feturizer/New_Systems/rnas/2GIS

>  <Rbt.Executable>
rbdock ($Id: //depot/dev/client3/rdock/2013.1/src/exe/rbdock.cxx#4 $)

>  <Rbt.Library>
libRbt.so (2013.1, Build901 2013/11/27)

>  <Rbt.Parameter_File>
/export/apps/rDock/src/rDock_2013.1_src/data/scripts/dock_solv.prm

>  <Rbt.Receptor>
prm/pocket_docking_6.prm

>  <SCORE>
-16.9576

>  <SCORE.INTER>
-14.5883

>  <SCORE.INTER.CONST>
1

>  <SCORE.INTER.POLAR>
0

>  <SCORE.INTER.ROT>
7

>  <SCORE.INTER.SOLV>
9.20086

>  <SCORE.INTER.VDW>
-21.0592

>  <SCORE.INTER.norm>
-0.540308

>  <SCORE.INTRA>
-2.3693

>  <SCORE.INTRA.DIHEDRAL>
1.94545

>  <SCORE.INTRA.DIHEDRAL.0>
9.40024

>  <SCORE.INTRA.POLAR>
0

>  <SCORE.INTRA.POLAR.0>
0

>  <SCORE.INTRA.REPUL>
0

>  <SCORE.INTRA.REPUL.0>
0

>  <SCORE.INTRA.SOLV>
-0.891112

>  <SCORE.INTRA.SOLV.lig_0>
-47.1049

>  <SCORE.INTRA.VDW>
-2.89647

>  <SCORE.INTRA.VDW.0>
-1.50278

>  <SCORE.INTRA.norm>
-0.0877518

>  <SCORE.RESTR>
0

>  <SCORE.RESTR.CAVITY>
0

>  <SCORE.RESTR.norm>
0

>  <SCORE.SYSTEM>
0

>  <SCORE.SYSTEM.CONST>
0

>  <SCORE.SYSTEM.DIHEDRAL>
0

>  <SCORE.SYSTEM.SOLV>
0

>  <SCORE.SYSTEM.norm>
0

>  <SCORE.heavy>
27

>  <SCORE.norm>
-0.62806

>  <RMSD>
5.088

$$$$
ligand
 OpenBabel11021811433D
libRbt.so/2013.1/901 2013/11/27
 27 29  0  0  0  0  0  0  0  0999 V2000
   46.9765   58.6934   27.2830 N   0  0  0  0  0  0  0  0  0  0  0  0
   48.1243   58.6170   28.1922 C   0  0  2  0  0  0  0  0  0  0  0  0
   48.8309   57.2862   28.0050 C   0  0  0  0  0  0  0  0  0  0  0  0
   48.1855   56.2418   28.0192 O   0  0  0  0  0  0  0  0  0  0  0  0
   47.6722   58.7676   29.6584 C   0  0  0  0  0  0  0  0  0  0  0  0
   48.9009   58.9657   30.5449 C   0  0  0  0  0  0  0  0  0  0  0  0
   48.5633   59.0157   32.3526 S   0  0  2  0  0  0  0  0  0  0  0  0
   50.1689   59.4501   33.0912 C   0  0  0  0  0  0  0  0  0  0  0  0
   48.5367   57.2263   32.5894 C   0  0  0  0  0  0  0  0  0  0  0  0
   47.8804   56.7845   33.9089 C   0  0  1  0  0  0  0  0  0  0  0  0
   46.4511   57.0679   33.8485 O   0  0  0  0  0  0  0  0  0  0  0  0
   48.0087   55.2838   33.8574 C   0  0  1  0  0  0  0  0  0  0  0  0
   49.1608   54.8707   34.5926 O   0  0  0  0  0  0  0  0  0  0  0  0
   46.7389   54.7813   34.5333 C   0  0  1  0  0  0  0  0  0  0  0  0
   46.9489   54.4711   35.9060 O   0  0  0  0  0  0  0  0  0  0  0  0
   45.6759   55.9298   34.3812 C   0  0  2  0  0  0  0  0  0  0  0  0
   50.0571   57.2441   27.9023 O   0  0  0  0  0  0  0  0  0  0  0  0
   42.3329   52.5186   32.1972 N   0  0  0  0  0  0  0  0  0  0  0  0
   43.1839   52.2996   33.2056 C   0  0  0  0  0  0  0  0  0  0  0  0
   43.9612   53.2643   33.6717 N   0  0  0  0  0  0  0  0  0  0  0  0
   43.9515   54.4938   33.1308 C   0  0  0  0  0  0  0  0  0  0  0  0
   43.0760   54.7712   32.0496 C   0  0  0  0  0  0  0  0  0  0  0  0
   42.2464   53.7155   31.5940 C   0  0  0  0  0  0  0  0  0  0  0  0
   41.3692   53.9113   30.5509 N   0  0  0  0  0  0  0  0  0  0  0  0
   43.2652   56.0584   31.6970 N   0  0  0  0  0  0  0  0  0  0  0  0
   44.1806   56.5789   32.4607 C   0  0  0  0  0  0  0  0  0  0  0  0
   44.6354   55.6615   33.3665 N   0  0  0  0  0  0  0  0  0  0  0  0
  2  1  1  6  0  0  0
  2  3  1  0  0  0  0
  2  5  1  0  0  0  0
  3  4  1  0  0  0  0
  3 17  1  0  0  0  0
  5  6  1  0  0  0  0
  7  6  1  6  0  0  0
  7  8  1  0  0  0  0
  7  9  1  0  0  0  0
 10  9  1  6  0  0  0
 10 11  1  0  0  0  0
 10 12  1  0  0  0  0
 11 16  1  0  0  0  0
 12 13  1  1  0  0  0
 12 14  1  0  0  0  0
 14 15  1  1  0  0  0
 14 16  1  0  0  0  0
 16 27  1  6  0  0  0
 18 19  2  0  0  0  0
 18 23  1  0  0  0  0
 19 20  1  0  0  0  0
 20 21  2  0  0  0  0
 21 22  1  0  0  0  0
 21 27  1  0  0  0  0
 22 23  2  0  0  0  0
 22 25  1  0  0  0  0
 23 24  1  0  0  0  0
 25 26  2  0  0  0  0
 26 27  1  0  0  0  0
M  END
>  <CHROM.1>
-49.85582964,-168.68794406,-174.83505602,-173.65569665,-163.17082319,68.61090817
156.33830982,46.47676512,56.25057367,31.96542534,0.57269731,-0.56145661,-1.29046952

>  <Name>
ligand

>  <RI>
0

>  <Rbt.Current_Directory>
/home/itssahil/PROJECTS/Mol_Feturizer/New_Systems/rnas/2GIS

>  <Rbt.Executable>
rbdock ($Id: //depot/dev/client3/rdock/2013.1/src/exe/rbdock.cxx#4 $)

>  <Rbt.Library>
libRbt.so (2013.1, Build901 2013/11/27)

>  <Rbt.Parameter_File>
/export/apps/rDock/src/rDock_2013.1_src/data/scripts/dock_solv.prm

>  <Rbt.Receptor>
prm/pocket_docking_8.prm

>  <SCORE>
-17.3015

>  <SCORE.INTER>
-13.1567

>  <SCORE.INTER.CONST>
1

>  <SCORE.INTER.POLAR>
0

>  <SCORE.INTER.ROT>
7

>  <SCORE.INTER.SOLV>
11.1546

>  <SCORE.INTER.VDW>
-20.756

>  <SCORE.INTER.norm>
-0.487284

>  <SCORE.INTRA>
-4.14483

>  <SCORE.INTRA.DIHEDRAL>
-3.25852

>  <SCORE.INTRA.DIHEDRAL.0>
9.40024

>  <SCORE.INTRA.POLAR>
0

>  <SCORE.INTRA.POLAR.0>
0

>  <SCORE.INTRA.REPUL>
0

>  <SCORE.INTRA.REPUL.0>
0

>  <SCORE.INTRA.SOLV>
-3.19091

>  <SCORE.INTRA.SOLV.lig_0>
-47.1049

>  <SCORE.INTRA.VDW>
-0.920114

>  <SCORE.INTRA.VDW.0>
-1.50278

>  <SCORE.INTRA.norm>
-0.153512

>  <SCORE.RESTR>
0

>  <SCORE.RESTR.CAVITY>
0

>  <SCORE.RESTR.norm>
0

>  <SCORE.SYSTEM>
0

>  <SCORE.SYSTEM.CONST>
0

>  <SCORE.SYSTEM.DIHEDRAL>
0

>  <SCORE.SYSTEM.SOLV>
0

>  <SCORE.SYSTEM.norm>
0

>  <SCORE.heavy>
27

>  <SCORE.norm>
-0.640796

>  <RMSD>
5.094

$$$$
ligand
 OpenBabel11021811433D
libRbt.so/2013.1/901 2013/11/27
 27 29  0  0  0  0  0  0  0  0999 V2000
   50.0499   53.0694   32.2452 N   0  0  0  0  0  0  0  0  0  0  0  0
   49.3232   53.7205   31.1507 C   0  0  2  0  0  0  0  0  0  0  0  0
   50.2833   54.0207   30.0135 C   0  0  0  0  0  0  0  0  0  0  0  0
   50.6877   55.1668   29.8386 O   0  0  0  0  0  0  0  0  0  0  0  0
   48.6601   55.0257   31.6340 C   0  0  0  0  0  0  0  0  0  0  0  0
   49.6926   55.8655   32.3846 C   0  0  0  0  0  0  0  0  0  0  0  0
   49.2180   56.3457   34.0959 S   0  0  2  0  0  0  0  0  0  0  0  0
   49.0587   54.7592   34.9731 C   0  0  0  0  0  0  0  0  0  0  0  0
   47.4923   56.7157   33.7165 C   0  0  0  0  0  0  0  0  0  0  0  0
   47.2644   58.1445   33.1934 C   0  0  1  0  0  0  0  0  0  0  0  0
   48.2586   58.4409   32.1684 O   0  0  0  0  0  0  0  0  0  0  0  0
   45.9464   58.0276   32.4718 C   0  0  1  0  0  0  0  0  0  0  0  0
   44.8857   58.4499   33.3292 O   0  0  0  0  0  0  0  0  0  0  0  0
   46.0862   58.9805   31.2911 C   0  0  1  0  0  0  0  0  0  0  0  0
   45.5076   60.2528   31.5573 O   0  0  0  0  0  0  0  0  0  0  0  0
   47.6285   59.1193   31.0184 C   0  0  2  0  0  0  0  0  0  0  0  0
   50.6092   53.1322   29.2260 O   0  0  0  0  0  0  0  0  0  0  0  0
   46.4592   56.5957   26.5636 N   0  0  0  0  0  0  0  0  0  0  0  0
   45.6126   57.1653   27.4283 C   0  0  0  0  0  0  0  0  0  0  0  0
   46.0508   57.7894   28.5103 N   0  0  0  0  0  0  0  0  0  0  0  0
   47.3606   57.8486   28.8020 C   0  0  0  0  0  0  0  0  0  0  0  0
   48.2969   57.2468   27.9225 C   0  0  0  0  0  0  0  0  0  0  0  0
   47.7871   56.6060   26.7651 C   0  0  0  0  0  0  0  0  0  0  0  0
   48.6359   56.0028   25.8643 N   0  0  0  0  0  0  0  0  0  0  0  0
   49.5246   57.4447   28.4429 N   0  0  0  0  0  0  0  0  0  0  0  0
   49.4126   58.1026   29.5596 C   0  0  0  0  0  0  0  0  0  0  0  0
   48.1017   58.3828   29.8277 N   0  0  0  0  0  0  0  0  0  0  0  0
  2  1  1  1  0  0  0
  2  3  1  0  0  0  0
  2  5  1  0  0  0  0
  3  4  1  0  0  0  0
  3 17  1  0  0  0  0
  5  6  1  0  0  0  0
  7  6  1  6  0  0  0
  7  8  1  0  0  0  0
  7  9  1  0  0  0  0
 10  9  1  6  0  0  0
 10 11  1  0  0  0  0
 10 12  1  0  0  0  0
 11 16  1  0  0  0  0
 12 13  1  1  0  0  0
 12 14  1  0  0  0  0
 14 15  1  1  0  0  0
 14 16  1  0  0  0  0
 16 27  1  6  0  0  0
 18 19  2  0  0  0  0
 18 23  1  0  0  0  0
 19 20  1  0  0  0  0
 20 21  2  0  0  0  0
 21 22  1  0  0  0  0
 21 27  1  0  0  0  0
 22 23  2  0  0  0  0
 22 25  1  0  0  0  0
 23 24  1  0  0  0  0
 25 26  2  0  0  0  0
 26 27  1  0  0  0  0
M  END
>  <CHROM.1>
-103.51725664,49.42923797,-124.46742942,62.49887065,-85.09376234,46.60631829
128.50543664,48.13256203,56.72748107,30.76177949,-1.40010596,0.86492685,-1.60068047

>  <Name>
ligand

>  <RI>
0

>  <Rbt.Current_Directory>
/home/itssahil/PROJECTS/Mol_Feturizer/New_Systems/rnas/2GIS

>  <Rbt.Executable>
rbdock ($Id: //depot/dev/client3/rdock/2013.1/src/exe/rbdock.cxx#4 $)

>  <Rbt.Library>
libRbt.so (2013.1, Build901 2013/11/27)

>  <Rbt.Parameter_File>
/export/apps/rDock/src/rDock_2013.1_src/data/scripts/dock_solv.prm

>  <Rbt.Receptor>
prm/pocket_docking_2.prm

>  <SCORE>
-5.0204

>  <SCORE.INTER>
-6.92509

>  <SCORE.INTER.CONST>
1

>  <SCORE.INTER.POLAR>
0

>  <SCORE.INTER.ROT>
7

>  <SCORE.INTER.SOLV>
16.0896

>  <SCORE.INTER.VDW>
-18.2466

>  <SCORE.INTER.norm>
-0.256485

>  <SCORE.INTRA>
1.00093

>  <SCORE.INTRA.DIHEDRAL>
1.59812

>  <SCORE.INTRA.DIHEDRAL.0>
9.40024

>  <SCORE.INTRA.POLAR>
0

>  <SCORE.INTRA.POLAR.0>
0

>  <SCORE.INTRA.REPUL>
0

>  <SCORE.INTRA.REPUL.0>
0

>  <SCORE.INTRA.SOLV>
-0.566638

>  <SCORE.INTRA.SOLV.lig_0>
-47.1049

>  <SCORE.INTRA.VDW>
0.485191

>  <SCORE.INTRA.VDW.0>
-1.50278

>  <SCORE.INTRA.norm>
0.0370716

>  <SCORE.RESTR>
0.903756

>  <SCORE.RESTR.CAVITY>
0.903756

>  <SCORE.RESTR.norm>
0.0334724

>  <SCORE.SYSTEM>
0

>  <SCORE.SYSTEM.CONST>
0

>  <SCORE.SYSTEM.DIHEDRAL>
0

>  <SCORE.SYSTEM.SOLV>
0

>  <SCORE.SYSTEM.norm>
0

>  <SCORE.heavy>
27

>  <SCORE.norm>
-0.185941

>  <RMSD>
5.097

$$$$
ligand
 OpenBabel11021811433D
libRbt.so/2013.1/901 2013/11/27
 27 29  0  0  0  0  0  0  0  0999 V2000
   46.6483   53.5065   32.1408 N   0  0  0  0  0  0  0  0  0  0  0  0
   47.6947   53.8111   31.1599 C   0  0  2  0  0  0  0  0  0  0  0  0
   47.7279   52.7238   30.1006 C   0  0  0  0  0  0  0  0  0  0  0  0
   47.9805   53.0115   28.9341 O   0  0  0  0  0  0  0  0  0  0  0  0
   49.0722   53.9173   31.8440 C   0  0  0  0  0  0  0  0  0  0  0  0
   50.1204   54.3104   30.8040 C   0  0  0  0  0  0  0  0  0  0  0  0
   49.6479   55.7072   29.7040 S   0  0  2  0  0  0  0  0  0  0  0  0
   51.1020   55.9405   28.6349 C   0  0  0  0  0  0  0  0  0  0  0  0
   49.8981   57.0071   30.9313 C   0  0  0  0  0  0  0  0  0  0  0  0
   49.3524   58.3799   30.5015 C   0  0  1  0  0  0  0  0  0  0  0  0
   48.2379   58.1829   29.5818 O   0  0  0  0  0  0  0  0  0  0  0  0
   48.7496   58.9115   31.7764 C   0  0  1  0  0  0  0  0  0  0  0  0
   49.6807   59.7749   32.4292 O   0  0  0  0  0  0  0  0  0  0  0  0
   47.5323   59.6996   31.3086 C   0  0  1  0  0  0  0  0  0  0  0  0
   47.8073   61.0905   31.1895 O   0  0  0  0  0  0  0  0  0  0  0  0
   47.1252   59.0940   29.9159 C   0  0  2  0  0  0  0  0  0  0  0  0
   47.4402   51.5632   30.3940 O   0  0  0  0  0  0  0  0  0  0  0  0
   43.8548   56.1075   32.7384 N   0  0  0  0  0  0  0  0  0  0  0  0
   44.9398   56.7627   33.1655 C   0  0  0  0  0  0  0  0  0  0  0  0
   45.6674   57.4997   32.3410 N   0  0  0  0  0  0  0  0  0  0  0  0
   45.3657   57.5942   31.0355 C   0  0  0  0  0  0  0  0  0  0  0  0
   44.2321   56.9058   30.5320 C   0  0  0  0  0  0  0  0  0  0  0  0
   43.4689   56.1439   31.4524 C   0  0  0  0  0  0  0  0  0  0  0  0
   42.3537   55.4515   31.0369 N   0  0  0  0  0  0  0  0  0  0  0  0
   44.1581   57.1622   29.2106 N   0  0  0  0  0  0  0  0  0  0  0  0
   45.1482   57.9345   28.8707 C   0  0  0  0  0  0  0  0  0  0  0  0
   45.9219   58.2369   29.9566 N   0  0  0  0  0  0  0  0  0  0  0  0
  2  1  1  1  0  0  0
  2  3  1  0  0  0  0
  2  5  1  0  0  0  0
  3  4  1  0  0  0  0
  3 17  1  0  0  0  0
  5  6  1  0  0  0  0
  7  6  1  1  0  0  0
  7  8  1  0  0  0  0
  7  9  1  0  0  0  0
 10  9  1  1  0  0  0
 10 11  1  0  0  0  0
 10 12  1  0  0  0  0
 11 16  1  0  0  0  0
 12 13  1  6  0  0  0
 12 14  1  0  0  0  0
 14 15  1  6  0  0  0
 14 16  1  0  0  0  0
 16 27  1  1  0  0  0
 18 19  2  0  0  0  0
 18 23  1  0  0  0  0
 19 20  1  0  0  0  0
 20 21  2  0  0  0  0
 21 22  1  0  0  0  0
 21 27  1  0  0  0  0
 22 23  2  0  0  0  0
 22 25  1  0  0  0  0
 23 24  1  0  0  0  0
 25 26  2  0  0  0  0
 26 27  1  0  0  0  0
M  END
>  <CHROM.1>
144.45987917,-176.91646124,47.01633372,178.67940545,-169.04533475,27.96886610
92.35636075,47.27727565,56.48684161,30.73589341,1.14859450,-0.16127695,-3.05825789

>  <Name>
ligand

>  <RI>
0

>  <Rbt.Current_Directory>
/home/itssahil/PROJECTS/Mol_Feturizer/New_Systems/rnas/2GIS

>  <Rbt.Executable>
rbdock ($Id: //depot/dev/client3/rdock/2013.1/src/exe/rbdock.cxx#4 $)

>  <Rbt.Library>
libRbt.so (2013.1, Build901 2013/11/27)

>  <Rbt.Parameter_File>
/export/apps/rDock/src/rDock_2013.1_src/data/scripts/dock_solv.prm

>  <Rbt.Receptor>
prm/pocket_docking_7.prm

>  <SCORE>
-15.6253

>  <SCORE.INTER>
-11.8917

>  <SCORE.INTER.CONST>
1

>  <SCORE.INTER.POLAR>
0

>  <SCORE.INTER.ROT>
7

>  <SCORE.INTER.SOLV>
11.64

>  <SCORE.INTER.VDW>
-20.0745

>  <SCORE.INTER.norm>
-0.440434

>  <SCORE.INTRA>
-3.73357

>  <SCORE.INTRA.DIHEDRAL>
-1.66711

>  <SCORE.INTRA.DIHEDRAL.0>
9.40024

>  <SCORE.INTRA.POLAR>
0

>  <SCORE.INTRA.POLAR.0>
0

>  <SCORE.INTRA.REPUL>
0

>  <SCORE.INTRA.REPUL.0>
0

>  <SCORE.INTRA.SOLV>
-2.57275

>  <SCORE.INTRA.SOLV.lig_0>
-47.1049

>  <SCORE.INTRA.VDW>
-1.61364

>  <SCORE.INTRA.VDW.0>
-1.50278

>  <SCORE.INTRA.norm>
-0.13828

>  <SCORE.RESTR>
0

>  <SCORE.RESTR.CAVITY>
0

>  <SCORE.RESTR.norm>
0

>  <SCORE.SYSTEM>
0

>  <SCORE.SYSTEM.CONST>
0

>  <SCORE.SYSTEM.DIHEDRAL>
0

>  <SCORE.SYSTEM.SOLV>
0

>  <SCORE.SYSTEM.norm>
0

>  <SCORE.heavy>
27

>  <SCORE.norm>
-0.578714

>  <RMSD>
5.099

$$$$
ligand
 OpenBabel11021811433D
libRbt.so/2013.1/901 2013/11/27
 27 29  0  0  0  0  0  0  0  0999 V2000
   49.0385   51.4918   29.5989 N   0  0  0  0  0  0  0  0  0  0  0  0
   49.4577   52.7109   28.9004 C   0  0  2  0  0  0  0  0  0  0  0  0
   50.0400   52.3443   27.5469 C   0  0  0  0  0  0  0  0  0  0  0  0
   49.4427   52.6509   26.5189 O   0  0  0  0  0  0  0  0  0  0  0  0
   50.5040   53.4837   29.7280 C   0  0  0  0  0  0  0  0  0  0  0  0
   50.7220   54.8605   29.1023 C   0  0  0  0  0  0  0  0  0  0  0  0
   49.2904   56.0100   29.2187 S   0  0  2  0  0  0  0  0  0  0  0  0
   49.5130   57.1389   27.8087 C   0  0  0  0  0  0  0  0  0  0  0  0
   49.9536   57.0009   30.5742 C   0  0  0  0  0  0  0  0  0  0  0  0
   49.1923   58.3166   30.8114 C   0  0  1  0  0  0  0  0  0  0  0  0
   47.7589   58.0494   30.7837 O   0  0  0  0  0  0  0  0  0  0  0  0
   49.5268   58.6399   32.2449 C   0  0  1  0  0  0  0  0  0  0  0  0
   50.6153   59.5626   32.2920 O   0  0  0  0  0  0  0  0  0  0  0  0
   48.2572   59.2883   32.7830 C   0  0  1  0  0  0  0  0  0  0  0  0
   48.3218   60.7091   32.7418 O   0  0  0  0  0  0  0  0  0  0  0  0
   47.0795   58.7609   31.8847 C   0  0  2  0  0  0  0  0  0  0  0  0
   51.0772   51.6847   27.4760 O   0  0  0  0  0  0  0  0  0  0  0  0
   46.7217   54.6369   35.1168 N   0  0  0  0  0  0  0  0  0  0  0  0
   47.8217   55.3176   34.7767 C   0  0  0  0  0  0  0  0  0  0  0  0
   47.7623   56.3571   33.9593 N   0  0  0  0  0  0  0  0  0  0  0  0
   46.6008   56.7516   33.4120 C   0  0  0  0  0  0  0  0  0  0  0  0
   45.4085   56.0523   33.7311 C   0  0  0  0  0  0  0  0  0  0  0  0
   45.5134   54.9574   34.6258 C   0  0  0  0  0  0  0  0  0  0  0  0
   44.3983   54.2335   34.9841 N   0  0  0  0  0  0  0  0  0  0  0  0
   44.4018   56.6414   33.0553 N   0  0  0  0  0  0  0  0  0  0  0  0
   44.8800   57.6254   32.3516 C   0  0  0  0  0  0  0  0  0  0  0  0
   46.2294   57.7430   32.5369 N   0  0  0  0  0  0  0  0  0  0  0  0
  2  1  1  1  0  0  0
  2  3  1  0  0  0  0
  2  5  1  0  0  0  0
  3  4  1  0  0  0  0
  3 17  1  0  0  0  0
  5  6  1  0  0  0  0
  7  6  1  6  0  0  0
  7  8  1  0  0  0  0
  7  9  1  0  0  0  0
 10  9  1  1  0  0  0
 10 11  1  0  0  0  0
 10 12  1  0  0  0  0
 11 16  1  0  0  0  0
 12 13  1  6  0  0  0
 12 14  1  0  0  0  0
 14 15  1  6  0  0  0
 14 16  1  0  0  0  0
 16 27  1  1  0  0  0
 18 19  2  0  0  0  0
 18 23  1  0  0  0  0
 19 20  1  0  0  0  0
 20 21  2  0  0  0  0
 21 22  1  0  0  0  0
 21 27  1  0  0  0  0
 22 23  2  0  0  0  0
 22 25  1  0  0  0  0
 23 24  1  0  0  0  0
 25 26  2  0  0  0  0
 26 27  1  0  0  0  0
M  END
>  <CHROM.1>
111.61087736,-169.59353717,67.93927370,-154.19677578,167.08738727,45.35692714
77.74902388,48.25814551,56.04903676,31.23996451,0.81240026,-0.85462373,-2.84686468

>  <Name>
ligand

>  <RI>
0

>  <Rbt.Current_Directory>
/home/itssahil/PROJECTS/Mol_Feturizer/New_Systems/rnas/2GIS

>  <Rbt.Executable>
rbdock ($Id: //depot/dev/client3/rdock/2013.1/src/exe/rbdock.cxx#4 $)

>  <Rbt.Library>
libRbt.so (2013.1, Build901 2013/11/27)

>  <Rbt.Parameter_File>
/export/apps/rDock/src/rDock_2013.1_src/data/scripts/dock_solv.prm

>  <Rbt.Receptor>
prm/pocket_docking_4.prm

>  <SCORE>
-15.8472

>  <SCORE.INTER>
-11.7986

>  <SCORE.INTER.CONST>
1

>  <SCORE.INTER.POLAR>
0

>  <SCORE.INTER.ROT>
7

>  <SCORE.INTER.SOLV>
17.1996

>  <SCORE.INTER.VDW>
-21.8656

>  <SCORE.INTER.norm>
-0.436986

>  <SCORE.INTRA>
-4.06392

>  <SCORE.INTRA.DIHEDRAL>
-2.20785

>  <SCORE.INTRA.DIHEDRAL.0>
9.40024

>  <SCORE.INTRA.POLAR>
0

>  <SCORE.INTRA.POLAR.0>
0

>  <SCORE.INTRA.REPUL>
0

>  <SCORE.INTRA.REPUL.0>
0

>  <SCORE.INTRA.SOLV>
-2.92119

>  <SCORE.INTRA.SOLV.lig_0>
-47.1049

>  <SCORE.INTRA.VDW>
-1.4994

>  <SCORE.INTRA.VDW.0>
-1.50278

>  <SCORE.INTRA.norm>
-0.150516

>  <SCORE.RESTR>
0.0153314

>  <SCORE.RESTR.CAVITY>
0.0153314

>  <SCORE.RESTR.norm>
0.000567831

>  <SCORE.SYSTEM>
0

>  <SCORE.SYSTEM.CONST>
0

>  <SCORE.SYSTEM.DIHEDRAL>
0

>  <SCORE.SYSTEM.SOLV>
0

>  <SCORE.SYSTEM.norm>
0

>  <SCORE.heavy>
27

>  <SCORE.norm>
-0.586934

>  <RMSD>
5.101

$$$$
ligand
 OpenBabel11021811433D
libRbt.so/2013.1/901 2013/11/27
 27 29  0  0  0  0  0  0  0  0999 V2000
   46.2103   54.4614   27.8348 N   0  0  0  0  0  0  0  0  0  0  0  0
   47.5882   53.9626   27.7827 C   0  0  2  0  0  0  0  0  0  0  0  0
   47.6087   52.6006   27.1121 C   0  0  0  0  0  0  0  0  0  0  0  0
   48.6796   52.0839   26.8058 O   0  0  0  0  0  0  0  0  0  0  0  0
   48.1862   53.8572   29.1998 C   0  0  0  0  0  0  0  0  0  0  0  0
   48.2174   55.2459   29.8362 C   0  0  0  0  0  0  0  0  0  0  0  0
   49.2276   56.4959   28.9409 S   0  0  2  0  0  0  0  0  0  0  0  0
   50.9077   55.7965   28.9499 C   0  0  0  0  0  0  0  0  0  0  0  0
   49.3261   57.6724   30.3065 C   0  0  0  0  0  0  0  0  0  0  0  0
   48.2279   58.7496   30.2782 C   0  0  1  0  0  0  0  0  0  0  0  0
   46.9247   58.0995   30.2009 O   0  0  0  0  0  0  0  0  0  0  0  0
   48.3128   59.3466   31.6594 C   0  0  1  0  0  0  0  0  0  0  0  0
   49.1124   60.5291   31.6275 O   0  0  0  0  0  0  0  0  0  0  0  0
   46.8686   59.6911   32.0020 C   0  0  1  0  0  0  0  0  0  0  0  0
   46.5652   61.0556   31.7362 O   0  0  0  0  0  0  0  0  0  0  0  0
   45.9708   58.7431   31.1260 C   0  0  2  0  0  0  0  0  0  0  0  0
   46.5538   52.0391   26.8160 O   0  0  0  0  0  0  0  0  0  0  0  0
   46.4438   55.0049   34.7844 N   0  0  0  0  0  0  0  0  0  0  0  0
   47.3728   55.8791   34.3823 C   0  0  0  0  0  0  0  0  0  0  0  0
   47.1079   56.7870   33.4561 N   0  0  0  0  0  0  0  0  0  0  0  0
   45.9065   56.8474   32.8586 C   0  0  0  0  0  0  0  0  0  0  0  0
   44.8925   55.9320   33.2411 C   0  0  0  0  0  0  0  0  0  0  0  0
   45.2115   54.9889   34.2505 C   0  0  0  0  0  0  0  0  0  0  0  0
   44.2770   54.0713   34.6753 N   0  0  0  0  0  0  0  0  0  0  0  0
   43.8022   56.2027   32.4961 N   0  0  0  0  0  0  0  0  0  0  0  0
   44.0696   57.1913   31.6938 C   0  0  0  0  0  0  0  0  0  0  0  0
   45.3507   57.6317   31.8774 N   0  0  0  0  0  0  0  0  0  0  0  0
  2  1  1  1  0  0  0
  2  3  1  0  0  0  0
  2  5  1  0  0  0  0
  3  4  1  0  0  0  0
  3 17  1  0  0  0  0
  5  6  1  0  0  0  0
  7  6  1  1  0  0  0
  7  8  1  0  0  0  0
  7  9  1  0  0  0  0
 10  9  1  1  0  0  0
 10 11  1  0  0  0  0
 10 12  1  0  0  0  0
 11 16  1  0  0  0  0
 12 13  1  6  0  0  0
 12 14  1  0  0  0  0
 14 15  1  6  0  0  0
 14 16  1  0  0  0  0
 16 27  1  1  0  0  0
 18 19  2  0  0  0  0
 18 23  1  0  0  0  0
 19 20  1  0  0  0  0
 20 21  2  0  0  0  0
 21 22  1  0  0  0  0
 21 27  1  0  0  0  0
 22 23  2  0  0  0  0
 22 25  1  0  0  0  0
 23 24  1  0  0  0  0
 25 26  2  0  0  0  0
 26 27  1  0  0  0  0
M  END
>  <CHROM.1>
170.27801010,-61.49158485,-60.48978263,-60.50597610,-93.18439074,53.76848386
72.60177988,47.15573402,56.35002111,30.78782514,1.15549675,-0.86264892,-2.60535041

>  <Name>
ligand

>  <RI>
0

>  <Rbt.Current_Directory>
/home/itssahil/PROJECTS/Mol_Feturizer/New_Systems/rnas/2GIS

>  <Rbt.Executable>
rbdock ($Id: //depot/dev/client3/rdock/2013.1/src/exe/rbdock.cxx#4 $)

>  <Rbt.Library>
libRbt.so (2013.1, Build901 2013/11/27)

>  <Rbt.Parameter_File>
/export/apps/rDock/src/rDock_2013.1_src/data/scripts/dock_solv.prm

>  <Rbt.Receptor>
prm/pocket_docking_4.prm

>  <SCORE>
-14.2538

>  <SCORE.INTER>
-9.56009

>  <SCORE.INTER.CONST>
1

>  <SCORE.INTER.POLAR>
0

>  <SCORE.INTER.ROT>
7

>  <SCORE.INTER.SOLV>
10.0157

>  <SCORE.INTER.VDW>
-17.9786

>  <SCORE.INTER.norm>
-0.354077

>  <SCORE.INTRA>
-4.69789

>  <SCORE.INTRA.DIHEDRAL>
-4.08623

>  <SCORE.INTRA.DIHEDRAL.0>
9.40024

>  <SCORE.INTRA.POLAR>
0

>  <SCORE.INTRA.POLAR.0>
0

>  <SCORE.INTRA.REPUL>
0

>  <SCORE.INTRA.REPUL.0>
0

>  <SCORE.INTRA.SOLV>
-1.64685

>  <SCORE.INTRA.SOLV.lig_0>
-47.1049

>  <SCORE.INTRA.VDW>
-1.83134

>  <SCORE.INTRA.VDW.0>
-1.50278

>  <SCORE.INTRA.norm>
-0.173996

>  <SCORE.RESTR>
0.00422113

>  <SCORE.RESTR.CAVITY>
0.00422113

>  <SCORE.RESTR.norm>
0.000156338

>  <SCORE.SYSTEM>
0

>  <SCORE.SYSTEM.CONST>
0

>  <SCORE.SYSTEM.DIHEDRAL>
0

>  <SCORE.SYSTEM.SOLV>
0

>  <SCORE.SYSTEM.norm>
0

>  <SCORE.heavy>
27

>  <SCORE.norm>
-0.527917

>  <RMSD>
5.119

$$$$
ligand
 OpenBabel11021811433D
libRbt.so/2013.1/901 2013/11/27
 27 29  0  0  0  0  0  0  0  0999 V2000
   49.9473   53.3776   26.2030 N   0  0  0  0  0  0  0  0  0  0  0  0
   49.3875   54.4016   27.0907 C   0  0  2  0  0  0  0  0  0  0  0  0
   47.8714   54.3578   27.0216 C   0  0  0  0  0  0  0  0  0  0  0  0
   47.2238   53.9777   27.9930 O   0  0  0  0  0  0  0  0  0  0  0  0
   49.8891   55.8042   26.6933 C   0  0  0  0  0  0  0  0  0  0  0  0
   49.6246   56.7763   27.8421 C   0  0  0  0  0  0  0  0  0  0  0  0
   47.8515   57.1472   28.1626 S   0  0  2  0  0  0  0  0  0  0  0  0
   47.3751   58.2488   26.7945 C   0  0  0  0  0  0  0  0  0  0  0  0
   48.1439   58.3358   29.4893 C   0  0  0  0  0  0  0  0  0  0  0  0
   46.8664   59.0279   29.9954 C   0  0  1  0  0  0  0  0  0  0  0  0
   45.9391   58.0157   30.4875 O   0  0  0  0  0  0  0  0  0  0  0  0
   47.3521   59.7727   31.2122 C   0  0  1  0  0  0  0  0  0  0  0  0
   47.6395   61.1282   30.8677 O   0  0  0  0  0  0  0  0  0  0  0  0
   46.1757   59.7084   32.1784 C   0  0  1  0  0  0  0  0  0  0  0  0
   45.3740   60.8827   32.1262 O   0  0  0  0  0  0  0  0  0  0  0  0
   45.3357   58.4452   31.7647 C   0  0  2  0  0  0  0  0  0  0  0  0
   47.2898   54.6414   25.9741 O   0  0  0  0  0  0  0  0  0  0  0  0
   48.4237   55.6650   34.9765 N   0  0  0  0  0  0  0  0  0  0  0  0
   48.7421   56.7629   34.2821 C   0  0  0  0  0  0  0  0  0  0  0  0
   47.8511   57.3772   33.5198 N   0  0  0  0  0  0  0  0  0  0  0  0
   46.6005   56.9056   33.3862 C   0  0  0  0  0  0  0  0  0  0  0  0
   46.2192   55.7356   34.0918 C   0  0  0  0  0  0  0  0  0  0  0  0
   47.1978   55.1200   34.9124 C   0  0  0  0  0  0  0  0  0  0  0  0
   46.8995   53.9831   35.6294 N   0  0  0  0  0  0  0  0  0  0  0  0
   44.9322   55.4795   33.7833 N   0  0  0  0  0  0  0  0  0  0  0  0
   44.5063   56.3830   32.9498 C   0  0  0  0  0  0  0  0  0  0  0  0
   45.4909   57.2905   32.6739 N   0  0  0  0  0  0  0  0  0  0  0  0
  2  1  1  6  0  0  0
  2  3  1  0  0  0  0
  2  5  1  0  0  0  0
  3  4  1  0  0  0  0
  3 17  1  0  0  0  0
  5  6  1  0  0  0  0
  7  6  1  6  0  0  0
  7  8  1  0  0  0  0
  7  9  1  0  0  0  0
 10  9  1  1  0  0  0
 10 11  1  0  0  0  0
 10 12  1  0  0  0  0
 11 16  1  0  0  0  0
 12 13  1  6  0  0  0
 12 14  1  0  0  0  0
 14 15  1  6  0  0  0
 14 16  1  0  0  0  0
 16 27  1  1  0  0  0
 18 19  2  0  0  0  0
 18 23  1  0  0  0  0
 19 20  1  0  0  0  0
 20 21  2  0  0  0  0
 21 22  1  0  0  0  0
 21 27  1  0  0  0  0
 22 23  2  0  0  0  0
 22 25  1  0  0  0  0
 23 24  1  0  0  0  0
 25 26  2  0  0  0  0
 26 27  1  0  0  0  0
M  END
>  <CHROM.1>
111.36683732,-164.03753771,-68.36019990,-74.22807059,174.70001023,59.12042673
80.38347066,47.29352102,56.89461476,30.59549249,-0.47883230,-1.24465753,2.40509687

>  <Name>
ligand

>  <RI>
0

>  <Rbt.Current_Directory>
/home/itssahil/PROJECTS/Mol_Feturizer/New_Systems/rnas/2GIS

>  <Rbt.Executable>
rbdock ($Id: //depot/dev/client3/rdock/2013.1/src/exe/rbdock.cxx#4 $)

>  <Rbt.Library>
libRbt.so (2013.1, Build901 2013/11/27)

>  <Rbt.Parameter_File>
/export/apps/rDock/src/rDock_2013.1_src/data/scripts/dock_solv.prm

>  <Rbt.Receptor>
prm/pocket_docking_4.prm

>  <SCORE>
-15.8639

>  <SCORE.INTER>
-10.1549

>  <SCORE.INTER.CONST>
1

>  <SCORE.INTER.POLAR>
0

>  <SCORE.INTER.ROT>
7

>  <SCORE.INTER.SOLV>
11.2658

>  <SCORE.INTER.VDW>
-18.7918

>  <SCORE.INTER.norm>
-0.376106

>  <SCORE.INTRA>
-5.70906

>  <SCORE.INTRA.DIHEDRAL>
-4.94023

>  <SCORE.INTRA.DIHEDRAL.0>
9.40024

>  <SCORE.INTRA.POLAR>
0

>  <SCORE.INTRA.POLAR.0>
0

>  <SCORE.INTRA.REPUL>
0

>  <SCORE.INTRA.REPUL.0>
0

>  <SCORE.INTRA.SOLV>
-2.93952

>  <SCORE.INTRA.SOLV.lig_0>
-47.1049

>  <SCORE.INTRA.VDW>
-1.76918

>  <SCORE.INTRA.VDW.0>
-1.50278

>  <SCORE.INTRA.norm>
-0.211447

>  <SCORE.RESTR>
0

>  <SCORE.RESTR.CAVITY>
0

>  <SCORE.RESTR.norm>
0

>  <SCORE.SYSTEM>
0

>  <SCORE.SYSTEM.CONST>
0

>  <SCORE.SYSTEM.DIHEDRAL>
0

>  <SCORE.SYSTEM.SOLV>
0

>  <SCORE.SYSTEM.norm>
0

>  <SCORE.heavy>
27

>  <SCORE.norm>
-0.587553

>  <RMSD>
5.138

$$$$
ligand
 OpenBabel11021811433D
libRbt.so/2013.1/901 2013/11/27
 27 29  0  0  0  0  0  0  0  0999 V2000
   45.2742   54.6897   29.5298 N   0  0  0  0  0  0  0  0  0  0  0  0
   45.6563   54.6112   30.9432 C   0  0  2  0  0  0  0  0  0  0  0  0
   47.0287   53.9726   31.0620 C   0  0  0  0  0  0  0  0  0  0  0  0
   47.9168   54.5402   31.6917 O   0  0  0  0  0  0  0  0  0  0  0  0
   44.6261   53.7901   31.7440 C   0  0  0  0  0  0  0  0  0  0  0  0
   45.0068   53.8126   33.2236 C   0  0  0  0  0  0  0  0  0  0  0  0
   43.8806   52.8765   34.3370 S   0  0  2  0  0  0  0  0  0  0  0  0
   42.2928   53.7556   34.2019 C   0  0  0  0  0  0  0  0  0  0  0  0
   44.5314   53.5553   35.8780 C   0  0  0  0  0  0  0  0  0  0  0  0
   45.8423   52.8966   36.3416 C   0  0  1  0  0  0  0  0  0  0  0  0
   46.8708   53.1201   35.3321 O   0  0  0  0  0  0  0  0  0  0  0  0
   46.2353   53.7386   37.5282 C   0  0  1  0  0  0  0  0  0  0  0  0
   45.7965   53.1115   38.7335 O   0  0  0  0  0  0  0  0  0  0  0  0
   47.7576   53.7707   37.4700 C   0  0  1  0  0  0  0  0  0  0  0  0
   48.3475   52.7956   38.3218 O   0  0  0  0  0  0  0  0  0  0  0  0
   48.1459   53.5036   35.9700 C   0  0  2  0  0  0  0  0  0  0  0  0
   47.2748   52.9179   30.4764 O   0  0  0  0  0  0  0  0  0  0  0  0
   46.8981   57.7904   33.2045 N   0  0  0  0  0  0  0  0  0  0  0  0
   46.0666   56.8818   33.7260 C   0  0  0  0  0  0  0  0  0  0  0  0
   46.5218   55.8522   34.4223 N   0  0  0  0  0  0  0  0  0  0  0  0
   47.8383   55.6591   34.6066 C   0  0  0  0  0  0  0  0  0  0  0  0
   48.7607   56.5882   34.0606 C   0  0  0  0  0  0  0  0  0  0  0  0
   48.2304   57.6872   33.3387 C   0  0  0  0  0  0  0  0  0  0  0  0
   49.0646   58.6310   32.7828 N   0  0  0  0  0  0  0  0  0  0  0  0
   49.9991   56.1647   34.3834 N   0  0  0  0  0  0  0  0  0  0  0  0
   49.9072   55.0611   35.0660 C   0  0  0  0  0  0  0  0  0  0  0  0
   48.5985   54.7053   35.2384 N   0  0  0  0  0  0  0  0  0  0  0  0
  2  1  1  6  0  0  0
  2  3  1  0  0  0  0
  2  5  1  0  0  0  0
  3  4  1  0  0  0  0
  3 17  1  0  0  0  0
  5  6  1  0  0  0  0
  7  6  1  6  0  0  0
  7  8  1  0  0  0  0
  7  9  1  0  0  0  0
 10  9  1  6  0  0  0
 10 11  1  0  0  0  0
 10 12  1  0  0  0  0
 11 16  1  0  0  0  0
 12 13  1  1  0  0  0
 12 14  1  0  0  0  0
 14 15  1  1  0  0  0
 14 16  1  0  0  0  0
 16 27  1  6  0  0  0
 18 19  2  0  0  0  0
 18 23  1  0  0  0  0
 19 20  1  0  0  0  0
 20 21  2  0  0  0  0
 21 22  1  0  0  0  0
 21 27  1  0  0  0  0
 22 23  2  0  0  0  0
 22 25  1  0  0  0  0
 23 24  1  0  0  0  0
 25 26  2  0  0  0  0
 26 27  1  0  0  0  0
M  END
>  <CHROM.1>
127.00383433,-176.13188212,-179.97766840,-63.91027603,-79.64426444,61.64072422
29.16067176,46.65665248,54.53562439,34.23080874,1.50735145,-0.58229481,-1.24458602

>  <Name>
ligand

>  <RI>
0

>  <Rbt.Current_Directory>
/home/itssahil/PROJECTS/Mol_Feturizer/New_Systems/rnas/2GIS

>  <Rbt.Executable>
rbdock ($Id: //depot/dev/client3/rdock/2013.1/src/exe/rbdock.cxx#4 $)

>  <Rbt.Library>
libRbt.so (2013.1, Build901 2013/11/27)

>  <Rbt.Parameter_File>
/export/apps/rDock/src/rDock_2013.1_src/data/scripts/dock_solv.prm

>  <Rbt.Receptor>
prm/pocket_docking_8.prm

>  <SCORE>
-20.0301

>  <SCORE.INTER>
-12.855

>  <SCORE.INTER.CONST>
1

>  <SCORE.INTER.POLAR>
0

>  <SCORE.INTER.ROT>
7

>  <SCORE.INTER.SOLV>
10.6609

>  <SCORE.INTER.VDW>
-20.3903

>  <SCORE.INTER.norm>
-0.476111

>  <SCORE.INTRA>
-7.17513

>  <SCORE.INTRA.DIHEDRAL>
-5.55561

>  <SCORE.INTRA.DIHEDRAL.0>
9.40024

>  <SCORE.INTRA.POLAR>
0

>  <SCORE.INTRA.POLAR.0>
0

>  <SCORE.INTRA.REPUL>
0

>  <SCORE.INTRA.REPUL.0>
0

>  <SCORE.INTRA.SOLV>
-2.95879

>  <SCORE.INTRA.SOLV.lig_0>
-47.1049

>  <SCORE.INTRA.VDW>
-2.91793

>  <SCORE.INTRA.VDW.0>
-1.50278

>  <SCORE.INTRA.norm>
-0.265746

>  <SCORE.RESTR>
0

>  <SCORE.RESTR.CAVITY>
0

>  <SCORE.RESTR.norm>
0

>  <SCORE.SYSTEM>
0

>  <SCORE.SYSTEM.CONST>
0

>  <SCORE.SYSTEM.DIHEDRAL>
0

>  <SCORE.SYSTEM.SOLV>
0

>  <SCORE.SYSTEM.norm>
0

>  <SCORE.heavy>
27

>  <SCORE.norm>
-0.741857

>  <RMSD>
5.147

$$$$
ligand
 OpenBabel11021811433D
libRbt.so/2013.1/901 2013/11/27
 27 29  0  0  0  0  0  0  0  0999 V2000
   47.9710   58.4311   28.1636 N   0  0  0  0  0  0  0  0  0  0  0  0
   47.9229   57.5908   29.3642 C   0  0  2  0  0  0  0  0  0  0  0  0
   46.5318   57.0011   29.5142 C   0  0  0  0  0  0  0  0  0  0  0  0
   45.5747   57.5404   28.9661 O   0  0  0  0  0  0  0  0  0  0  0  0
   48.2824   58.4095   30.6201 C   0  0  0  0  0  0  0  0  0  0  0  0
   48.5939   57.4535   31.7706 C   0  0  0  0  0  0  0  0  0  0  0  0
   48.8664   58.2550   33.4039 S   0  0  2  0  0  0  0  0  0  0  0  0
   50.3677   59.2548   33.1617 C   0  0  0  0  0  0  0  0  0  0  0  0
   49.5417   56.7938   34.2210 C   0  0  0  0  0  0  0  0  0  0  0  0
   48.4683   55.8355   34.7656 C   0  0  1  0  0  0  0  0  0  0  0  0
   47.4883   55.5727   33.7180 O   0  0  0  0  0  0  0  0  0  0  0  0
   49.2335   54.5502   34.9500 C   0  0  1  0  0  0  0  0  0  0  0  0
   49.6594   54.4307   36.3076 O   0  0  0  0  0  0  0  0  0  0  0  0
   48.2182   53.4647   34.6145 C   0  0  1  0  0  0  0  0  0  0  0  0
   47.5965   52.9335   35.7789 O   0  0  0  0  0  0  0  0  0  0  0  0
   47.1517   54.1359   33.6742 C   0  0  2  0  0  0  0  0  0  0  0  0
   46.3485   56.0202   30.2354 O   0  0  0  0  0  0  0  0  0  0  0  0
   50.2597   53.0889   29.5723 N   0  0  0  0  0  0  0  0  0  0  0  0
   50.6274   53.4360   30.8106 C   0  0  0  0  0  0  0  0  0  0  0  0
   49.7301   53.6538   31.7591 N   0  0  0  0  0  0  0  0  0  0  0  0
   48.4131   53.5672   31.5098 C   0  0  0  0  0  0  0  0  0  0  0  0
   47.9732   53.2158   30.2077 C   0  0  0  0  0  0  0  0  0  0  0  0
   48.9672   52.9718   29.2265 C   0  0  0  0  0  0  0  0  0  0  0  0
   48.6157   52.6233   27.9417 N   0  0  0  0  0  0  0  0  0  0  0  0
   46.6254   53.2031   30.2266 N   0  0  0  0  0  0  0  0  0  0  0  0
   46.2133   53.5233   31.4182 C   0  0  0  0  0  0  0  0  0  0  0  0
   47.2722   53.7533   32.2517 N   0  0  0  0  0  0  0  0  0  0  0  0
  2  1  1  6  0  0  0
  2  3  1  0  0  0  0
  2  5  1  0  0  0  0
  3  4  1  0  0  0  0
  3 17  1  0  0  0  0
  5  6  1  0  0  0  0
  7  6  1  6  0  0  0
  7  8  1  0  0  0  0
  7  9  1  0  0  0  0
 10  9  1  6  0  0  0
 10 11  1  0  0  0  0
 10 12  1  0  0  0  0
 11 16  1  0  0  0  0
 12 13  1  1  0  0  0
 12 14  1  0  0  0  0
 14 15  1  1  0  0  0
 14 16  1  0  0  0  0
 16 27  1  6  0  0  0
 18 19  2  0  0  0  0
 18 23  1  0  0  0  0
 19 20  1  0  0  0  0
 20 21  2  0  0  0  0
 21 22  1  0  0  0  0
 21 27  1  0  0  0  0
 22 23  2  0  0  0  0
 22 25  1  0  0  0  0
 23 24  1  0  0  0  0
 25 26  2  0  0  0  0
 26 27  1  0  0  0  0
M  END
>  <CHROM.1>
-21.78821359,-164.73054131,-173.61177348,-64.37824723,-83.52256023,49.42400643
74.28165920,48.25691466,55.40531949,31.91276280,-2.93094676,1.36691856,3.10562331

>  <Name>
ligand

>  <RI>
0

>  <Rbt.Current_Directory>
/home/itssahil/PROJECTS/Mol_Feturizer/New_Systems/rnas/2GIS

>  <Rbt.Executable>
rbdock ($Id: //depot/dev/client3/rdock/2013.1/src/exe/rbdock.cxx#4 $)

>  <Rbt.Library>
libRbt.so (2013.1, Build901 2013/11/27)

>  <Rbt.Parameter_File>
/export/apps/rDock/src/rDock_2013.1_src/data/scripts/dock_solv.prm

>  <Rbt.Receptor>
prm/pocket_docking_7.prm

>  <SCORE>
-20.0166

>  <SCORE.INTER>
-13.7046

>  <SCORE.INTER.CONST>
1

>  <SCORE.INTER.POLAR>
0

>  <SCORE.INTER.ROT>
7

>  <SCORE.INTER.SOLV>
12.0119

>  <SCORE.INTER.VDW>
-21.407

>  <SCORE.INTER.norm>
-0.507578

>  <SCORE.INTRA>
-6.312

>  <SCORE.INTRA.DIHEDRAL>
-4.13558

>  <SCORE.INTRA.DIHEDRAL.0>
9.40024

>  <SCORE.INTRA.POLAR>
0

>  <SCORE.INTRA.POLAR.0>
0

>  <SCORE.INTRA.REPUL>
0

>  <SCORE.INTRA.REPUL.0>
0

>  <SCORE.INTRA.SOLV>
-2.95027

>  <SCORE.INTRA.SOLV.lig_0>
-47.1049

>  <SCORE.INTRA.VDW>
-2.76908

>  <SCORE.INTRA.VDW.0>
-1.50278

>  <SCORE.INTRA.norm>
-0.233778

>  <SCORE.RESTR>
0

>  <SCORE.RESTR.CAVITY>
0

>  <SCORE.RESTR.norm>
0

>  <SCORE.SYSTEM>
0

>  <SCORE.SYSTEM.CONST>
0

>  <SCORE.SYSTEM.DIHEDRAL>
0

>  <SCORE.SYSTEM.SOLV>
0

>  <SCORE.SYSTEM.norm>
0

>  <SCORE.heavy>
27

>  <SCORE.norm>
-0.741356

>  <RMSD>
5.173

$$$$
ligand
 OpenBabel11021811433D
libRbt.so/2013.1/901 2013/11/27
 27 29  0  0  0  0  0  0  0  0999 V2000
   48.9119   53.1218   25.6255 N   0  0  0  0  0  0  0  0  0  0  0  0
   48.7422   54.1093   26.6959 C   0  0  2  0  0  0  0  0  0  0  0  0
   47.2663   54.2558   27.0205 C   0  0  0  0  0  0  0  0  0  0  0  0
   46.8709   54.0823   28.1699 O   0  0  0  0  0  0  0  0  0  0  0  0
   49.3240   55.4746   26.2784 C   0  0  0  0  0  0  0  0  0  0  0  0
   49.4386   56.3699   27.5113 C   0  0  0  0  0  0  0  0  0  0  0  0
   47.8480   57.0512   28.1358 S   0  0  2  0  0  0  0  0  0  0  0  0
   47.4240   58.3547   26.9387 C   0  0  0  0  0  0  0  0  0  0  0  0
   48.5712   58.0217   29.4752 C   0  0  0  0  0  0  0  0  0  0  0  0
   47.6703   59.1674   29.9680 C   0  0  1  0  0  0  0  0  0  0  0  0
   46.3086   58.6692   30.1246 O   0  0  0  0  0  0  0  0  0  0  0  0
   48.1838   59.4172   31.3627 C   0  0  1  0  0  0  0  0  0  0  0  0
   49.1139   60.5004   31.3495 O   0  0  0  0  0  0  0  0  0  0  0  0
   46.9374   59.7970   32.1526 C   0  0  1  0  0  0  0  0  0  0  0  0
   46.7799   61.2070   32.2604 O   0  0  0  0  0  0  0  0  0  0  0  0
   45.7207   59.1605   31.3866 C   0  0  2  0  0  0  0  0  0  0  0  0
   46.4539   54.4854   26.1243 O   0  0  0  0  0  0  0  0  0  0  0  0
   42.4892   55.0290   31.1228 N   0  0  0  0  0  0  0  0  0  0  0  0
   42.7083   55.9582   30.1860 C   0  0  0  0  0  0  0  0  0  0  0  0
   43.5719   56.9422   30.3818 N   0  0  0  0  0  0  0  0  0  0  0  0
   44.2396   57.0673   31.5405 C   0  0  0  0  0  0  0  0  0  0  0  0
   44.0305   56.1142   32.5702 C   0  0  0  0  0  0  0  0  0  0  0  0
   43.1121   55.0653   32.3122 C   0  0  0  0  0  0  0  0  0  0  0  0
   42.8605   54.1019   33.2632 N   0  0  0  0  0  0  0  0  0  0  0  0
   44.8088   56.4684   33.6123 N   0  0  0  0  0  0  0  0  0  0  0  0
   45.4604   57.5523   33.3079 C   0  0  0  0  0  0  0  0  0  0  0  0
   45.1526   57.9633   32.0408 N   0  0  0  0  0  0  0  0  0  0  0  0
  2  1  1  6  0  0  0
  2  3  1  0  0  0  0
  2  5  1  0  0  0  0
  3  4  1  0  0  0  0
  3 17  1  0  0  0  0
  5  6  1  0  0  0  0
  7  6  1  6  0  0  0
  7  8  1  0  0  0  0
  7  9  1  0  0  0  0
 10  9  1  1  0  0  0
 10 11  1  0  0  0  0
 10 12  1  0  0  0  0
 11 16  1  0  0  0  0
 12 13  1  6  0  0  0
 12 14  1  0  0  0  0
 14 15  1  6  0  0  0
 14 16  1  0  0  0  0
 16 27  1  1  0  0  0
 18 19  2  0  0  0  0
 18 23  1  0  0  0  0
 19 20  1  0  0  0  0
 20 21  2  0  0  0  0
 21 22  1  0  0  0  0
 21 27  1  0  0  0  0
 22 23  2  0  0  0  0
 22 25  1  0  0  0  0
 23 24  1  0  0  0  0
 25 26  2  0  0  0  0
 26 27  1  0  0  0  0
M  END
>  <CHROM.1>
124.18864923,-166.44680131,-74.36373778,-74.64924215,158.83631379,45.15509651
-55.57669421,46.43352712,56.91447999,29.88881338,0.86798068,-0.67030832,-2.45121147

>  <Name>
ligand

>  <RI>
0

>  <Rbt.Current_Directory>
/home/itssahil/PROJECTS/Mol_Feturizer/New_Systems/rnas/2GIS

>  <Rbt.Executable>
rbdock ($Id: //depot/dev/client3/rdock/2013.1/src/exe/rbdock.cxx#4 $)

>  <Rbt.Library>
libRbt.so (2013.1, Build901 2013/11/27)

>  <Rbt.Parameter_File>
/export/apps/rDock/src/rDock_2013.1_src/data/scripts/dock_solv.prm

>  <Rbt.Receptor>
prm/pocket_docking_8.prm

>  <SCORE>
-15.5343

>  <SCORE.INTER>
-11.502

>  <SCORE.INTER.CONST>
1

>  <SCORE.INTER.POLAR>
0

>  <SCORE.INTER.ROT>
7

>  <SCORE.INTER.SOLV>
9.04209

>  <SCORE.INTER.VDW>
-18.9487

>  <SCORE.INTER.norm>
-0.425999

>  <SCORE.INTRA>
-4.08319

>  <SCORE.INTRA.DIHEDRAL>
-3.35978

>  <SCORE.INTRA.DIHEDRAL.0>
9.40024

>  <SCORE.INTRA.POLAR>
0

>  <SCORE.INTRA.POLAR.0>
0

>  <SCORE.INTRA.REPUL>
0

>  <SCORE.INTRA.REPUL.0>
0

>  <SCORE.INTRA.SOLV>
-2.89547

>  <SCORE.INTRA.SOLV.lig_0>
-47.1049

>  <SCORE.INTRA.VDW>
-0.955569

>  <SCORE.INTRA.VDW.0>
-1.50278

>  <SCORE.INTRA.norm>
-0.151229

>  <SCORE.RESTR>
0.0508321

>  <SCORE.RESTR.CAVITY>
0.0508321

>  <SCORE.RESTR.norm>
0.00188267

>  <SCORE.SYSTEM>
0

>  <SCORE.SYSTEM.CONST>
0

>  <SCORE.SYSTEM.DIHEDRAL>
0

>  <SCORE.SYSTEM.SOLV>
0

>  <SCORE.SYSTEM.norm>
0

>  <SCORE.heavy>
27

>  <SCORE.norm>
-0.575346

>  <RMSD>
5.175

$$$$
ligand
 OpenBabel11021811433D
libRbt.so/2013.1/901 2013/11/27
 27 29  0  0  0  0  0  0  0  0999 V2000
   50.3568   54.2590   30.8128 N   0  0  0  0  0  0  0  0  0  0  0  0
   49.9997   54.7287   29.4705 C   0  0  2  0  0  0  0  0  0  0  0  0
   50.5511   53.7662   28.4338 C   0  0  0  0  0  0  0  0  0  0  0  0
   49.7955   53.2420   27.6203 O   0  0  0  0  0  0  0  0  0  0  0  0
   50.5573   56.1440   29.2194 C   0  0  0  0  0  0  0  0  0  0  0  0
   49.8686   56.7450   27.9950 C   0  0  0  0  0  0  0  0  0  0  0  0
   48.0580   57.0193   28.1698 S   0  0  2  0  0  0  0  0  0  0  0  0
   47.5977   57.9172   26.6552 C   0  0  0  0  0  0  0  0  0  0  0  0
   48.1858   58.3718   29.3586 C   0  0  0  0  0  0  0  0  0  0  0  0
   46.8360   58.7973   29.9621 C   0  0  1  0  0  0  0  0  0  0  0  0
   46.2275   57.6498   30.6252 O   0  0  0  0  0  0  0  0  0  0  0  0
   47.2471   59.7424   31.0617 C   0  0  1  0  0  0  0  0  0  0  0  0
   47.1700   61.0900   30.5961 O   0  0  0  0  0  0  0  0  0  0  0  0
   46.2191   59.5003   32.1600 C   0  0  1  0  0  0  0  0  0  0  0  0
   45.1607   60.4504   32.1227 O   0  0  0  0  0  0  0  0  0  0  0  0
   45.6666   58.0461   31.9321 C   0  0  2  0  0  0  0  0  0  0  0  0
   51.7434   53.4591   28.4447 O   0  0  0  0  0  0  0  0  0  0  0  0
   49.5518   56.4566   35.0881 N   0  0  0  0  0  0  0  0  0  0  0  0
   49.5197   57.5472   34.3144 C   0  0  0  0  0  0  0  0  0  0  0  0
   48.4586   57.8374   33.5782 N   0  0  0  0  0  0  0  0  0  0  0  0
   47.3835   57.0325   33.5520 C   0  0  0  0  0  0  0  0  0  0  0  0
   47.3758   55.8563   34.3449 C   0  0  0  0  0  0  0  0  0  0  0  0
   48.5241   55.5931   35.1337 C   0  0  0  0  0  0  0  0  0  0  0  0
   48.5873   54.4722   35.9308 N   0  0  0  0  0  0  0  0  0  0  0  0
   46.1977   55.2356   34.1349 N   0  0  0  0  0  0  0  0  0  0  0  0
   45.4992   55.9255   33.2815 C   0  0  0  0  0  0  0  0  0  0  0  0
   46.1788   57.0462   32.8924 N   0  0  0  0  0  0  0  0  0  0  0  0
  2  1  1  1  0  0  0
  2  3  1  0  0  0  0
  2  5  1  0  0  0  0
  3  4  1  0  0  0  0
  3 17  1  0  0  0  0
  5  6  1  0  0  0  0
  7  6  1  6  0  0  0
  7  8  1  0  0  0  0
  7  9  1  0  0  0  0
 10  9  1  1  0  0  0
 10 11  1  0  0  0  0
 10 12  1  0  0  0  0
 11 16  1  0  0  0  0
 12 13  1  6  0  0  0
 12 14  1  0  0  0  0
 14 15  1  6  0  0  0
 14 16  1  0  0  0  0
 16 27  1  1  0  0  0
 18 19  2  0  0  0  0
 18 23  1  0  0  0  0
 19 20  1  0  0  0  0
 20 21  2  0  0  0  0
 21 22  1  0  0  0  0
 21 27  1  0  0  0  0
 22 23  2  0  0  0  0
 22 25  1  0  0  0  0
 23 24  1  0  0  0  0
 25 26  2  0  0  0  0
 26 27  1  0  0  0  0
M  END
>  <CHROM.1>
123.69656979,-164.96244846,63.99624481,173.17588294,-171.41023473,58.53256656
84.38098398,48.09851697,56.84338942,31.11797059,-0.73643080,-0.93139074,1.86938884

>  <Name>
ligand

>  <RI>
0

>  <Rbt.Current_Directory>
/home/itssahil/PROJECTS/Mol_Feturizer/New_Systems/rnas/2GIS

>  <Rbt.Executable>
rbdock ($Id: //depot/dev/client3/rdock/2013.1/src/exe/rbdock.cxx#4 $)

>  <Rbt.Library>
libRbt.so (2013.1, Build901 2013/11/27)

>  <Rbt.Parameter_File>
/export/apps/rDock/src/rDock_2013.1_src/data/scripts/dock_solv.prm

>  <Rbt.Receptor>
prm/pocket_docking_3.prm

>  <SCORE>
-16.6493

>  <SCORE.INTER>
-11.2786

>  <SCORE.INTER.CONST>
1

>  <SCORE.INTER.POLAR>
0

>  <SCORE.INTER.ROT>
7

>  <SCORE.INTER.SOLV>
16.0751

>  <SCORE.INTER.VDW>
-21.1441

>  <SCORE.INTER.norm>
-0.417725

>  <SCORE.INTRA>
-5.37071

>  <SCORE.INTRA.DIHEDRAL>
-4.54763

>  <SCORE.INTRA.DIHEDRAL.0>
9.40024

>  <SCORE.INTRA.POLAR>
0

>  <SCORE.INTRA.POLAR.0>
0

>  <SCORE.INTRA.REPUL>
0

>  <SCORE.INTRA.REPUL.0>
0

>  <SCORE.INTRA.SOLV>
-2.90915

>  <SCORE.INTRA.SOLV.lig_0>
-47.1049

>  <SCORE.INTRA.VDW>
-1.64231

>  <SCORE.INTRA.VDW.0>
-1.50278

>  <SCORE.INTRA.norm>
-0.198915

>  <SCORE.RESTR>
0

>  <SCORE.RESTR.CAVITY>
0

>  <SCORE.RESTR.norm>
0

>  <SCORE.SYSTEM>
0

>  <SCORE.SYSTEM.CONST>
0

>  <SCORE.SYSTEM.DIHEDRAL>
0

>  <SCORE.SYSTEM.SOLV>
0

>  <SCORE.SYSTEM.norm>
0

>  <SCORE.heavy>
27

>  <SCORE.norm>
-0.61664

>  <RMSD>
5.178

$$$$
ligand
 OpenBabel11021811433D
libRbt.so/2013.1/901 2013/11/27
 27 29  0  0  0  0  0  0  0  0999 V2000
   48.4923   53.8687   27.7344 N   0  0  0  0  0  0  0  0  0  0  0  0
   47.0916   54.2627   27.5538 C   0  0  2  0  0  0  0  0  0  0  0  0
   46.3185   53.1135   26.9317 C   0  0  0  0  0  0  0  0  0  0  0  0
   45.3777   52.6081   27.5376 O   0  0  0  0  0  0  0  0  0  0  0  0
   46.9856   55.5114   26.6557 C   0  0  0  0  0  0  0  0  0  0  0  0
   47.6433   56.6956   27.3626 C   0  0  0  0  0  0  0  0  0  0  0  0
   46.8921   57.1611   28.9760 S   0  0  2  0  0  0  0  0  0  0  0  0
   45.2001   57.6746   28.5451 C   0  0  0  0  0  0  0  0  0  0  0  0
   47.7220   58.7580   29.1170 C   0  0  0  0  0  0  0  0  0  0  0  0
   47.7051   59.3428   30.5400 C   0  0  1  0  0  0  0  0  0  0  0  0
   46.3641   59.2043   31.0961 O   0  0  0  0  0  0  0  0  0  0  0  0
   48.5738   58.3782   31.3057 C   0  0  1  0  0  0  0  0  0  0  0  0
   49.9048   58.8878   31.3908 O   0  0  0  0  0  0  0  0  0  0  0  0
   47.9361   58.3249   32.6885 C   0  0  1  0  0  0  0  0  0  0  0  0
   48.5792   59.1980   33.6096 O   0  0  0  0  0  0  0  0  0  0  0  0
   46.4308   58.7354   32.4945 C   0  0  2  0  0  0  0  0  0  0  0  0
   46.6701   52.6433   25.8495 O   0  0  0  0  0  0  0  0  0  0  0  0
   45.1254   54.1244   34.6430 N   0  0  0  0  0  0  0  0  0  0  0  0
   46.2013   54.8745   34.9052 C   0  0  0  0  0  0  0  0  0  0  0  0
   46.3961   56.0342   34.2974 N   0  0  0  0  0  0  0  0  0  0  0  0
   45.5393   56.4904   33.3690 C   0  0  0  0  0  0  0  0  0  0  0  0
   44.3904   55.7236   33.0461 C   0  0  0  0  0  0  0  0  0  0  0  0
   44.2093   54.4974   33.7344 C   0  0  0  0  0  0  0  0  0  0  0  0
   43.1161   53.7013   33.4758 N   0  0  0  0  0  0  0  0  0  0  0  0
   43.7099   56.3962   32.0966 N   0  0  0  0  0  0  0  0  0  0  0  0
   44.3483   57.4933   31.8118 C   0  0  0  0  0  0  0  0  0  0  0  0
   45.4805   57.6060   32.5697 N   0  0  0  0  0  0  0  0  0  0  0  0
  2  1  1  6  0  0  0
  2  3  1  0  0  0  0
  2  5  1  0  0  0  0
  3  4  1  0  0  0  0
  3 17  1  0  0  0  0
  5  6  1  0  0  0  0
  7  6  1  6  0  0  0
  7  8  1  0  0  0  0
  7  9  1  0  0  0  0
 10  9  1  6  0  0  0
 10 11  1  0  0  0  0
 10 12  1  0  0  0  0
 11 16  1  0  0  0  0
 12 13  1  1  0  0  0
 12 14  1  0  0  0  0
 14 15  1  1  0  0  0
 14 16  1  0  0  0  0
 16 27  1  6  0  0  0
 18 19  2  0  0  0  0
 18 23  1  0  0  0  0
 19 20  1  0  0  0  0
 20 21  2  0  0  0  0
 21 22  1  0  0  0  0
 21 27  1  0  0  0  0
 22 23  2  0  0  0  0
 22 25  1  0  0  0  0
 23 24  1  0  0  0  0
 25 26  2  0  0  0  0
 26 27  1  0  0  0  0
M  END
>  <CHROM.1>
118.84080598,-64.74491611,-60.72175994,-63.26168225,-162.87141619,-45.25380449
149.09985350,46.45381665,56.40184367,30.70104438,1.39931964,-0.95056481,-2.10981112

>  <Name>
ligand

>  <RI>
0

>  <Rbt.Current_Directory>
/home/itssahil/PROJECTS/Mol_Feturizer/New_Systems/rnas/2GIS

>  <Rbt.Executable>
rbdock ($Id: //depot/dev/client3/rdock/2013.1/src/exe/rbdock.cxx#4 $)

>  <Rbt.Library>
libRbt.so (2013.1, Build901 2013/11/27)

>  <Rbt.Parameter_File>
/export/apps/rDock/src/rDock_2013.1_src/data/scripts/dock_solv.prm

>  <Rbt.Receptor>
prm/pocket_docking_8.prm

>  <SCORE>
-15.6932

>  <SCORE.INTER>
-11.6436

>  <SCORE.INTER.CONST>
1

>  <SCORE.INTER.POLAR>
0

>  <SCORE.INTER.ROT>
7

>  <SCORE.INTER.SOLV>
8.13158

>  <SCORE.INTER.VDW>
-18.7396

>  <SCORE.INTER.norm>
-0.431246

>  <SCORE.INTRA>
-4.04958

>  <SCORE.INTRA.DIHEDRAL>
-3.71509

>  <SCORE.INTRA.DIHEDRAL.0>
9.40024

>  <SCORE.INTRA.POLAR>
0

>  <SCORE.INTRA.POLAR.0>
0

>  <SCORE.INTRA.REPUL>
0

>  <SCORE.INTRA.REPUL.0>
0

>  <SCORE.INTRA.SOLV>
-1.57287

>  <SCORE.INTRA.SOLV.lig_0>
-47.1049

>  <SCORE.INTRA.VDW>
-1.40559

>  <SCORE.INTRA.VDW.0>
-1.50278

>  <SCORE.INTRA.norm>
-0.149984

>  <SCORE.RESTR>
0

>  <SCORE.RESTR.CAVITY>
0

>  <SCORE.RESTR.norm>
0

>  <SCORE.SYSTEM>
0

>  <SCORE.SYSTEM.CONST>
0

>  <SCORE.SYSTEM.DIHEDRAL>
0

>  <SCORE.SYSTEM.SOLV>
0

>  <SCORE.SYSTEM.norm>
0

>  <SCORE.heavy>
27

>  <SCORE.norm>
-0.58123

>  <RMSD>
5.178

$$$$
ligand
 OpenBabel11021811433D
libRbt.so/2013.1/901 2013/11/27
 27 29  0  0  0  0  0  0  0  0999 V2000
   47.3093   56.2315   28.9815 N   0  0  0  0  0  0  0  0  0  0  0  0
   46.5187   57.3797   28.5271 C   0  0  2  0  0  0  0  0  0  0  0  0
   47.4185   58.3532   27.7870 C   0  0  0  0  0  0  0  0  0  0  0  0
   47.0305   58.8778   26.7470 O   0  0  0  0  0  0  0  0  0  0  0  0
   45.8490   58.0899   29.7205 C   0  0  0  0  0  0  0  0  0  0  0  0
   45.0769   57.0627   30.5472 C   0  0  0  0  0  0  0  0  0  0  0  0
   46.0957   56.0692   31.7130 S   0  0  2  0  0  0  0  0  0  0  0  0
   44.8992   54.9471   32.5013 C   0  0  0  0  0  0  0  0  0  0  0  0
   46.2551   57.3562   32.9687 C   0  0  0  0  0  0  0  0  0  0  0  0
   47.7086   57.7803   33.2418 C   0  0  1  0  0  0  0  0  0  0  0  0
   48.5472   56.5892   33.3123 O   0  0  0  0  0  0  0  0  0  0  0  0
   48.0942   58.4847   31.9665 C   0  0  1  0  0  0  0  0  0  0  0  0
   47.9266   59.8941   32.1219 O   0  0  0  0  0  0  0  0  0  0  0  0
   49.5678   58.1417   31.7863 C   0  0  1  0  0  0  0  0  0  0  0  0
   50.4214   59.1674   32.2802 O   0  0  0  0  0  0  0  0  0  0  0  0
   49.8054   56.7987   32.5687 C   0  0  2  0  0  0  0  0  0  0  0  0
   48.5611   58.5713   28.1907 O   0  0  0  0  0  0  0  0  0  0  0  0
   51.4135   54.7537   28.0065 N   0  0  0  0  0  0  0  0  0  0  0  0
   51.4939   56.0276   28.4064 C   0  0  0  0  0  0  0  0  0  0  0  0
   51.0623   56.4024   29.6003 N   0  0  0  0  0  0  0  0  0  0  0  0
   50.4962   55.5263   30.4466 C   0  0  0  0  0  0  0  0  0  0  0  0
   50.3755   54.1663   30.0620 C   0  0  0  0  0  0  0  0  0  0  0  0
   50.8683   53.8032   28.7831 C   0  0  0  0  0  0  0  0  0  0  0  0
   50.7883   52.5011   28.3429 N   0  0  0  0  0  0  0  0  0  0  0  0
   49.7779   53.5111   31.0773 N   0  0  0  0  0  0  0  0  0  0  0  0
   49.5196   54.3537   32.0342 C   0  0  0  0  0  0  0  0  0  0  0  0
   49.9454   55.6097   31.7022 N   0  0  0  0  0  0  0  0  0  0  0  0
  2  1  1  1  0  0  0
  2  3  1  0  0  0  0
  2  5  1  0  0  0  0
  3  4  1  0  0  0  0
  3 17  1  0  0  0  0
  5  6  1  0  0  0  0
  7  6  1  6  0  0  0
  7  8  1  0  0  0  0
  7  9  1  0  0  0  0
 10  9  1  6  0  0  0
 10 11  1  0  0  0  0
 10 12  1  0  0  0  0
 11 16  1  0  0  0  0
 12 13  1  1  0  0  0
 12 14  1  0  0  0  0
 14 15  1  1  0  0  0
 14 16  1  0  0  0  0
 16 27  1  6  0  0  0
 18 19  2  0  0  0  0
 18 23  1  0  0  0  0
 19 20  1  0  0  0  0
 20 21  2  0  0  0  0
 21 22  1  0  0  0  0
 21 27  1  0  0  0  0
 22 23  2  0  0  0  0
 22 25  1  0  0  0  0
 23 24  1  0  0  0  0
 25 26  2  0  0  0  0
 26 27  1  0  0  0  0
M  END
>  <CHROM.1>
137.36565149,-52.43705195,80.64883621,-179.03713172,-119.24903446,-43.26567901
146.59861840,48.45331232,56.58354696,30.57335054,2.88966700,-0.71397302,1.82306407

>  <Name>
ligand

>  <RI>
0

>  <Rbt.Current_Directory>
/home/itssahil/PROJECTS/Mol_Feturizer/New_Systems/rnas/2GIS

>  <Rbt.Executable>
rbdock ($Id: //depot/dev/client3/rdock/2013.1/src/exe/rbdock.cxx#4 $)

>  <Rbt.Library>
libRbt.so (2013.1, Build901 2013/11/27)

>  <Rbt.Parameter_File>
/export/apps/rDock/src/rDock_2013.1_src/data/scripts/dock_solv.prm

>  <Rbt.Receptor>
prm/pocket_docking_3.prm

>  <SCORE>
-12.2526

>  <SCORE.INTER>
-10.4394

>  <SCORE.INTER.CONST>
1

>  <SCORE.INTER.POLAR>
0

>  <SCORE.INTER.ROT>
7

>  <SCORE.INTER.SOLV>
10.1183

>  <SCORE.INTER.VDW>
-18.5991

>  <SCORE.INTER.norm>
-0.386645

>  <SCORE.INTRA>
-1.81503

>  <SCORE.INTRA.DIHEDRAL>
1.05691

>  <SCORE.INTRA.DIHEDRAL.0>
9.40024

>  <SCORE.INTRA.POLAR>
0

>  <SCORE.INTRA.POLAR.0>
0

>  <SCORE.INTRA.REPUL>
0

>  <SCORE.INTRA.REPUL.0>
0

>  <SCORE.INTRA.SOLV>
1.26913

>  <SCORE.INTRA.SOLV.lig_0>
-47.1049

>  <SCORE.INTRA.VDW>
-2.97805

>  <SCORE.INTRA.VDW.0>
-1.50278

>  <SCORE.INTRA.norm>
-0.0672234

>  <SCORE.RESTR>
0.00185282

>  <SCORE.RESTR.CAVITY>
0.00185282

>  <SCORE.RESTR.norm>
6.86231e-05

>  <SCORE.SYSTEM>
0

>  <SCORE.SYSTEM.CONST>
0

>  <SCORE.SYSTEM.DIHEDRAL>
0

>  <SCORE.SYSTEM.SOLV>
0

>  <SCORE.SYSTEM.norm>
0

>  <SCORE.heavy>
27

>  <SCORE.norm>
-0.4538

>  <RMSD>
5.186

$$$$
ligand
 OpenBabel11021811433D
libRbt.so/2013.1/901 2013/11/27
 27 29  0  0  0  0  0  0  0  0999 V2000
   48.5804   53.4478   29.8824 N   0  0  0  0  0  0  0  0  0  0  0  0
   49.2930   54.6853   30.2149 C   0  0  2  0  0  0  0  0  0  0  0  0
   50.7229   54.5970   29.7120 C   0  0  0  0  0  0  0  0  0  0  0  0
   51.3944   53.5960   29.9453 O   0  0  0  0  0  0  0  0  0  0  0  0
   49.2879   54.9277   31.7375 C   0  0  0  0  0  0  0  0  0  0  0  0
   49.9977   56.2470   32.0383 C   0  0  0  0  0  0  0  0  0  0  0  0
   49.6121   56.9885   33.6771 S   0  0  2  0  0  0  0  0  0  0  0  0
   49.6049   55.5684   34.8152 C   0  0  0  0  0  0  0  0  0  0  0  0
   47.8463   57.2088   33.3740 C   0  0  0  0  0  0  0  0  0  0  0  0
   47.4898   58.5645   32.7397 C   0  0  1  0  0  0  0  0  0  0  0  0
   48.3535   58.7931   31.5871 O   0  0  0  0  0  0  0  0  0  0  0  0
   46.1111   58.3182   32.1831 C   0  0  1  0  0  0  0  0  0  0  0  0
   45.1260   58.7836   33.1059 O   0  0  0  0  0  0  0  0  0  0  0  0
   46.0754   59.1474   30.9052 C   0  0  1  0  0  0  0  0  0  0  0  0
   45.4621   60.4155   31.1058 O   0  0  0  0  0  0  0  0  0  0  0  0
   47.5709   59.3208   30.4518 C   0  0  2  0  0  0  0  0  0  0  0  0
   51.2341   55.5512   29.1254 O   0  0  0  0  0  0  0  0  0  0  0  0
   46.7267   55.0071   27.5776 N   0  0  0  0  0  0  0  0  0  0  0  0
   46.0618   55.4085   28.6665 C   0  0  0  0  0  0  0  0  0  0  0  0
   46.3724   56.5367   29.2854 N   0  0  0  0  0  0  0  0  0  0  0  0
   47.3884   57.3085   28.8654 C   0  0  0  0  0  0  0  0  0  0  0  0
   48.1327   56.9176   27.7229 C   0  0  0  0  0  0  0  0  0  0  0  0
   47.7546   55.7128   27.0781 C   0  0  0  0  0  0  0  0  0  0  0  0
   48.4290   55.2716   25.9618 N   0  0  0  0  0  0  0  0  0  0  0  0
   49.0831   57.8521   27.5211 N   0  0  0  0  0  0  0  0  0  0  0  0
   48.9849   58.7651   28.4426 C   0  0  0  0  0  0  0  0  0  0  0  0
   47.9540   58.4841   29.2954 N   0  0  0  0  0  0  0  0  0  0  0  0
  2  1  1  1  0  0  0
  2  3  1  0  0  0  0
  2  5  1  0  0  0  0
  3  4  1  0  0  0  0
  3 17  1  0  0  0  0
  5  6  1  0  0  0  0
  7  6  1  6  0  0  0
  7  8  1  0  0  0  0
  7  9  1  0  0  0  0
 10  9  1  6  0  0  0
 10 11  1  0  0  0  0
 10 12  1  0  0  0  0
 11 16  1  0  0  0  0
 12 13  1  1  0  0  0
 12 14  1  0  0  0  0
 14 15  1  1  0  0  0
 14 16  1  0  0  0  0
 16 27  1  6  0  0  0
 18 19  2  0  0  0  0
 18 23  1  0  0  0  0
 19 20  1  0  0  0  0
 20 21  2  0  0  0  0
 21 22  1  0  0  0  0
 21 27  1  0  0  0  0
 22 23  2  0  0  0  0
 22 25  1  0  0  0  0
 23 24  1  0  0  0  0
 25 26  2  0  0  0  0
 26 27  1  0  0  0  0
M  END
>  <CHROM.1>
-48.06350466,-178.12351497,160.17610292,41.59742442,-89.63763203,49.70185400
89.24100230,48.25721758,56.81052820,30.49195362,-1.09424083,-0.80393965,1.30024396

>  <Name>
ligand

>  <RI>
0

>  <Rbt.Current_Directory>
/home/itssahil/PROJECTS/Mol_Feturizer/New_Systems/rnas/2GIS

>  <Rbt.Executable>
rbdock ($Id: //depot/dev/client3/rdock/2013.1/src/exe/rbdock.cxx#4 $)

>  <Rbt.Library>
libRbt.so (2013.1, Build901 2013/11/27)

>  <Rbt.Parameter_File>
/export/apps/rDock/src/rDock_2013.1_src/data/scripts/dock_solv.prm

>  <Rbt.Receptor>
prm/pocket_docking_6.prm

>  <SCORE>
-17.383

>  <SCORE.INTER>
-12.2723

>  <SCORE.INTER.CONST>
1

>  <SCORE.INTER.POLAR>
0

>  <SCORE.INTER.ROT>
7

>  <SCORE.INTER.SOLV>
8.7777

>  <SCORE.INTER.VDW>
-19.3741

>  <SCORE.INTER.norm>
-0.454531

>  <SCORE.INTRA>
-5.1107

>  <SCORE.INTRA.DIHEDRAL>
-2.93854

>  <SCORE.INTRA.DIHEDRAL.0>
9.40024

>  <SCORE.INTRA.POLAR>
0

>  <SCORE.INTRA.POLAR.0>
0

>  <SCORE.INTRA.REPUL>
0

>  <SCORE.INTRA.REPUL.0>
0

>  <SCORE.INTRA.SOLV>
-1.51792

>  <SCORE.INTRA.SOLV.lig_0>
-47.1049

>  <SCORE.INTRA.VDW>
-2.88247

>  <SCORE.INTRA.VDW.0>
-1.50278

>  <SCORE.INTRA.norm>
-0.189285

>  <SCORE.RESTR>
0

>  <SCORE.RESTR.CAVITY>
0

>  <SCORE.RESTR.norm>
0

>  <SCORE.SYSTEM>
0

>  <SCORE.SYSTEM.CONST>
0

>  <SCORE.SYSTEM.DIHEDRAL>
0

>  <SCORE.SYSTEM.SOLV>
0

>  <SCORE.SYSTEM.norm>
0

>  <SCORE.heavy>
27

>  <SCORE.norm>
-0.643816

>  <RMSD>
5.204

$$$$
ligand
 OpenBabel11021811433D
libRbt.so/2013.1/901 2013/11/27
 27 29  0  0  0  0  0  0  0  0999 V2000
   48.6736   53.6256   29.0336 N   0  0  0  0  0  0  0  0  0  0  0  0
   47.5561   54.2423   28.3119 C   0  0  2  0  0  0  0  0  0  0  0  0
   46.7116   53.1589   27.6650 C   0  0  0  0  0  0  0  0  0  0  0  0
   47.2243   52.3717   26.8745 O   0  0  0  0  0  0  0  0  0  0  0  0
   48.0716   55.2171   27.2344 C   0  0  0  0  0  0  0  0  0  0  0  0
   46.8923   56.0020   26.6618 C   0  0  0  0  0  0  0  0  0  0  0  0
   46.4931   57.5685   27.5398 S   0  0  2  0  0  0  0  0  0  0  0  0
   48.1179   58.3224   27.8617 C   0  0  0  0  0  0  0  0  0  0  0  0
   46.1344   56.8045   29.1356 C   0  0  0  0  0  0  0  0  0  0  0  0
   45.3865   57.7287   30.1120 C   0  0  1  0  0  0  0  0  0  0  0  0
   44.9471   56.9495   31.2638 O   0  0  0  0  0  0  0  0  0  0  0  0
   46.4807   58.6341   30.6163 C   0  0  1  0  0  0  0  0  0  0  0  0
   46.4831   59.8522   29.8715 O   0  0  0  0  0  0  0  0  0  0  0  0
   46.1003   58.8999   32.0677 C   0  0  1  0  0  0  0  0  0  0  0  0
   45.3985   60.1280   32.2219 O   0  0  0  0  0  0  0  0  0  0  0  0
   45.2031   57.6890   32.5158 C   0  0  2  0  0  0  0  0  0  0  0  0
   45.5006   53.1050   27.8804 O   0  0  0  0  0  0  0  0  0  0  0  0
   49.6068   56.2090   34.9651 N   0  0  0  0  0  0  0  0  0  0  0  0
   49.4288   57.2704   34.1709 C   0  0  0  0  0  0  0  0  0  0  0  0
   48.2497   57.5354   33.6307 N   0  0  0  0  0  0  0  0  0  0  0  0
   47.1917   56.7323   33.8308 C   0  0  0  0  0  0  0  0  0  0  0  0
   47.3345   55.5861   34.6543 C   0  0  0  0  0  0  0  0  0  0  0  0
   48.6087   55.3498   35.2293 C   0  0  0  0  0  0  0  0  0  0  0  0
   48.8217   54.2590   36.0419 N   0  0  0  0  0  0  0  0  0  0  0  0
   46.1408   54.9605   34.6859 N   0  0  0  0  0  0  0  0  0  0  0  0
   45.2950   55.6200   33.9497 C   0  0  0  0  0  0  0  0  0  0  0  0
   45.8867   56.7241   33.4023 N   0  0  0  0  0  0  0  0  0  0  0  0
  2  1  1  6  0  0  0
  2  3  1  0  0  0  0
  2  5  1  0  0  0  0
  3  4  1  0  0  0  0
  3 17  1  0  0  0  0
  5  6  1  0  0  0  0
  7  6  1  6  0  0  0
  7  8  1  0  0  0  0
  7  9  1  0  0  0  0
 10  9  1  6  0  0  0
 10 11  1  0  0  0  0
 10 12  1  0  0  0  0
 11 16  1  0  0  0  0
 12 13  1  6  0  0  0
 12 14  1  0  0  0  0
 14 15  1  6  0  0  0
 14 16  1  0  0  0  0
 16 27  1  1  0  0  0
 18 19  2  0  0  0  0
 18 23  1  0  0  0  0
 19 20  1  0  0  0  0
 20 21  2  0  0  0  0
 21 22  1  0  0  0  0
 21 27  1  0  0  0  0
 22 23  2  0  0  0  0
 22 25  1  0  0  0  0
 23 24  1  0  0  0  0
 25 26  2  0  0  0  0
 26 27  1  0  0  0  0
M  END
>  <CHROM.1>
-57.59926199,-170.99263809,89.48221918,42.56577089,-164.69578413,170.25199219
110.88282389,46.91130762,56.39104369,30.88938988,-1.84250472,-1.25451798
1.14290436

>  <Name>
ligand

>  <RI>
0

>  <Rbt.Current_Directory>
/home/itssahil/PROJECTS/Mol_Feturizer/New_Systems/rnas/2GIS

>  <Rbt.Executable>
rbdock ($Id: //depot/dev/client3/rdock/2013.1/src/exe/rbdock.cxx#4 $)

>  <Rbt.Library>
libRbt.so (2013.1, Build901 2013/11/27)

>  <Rbt.Parameter_File>
/export/apps/rDock/src/rDock_2013.1_src/data/scripts/dock_solv.prm

>  <Rbt.Receptor>
prm/pocket_docking_5.prm

>  <SCORE>
-13.7584

>  <SCORE.INTER>
-12.2938

>  <SCORE.INTER.CONST>
1

>  <SCORE.INTER.POLAR>
0

>  <SCORE.INTER.ROT>
7

>  <SCORE.INTER.SOLV>
12.4821

>  <SCORE.INTER.VDW>
-20.6232

>  <SCORE.INTER.norm>
-0.455326

>  <SCORE.INTRA>
-1.46465

>  <SCORE.INTRA.DIHEDRAL>
-1.33576

>  <SCORE.INTRA.DIHEDRAL.0>
9.40024

>  <SCORE.INTRA.POLAR>
0

>  <SCORE.INTRA.POLAR.0>
0

>  <SCORE.INTRA.REPUL>
0

>  <SCORE.INTRA.REPUL.0>
0

>  <SCORE.INTRA.SOLV>
-2.25332

>  <SCORE.INTRA.SOLV.lig_0>
-47.1049

>  <SCORE.INTRA.VDW>
0.329888

>  <SCORE.INTRA.VDW.0>
-1.50278

>  <SCORE.INTRA.norm>
-0.0542464

>  <SCORE.RESTR>
0

>  <SCORE.RESTR.CAVITY>
0

>  <SCORE.RESTR.norm>
0

>  <SCORE.SYSTEM>
0

>  <SCORE.SYSTEM.CONST>
0

>  <SCORE.SYSTEM.DIHEDRAL>
0

>  <SCORE.SYSTEM.SOLV>
0

>  <SCORE.SYSTEM.norm>
0

>  <SCORE.heavy>
27

>  <SCORE.norm>
-0.509572

>  <RMSD>
5.222

$$$$
ligand
 OpenBabel11021811433D
libRbt.so/2013.1/901 2013/11/27
 27 29  0  0  0  0  0  0  0  0999 V2000
   49.1773   53.2604   26.3685 N   0  0  0  0  0  0  0  0  0  0  0  0
   49.0094   54.2635   25.3123 C   0  0  2  0  0  0  0  0  0  0  0  0
   50.3205   54.9990   25.0993 C   0  0  0  0  0  0  0  0  0  0  0  0
   51.0788   55.1877   26.0464 O   0  0  0  0  0  0  0  0  0  0  0  0
   47.9002   55.2682   25.6828 C   0  0  0  0  0  0  0  0  0  0  0  0
   48.2080   55.8739   27.0513 C   0  0  0  0  0  0  0  0  0  0  0  0
   46.9976   57.1258   27.6446 S   0  0  2  0  0  0  0  0  0  0  0  0
   47.2572   58.5503   26.5421 C   0  0  0  0  0  0  0  0  0  0  0  0
   47.9417   57.6268   29.0994 C   0  0  0  0  0  0  0  0  0  0  0  0
   47.2860   58.7624   29.9040 C   0  0  1  0  0  0  0  0  0  0  0  0
   46.0424   58.2750   30.4896 O   0  0  0  0  0  0  0  0  0  0  0  0
   48.2415   58.9488   31.0545 C   0  0  1  0  0  0  0  0  0  0  0  0
   49.1409   60.0202   30.7684 O   0  0  0  0  0  0  0  0  0  0  0  0
   47.3399   59.3114   32.2282 C   0  0  1  0  0  0  0  0  0  0  0  0
   47.2630   60.7176   32.4309 O   0  0  0  0  0  0  0  0  0  0  0  0
   45.9218   58.7216   31.8916 C   0  0  2  0  0  0  0  0  0  0  0  0
   50.5987   55.4633   23.9935 O   0  0  0  0  0  0  0  0  0  0  0  0
   47.4435   54.9183   35.1781 N   0  0  0  0  0  0  0  0  0  0  0  0
   48.1795   55.9244   34.6933 C   0  0  0  0  0  0  0  0  0  0  0  0
   47.6570   56.8301   33.8815 N   0  0  0  0  0  0  0  0  0  0  0  0
   46.3756   56.7584   33.4851 C   0  0  0  0  0  0  0  0  0  0  0  0
   45.5583   55.7012   33.9612 C   0  0  0  0  0  0  0  0  0  0  0  0
   46.1517   54.7641   34.8442 C   0  0  0  0  0  0  0  0  0  0  0  0
   45.4194   53.7133   35.3494 N   0  0  0  0  0  0  0  0  0  0  0  0
   44.3357   55.8591   33.4157 N   0  0  0  0  0  0  0  0  0  0  0  0
   44.3444   56.9091   32.6478 C   0  0  0  0  0  0  0  0  0  0  0  0
   45.5744   57.5058   32.6566 N   0  0  0  0  0  0  0  0  0  0  0  0
  2  1  1  1  0  0  0
  2  3  1  0  0  0  0
  2  5  1  0  0  0  0
  3  4  1  0  0  0  0
  3 17  1  0  0  0  0
  5  6  1  0  0  0  0
  7  6  1  6  0  0  0
  7  8  1  0  0  0  0
  7  9  1  0  0  0  0
 10  9  1  6  0  0  0
 10 11  1  0  0  0  0
 10 12  1  0  0  0  0
 11 16  1  0  0  0  0
 12 13  1  6  0  0  0
 12 14  1  0  0  0  0
 14 15  1  6  0  0  0
 14 16  1  0  0  0  0
 16 27  1  1  0  0  0
 18 19  2  0  0  0  0
 18 23  1  0  0  0  0
 19 20  1  0  0  0  0
 20 21  2  0  0  0  0
 21 22  1  0  0  0  0
 21 27  1  0  0  0  0
 22 23  2  0  0  0  0
 22 25  1  0  0  0  0
 23 24  1  0  0  0  0
 25 26  2  0  0  0  0
 26 27  1  0  0  0  0
M  END
>  <CHROM.1>
-32.62876966,54.42074879,178.94014977,-69.50522964,177.56740735,66.34528196
105.15356203,47.46780105,56.77871054,30.19375870,-0.03913622,-1.21798284
2.97387342

>  <Name>
ligand

>  <RI>
0

>  <Rbt.Current_Directory>
/home/itssahil/PROJECTS/Mol_Feturizer/New_Systems/rnas/2GIS

>  <Rbt.Executable>
rbdock ($Id: //depot/dev/client3/rdock/2013.1/src/exe/rbdock.cxx#4 $)

>  <Rbt.Library>
libRbt.so (2013.1, Build901 2013/11/27)

>  <Rbt.Parameter_File>
/export/apps/rDock/src/rDock_2013.1_src/data/scripts/dock_solv.prm

>  <Rbt.Receptor>
prm/pocket_docking_5.prm

>  <SCORE>
-13.2861

>  <SCORE.INTER>
-8.59218

>  <SCORE.INTER.CONST>
1

>  <SCORE.INTER.POLAR>
0

>  <SCORE.INTER.ROT>
7

>  <SCORE.INTER.SOLV>
10.8852

>  <SCORE.INTER.VDW>
-17.6232

>  <SCORE.INTER.norm>
-0.318229

>  <SCORE.INTRA>
-4.74264

>  <SCORE.INTRA.DIHEDRAL>
-5.99736

>  <SCORE.INTRA.DIHEDRAL.0>
9.40024

>  <SCORE.INTRA.POLAR>
0

>  <SCORE.INTRA.POLAR.0>
0

>  <SCORE.INTRA.REPUL>
0

>  <SCORE.INTRA.REPUL.0>
0

>  <SCORE.INTRA.SOLV>
-2.4029

>  <SCORE.INTRA.SOLV.lig_0>
-47.1049

>  <SCORE.INTRA.VDW>
-0.542507

>  <SCORE.INTRA.VDW.0>
-1.50278

>  <SCORE.INTRA.norm>
-0.175653

>  <SCORE.RESTR>
0.0487151

>  <SCORE.RESTR.CAVITY>
0.0487151

>  <SCORE.RESTR.norm>
0.00180426

>  <SCORE.SYSTEM>
0

>  <SCORE.SYSTEM.CONST>
0

>  <SCORE.SYSTEM.DIHEDRAL>
0

>  <SCORE.SYSTEM.SOLV>
0

>  <SCORE.SYSTEM.norm>
0

>  <SCORE.heavy>
27

>  <SCORE.norm>
-0.492078

>  <RMSD>
5.222

$$$$
ligand
 OpenBabel11021811433D
libRbt.so/2013.1/901 2013/11/27
 27 29  0  0  0  0  0  0  0  0999 V2000
   50.0843   53.0019   31.5297 N   0  0  0  0  0  0  0  0  0  0  0  0
   49.6020   53.5798   30.2714 C   0  0  2  0  0  0  0  0  0  0  0  0
   48.9730   52.4900   29.4218 C   0  0  0  0  0  0  0  0  0  0  0  0
   49.4942   51.3797   29.3641 O   0  0  0  0  0  0  0  0  0  0  0  0
   50.7567   54.2460   29.4969 C   0  0  0  0  0  0  0  0  0  0  0  0
   50.1766   55.1820   28.4375 C   0  0  0  0  0  0  0  0  0  0  0  0
   48.8329   56.2930   29.0243 S   0  0  2  0  0  0  0  0  0  0  0  0
   48.8251   57.6547   27.8169 C   0  0  0  0  0  0  0  0  0  0  0  0
   49.7727   57.0265   30.3798 C   0  0  0  0  0  0  0  0  0  0  0  0
   49.0625   58.2110   31.0578 C   0  0  1  0  0  0  0  0  0  0  0  0
   47.7322   57.7897   31.4817 O   0  0  0  0  0  0  0  0  0  0  0  0
   49.8614   58.3977   32.3220 C   0  0  1  0  0  0  0  0  0  0  0  0
   50.8350   59.4247   32.1325 O   0  0  0  0  0  0  0  0  0  0  0  0
   48.8260   58.8311   33.3524 C   0  0  1  0  0  0  0  0  0  0  0  0
   48.7811   60.2449   33.5056 O   0  0  0  0  0  0  0  0  0  0  0  0
   47.4427   58.2849   32.8421 C   0  0  2  0  0  0  0  0  0  0  0  0
   47.9773   52.7325   28.7394 O   0  0  0  0  0  0  0  0  0  0  0  0
   48.5265   54.0075   35.6902 N   0  0  0  0  0  0  0  0  0  0  0  0
   49.3916   54.8795   35.1606 C   0  0  0  0  0  0  0  0  0  0  0  0
   48.9746   55.9326   34.4756 N   0  0  0  0  0  0  0  0  0  0  0  0
   47.6677   56.1519   34.2559 C   0  0  0  0  0  0  0  0  0  0  0  0
   46.7119   55.2472   34.7854 C   0  0  0  0  0  0  0  0  0  0  0  0
   47.2000   54.1434   35.5296 C   0  0  0  0  0  0  0  0  0  0  0  0
   46.3316   53.2255   36.0764 N   0  0  0  0  0  0  0  0  0  0  0  0
   45.4919   55.6904   34.4219 N   0  0  0  0  0  0  0  0  0  0  0  0
   45.6258   56.7739   33.7146 C   0  0  0  0  0  0  0  0  0  0  0  0
   46.9451   57.1079   33.5847 N   0  0  0  0  0  0  0  0  0  0  0  0
  2  1  1  1  0  0  0
  2  3  1  0  0  0  0
  2  5  1  0  0  0  0
  3  4  1  0  0  0  0
  3 17  1  0  0  0  0
  5  6  1  0  0  0  0
  7  6  1  6  0  0  0
  7  8  1  0  0  0  0
  7  9  1  0  0  0  0
 10  9  1  6  0  0  0
 10 11  1  0  0  0  0
 10 12  1  0  0  0  0
 11 16  1  0  0  0  0
 12 13  1  6  0  0  0
 12 14  1  0  0  0  0
 14 15  1  6  0  0  0
 14 16  1  0  0  0  0
 16 27  1  1  0  0  0
 18 19  2  0  0  0  0
 18 23  1  0  0  0  0
 19 20  1  0  0  0  0
 20 21  2  0  0  0  0
 21 22  1  0  0  0  0
 21 27  1  0  0  0  0
 22 23  2  0  0  0  0
 22 25  1  0  0  0  0
 23 24  1  0  0  0  0
 25 26  2  0  0  0  0
 26 27  1  0  0  0  0
M  END
>  <CHROM.1>
-40.36091101,-163.05531963,46.66538698,158.45926976,171.70566888,54.20381537
86.25109681,48.56476005,55.89361274,31.94618783,0.54263369,-1.20378327,-2.92000183

>  <Name>
ligand

>  <RI>
0

>  <Rbt.Current_Directory>
/home/itssahil/PROJECTS/Mol_Feturizer/New_Systems/rnas/2GIS

>  <Rbt.Executable>
rbdock ($Id: //depot/dev/client3/rdock/2013.1/src/exe/rbdock.cxx#4 $)

>  <Rbt.Library>
libRbt.so (2013.1, Build901 2013/11/27)

>  <Rbt.Parameter_File>
/export/apps/rDock/src/rDock_2013.1_src/data/scripts/dock_solv.prm

>  <Rbt.Receptor>
prm/pocket_docking_6.prm

>  <SCORE>
-15.5441

>  <SCORE.INTER>
-11.1707

>  <SCORE.INTER.CONST>
1

>  <SCORE.INTER.POLAR>
0

>  <SCORE.INTER.ROT>
7

>  <SCORE.INTER.SOLV>
17.6007

>  <SCORE.INTER.VDW>
-21.5807

>  <SCORE.INTER.norm>
-0.41373

>  <SCORE.INTRA>
-4.37337

>  <SCORE.INTRA.DIHEDRAL>
-4.02105

>  <SCORE.INTRA.DIHEDRAL.0>
9.40024

>  <SCORE.INTRA.POLAR>
0

>  <SCORE.INTRA.POLAR.0>
0

>  <SCORE.INTRA.REPUL>
0

>  <SCORE.INTRA.REPUL.0>
0

>  <SCORE.INTRA.SOLV>
-2.36676

>  <SCORE.INTRA.SOLV.lig_0>
-47.1049

>  <SCORE.INTRA.VDW>
-1.17947

>  <SCORE.INTRA.VDW.0>
-1.50278

>  <SCORE.INTRA.norm>
-0.161977

>  <SCORE.RESTR>
0

>  <SCORE.RESTR.CAVITY>
0

>  <SCORE.RESTR.norm>
0

>  <SCORE.SYSTEM>
0

>  <SCORE.SYSTEM.CONST>
0

>  <SCORE.SYSTEM.DIHEDRAL>
0

>  <SCORE.SYSTEM.SOLV>
0

>  <SCORE.SYSTEM.norm>
0

>  <SCORE.heavy>
27

>  <SCORE.norm>
-0.575707

>  <RMSD>
5.244

$$$$
ligand
 OpenBabel11021811433D
libRbt.so/2013.1/901 2013/11/27
 27 29  0  0  0  0  0  0  0  0999 V2000
   46.1637   58.5892   30.9091 N   0  0  0  0  0  0  0  0  0  0  0  0
   46.9908   58.8268   29.7219 C   0  0  2  0  0  0  0  0  0  0  0  0
   46.2338   58.3876   28.4812 C   0  0  0  0  0  0  0  0  0  0  0  0
   46.7655   58.4689   27.3775 O   0  0  0  0  0  0  0  0  0  0  0  0
   48.3239   58.0587   29.8208 C   0  0  0  0  0  0  0  0  0  0  0  0
   49.2234   58.7441   30.8482 C   0  0  0  0  0  0  0  0  0  0  0  0
   48.6796   58.5818   32.5982 S   0  0  2  0  0  0  0  0  0  0  0  0
   49.7676   59.7225   33.5077 C   0  0  0  0  0  0  0  0  0  0  0  0
   49.4922   56.9988   32.9024 C   0  0  0  0  0  0  0  0  0  0  0  0
   48.5145   55.8334   33.1325 C   0  0  1  0  0  0  0  0  0  0  0  0
   48.0537   55.3360   31.8413 O   0  0  0  0  0  0  0  0  0  0  0  0
   49.4068   54.7581   33.6972 C   0  0  1  0  0  0  0  0  0  0  0  0
   49.3296   54.7640   35.1229 O   0  0  0  0  0  0  0  0  0  0  0  0
   48.8251   53.4650   33.1392 C   0  0  1  0  0  0  0  0  0  0  0  0
   47.9480   52.8295   34.0619 O   0  0  0  0  0  0  0  0  0  0  0  0
   48.0563   53.8597   31.8257 C   0  0  2  0  0  0  0  0  0  0  0  0
   45.0654   58.0094   28.5689 O   0  0  0  0  0  0  0  0  0  0  0  0
   51.4614   55.1662   28.0469 N   0  0  0  0  0  0  0  0  0  0  0  0
   51.0852   55.9005   29.0997 C   0  0  0  0  0  0  0  0  0  0  0  0
   50.2253   55.4343   29.9916 N   0  0  0  0  0  0  0  0  0  0  0  0
   49.6701   54.2183   29.8595 C   0  0  0  0  0  0  0  0  0  0  0  0
   50.0268   53.4075   28.7515 C   0  0  0  0  0  0  0  0  0  0  0  0
   50.9660   53.9367   27.8306 C   0  0  0  0  0  0  0  0  0  0  0  0
   51.3623   53.2060   26.7330 N   0  0  0  0  0  0  0  0  0  0  0  0
   49.3339   52.2557   28.8545 N   0  0  0  0  0  0  0  0  0  0  0  0
   48.5861   52.3025   29.9179 C   0  0  0  0  0  0  0  0  0  0  0  0
   48.7567   53.4870   30.5788 N   0  0  0  0  0  0  0  0  0  0  0  0
  2  1  1  1  0  0  0
  2  3  1  0  0  0  0
  2  5  1  0  0  0  0
  3  4  1  0  0  0  0
  3 17  1  0  0  0  0
  5  6  1  0  0  0  0
  7  6  1  6  0  0  0
  7  8  1  0  0  0  0
  7  9  1  0  0  0  0
 10  9  1  6  0  0  0
 10 11  1  0  0  0  0
 10 12  1  0  0  0  0
 11 16  1  0  0  0  0
 12 13  1  1  0  0  0
 12 14  1  0  0  0  0
 14 15  1  1  0  0  0
 14 16  1  0  0  0  0
 16 27  1  6  0  0  0
 18 19  2  0  0  0  0
 18 23  1  0  0  0  0
 19 20  1  0  0  0  0
 20 21  2  0  0  0  0
 21 22  1  0  0  0  0
 21 27  1  0  0  0  0
 22 23  2  0  0  0  0
 22 25  1  0  0  0  0
 23 24  1  0  0  0  0
 25 26  2  0  0  0  0
 26 27  1  0  0  0  0
M  END
>  <CHROM.1>
-178.07310538,-73.11694379,70.11290581,-170.50872075,-112.94184065,81.74569261
24.18667059,48.77403870,55.90746500,30.78488178,2.94746514,-1.17393373,1.61698535

>  <Name>
ligand

>  <RI>
0

>  <Rbt.Current_Directory>
/home/itssahil/PROJECTS/Mol_Feturizer/New_Systems/rnas/2GIS

>  <Rbt.Executable>
rbdock ($Id: //depot/dev/client3/rdock/2013.1/src/exe/rbdock.cxx#4 $)

>  <Rbt.Library>
libRbt.so (2013.1, Build901 2013/11/27)

>  <Rbt.Parameter_File>
/export/apps/rDock/src/rDock_2013.1_src/data/scripts/dock_solv.prm

>  <Rbt.Receptor>
prm/pocket_docking_5.prm

>  <SCORE>
-15.6157

>  <SCORE.INTER>
-13.4268

>  <SCORE.INTER.CONST>
1

>  <SCORE.INTER.POLAR>
0

>  <SCORE.INTER.ROT>
7

>  <SCORE.INTER.SOLV>
8.77916

>  <SCORE.INTER.VDW>
-20.1443

>  <SCORE.INTER.norm>
-0.497291

>  <SCORE.INTRA>
-2.18889

>  <SCORE.INTRA.DIHEDRAL>
1.07502

>  <SCORE.INTRA.DIHEDRAL.0>
9.40024

>  <SCORE.INTRA.POLAR>
0

>  <SCORE.INTRA.POLAR.0>
0

>  <SCORE.INTRA.REPUL>
0

>  <SCORE.INTRA.REPUL.0>
0

>  <SCORE.INTRA.SOLV>
-0.194569

>  <SCORE.INTRA.SOLV.lig_0>
-47.1049

>  <SCORE.INTRA.VDW>
-2.62911

>  <SCORE.INTRA.VDW.0>
-1.50278

>  <SCORE.INTRA.norm>
-0.08107

>  <SCORE.RESTR>
0

>  <SCORE.RESTR.CAVITY>
0

>  <SCORE.RESTR.norm>
0

>  <SCORE.SYSTEM>
0

>  <SCORE.SYSTEM.CONST>
0

>  <SCORE.SYSTEM.DIHEDRAL>
0

>  <SCORE.SYSTEM.SOLV>
0

>  <SCORE.SYSTEM.norm>
0

>  <SCORE.heavy>
27

>  <SCORE.norm>
-0.578361

>  <RMSD>
5.250

$$$$
ligand
 OpenBabel11021811433D
libRbt.so/2013.1/901 2013/11/27
 27 29  0  0  0  0  0  0  0  0999 V2000
   48.7924   54.1193   28.1100 N   0  0  0  0  0  0  0  0  0  0  0  0
   50.1566   54.3890   27.6453 C   0  0  2  0  0  0  0  0  0  0  0  0
   51.1138   54.3291   28.8224 C   0  0  0  0  0  0  0  0  0  0  0  0
   52.2944   54.0463   28.6391 O   0  0  0  0  0  0  0  0  0  0  0  0
   50.2419   55.7731   26.9716 C   0  0  0  0  0  0  0  0  0  0  0  0
   49.8416   56.8483   27.9807 C   0  0  0  0  0  0  0  0  0  0  0  0
   48.0307   57.0501   28.2343 S   0  0  2  0  0  0  0  0  0  0  0  0
   47.4824   57.9959   26.7793 C   0  0  0  0  0  0  0  0  0  0  0  0
   48.1581   58.3534   29.4768 C   0  0  0  0  0  0  0  0  0  0  0  0
   46.7976   58.8831   29.9624 C   0  0  1  0  0  0  0  0  0  0  0  0
   46.0256   57.7767   30.5163 O   0  0  0  0  0  0  0  0  0  0  0  0
   47.1783   59.7513   31.1340 C   0  0  1  0  0  0  0  0  0  0  0  0
   47.2689   61.1140   30.7177 O   0  0  0  0  0  0  0  0  0  0  0  0
   46.0274   59.5713   32.1162 C   0  0  1  0  0  0  0  0  0  0  0  0
   45.0669   60.6161   32.0140 O   0  0  0  0  0  0  0  0  0  0  0  0
   45.3733   58.1823   31.7771 C   0  0  2  0  0  0  0  0  0  0  0  0
   50.6986   54.5005   29.9687 O   0  0  0  0  0  0  0  0  0  0  0  0
   48.9037   55.9267   34.9442 N   0  0  0  0  0  0  0  0  0  0  0  0
   49.0705   57.0020   34.1664 C   0  0  0  0  0  0  0  0  0  0  0  0
   48.0801   57.4770   33.4277 N   0  0  0  0  0  0  0  0  0  0  0  0
   46.8769   56.8804   33.4031 C   0  0  0  0  0  0  0  0  0  0  0  0
   46.6553   55.7282   34.2003 C   0  0  0  0  0  0  0  0  0  0  0  0
   47.7364   55.2641   34.9917 C   0  0  0  0  0  0  0  0  0  0  0  0
   47.5946   54.1535   35.7930 N   0  0  0  0  0  0  0  0  0  0  0  0
   45.3844   55.3307   33.9911 N   0  0  0  0  0  0  0  0  0  0  0  0
   44.8232   56.1326   33.1341 C   0  0  0  0  0  0  0  0  0  0  0  0
   45.6950   57.1099   32.7418 N   0  0  0  0  0  0  0  0  0  0  0  0
  2  1  1  1  0  0  0
  2  3  1  0  0  0  0
  2  5  1  0  0  0  0
  3  4  1  0  0  0  0
  3 17  1  0  0  0  0
  5  6  1  0  0  0  0
  7  6  1  6  0  0  0
  7  8  1  0  0  0  0
  7  9  1  0  0  0  0
 10  9  1  1  0  0  0
 10 11  1  0  0  0  0
 10 12  1  0  0  0  0
 11 16  1  0  0  0  0
 12 13  1  6  0  0  0
 12 14  1  0  0  0  0
 14 15  1  6  0  0  0
 14 16  1  0  0  0  0
 16 27  1  1  0  0  0
 18 19  2  0  0  0  0
 18 23  1  0  0  0  0
 19 20  1  0  0  0  0
 20 21  2  0  0  0  0
 21 22  1  0  0  0  0
 21 27  1  0  0  0  0
 22 23  2  0  0  0  0
 22 25  1  0  0  0  0
 23 24  1  0  0  0  0
 25 26  2  0  0  0  0
 26 27  1  0  0  0  0
M  END
>  <CHROM.1>
153.84010728,60.08257536,-79.46413939,-77.69087585,178.03786601,58.22466357
76.36348320,47.86112560,56.87152077,30.95262493,-0.63339646,-0.86879648,2.06081611

>  <Name>
ligand

>  <RI>
0

>  <Rbt.Current_Directory>
/home/itssahil/PROJECTS/Mol_Feturizer/New_Systems/rnas/2GIS

>  <Rbt.Executable>
rbdock ($Id: //depot/dev/client3/rdock/2013.1/src/exe/rbdock.cxx#4 $)

>  <Rbt.Library>
libRbt.so (2013.1, Build901 2013/11/27)

>  <Rbt.Parameter_File>
/export/apps/rDock/src/rDock_2013.1_src/data/scripts/dock_solv.prm

>  <Rbt.Receptor>
prm/pocket_docking_4.prm

>  <SCORE>
-16.6034

>  <SCORE.INTER>
-12.8756

>  <SCORE.INTER.CONST>
1

>  <SCORE.INTER.POLAR>
0

>  <SCORE.INTER.ROT>
7

>  <SCORE.INTER.SOLV>
11.4661

>  <SCORE.INTER.VDW>
-20.6725

>  <SCORE.INTER.norm>
-0.476875

>  <SCORE.INTRA>
-3.72835

>  <SCORE.INTRA.DIHEDRAL>
-4.4426

>  <SCORE.INTRA.DIHEDRAL.0>
9.40024

>  <SCORE.INTRA.POLAR>
0

>  <SCORE.INTRA.POLAR.0>
0

>  <SCORE.INTRA.REPUL>
0

>  <SCORE.INTRA.REPUL.0>
0

>  <SCORE.INTRA.SOLV>
-0.711275

>  <SCORE.INTRA.SOLV.lig_0>
-47.1049

>  <SCORE.INTRA.VDW>
-1.15142

>  <SCORE.INTRA.VDW.0>
-1.50278

>  <SCORE.INTRA.norm>
-0.138087

>  <SCORE.RESTR>
0.000563371

>  <SCORE.RESTR.CAVITY>
0.000563371

>  <SCORE.RESTR.norm>
2.08656e-05

>  <SCORE.SYSTEM>
0

>  <SCORE.SYSTEM.CONST>
0

>  <SCORE.SYSTEM.DIHEDRAL>
0

>  <SCORE.SYSTEM.SOLV>
0

>  <SCORE.SYSTEM.norm>
0

>  <SCORE.heavy>
27

>  <SCORE.norm>
-0.614942

>  <RMSD>
5.256

$$$$
ligand
 OpenBabel11021811433D
libRbt.so/2013.1/901 2013/11/27
 27 29  0  0  0  0  0  0  0  0999 V2000
   47.1763   54.0042   29.2578 N   0  0  0  0  0  0  0  0  0  0  0  0
   47.4223   53.8552   27.8200 C   0  0  2  0  0  0  0  0  0  0  0  0
   48.3509   52.6772   27.5846 C   0  0  0  0  0  0  0  0  0  0  0  0
   48.3515   52.1041   26.4987 O   0  0  0  0  0  0  0  0  0  0  0  0
   48.0461   55.1381   27.2355 C   0  0  0  0  0  0  0  0  0  0  0  0
   46.9765   56.2265   27.1584 C   0  0  0  0  0  0  0  0  0  0  0  0
   46.4027   56.8779   28.7803 S   0  0  2  0  0  0  0  0  0  0  0  0
   44.8289   57.7058   28.3935 C   0  0  0  0  0  0  0  0  0  0  0  0
   47.5376   58.2808   28.8326 C   0  0  0  0  0  0  0  0  0  0  0  0
   47.6000   58.9779   30.2027 C   0  0  1  0  0  0  0  0  0  0  0  0
   46.2778   58.9410   30.8168 O   0  0  0  0  0  0  0  0  0  0  0  0
   48.4602   58.0421   31.0125 C   0  0  1  0  0  0  0  0  0  0  0  0
   49.8124   58.5004   31.0072 O   0  0  0  0  0  0  0  0  0  0  0  0
   47.8763   58.1266   32.4174 C   0  0  1  0  0  0  0  0  0  0  0  0
   48.5890   59.0430   33.2401 O   0  0  0  0  0  0  0  0  0  0  0  0
   46.3816   58.5832   32.2455 C   0  0  2  0  0  0  0  0  0  0  0  0
   49.0586   52.2530   28.4984 O   0  0  0  0  0  0  0  0  0  0  0  0
   44.9677   54.2374   34.8332 N   0  0  0  0  0  0  0  0  0  0  0  0
   46.0789   54.9635   34.9980 C   0  0  0  0  0  0  0  0  0  0  0  0
   46.2991   56.0559   34.2836 N   0  0  0  0  0  0  0  0  0  0  0  0
   45.4324   56.4626   33.3415 C   0  0  0  0  0  0  0  0  0  0  0  0
   44.2459   55.7175   33.1197 C   0  0  0  0  0  0  0  0  0  0  0  0
   44.0392   54.5654   33.9198 C   0  0  0  0  0  0  0  0  0  0  0  0
   42.9091   53.7946   33.7632 N   0  0  0  0  0  0  0  0  0  0  0  0
   43.5628   56.3305   32.1323 N   0  0  0  0  0  0  0  0  0  0  0  0
   44.2336   57.3713   31.7332 C   0  0  0  0  0  0  0  0  0  0  0  0
   45.3918   57.5045   32.4472 N   0  0  0  0  0  0  0  0  0  0  0  0
  2  1  1  1  0  0  0
  2  3  1  0  0  0  0
  2  5  1  0  0  0  0
  3  4  1  0  0  0  0
  3 17  1  0  0  0  0
  5  6  1  0  0  0  0
  7  6  1  6  0  0  0
  7  8  1  0  0  0  0
  7  9  1  0  0  0  0
 10  9  1  6  0  0  0
 10 11  1  0  0  0  0
 10 12  1  0  0  0  0
 11 16  1  0  0  0  0
 12 13  1  1  0  0  0
 12 14  1  0  0  0  0
 14 15  1  1  0  0  0
 14 16  1  0  0  0  0
 16 27  1  6  0  0  0
 18 19  2  0  0  0  0
 18 23  1  0  0  0  0
 19 20  1  0  0  0  0
 20 21  2  0  0  0  0
 21 22  1  0  0  0  0
 21 27  1  0  0  0  0
 22 23  2  0  0  0  0
 22 25  1  0  0  0  0
 23 24  1  0  0  0  0
 25 26  2  0  0  0  0
 26 27  1  0  0  0  0
M  END
>  <CHROM.1>
156.35357523,-73.06996724,69.02568678,-162.41002211,-168.19254872,-34.89448665
149.81659901,46.58982985,56.20770283,30.77242017,0.76164930,-1.00404404,-2.63467629

>  <Name>
ligand

>  <RI>
0

>  <Rbt.Current_Directory>
/home/itssahil/PROJECTS/Mol_Feturizer/New_Systems/rnas/2GIS

>  <Rbt.Executable>
rbdock ($Id: //depot/dev/client3/rdock/2013.1/src/exe/rbdock.cxx#4 $)

>  <Rbt.Library>
libRbt.so (2013.1, Build901 2013/11/27)

>  <Rbt.Parameter_File>
/export/apps/rDock/src/rDock_2013.1_src/data/scripts/dock_solv.prm

>  <Rbt.Receptor>
prm/pocket_docking_5.prm

>  <SCORE>
-12.847

>  <SCORE.INTER>
-10.7534

>  <SCORE.INTER.CONST>
1

>  <SCORE.INTER.POLAR>
0

>  <SCORE.INTER.ROT>
7

>  <SCORE.INTER.SOLV>
7.18403

>  <SCORE.INTER.VDW>
-17.8303

>  <SCORE.INTER.norm>
-0.398275

>  <SCORE.INTRA>
-2.09361

>  <SCORE.INTRA.DIHEDRAL>
-0.479097

>  <SCORE.INTRA.DIHEDRAL.0>
9.40024

>  <SCORE.INTRA.POLAR>
0

>  <SCORE.INTRA.POLAR.0>
0

>  <SCORE.INTRA.REPUL>
0

>  <SCORE.INTRA.REPUL.0>
0

>  <SCORE.INTRA.SOLV>
-0.542784

>  <SCORE.INTRA.SOLV.lig_0>
-47.1049

>  <SCORE.INTRA.VDW>
-1.58267

>  <SCORE.INTRA.VDW.0>
-1.50278

>  <SCORE.INTRA.norm>
-0.077541

>  <SCORE.RESTR>
0

>  <SCORE.RESTR.CAVITY>
0

>  <SCORE.RESTR.norm>
0

>  <SCORE.SYSTEM>
0

>  <SCORE.SYSTEM.CONST>
0

>  <SCORE.SYSTEM.DIHEDRAL>
0

>  <SCORE.SYSTEM.SOLV>
0

>  <SCORE.SYSTEM.norm>
0

>  <SCORE.heavy>
27

>  <SCORE.norm>
-0.475816

>  <RMSD>
5.263

$$$$
ligand
 OpenBabel11021811433D
libRbt.so/2013.1/901 2013/11/27
 27 29  0  0  0  0  0  0  0  0999 V2000
   52.2390   53.0568   27.7210 N   0  0  0  0  0  0  0  0  0  0  0  0
   50.8321   52.6460   27.7629 C   0  0  2  0  0  0  0  0  0  0  0  0
   50.5467   51.6985   26.6114 C   0  0  0  0  0  0  0  0  0  0  0  0
   51.4619   51.3252   25.8831 O   0  0  0  0  0  0  0  0  0  0  0  0
   49.9010   53.8717   27.6749 C   0  0  0  0  0  0  0  0  0  0  0  0
   50.1813   54.8009   28.8551 C   0  0  0  0  0  0  0  0  0  0  0  0
   48.9263   56.1173   29.1315 S   0  0  2  0  0  0  0  0  0  0  0  0
   49.1850   57.2731   27.7497 C   0  0  0  0  0  0  0  0  0  0  0  0
   49.8168   56.9508   30.4623 C   0  0  0  0  0  0  0  0  0  0  0  0
   49.1327   58.2373   30.9562 C   0  0  1  0  0  0  0  0  0  0  0  0
   47.7250   57.9588   31.2163 O   0  0  0  0  0  0  0  0  0  0  0  0
   49.7690   58.4549   32.3050 C   0  0  1  0  0  0  0  0  0  0  0  0
   50.8483   59.3822   32.1874 O   0  0  0  0  0  0  0  0  0  0  0  0
   48.6487   59.0482   33.1502 C   0  0  1  0  0  0  0  0  0  0  0  0
   48.7121   60.4687   33.2039 O   0  0  0  0  0  0  0  0  0  0  0  0
   47.3023   58.5784   32.4879 C   0  0  2  0  0  0  0  0  0  0  0  0
   49.3912   51.3521   26.3650 O   0  0  0  0  0  0  0  0  0  0  0  0
   47.6198   54.2945   35.5093 N   0  0  0  0  0  0  0  0  0  0  0  0
   48.6260   55.0226   35.0127 C   0  0  0  0  0  0  0  0  0  0  0  0
   48.3983   56.0982   34.2755 N   0  0  0  0  0  0  0  0  0  0  0  0
   47.1491   56.4846   33.9683 C   0  0  0  0  0  0  0  0  0  0  0  0
   46.0488   55.7363   34.4600 C   0  0  0  0  0  0  0  0  0  0  0  0
   46.3362   54.6030   35.2620 C   0  0  0  0  0  0  0  0  0  0  0  0
   45.3195   53.8304   35.7769 N   0  0  0  0  0  0  0  0  0  0  0  0
   44.9246   56.3276   34.0090 N   0  0  0  0  0  0  0  0  0  0  0  0
   45.2472   57.3581   33.2835 C   0  0  0  0  0  0  0  0  0  0  0  0
   46.6052   57.5059   33.2282 N   0  0  0  0  0  0  0  0  0  0  0  0
  2  1  1  6  0  0  0
  2  3  1  0  0  0  0
  2  5  1  0  0  0  0
  3  4  1  0  0  0  0
  3 17  1  0  0  0  0
  5  6  1  0  0  0  0
  7  6  1  6  0  0  0
  7  8  1  0  0  0  0
  7  9  1  0  0  0  0
 10  9  1  1  0  0  0
 10 11  1  0  0  0  0
 10 12  1  0  0  0  0
 11 16  1  0  0  0  0
 12 13  1  6  0  0  0
 12 14  1  0  0  0  0
 14 15  1  6  0  0  0
 14 16  1  0  0  0  0
 16 27  1  1  0  0  0
 18 19  2  0  0  0  0
 18 23  1  0  0  0  0
 19 20  1  0  0  0  0
 20 21  2  0  0  0  0
 21 22  1  0  0  0  0
 21 27  1  0  0  0  0
 22 23  2  0  0  0  0
 22 25  1  0  0  0  0
 23 24  1  0  0  0  0
 25 26  2  0  0  0  0
 26 27  1  0  0  0  0
M  END
>  <CHROM.1>
4.95752386,-60.03578984,-166.91881037,-71.54138181,175.94528237,49.23343120
80.51996260,48.62851009,55.89333899,31.21769310,0.75156920,-1.00276544,-2.83323110

>  <Name>
ligand

>  <RI>
0

>  <Rbt.Current_Directory>
/home/itssahil/PROJECTS/Mol_Feturizer/New_Systems/rnas/2GIS

>  <Rbt.Executable>
rbdock ($Id: //depot/dev/client3/rdock/2013.1/src/exe/rbdock.cxx#4 $)

>  <Rbt.Library>
libRbt.so (2013.1, Build901 2013/11/27)

>  <Rbt.Parameter_File>
/export/apps/rDock/src/rDock_2013.1_src/data/scripts/dock_solv.prm

>  <Rbt.Receptor>
prm/pocket_docking_5.prm

>  <SCORE>
-15.7226

>  <SCORE.INTER>
-11.2173

>  <SCORE.INTER.CONST>
1

>  <SCORE.INTER.POLAR>
0

>  <SCORE.INTER.ROT>
7

>  <SCORE.INTER.SOLV>
15.7901

>  <SCORE.INTER.VDW>
-21.0083

>  <SCORE.INTER.norm>
-0.415457

>  <SCORE.INTRA>
-4.50529

>  <SCORE.INTRA.DIHEDRAL>
-5.14122

>  <SCORE.INTRA.DIHEDRAL.0>
9.40024

>  <SCORE.INTRA.POLAR>
0

>  <SCORE.INTRA.POLAR.0>
0

>  <SCORE.INTRA.REPUL>
0

>  <SCORE.INTRA.REPUL.0>
0

>  <SCORE.INTRA.SOLV>
-2.35391

>  <SCORE.INTRA.SOLV.lig_0>
-47.1049

>  <SCORE.INTRA.VDW>
-0.757723

>  <SCORE.INTRA.VDW.0>
-1.50278

>  <SCORE.INTRA.norm>
-0.166863

>  <SCORE.RESTR>
0

>  <SCORE.RESTR.CAVITY>
0

>  <SCORE.RESTR.norm>
0

>  <SCORE.SYSTEM>
0

>  <SCORE.SYSTEM.CONST>
0

>  <SCORE.SYSTEM.DIHEDRAL>
0

>  <SCORE.SYSTEM.SOLV>
0

>  <SCORE.SYSTEM.norm>
0

>  <SCORE.heavy>
27

>  <SCORE.norm>
-0.582319

>  <RMSD>
5.266

$$$$
ligand
 OpenBabel11021811433D
libRbt.so/2013.1/901 2013/11/27
 27 29  0  0  0  0  0  0  0  0999 V2000
   46.1129   56.9852   30.2293 N   0  0  0  0  0  0  0  0  0  0  0  0
   46.6892   58.2327   30.7408 C   0  0  2  0  0  0  0  0  0  0  0  0
   46.1164   59.4087   29.9699 C   0  0  0  0  0  0  0  0  0  0  0  0
   46.0714   60.5198   30.4904 O   0  0  0  0  0  0  0  0  0  0  0  0
   48.2254   58.2199   30.6104 C   0  0  0  0  0  0  0  0  0  0  0  0
   48.8196   57.3994   31.7542 C   0  0  0  0  0  0  0  0  0  0  0  0
   48.7266   58.1865   33.4143 S   0  0  2  0  0  0  0  0  0  0  0  0
   50.1117   59.3670   33.4231 C   0  0  0  0  0  0  0  0  0  0  0  0
   49.4387   56.7979   34.3218 C   0  0  0  0  0  0  0  0  0  0  0  0
   48.3937   55.7979   34.8463 C   0  0  1  0  0  0  0  0  0  0  0  0
   47.4275   55.5203   33.7897 O   0  0  0  0  0  0  0  0  0  0  0  0
   49.1984   54.5349   35.0153 C   0  0  1  0  0  0  0  0  0  0  0  0
   49.6215   54.4082   36.3731 O   0  0  0  0  0  0  0  0  0  0  0  0
   48.2197   53.4230   34.6581 C   0  0  1  0  0  0  0  0  0  0  0  0
   47.6096   52.8547   35.8111 O   0  0  0  0  0  0  0  0  0  0  0  0
   47.1368   54.0744   33.7225 C   0  0  2  0  0  0  0  0  0  0  0  0
   45.6380   59.2409   28.8479 O   0  0  0  0  0  0  0  0  0  0  0  0
   50.2990   53.0823   29.6484 N   0  0  0  0  0  0  0  0  0  0  0  0
   50.6504   53.4037   30.8984 C   0  0  0  0  0  0  0  0  0  0  0  0
   49.7404   53.6100   31.8373 N   0  0  0  0  0  0  0  0  0  0  0  0
   48.4267   53.5373   31.5668 C   0  0  0  0  0  0  0  0  0  0  0  0
   48.0042   53.2134   30.2520 C   0  0  0  0  0  0  0  0  0  0  0  0
   49.0111   52.9808   29.2813 C   0  0  0  0  0  0  0  0  0  0  0  0
   48.6766   52.6588   27.9851 N   0  0  0  0  0  0  0  0  0  0  0  0
   46.6562   53.2098   30.2505 N   0  0  0  0  0  0  0  0  0  0  0  0
   46.2284   53.5106   31.4417 C   0  0  0  0  0  0  0  0  0  0  0  0
   47.2762   53.7176   32.2951 N   0  0  0  0  0  0  0  0  0  0  0  0
  2  1  1  6  0  0  0
  2  3  1  0  0  0  0
  2  5  1  0  0  0  0
  3  4  1  0  0  0  0
  3 17  1  0  0  0  0
  5  6  1  0  0  0  0
  7  6  1  6  0  0  0
  7  8  1  0  0  0  0
  7  9  1  0  0  0  0
 10  9  1  6  0  0  0
 10 11  1  0  0  0  0
 10 12  1  0  0  0  0
 11 16  1  0  0  0  0
 12 13  1  1  0  0  0
 12 14  1  0  0  0  0
 14 15  1  1  0  0  0
 14 16  1  0  0  0  0
 16 27  1  6  0  0  0
 18 19  2  0  0  0  0
 18 23  1  0  0  0  0
 19 20  1  0  0  0  0
 20 21  2  0  0  0  0
 21 22  1  0  0  0  0
 21 27  1  0  0  0  0
 22 23  2  0  0  0  0
 22 25  1  0  0  0  0
 23 24  1  0  0  0  0
 25 26  2  0  0  0  0
 26 27  1  0  0  0  0
M  END
>  <CHROM.1>
154.44354466,-79.58542331,-71.55941184,-79.99414069,-91.36348663,45.05243032
76.57389648,48.11009396,55.67793223,32.09865138,2.67461301,-1.26864755,0.66875188

>  <Name>
ligand

>  <RI>
0

>  <Rbt.Current_Directory>
/home/itssahil/PROJECTS/Mol_Feturizer/New_Systems/rnas/2GIS

>  <Rbt.Executable>
rbdock ($Id: //depot/dev/client3/rdock/2013.1/src/exe/rbdock.cxx#4 $)

>  <Rbt.Library>
libRbt.so (2013.1, Build901 2013/11/27)

>  <Rbt.Parameter_File>
/export/apps/rDock/src/rDock_2013.1_src/data/scripts/dock_solv.prm

>  <Rbt.Receptor>
prm/pocket_docking_4.prm

>  <SCORE>
-21.4422

>  <SCORE.INTER>
-16.8639

>  <SCORE.INTER.CONST>
1

>  <SCORE.INTER.POLAR>
0

>  <SCORE.INTER.ROT>
7

>  <SCORE.INTER.SOLV>
9.72021

>  <SCORE.INTER.VDW>
-22.7493

>  <SCORE.INTER.norm>
-0.624588

>  <SCORE.INTRA>
-4.57832

>  <SCORE.INTRA.DIHEDRAL>
-1.53812

>  <SCORE.INTRA.DIHEDRAL.0>
9.40024

>  <SCORE.INTRA.POLAR>
0

>  <SCORE.INTRA.POLAR.0>
0

>  <SCORE.INTRA.REPUL>
0

>  <SCORE.INTRA.REPUL.0>
0

>  <SCORE.INTRA.SOLV>
-1.64056

>  <SCORE.INTRA.SOLV.lig_0>
-47.1049

>  <SCORE.INTRA.VDW>
-2.98898

>  <SCORE.INTRA.VDW.0>
-1.50278

>  <SCORE.INTRA.norm>
-0.169567

>  <SCORE.RESTR>
0

>  <SCORE.RESTR.CAVITY>
0

>  <SCORE.RESTR.norm>
0

>  <SCORE.SYSTEM>
0

>  <SCORE.SYSTEM.CONST>
0

>  <SCORE.SYSTEM.DIHEDRAL>
0

>  <SCORE.SYSTEM.SOLV>
0

>  <SCORE.SYSTEM.norm>
0

>  <SCORE.heavy>
27

>  <SCORE.norm>
-0.794155

>  <RMSD>
5.268

$$$$
ligand
 OpenBabel11021811433D
libRbt.so/2013.1/901 2013/11/27
 27 29  0  0  0  0  0  0  0  0999 V2000
   50.3468   54.6193   31.1625 N   0  0  0  0  0  0  0  0  0  0  0  0
   49.6036   53.3556   31.1349 C   0  0  2  0  0  0  0  0  0  0  0  0
   49.5034   52.8583   29.7038 C   0  0  0  0  0  0  0  0  0  0  0  0
   48.4017   52.6954   29.1869 O   0  0  0  0  0  0  0  0  0  0  0  0
   48.1913   53.5381   31.7256 C   0  0  0  0  0  0  0  0  0  0  0  0
   48.2993   53.7173   33.2391 C   0  0  0  0  0  0  0  0  0  0  0  0
   48.8938   55.3680   33.7925 S   0  0  2  0  0  0  0  0  0  0  0  0
   48.8814   55.2571   35.6090 C   0  0  0  0  0  0  0  0  0  0  0  0
   47.3450   56.2410   33.4801 C   0  0  0  0  0  0  0  0  0  0  0  0
   47.5343   57.7050   33.0464 C   0  0  1  0  0  0  0  0  0  0  0  0
   48.6323   57.7804   32.0895 O   0  0  0  0  0  0  0  0  0  0  0  0
   46.2788   57.9834   32.2605 C   0  0  1  0  0  0  0  0  0  0  0  0
   45.3166   58.6265   33.0968 O   0  0  0  0  0  0  0  0  0  0  0  0
   46.7369   58.9270   31.1552 C   0  0  1  0  0  0  0  0  0  0  0  0
   46.4990   60.2912   31.4819 O   0  0  0  0  0  0  0  0  0  0  0  0
   48.2748   58.6636   30.9618 C   0  0  2  0  0  0  0  0  0  0  0  0
   50.5206   52.5567   29.0793 O   0  0  0  0  0  0  0  0  0  0  0  0
   47.5519   57.8901   25.8178 N   0  0  0  0  0  0  0  0  0  0  0  0
   46.9686   58.8068   26.5978 C   0  0  0  0  0  0  0  0  0  0  0  0
   47.2615   58.9014   27.8853 N   0  0  0  0  0  0  0  0  0  0  0  0
   48.1316   58.0607   28.4688 C   0  0  0  0  0  0  0  0  0  0  0  0
   48.7656   57.0621   27.6858 C   0  0  0  0  0  0  0  0  0  0  0  0
   48.4385   57.0079   26.3072 C   0  0  0  0  0  0  0  0  0  0  0  0
   49.0165   56.0674   25.4844 N   0  0  0  0  0  0  0  0  0  0  0  0
   49.5760   56.3616   28.5040 N   0  0  0  0  0  0  0  0  0  0  0  0
   49.4813   56.8410   29.7096 C   0  0  0  0  0  0  0  0  0  0  0  0
   48.6090   57.8931   29.7457 N   0  0  0  0  0  0  0  0  0  0  0  0
  2  1  1  6  0  0  0
  2  3  1  0  0  0  0
  2  5  1  0  0  0  0
  3  4  1  0  0  0  0
  3 17  1  0  0  0  0
  5  6  1  0  0  0  0
  7  6  1  6  0  0  0
  7  8  1  0  0  0  0
  7  9  1  0  0  0  0
 10  9  1  6  0  0  0
 10 11  1  0  0  0  0
 10 12  1  0  0  0  0
 11 16  1  0  0  0  0
 12 13  1  1  0  0  0
 12 14  1  0  0  0  0
 14 15  1  1  0  0  0
 14 16  1  0  0  0  0
 16 27  1  6  0  0  0
 18 19  2  0  0  0  0
 18 23  1  0  0  0  0
 19 20  1  0  0  0  0
 20 21  2  0  0  0  0
 21 22  1  0  0  0  0
 21 27  1  0  0  0  0
 22 23  2  0  0  0  0
 22 25  1  0  0  0  0
 23 24  1  0  0  0  0
 25 26  2  0  0  0  0
 26 27  1  0  0  0  0
M  END
>  <CHROM.1>
-120.17166568,-72.03611158,75.45081449,179.14346571,-147.38967854,42.34066644
158.83734508,48.28091560,56.40721689,30.55489465,-1.50734816,1.12493111,-1.31674250

>  <Name>
ligand

>  <RI>
0

>  <Rbt.Current_Directory>
/home/itssahil/PROJECTS/Mol_Feturizer/New_Systems/rnas/2GIS

>  <Rbt.Executable>
rbdock ($Id: //depot/dev/client3/rdock/2013.1/src/exe/rbdock.cxx#4 $)

>  <Rbt.Library>
libRbt.so (2013.1, Build901 2013/11/27)

>  <Rbt.Parameter_File>
/export/apps/rDock/src/rDock_2013.1_src/data/scripts/dock_solv.prm

>  <Rbt.Receptor>
prm/pocket_docking_2.prm

>  <SCORE>
-10.5549

>  <SCORE.INTER>
-10.3221

>  <SCORE.INTER.CONST>
1

>  <SCORE.INTER.POLAR>
0

>  <SCORE.INTER.ROT>
7

>  <SCORE.INTER.SOLV>
15.4493

>  <SCORE.INTER.VDW>
-20.2979

>  <SCORE.INTER.norm>
-0.382302

>  <SCORE.INTRA>
-0.831005

>  <SCORE.INTRA.DIHEDRAL>
-0.326073

>  <SCORE.INTRA.DIHEDRAL.0>
9.40024

>  <SCORE.INTRA.POLAR>
0

>  <SCORE.INTRA.POLAR.0>
0

>  <SCORE.INTRA.REPUL>
0.00602792

>  <SCORE.INTRA.REPUL.0>
0

>  <SCORE.INTRA.SOLV>
0.526763

>  <SCORE.INTRA.SOLV.lig_0>
-47.1049

>  <SCORE.INTRA.VDW>
-0.961489

>  <SCORE.INTRA.VDW.0>
-1.50278

>  <SCORE.INTRA.norm>
-0.030778

>  <SCORE.RESTR>
0.598291

>  <SCORE.RESTR.CAVITY>
0.598291

>  <SCORE.RESTR.norm>
0.0221589

>  <SCORE.SYSTEM>
0

>  <SCORE.SYSTEM.CONST>
0

>  <SCORE.SYSTEM.DIHEDRAL>
0

>  <SCORE.SYSTEM.SOLV>
0

>  <SCORE.SYSTEM.norm>
0

>  <SCORE.heavy>
27

>  <SCORE.norm>
-0.390921

>  <RMSD>
5.270

$$$$
ligand
 OpenBabel11021811433D
libRbt.so/2013.1/901 2013/11/27
 27 29  0  0  0  0  0  0  0  0999 V2000
   50.7191   54.3760   29.0984 N   0  0  0  0  0  0  0  0  0  0  0  0
   50.6487   54.5281   27.6417 C   0  0  2  0  0  0  0  0  0  0  0  0
   51.8479   55.3233   27.1570 C   0  0  0  0  0  0  0  0  0  0  0  0
   52.4974   55.9985   27.9506 O   0  0  0  0  0  0  0  0  0  0  0  0
   49.3460   55.2416   27.2281 C   0  0  0  0  0  0  0  0  0  0  0  0
   49.2439   56.5719   27.9727 C   0  0  0  0  0  0  0  0  0  0  0  0
   47.5458   57.2666   28.1072 S   0  0  2  0  0  0  0  0  0  0  0  0
   47.3820   58.3243   26.6352 C   0  0  0  0  0  0  0  0  0  0  0  0
   47.9408   58.4864   29.3779 C   0  0  0  0  0  0  0  0  0  0  0  0
   46.7072   59.1983   29.9597 C   0  0  1  0  0  0  0  0  0  0  0  0
   45.7821   58.1988   30.4811 O   0  0  0  0  0  0  0  0  0  0  0  0
   47.2711   59.9097   31.1628 C   0  0  1  0  0  0  0  0  0  0  0  0
   47.5730   61.2643   30.8270 O   0  0  0  0  0  0  0  0  0  0  0  0
   46.1436   59.8548   32.1862 C   0  0  1  0  0  0  0  0  0  0  0  0
   45.3684   61.0480   32.1945 O   0  0  0  0  0  0  0  0  0  0  0  0
   45.2541   58.6189   31.7944 C   0  0  2  0  0  0  0  0  0  0  0  0
   52.1349   55.3451   25.9599 O   0  0  0  0  0  0  0  0  0  0  0  0
   48.4138   55.7536   34.8583 N   0  0  0  0  0  0  0  0  0  0  0  0
   48.7196   56.8636   34.1776 C   0  0  0  0  0  0  0  0  0  0  0  0
   47.8114   57.4991   33.4541 N   0  0  0  0  0  0  0  0  0  0  0  0
   46.5542   57.0383   33.3469 C   0  0  0  0  0  0  0  0  0  0  0  0
   46.1853   55.8563   34.0391 C   0  0  0  0  0  0  0  0  0  0  0  0
   47.1828   55.2178   34.8184 C   0  0  0  0  0  0  0  0  0  0  0  0
   46.8973   54.0682   35.5203 N   0  0  0  0  0  0  0  0  0  0  0  0
   44.8882   55.6148   33.7626 N   0  0  0  0  0  0  0  0  0  0  0  0
   44.4449   56.5379   32.9604 C   0  0  0  0  0  0  0  0  0  0  0  0
   45.4273   57.4447   32.6748 N   0  0  0  0  0  0  0  0  0  0  0  0
  2  1  1  1  0  0  0
  2  3  1  0  0  0  0
  2  5  1  0  0  0  0
  3  4  1  0  0  0  0
  3 17  1  0  0  0  0
  5  6  1  0  0  0  0
  7  6  1  6  0  0  0
  7  8  1  0  0  0  0
  7  9  1  0  0  0  0
 10  9  1  1  0  0  0
 10 11  1  0  0  0  0
 10 12  1  0  0  0  0
 11 16  1  0  0  0  0
 12 13  1  6  0  0  0
 12 14  1  0  0  0  0
 14 15  1  6  0  0  0
 14 16  1  0  0  0  0
 16 27  1  1  0  0  0
 18 19  2  0  0  0  0
 18 23  1  0  0  0  0
 19 20  1  0  0  0  0
 20 21  2  0  0  0  0
 21 22  1  0  0  0  0
 21 27  1  0  0  0  0
 22 23  2  0  0  0  0
 22 25  1  0  0  0  0
 23 24  1  0  0  0  0
 25 26  2  0  0  0  0
 26 27  1  0  0  0  0
M  END
>  <CHROM.1>
-17.93032249,54.93502746,-158.50976244,-90.92743676,-171.62144347,56.12146809
81.96965034,47.80260134,57.14704848,30.70827298,-0.55979992,-0.83439933,2.20428367

>  <Name>
ligand

>  <RI>
0

>  <Rbt.Current_Directory>
/home/itssahil/PROJECTS/Mol_Feturizer/New_Systems/rnas/2GIS

>  <Rbt.Executable>
rbdock ($Id: //depot/dev/client3/rdock/2013.1/src/exe/rbdock.cxx#4 $)

>  <Rbt.Library>
libRbt.so (2013.1, Build901 2013/11/27)

>  <Rbt.Parameter_File>
/export/apps/rDock/src/rDock_2013.1_src/data/scripts/dock_solv.prm

>  <Rbt.Receptor>
prm/pocket_docking_4.prm

>  <SCORE>
-14.5388

>  <SCORE.INTER>
-11.3883

>  <SCORE.INTER.CONST>
1

>  <SCORE.INTER.POLAR>
0

>  <SCORE.INTER.ROT>
7

>  <SCORE.INTER.SOLV>
13.6348

>  <SCORE.INTER.VDW>
-20.4038

>  <SCORE.INTER.norm>
-0.421789

>  <SCORE.INTRA>
-3.24294

>  <SCORE.INTRA.DIHEDRAL>
-2.55882

>  <SCORE.INTRA.DIHEDRAL.0>
9.40024

>  <SCORE.INTRA.POLAR>
0

>  <SCORE.INTRA.POLAR.0>
0

>  <SCORE.INTRA.REPUL>
0

>  <SCORE.INTRA.REPUL.0>
0

>  <SCORE.INTRA.SOLV>
-2.21885

>  <SCORE.INTRA.SOLV.lig_0>
-47.1049

>  <SCORE.INTRA.VDW>
-0.8541

>  <SCORE.INTRA.VDW.0>
-1.50278

>  <SCORE.INTRA.norm>
-0.120109

>  <SCORE.RESTR>
0.0924479

>  <SCORE.RESTR.CAVITY>
0.0924479

>  <SCORE.RESTR.norm>
0.003424

>  <SCORE.SYSTEM>
0

>  <SCORE.SYSTEM.CONST>
0

>  <SCORE.SYSTEM.DIHEDRAL>
0

>  <SCORE.SYSTEM.SOLV>
0

>  <SCORE.SYSTEM.norm>
0

>  <SCORE.heavy>
27

>  <SCORE.norm>
-0.538474

>  <RMSD>
5.271

$$$$
ligand
 OpenBabel11021811433D
libRbt.so/2013.1/901 2013/11/27
 27 29  0  0  0  0  0  0  0  0999 V2000
   47.3573   52.5062   27.1720 N   0  0  0  0  0  0  0  0  0  0  0  0
   48.0729   53.1544   28.2755 C   0  0  2  0  0  0  0  0  0  0  0  0
   48.2689   52.1597   29.4057 C   0  0  0  0  0  0  0  0  0  0  0  0
   49.2957   51.4889   29.4611 O   0  0  0  0  0  0  0  0  0  0  0  0
   47.2928   54.3816   28.7880 C   0  0  0  0  0  0  0  0  0  0  0  0
   48.1440   55.1237   29.8172 C   0  0  0  0  0  0  0  0  0  0  0  0
   49.5916   56.0284   29.1314 S   0  0  2  0  0  0  0  0  0  0  0  0
   50.8483   54.7346   28.8891 C   0  0  0  0  0  0  0  0  0  0  0  0
   50.1232   56.7498   30.6985 C   0  0  0  0  0  0  0  0  0  0  0  0
   49.2486   57.9248   31.1692 C   0  0  1  0  0  0  0  0  0  0  0  0
   47.9267   57.4222   31.5253 O   0  0  0  0  0  0  0  0  0  0  0  0
   49.9030   58.3271   32.4659 C   0  0  1  0  0  0  0  0  0  0  0  0
   50.7949   59.4189   32.2400 O   0  0  0  0  0  0  0  0  0  0  0  0
   48.7391   58.7654   33.3463 C   0  0  1  0  0  0  0  0  0  0  0  0
   48.5540   60.1760   33.3273 O   0  0  0  0  0  0  0  0  0  0  0  0
   47.4653   58.0319   32.7883 C   0  0  2  0  0  0  0  0  0  0  0  0
   47.3751   51.9761   30.2323 O   0  0  0  0  0  0  0  0  0  0  0  0
   48.6801   54.0673   36.0113 N   0  0  0  0  0  0  0  0  0  0  0  0
   49.5159   54.9316   35.4252 C   0  0  0  0  0  0  0  0  0  0  0  0
   49.0665   55.9019   34.6450 N   0  0  0  0  0  0  0  0  0  0  0  0
   47.7562   56.0393   34.3833 C   0  0  0  0  0  0  0  0  0  0  0  0
   46.8313   55.1380   34.9704 C   0  0  0  0  0  0  0  0  0  0  0  0
   47.3527   54.1257   35.8152 C   0  0  0  0  0  0  0  0  0  0  0  0
   46.5153   53.2170   36.4224 N   0  0  0  0  0  0  0  0  0  0  0  0
   45.6007   55.4902   34.5478 N   0  0  0  0  0  0  0  0  0  0  0  0
   45.7006   56.5152   33.7530 C   0  0  0  0  0  0  0  0  0  0  0  0
   47.0057   56.8996   33.6194 N   0  0  0  0  0  0  0  0  0  0  0  0
  2  1  1  6  0  0  0
  2  3  1  0  0  0  0
  2  5  1  0  0  0  0
  3  4  1  0  0  0  0
  3 17  1  0  0  0  0
  5  6  1  0  0  0  0
  7  6  1  1  0  0  0
  7  8  1  0  0  0  0
  7  9  1  0  0  0  0
 10  9  1  1  0  0  0
 10 11  1  0  0  0  0
 10 12  1  0  0  0  0
 11 16  1  0  0  0  0
 12 13  1  6  0  0  0
 12 14  1  0  0  0  0
 14 15  1  6  0  0  0
 14 16  1  0  0  0  0
 16 27  1  1  0  0  0
 18 19  2  0  0  0  0
 18 23  1  0  0  0  0
 19 20  1  0  0  0  0
 20 21  2  0  0  0  0
 21 22  1  0  0  0  0
 21 27  1  0  0  0  0
 22 23  2  0  0  0  0
 22 25  1  0  0  0  0
 23 24  1  0  0  0  0
 25 26  2  0  0  0  0
 26 27  1  0  0  0  0
M  END
>  <CHROM.1>
92.38804343,-173.28707870,71.53453348,-79.89223505,-75.49240747,67.96064487
81.10394861,48.35792510,55.61530322,31.94247373,1.34112998,-1.15499114,-2.30570627

>  <Name>
ligand

>  <RI>
0

>  <Rbt.Current_Directory>
/home/itssahil/PROJECTS/Mol_Feturizer/New_Systems/rnas/2GIS

>  <Rbt.Executable>
rbdock ($Id: //depot/dev/client3/rdock/2013.1/src/exe/rbdock.cxx#4 $)

>  <Rbt.Library>
libRbt.so (2013.1, Build901 2013/11/27)

>  <Rbt.Parameter_File>
/export/apps/rDock/src/rDock_2013.1_src/data/scripts/dock_solv.prm

>  <Rbt.Receptor>
prm/pocket_docking_7.prm

>  <SCORE>
-16.339

>  <SCORE.INTER>
-11.413

>  <SCORE.INTER.CONST>
1

>  <SCORE.INTER.POLAR>
0

>  <SCORE.INTER.ROT>
7

>  <SCORE.INTER.SOLV>
15.3535

>  <SCORE.INTER.VDW>
-20.9932

>  <SCORE.INTER.norm>
-0.422704

>  <SCORE.INTRA>
-4.92598

>  <SCORE.INTRA.DIHEDRAL>
-4.86115

>  <SCORE.INTRA.DIHEDRAL.0>
9.40024

>  <SCORE.INTRA.POLAR>
0

>  <SCORE.INTRA.POLAR.0>
0

>  <SCORE.INTRA.REPUL>
0

>  <SCORE.INTRA.REPUL.0>
0

>  <SCORE.INTRA.SOLV>
-2.68698

>  <SCORE.INTRA.SOLV.lig_0>
-47.1049

>  <SCORE.INTRA.VDW>
-1.15192

>  <SCORE.INTRA.VDW.0>
-1.50278

>  <SCORE.INTRA.norm>
-0.182444

>  <SCORE.RESTR>
0

>  <SCORE.RESTR.CAVITY>
0

>  <SCORE.RESTR.norm>
0

>  <SCORE.SYSTEM>
0

>  <SCORE.SYSTEM.CONST>
0

>  <SCORE.SYSTEM.DIHEDRAL>
0

>  <SCORE.SYSTEM.SOLV>
0

>  <SCORE.SYSTEM.norm>
0

>  <SCORE.heavy>
27

>  <SCORE.norm>
-0.605148

>  <RMSD>
5.280

$$$$
ligand
 OpenBabel11021811433D
libRbt.so/2013.1/901 2013/11/27
 27 29  0  0  0  0  0  0  0  0999 V2000
   47.5138   52.3279   26.9209 N   0  0  0  0  0  0  0  0  0  0  0  0
   48.2635   53.5854   27.0007 C   0  0  2  0  0  0  0  0  0  0  0  0
   49.0940   53.6002   28.2717 C   0  0  0  0  0  0  0  0  0  0  0  0
   50.2381   54.0452   28.2516 O   0  0  0  0  0  0  0  0  0  0  0  0
   47.3073   54.7947   26.9864 C   0  0  0  0  0  0  0  0  0  0  0  0
   48.1277   56.0837   26.9905 C   0  0  0  0  0  0  0  0  0  0  0  0
   47.2462   57.5719   27.6169 S   0  0  2  0  0  0  0  0  0  0  0  0
   48.5821   58.7358   28.0326 C   0  0  0  0  0  0  0  0  0  0  0  0
   46.8530   56.8890   29.2410 C   0  0  0  0  0  0  0  0  0  0  0  0
   45.9320   57.7867   30.0854 C   0  0  1  0  0  0  0  0  0  0  0  0
   45.3224   56.9855   31.1405 O   0  0  0  0  0  0  0  0  0  0  0  0
   46.9064   58.7076   30.7738 C   0  0  1  0  0  0  0  0  0  0  0  0
   47.0076   59.9342   30.0500 O   0  0  0  0  0  0  0  0  0  0  0  0
   46.2822   58.9488   32.1427 C   0  0  1  0  0  0  0  0  0  0  0  0
   45.5382   60.1608   32.1869 O   0  0  0  0  0  0  0  0  0  0  0  0
   45.3487   57.7152   32.4237 C   0  0  2  0  0  0  0  0  0  0  0  0
   48.6486   53.1095   29.3093 O   0  0  0  0  0  0  0  0  0  0  0  0
   49.5148   55.8668   35.0330 N   0  0  0  0  0  0  0  0  0  0  0  0
   49.4841   56.8600   34.1377 C   0  0  0  0  0  0  0  0  0  0  0  0
   48.3508   57.2369   33.5669 N   0  0  0  0  0  0  0  0  0  0  0  0
   47.1905   56.6169   33.8382 C   0  0  0  0  0  0  0  0  0  0  0  0
   47.1744   55.5482   34.7708 C   0  0  0  0  0  0  0  0  0  0  0  0
   48.4063   55.1893   35.3739 C   0  0  0  0  0  0  0  0  0  0  0  0
   48.4675   54.1639   36.2907 N   0  0  0  0  0  0  0  0  0  0  0  0
   45.9038   55.1059   34.8561 N   0  0  0  0  0  0  0  0  0  0  0  0
   45.1551   55.8045   34.0538 C   0  0  0  0  0  0  0  0  0  0  0  0
   45.8944   56.7538   33.4046 N   0  0  0  0  0  0  0  0  0  0  0  0
  2  1  1  1  0  0  0
  2  3  1  0  0  0  0
  2  5  1  0  0  0  0
  3  4  1  0  0  0  0
  3 17  1  0  0  0  0
  5  6  1  0  0  0  0
  7  6  1  6  0  0  0
  7  8  1  0  0  0  0
  7  9  1  0  0  0  0
 10  9  1  6  0  0  0
 10 11  1  0  0  0  0
 10 12  1  0  0  0  0
 11 16  1  0  0  0  0
 12 13  1  6  0  0  0
 12 14  1  0  0  0  0
 14 15  1  6  0  0  0
 14 16  1  0  0  0  0
 16 27  1  1  0  0  0
 18 19  2  0  0  0  0
 18 23  1  0  0  0  0
 19 20  1  0  0  0  0
 20 21  2  0  0  0  0
 21 22  1  0  0  0  0
 21 27  1  0  0  0  0
 22 23  2  0  0  0  0
 22 25  1  0  0  0  0
 23 24  1  0  0  0  0
 25 26  2  0  0  0  0
 26 27  1  0  0  0  0
M  END
>  <CHROM.1>
139.37146779,-176.80710265,-157.35496743,161.17649519,-173.16531065,161.06395638
95.99359098,47.39312020,56.38826097,30.95346452,-1.27221287,-1.15504561,1.68052062

>  <Name>
ligand

>  <RI>
0

>  <Rbt.Current_Directory>
/home/itssahil/PROJECTS/Mol_Feturizer/New_Systems/rnas/2GIS

>  <Rbt.Executable>
rbdock ($Id: //depot/dev/client3/rdock/2013.1/src/exe/rbdock.cxx#4 $)

>  <Rbt.Library>
libRbt.so (2013.1, Build901 2013/11/27)

>  <Rbt.Parameter_File>
/export/apps/rDock/src/rDock_2013.1_src/data/scripts/dock_solv.prm

>  <Rbt.Receptor>
prm/pocket_docking_3.prm

>  <SCORE>
-9.67603

>  <SCORE.INTER>
-7.32828

>  <SCORE.INTER.CONST>
1

>  <SCORE.INTER.POLAR>
0

>  <SCORE.INTER.ROT>
7

>  <SCORE.INTER.SOLV>
13.9848

>  <SCORE.INTER.VDW>
-17.8138

>  <SCORE.INTER.norm>
-0.271418

>  <SCORE.INTRA>
-2.47186

>  <SCORE.INTRA.DIHEDRAL>
-2.3711

>  <SCORE.INTRA.DIHEDRAL.0>
9.40024

>  <SCORE.INTRA.POLAR>
0

>  <SCORE.INTRA.POLAR.0>
0

>  <SCORE.INTRA.REPUL>
0

>  <SCORE.INTRA.REPUL.0>
0

>  <SCORE.INTRA.SOLV>
-2.77

>  <SCORE.INTRA.SOLV.lig_0>
-47.1049

>  <SCORE.INTRA.VDW>
0.0986913

>  <SCORE.INTRA.VDW.0>
-1.50278

>  <SCORE.INTRA.norm>
-0.0915503

>  <SCORE.RESTR>
0.124105

>  <SCORE.RESTR.CAVITY>
0.124105

>  <SCORE.RESTR.norm>
0.00459646

>  <SCORE.SYSTEM>
0

>  <SCORE.SYSTEM.CONST>
0

>  <SCORE.SYSTEM.DIHEDRAL>
0

>  <SCORE.SYSTEM.SOLV>
0

>  <SCORE.SYSTEM.norm>
0

>  <SCORE.heavy>
27

>  <SCORE.norm>
-0.358372

>  <RMSD>
5.281

$$$$
ligand
 OpenBabel11021811433D
libRbt.so/2013.1/901 2013/11/27
 27 29  0  0  0  0  0  0  0  0999 V2000
   47.8254   52.8634   26.9831 N   0  0  0  0  0  0  0  0  0  0  0  0
   48.6030   53.2302   28.1709 C   0  0  2  0  0  0  0  0  0  0  0  0
   48.6190   52.0657   29.1451 C   0  0  0  0  0  0  0  0  0  0  0  0
   47.6898   51.9123   29.9329 O   0  0  0  0  0  0  0  0  0  0  0  0
   48.0041   54.4757   28.8542 C   0  0  0  0  0  0  0  0  0  0  0  0
   48.0224   55.6453   27.8711 C   0  0  0  0  0  0  0  0  0  0  0  0
   47.3246   57.2211   28.5147 S   0  0  2  0  0  0  0  0  0  0  0  0
   47.5952   58.4099   27.1635 C   0  0  0  0  0  0  0  0  0  0  0  0
   48.7076   57.6072   29.6087 C   0  0  0  0  0  0  0  0  0  0  0  0
   48.4072   58.7306   30.6161 C   0  0  1  0  0  0  0  0  0  0  0  0
   47.0432   58.5767   31.1087 O   0  0  0  0  0  0  0  0  0  0  0  0
   49.3082   58.3874   31.7745 C   0  0  1  0  0  0  0  0  0  0  0  0
   50.5174   59.1417   31.6876 O   0  0  0  0  0  0  0  0  0  0  0  0
   48.5078   58.8065   33.0015 C   0  0  1  0  0  0  0  0  0  0  0  0
   48.8742   60.1011   33.4642 O   0  0  0  0  0  0  0  0  0  0  0  0
   46.9960   58.7794   32.5704 C   0  0  2  0  0  0  0  0  0  0  0  0
   49.5899   51.3101   29.1926 O   0  0  0  0  0  0  0  0  0  0  0  0
   46.9810   54.3381   35.3733 N   0  0  0  0  0  0  0  0  0  0  0  0
   48.0160   55.1500   35.1311 C   0  0  0  0  0  0  0  0  0  0  0  0
   47.8709   56.2557   34.4179 N   0  0  0  0  0  0  0  0  0  0  0  0
   46.6866   56.5916   33.8806 C   0  0  0  0  0  0  0  0  0  0  0  0
   45.5619   55.7547   34.0976 C   0  0  0  0  0  0  0  0  0  0  0  0
   45.7562   54.5907   34.8835 C   0  0  0  0  0  0  0  0  0  0  0  0
   44.7101   53.7328   35.1391 N   0  0  0  0  0  0  0  0  0  0  0  0
   44.5151   56.3107   33.4556 N   0  0  0  0  0  0  0  0  0  0  0  0
   44.9084   57.4008   32.8645 C   0  0  0  0  0  0  0  0  0  0  0  0
   46.2367   57.6260   33.0968 N   0  0  0  0  0  0  0  0  0  0  0  0
  2  1  1  6  0  0  0
  2  3  1  0  0  0  0
  2  5  1  0  0  0  0
  3  4  1  0  0  0  0
  3 17  1  0  0  0  0
  5  6  1  0  0  0  0
  7  6  1  6  0  0  0
  7  8  1  0  0  0  0
  7  9  1  0  0  0  0
 10  9  1  6  0  0  0
 10 11  1  0  0  0  0
 10 12  1  0  0  0  0
 11 16  1  0  0  0  0
 12 13  1  6  0  0  0
 12 14  1  0  0  0  0
 14 15  1  6  0  0  0
 14 16  1  0  0  0  0
 16 27  1  1  0  0  0
 18 19  2  0  0  0  0
 18 23  1  0  0  0  0
 19 20  1  0  0  0  0
 20 21  2  0  0  0  0
 21 22  1  0  0  0  0
 21 27  1  0  0  0  0
 22 23  2  0  0  0  0
 22 25  1  0  0  0  0
 23 24  1  0  0  0  0
 25 26  2  0  0  0  0
 26 27  1  0  0  0  0
M  END
>  <CHROM.1>
-84.42330990,-60.10309927,179.40515621,176.39032971,-166.91150163,39.61074854
112.41358105,47.55447344,56.17896887,31.34032931,0.89765845,-1.22941148,-2.73034785

>  <Name>
ligand

>  <RI>
0

>  <Rbt.Current_Directory>
/home/itssahil/PROJECTS/Mol_Feturizer/New_Systems/rnas/2GIS

>  <Rbt.Executable>
rbdock ($Id: //depot/dev/client3/rdock/2013.1/src/exe/rbdock.cxx#4 $)

>  <Rbt.Library>
libRbt.so (2013.1, Build901 2013/11/27)

>  <Rbt.Parameter_File>
/export/apps/rDock/src/rDock_2013.1_src/data/scripts/dock_solv.prm

>  <Rbt.Receptor>
prm/pocket_docking_5.prm

>  <SCORE>
-15.2576

>  <SCORE.INTER>
-11.9262

>  <SCORE.INTER.CONST>
1

>  <SCORE.INTER.POLAR>
0

>  <SCORE.INTER.ROT>
7

>  <SCORE.INTER.SOLV>
11.3995

>  <SCORE.INTER.VDW>
-20.0173

>  <SCORE.INTER.norm>
-0.44171

>  <SCORE.INTRA>
-3.33144

>  <SCORE.INTRA.DIHEDRAL>
-3.64174

>  <SCORE.INTRA.DIHEDRAL.0>
9.40024

>  <SCORE.INTRA.POLAR>
0

>  <SCORE.INTRA.POLAR.0>
0

>  <SCORE.INTRA.REPUL>
0

>  <SCORE.INTRA.REPUL.0>
0

>  <SCORE.INTRA.SOLV>
-2.39736

>  <SCORE.INTRA.SOLV.lig_0>
-47.1049

>  <SCORE.INTRA.VDW>
-0.311894

>  <SCORE.INTRA.VDW.0>
-1.50278

>  <SCORE.INTRA.norm>
-0.123387

>  <SCORE.RESTR>
0

>  <SCORE.RESTR.CAVITY>
0

>  <SCORE.RESTR.norm>
0

>  <SCORE.SYSTEM>
0

>  <SCORE.SYSTEM.CONST>
0

>  <SCORE.SYSTEM.DIHEDRAL>
0

>  <SCORE.SYSTEM.SOLV>
0

>  <SCORE.SYSTEM.norm>
0

>  <SCORE.heavy>
27

>  <SCORE.norm>
-0.565096

>  <RMSD>
5.282

$$$$
ligand
 OpenBabel11021811433D
libRbt.so/2013.1/901 2013/11/27
 27 29  0  0  0  0  0  0  0  0999 V2000
   47.3543   53.5032   30.2164 N   0  0  0  0  0  0  0  0  0  0  0  0
   48.4972   54.2678   30.7256 C   0  0  2  0  0  0  0  0  0  0  0  0
   49.7864   53.6616   30.2007 C   0  0  0  0  0  0  0  0  0  0  0  0
   49.9356   52.4429   30.2006 O   0  0  0  0  0  0  0  0  0  0  0  0
   48.5103   54.2712   32.2673 C   0  0  0  0  0  0  0  0  0  0  0  0
   49.5146   55.3126   32.7586 C   0  0  0  0  0  0  0  0  0  0  0  0
   49.0361   56.1974   34.2989 S   0  0  2  0  0  0  0  0  0  0  0  0
   48.5270   54.8684   35.4332 C   0  0  0  0  0  0  0  0  0  0  0  0
   47.4377   56.7787   33.6940 C   0  0  0  0  0  0  0  0  0  0  0  0
   47.4769   58.1987   33.1030 C   0  0  1  0  0  0  0  0  0  0  0  0
   48.5985   58.2984   32.1763 O   0  0  0  0  0  0  0  0  0  0  0  0
   46.2322   58.2395   32.2542 C   0  0  1  0  0  0  0  0  0  0  0  0
   45.1684   58.8517   32.9837 O   0  0  0  0  0  0  0  0  0  0  0  0
   46.6259   59.1043   31.0630 C   0  0  1  0  0  0  0  0  0  0  0  0
   46.2203   60.4583   31.2260 O   0  0  0  0  0  0  0  0  0  0  0  0
   48.1907   59.0049   30.9458 C   0  0  2  0  0  0  0  0  0  0  0  0
   50.7094   54.3890   29.8335 O   0  0  0  0  0  0  0  0  0  0  0  0
   47.8069   57.6236   25.8934 N   0  0  0  0  0  0  0  0  0  0  0  0
   47.0951   58.5495   26.5454 C   0  0  0  0  0  0  0  0  0  0  0  0
   47.3125   58.8093   27.8251 N   0  0  0  0  0  0  0  0  0  0  0  0
   48.2337   58.1321   28.5301 C   0  0  0  0  0  0  0  0  0  0  0  0
   49.0044   57.1303   27.8861 C   0  0  0  0  0  0  0  0  0  0  0  0
   48.7535   56.8973   26.5102 C   0  0  0  0  0  0  0  0  0  0  0  0
   49.4646   55.9429   25.8181 N   0  0  0  0  0  0  0  0  0  0  0  0
   49.8404   56.6100   28.8067 N   0  0  0  0  0  0  0  0  0  0  0  0
   49.6375   57.2004   29.9480 C   0  0  0  0  0  0  0  0  0  0  0  0
   48.6617   58.1513   29.8351 N   0  0  0  0  0  0  0  0  0  0  0  0
  2  1  1  1  0  0  0
  2  3  1  0  0  0  0
  2  5  1  0  0  0  0
  3  4  1  0  0  0  0
  3 17  1  0  0  0  0
  5  6  1  0  0  0  0
  7  6  1  6  0  0  0
  7  8  1  0  0  0  0
  7  9  1  0  0  0  0
 10  9  1  6  0  0  0
 10 11  1  0  0  0  0
 10 12  1  0  0  0  0
 11 16  1  0  0  0  0
 12 13  1  1  0  0  0
 12 14  1  0  0  0  0
 14 15  1  1  0  0  0
 14 16  1  0  0  0  0
 16 27  1  6  0  0  0
 18 19  2  0  0  0  0
 18 23  1  0  0  0  0
 19 20  1  0  0  0  0
 20 21  2  0  0  0  0
 21 22  1  0  0  0  0
 21 27  1  0  0  0  0
 22 23  2  0  0  0  0
 22 25  1  0  0  0  0
 23 24  1  0  0  0  0
 25 26  2  0  0  0  0
 26 27  1  0  0  0  0
M  END
>  <CHROM.1>
-43.79411618,-167.71592214,144.54956509,48.19634145,-94.63092927,48.07159332
159.69814087,48.31091625,56.72767800,30.67286416,-1.66365022,1.07326383,-1.33406306

>  <Name>
ligand

>  <RI>
0

>  <Rbt.Current_Directory>
/home/itssahil/PROJECTS/Mol_Feturizer/New_Systems/rnas/2GIS

>  <Rbt.Executable>
rbdock ($Id: //depot/dev/client3/rdock/2013.1/src/exe/rbdock.cxx#4 $)

>  <Rbt.Library>
libRbt.so (2013.1, Build901 2013/11/27)

>  <Rbt.Parameter_File>
/export/apps/rDock/src/rDock_2013.1_src/data/scripts/dock_solv.prm

>  <Rbt.Receptor>
prm/pocket_docking_2.prm

>  <SCORE>
-13.9103

>  <SCORE.INTER>
-11.9009

>  <SCORE.INTER.CONST>
1

>  <SCORE.INTER.POLAR>
0

>  <SCORE.INTER.ROT>
7

>  <SCORE.INTER.SOLV>
12.8039

>  <SCORE.INTER.VDW>
-20.4686

>  <SCORE.INTER.norm>
-0.440774

>  <SCORE.INTRA>
-2.91827

>  <SCORE.INTRA.DIHEDRAL>
0.227985

>  <SCORE.INTRA.DIHEDRAL.0>
9.40024

>  <SCORE.INTRA.POLAR>
0

>  <SCORE.INTRA.POLAR.0>
0

>  <SCORE.INTRA.REPUL>
0

>  <SCORE.INTRA.REPUL.0>
0

>  <SCORE.INTRA.SOLV>
-2.92808

>  <SCORE.INTRA.SOLV.lig_0>
-47.1049

>  <SCORE.INTRA.VDW>
-1.56823

>  <SCORE.INTRA.VDW.0>
-1.50278

>  <SCORE.INTRA.norm>
-0.108084

>  <SCORE.RESTR>
0.908889

>  <SCORE.RESTR.CAVITY>
0.908889

>  <SCORE.RESTR.norm>
0.0336625

>  <SCORE.SYSTEM>
0

>  <SCORE.SYSTEM.CONST>
0

>  <SCORE.SYSTEM.DIHEDRAL>
0

>  <SCORE.SYSTEM.SOLV>
0

>  <SCORE.SYSTEM.norm>
0

>  <SCORE.heavy>
27

>  <SCORE.norm>
-0.515196

>  <RMSD>
5.289

$$$$
ligand
 OpenBabel11021811433D
libRbt.so/2013.1/901 2013/11/27
 27 29  0  0  0  0  0  0  0  0999 V2000
   45.8988   57.6613   28.6367 N   0  0  0  0  0  0  0  0  0  0  0  0
   47.0468   58.3559   29.2279 C   0  0  2  0  0  0  0  0  0  0  0  0
   48.3110   57.9728   28.4793 C   0  0  0  0  0  0  0  0  0  0  0  0
   48.4931   56.8071   28.1395 O   0  0  0  0  0  0  0  0  0  0  0  0
   47.1938   57.9982   30.7203 C   0  0  0  0  0  0  0  0  0  0  0  0
   48.3163   58.8369   31.3295 C   0  0  0  0  0  0  0  0  0  0  0  0
   48.6028   58.5754   33.1278 S   0  0  2  0  0  0  0  0  0  0  0  0
   50.0562   59.6057   33.4993 C   0  0  0  0  0  0  0  0  0  0  0  0
   49.3576   56.9438   32.9634 C   0  0  0  0  0  0  0  0  0  0  0  0
   48.4183   55.7847   33.3393 C   0  0  1  0  0  0  0  0  0  0  0  0
   47.8096   55.2520   32.1258 O   0  0  0  0  0  0  0  0  0  0  0  0
   49.3752   54.7255   33.8231 C   0  0  1  0  0  0  0  0  0  0  0  0
   49.4674   54.7703   35.2472 O   0  0  0  0  0  0  0  0  0  0  0  0
   48.7362   53.4175   33.3732 C   0  0  1  0  0  0  0  0  0  0  0  0
   47.9769   52.8070   34.4102 O   0  0  0  0  0  0  0  0  0  0  0  0
   47.8157   53.7758   32.1499 C   0  0  2  0  0  0  0  0  0  0  0  0
   49.1847   58.8137   28.2665 O   0  0  0  0  0  0  0  0  0  0  0  0
   51.1382   54.7418   28.1991 N   0  0  0  0  0  0  0  0  0  0  0  0
   50.9547   55.4642   29.3097 C   0  0  0  0  0  0  0  0  0  0  0  0
   50.0895   55.0896   30.2388 N   0  0  0  0  0  0  0  0  0  0  0  0
   49.3368   53.9870   30.0906 C   0  0  0  0  0  0  0  0  0  0  0  0
   49.4852   53.1954   28.9228 C   0  0  0  0  0  0  0  0  0  0  0  0
   50.4368   53.6212   27.9620 C   0  0  0  0  0  0  0  0  0  0  0  0
   50.6378   52.9018   26.8054 N   0  0  0  0  0  0  0  0  0  0  0  0
   48.6225   52.1643   29.0218 N   0  0  0  0  0  0  0  0  0  0  0  0
   47.9619   52.2675   30.1377 C   0  0  0  0  0  0  0  0  0  0  0  0
   48.3648   53.3696   30.8393 N   0  0  0  0  0  0  0  0  0  0  0  0
  2  1  1  6  0  0  0
  2  3  1  0  0  0  0
  2  5  1  0  0  0  0
  3  4  1  0  0  0  0
  3 17  1  0  0  0  0
  5  6  1  0  0  0  0
  7  6  1  6  0  0  0
  7  8  1  0  0  0  0
  7  9  1  0  0  0  0
 10  9  1  6  0  0  0
 10 11  1  0  0  0  0
 10 12  1  0  0  0  0
 11 16  1  0  0  0  0
 12 13  1  1  0  0  0
 12 14  1  0  0  0  0
 14 15  1  1  0  0  0
 14 16  1  0  0  0  0
 16 27  1  6  0  0  0
 18 19  2  0  0  0  0
 18 23  1  0  0  0  0
 19 20  1  0  0  0  0
 20 21  2  0  0  0  0
 21 22  1  0  0  0  0
 21 27  1  0  0  0  0
 22 23  2  0  0  0  0
 22 25  1  0  0  0  0
 23 24  1  0  0  0  0
 25 26  2  0  0  0  0
 26 27  1  0  0  0  0
M  END
>  <CHROM.1>
-41.48659781,-174.82019286,178.32831017,175.84401311,-103.25266052,96.60648293
34.99988517,48.82981605,55.70966776,30.92329596,2.80564276,-1.41369094,2.08164539

>  <Name>
ligand

>  <RI>
0

>  <Rbt.Current_Directory>
/home/itssahil/PROJECTS/Mol_Feturizer/New_Systems/rnas/2GIS

>  <Rbt.Executable>
rbdock ($Id: //depot/dev/client3/rdock/2013.1/src/exe/rbdock.cxx#4 $)

>  <Rbt.Library>
libRbt.so (2013.1, Build901 2013/11/27)

>  <Rbt.Parameter_File>
/export/apps/rDock/src/rDock_2013.1_src/data/scripts/dock_solv.prm

>  <Rbt.Receptor>
prm/pocket_docking_3.prm

>  <SCORE>
-17.1671

>  <SCORE.INTER>
-12.729

>  <SCORE.INTER.CONST>
1

>  <SCORE.INTER.POLAR>
0

>  <SCORE.INTER.ROT>
7

>  <SCORE.INTER.SOLV>
8.70568

>  <SCORE.INTER.VDW>
-19.6546

>  <SCORE.INTER.norm>
-0.471445

>  <SCORE.INTRA>
-4.43803

>  <SCORE.INTRA.DIHEDRAL>
0.167452

>  <SCORE.INTRA.DIHEDRAL.0>
9.40024

>  <SCORE.INTRA.POLAR>
0

>  <SCORE.INTRA.POLAR.0>
0

>  <SCORE.INTRA.REPUL>
0

>  <SCORE.INTRA.REPUL.0>
0

>  <SCORE.INTRA.SOLV>
-2.99018

>  <SCORE.INTRA.SOLV.lig_0>
-47.1049

>  <SCORE.INTRA.VDW>
-3.02667

>  <SCORE.INTRA.VDW.0>
-1.50278

>  <SCORE.INTRA.norm>
-0.164372

>  <SCORE.RESTR>
0

>  <SCORE.RESTR.CAVITY>
0

>  <SCORE.RESTR.norm>
0

>  <SCORE.SYSTEM>
0

>  <SCORE.SYSTEM.CONST>
0

>  <SCORE.SYSTEM.DIHEDRAL>
0

>  <SCORE.SYSTEM.SOLV>
0

>  <SCORE.SYSTEM.norm>
0

>  <SCORE.heavy>
27

>  <SCORE.norm>
-0.635817

>  <RMSD>
5.291

$$$$
ligand
 OpenBabel11021811433D
libRbt.so/2013.1/901 2013/11/27
 27 29  0  0  0  0  0  0  0  0999 V2000
   50.2162   56.0061   28.4647 N   0  0  0  0  0  0  0  0  0  0  0  0
   50.5507   55.6513   29.8475 C   0  0  2  0  0  0  0  0  0  0  0  0
   50.7218   54.1467   29.9570 C   0  0  0  0  0  0  0  0  0  0  0  0
   50.7641   53.4586   28.9410 O   0  0  0  0  0  0  0  0  0  0  0  0
   49.4483   56.1244   30.8160 C   0  0  0  0  0  0  0  0  0  0  0  0
   49.6045   57.6245   31.0603 C   0  0  0  0  0  0  0  0  0  0  0  0
   48.2611   58.4019   32.0479 S   0  0  2  0  0  0  0  0  0  0  0  0
   48.6826   60.1723   32.0529 C   0  0  0  0  0  0  0  0  0  0  0  0
   48.8875   57.8839   33.6597 C   0  0  0  0  0  0  0  0  0  0  0  0
   48.2709   56.5710   34.1726 C   0  0  1  0  0  0  0  0  0  0  0  0
   47.1139   56.2350   33.3508 O   0  0  0  0  0  0  0  0  0  0  0  0
   49.3295   55.5528   33.8350 C   0  0  1  0  0  0  0  0  0  0  0  0
   50.1509   55.3113   34.9777 O   0  0  0  0  0  0  0  0  0  0  0  0
   48.5374   54.3016   33.4764 C   0  0  1  0  0  0  0  0  0  0  0  0
   48.4241   53.4052   34.5755 O   0  0  0  0  0  0  0  0  0  0  0  0
   47.1177   54.7969   33.0167 C   0  0  2  0  0  0  0  0  0  0  0  0
   50.7548   53.6050   31.0622 O   0  0  0  0  0  0  0  0  0  0  0  0
   47.9192   52.2901   28.4719 N   0  0  0  0  0  0  0  0  0  0  0  0
   48.3580   51.9431   29.6868 C   0  0  0  0  0  0  0  0  0  0  0  0
   48.0622   52.6639   30.7570 N   0  0  0  0  0  0  0  0  0  0  0  0
   47.3369   53.7906   30.6633 C   0  0  0  0  0  0  0  0  0  0  0  0
   46.8606   54.2077   29.3939 C   0  0  0  0  0  0  0  0  0  0  0  0
   47.1833   53.3966   28.2767 C   0  0  0  0  0  0  0  0  0  0  0  0
   46.7531   53.7366   27.0138 N   0  0  0  0  0  0  0  0  0  0  0  0
   46.1740   55.3532   29.5768 N   0  0  0  0  0  0  0  0  0  0  0  0
   46.2008   55.6688   30.8385 C   0  0  0  0  0  0  0  0  0  0  0  0
   46.8994   54.7382   31.5562 N   0  0  0  0  0  0  0  0  0  0  0  0
  2  1  1  6  0  0  0
  2  3  1  0  0  0  0
  2  5  1  0  0  0  0
  3  4  1  0  0  0  0
  3 17  1  0  0  0  0
  5  6  1  0  0  0  0
  7  6  1  6  0  0  0
  7  8  1  0  0  0  0
  7  9  1  0  0  0  0
 10  9  1  6  0  0  0
 10 11  1  0  0  0  0
 10 12  1  0  0  0  0
 11 16  1  0  0  0  0
 12 13  1  1  0  0  0
 12 14  1  0  0  0  0
 14 15  1  1  0  0  0
 14 16  1  0  0  0  0
 16 27  1  6  0  0  0
 18 19  2  0  0  0  0
 18 23  1  0  0  0  0
 19 20  1  0  0  0  0
 20 21  2  0  0  0  0
 21 22  1  0  0  0  0
 21 27  1  0  0  0  0
 22 23  2  0  0  0  0
 22 25  1  0  0  0  0
 23 24  1  0  0  0  0
 25 26  2  0  0  0  0
 26 27  1  0  0  0  0
M  END
>  <CHROM.1>
10.27704891,-78.22742669,173.52593572,-176.17877124,-94.33912364,-12.54272775
150.43853064,48.49958853,55.25940575,31.26800448,2.67328399,1.48806269,2.88841531

>  <Name>
ligand

>  <RI>
0

>  <Rbt.Current_Directory>
/home/itssahil/PROJECTS/Mol_Feturizer/New_Systems/rnas/2GIS

>  <Rbt.Executable>
rbdock ($Id: //depot/dev/client3/rdock/2013.1/src/exe/rbdock.cxx#4 $)

>  <Rbt.Library>
libRbt.so (2013.1, Build901 2013/11/27)

>  <Rbt.Parameter_File>
/export/apps/rDock/src/rDock_2013.1_src/data/scripts/dock_solv.prm

>  <Rbt.Receptor>
prm/pocket_docking_4.prm

>  <SCORE>
-14.3849

>  <SCORE.INTER>
-10.3315

>  <SCORE.INTER.CONST>
1

>  <SCORE.INTER.POLAR>
0

>  <SCORE.INTER.ROT>
7

>  <SCORE.INTER.SOLV>
8.63596

>  <SCORE.INTER.VDW>
-18.033

>  <SCORE.INTER.norm>
-0.382647

>  <SCORE.INTRA>
-4.05347

>  <SCORE.INTRA.DIHEDRAL>
2.10103

>  <SCORE.INTRA.DIHEDRAL.0>
9.40024

>  <SCORE.INTRA.POLAR>
0

>  <SCORE.INTRA.POLAR.0>
0

>  <SCORE.INTRA.REPUL>
0

>  <SCORE.INTRA.REPUL.0>
0

>  <SCORE.INTRA.SOLV>
-1.97925

>  <SCORE.INTRA.SOLV.lig_0>
-47.1049

>  <SCORE.INTRA.VDW>
-4.11436

>  <SCORE.INTRA.VDW.0>
-1.50278

>  <SCORE.INTRA.norm>
-0.150129

>  <SCORE.RESTR>
0

>  <SCORE.RESTR.CAVITY>
0

>  <SCORE.RESTR.norm>
0

>  <SCORE.SYSTEM>
0

>  <SCORE.SYSTEM.CONST>
0

>  <SCORE.SYSTEM.DIHEDRAL>
0

>  <SCORE.SYSTEM.SOLV>
0

>  <SCORE.SYSTEM.norm>
0

>  <SCORE.heavy>
27

>  <SCORE.norm>
-0.532776

>  <RMSD>
5.294

$$$$
ligand
 OpenBabel11021811433D
libRbt.so/2013.1/901 2013/11/27
 27 29  0  0  0  0  0  0  0  0999 V2000
   47.8728   52.8010   26.9443 N   0  0  0  0  0  0  0  0  0  0  0  0
   47.7628   54.0914   27.6318 C   0  0  2  0  0  0  0  0  0  0  0  0
   47.2474   53.8712   29.0428 C   0  0  0  0  0  0  0  0  0  0  0  0
   47.9159   54.2396   30.0045 O   0  0  0  0  0  0  0  0  0  0  0  0
   46.8141   55.0384   26.8701 C   0  0  0  0  0  0  0  0  0  0  0  0
   47.1099   56.4807   27.2785 C   0  0  0  0  0  0  0  0  0  0  0  0
   46.6390   56.9198   29.0018 S   0  0  2  0  0  0  0  0  0  0  0  0
   44.8252   57.0576   28.9439 C   0  0  0  0  0  0  0  0  0  0  0  0
   47.1297   58.6537   28.8958 C   0  0  0  0  0  0  0  0  0  0  0  0
   47.2082   59.3611   30.2598 C   0  0  1  0  0  0  0  0  0  0  0  0
   45.9784   59.1053   31.0007 O   0  0  0  0  0  0  0  0  0  0  0  0
   48.2898   58.5900   30.9718 C   0  0  1  0  0  0  0  0  0  0  0  0
   49.5379   59.2705   30.8379 O   0  0  0  0  0  0  0  0  0  0  0  0
   47.8416   58.5845   32.4281 C   0  0  1  0  0  0  0  0  0  0  0  0
   48.4668   59.6140   33.1856 O   0  0  0  0  0  0  0  0  0  0  0  0
   46.2816   58.7803   32.4086 C   0  0  2  0  0  0  0  0  0  0  0  0
   46.1908   53.2675   29.2300 O   0  0  0  0  0  0  0  0  0  0  0  0
   46.0243   54.1336   34.8425 N   0  0  0  0  0  0  0  0  0  0  0  0
   47.0310   55.0141   34.8632 C   0  0  0  0  0  0  0  0  0  0  0  0
   46.9522   56.1646   34.2132 N   0  0  0  0  0  0  0  0  0  0  0  0
   45.8725   56.4815   33.4797 C   0  0  0  0  0  0  0  0  0  0  0  0
   44.7844   55.5736   33.4152 C   0  0  0  0  0  0  0  0  0  0  0  0
   44.9013   54.3618   34.1419 C   0  0  0  0  0  0  0  0  0  0  0  0
   43.8843   53.4338   34.1291 N   0  0  0  0  0  0  0  0  0  0  0  0
   43.8449   56.1251   32.6213 N   0  0  0  0  0  0  0  0  0  0  0  0
   44.2712   57.2777   32.1947 C   0  0  0  0  0  0  0  0  0  0  0  0
   45.5133   57.5511   32.6963 N   0  0  0  0  0  0  0  0  0  0  0  0
  2  1  1  6  0  0  0
  2  3  1  0  0  0  0
  2  5  1  0  0  0  0
  3  4  1  0  0  0  0
  3 17  1  0  0  0  0
  5  6  1  0  0  0  0
  7  6  1  6  0  0  0
  7  8  1  0  0  0  0
  7  9  1  0  0  0  0
 10  9  1  6  0  0  0
 10 11  1  0  0  0  0
 10 12  1  0  0  0  0
 11 16  1  0  0  0  0
 12 13  1  1  0  0  0
 12 14  1  0  0  0  0
 14 15  1  1  0  0  0
 14 16  1  0  0  0  0
 16 27  1  6  0  0  0
 18 19  2  0  0  0  0
 18 23  1  0  0  0  0
 19 20  1  0  0  0  0
 20 21  2  0  0  0  0
 21 22  1  0  0  0  0
 21 27  1  0  0  0  0
 22 23  2  0  0  0  0
 22 25  1  0  0  0  0
 23 24  1  0  0  0  0
 25 26  2  0  0  0  0
 26 27  1  0  0  0  0
M  END
>  <CHROM.1>
121.26561997,-159.10921969,-69.53506084,-74.55717612,-166.52915584,-49.69720384
143.35239947,46.56808628,56.42036192,31.00687506,0.96304051,-1.16493948,-2.31667198

>  <Name>
ligand

>  <RI>
0

>  <Rbt.Current_Directory>
/home/itssahil/PROJECTS/Mol_Feturizer/New_Systems/rnas/2GIS

>  <Rbt.Executable>
rbdock ($Id: //depot/dev/client3/rdock/2013.1/src/exe/rbdock.cxx#4 $)

>  <Rbt.Library>
libRbt.so (2013.1, Build901 2013/11/27)

>  <Rbt.Parameter_File>
/export/apps/rDock/src/rDock_2013.1_src/data/scripts/dock_solv.prm

>  <Rbt.Receptor>
prm/pocket_docking_4.prm

>  <SCORE>
-12.402

>  <SCORE.INTER>
-7.67776

>  <SCORE.INTER.CONST>
1

>  <SCORE.INTER.POLAR>
0

>  <SCORE.INTER.ROT>
7

>  <SCORE.INTER.SOLV>
10.8847

>  <SCORE.INTER.VDW>
-17.0134

>  <SCORE.INTER.norm>
-0.284362

>  <SCORE.INTRA>
-4.72864

>  <SCORE.INTRA.DIHEDRAL>
-2.59634

>  <SCORE.INTRA.DIHEDRAL.0>
9.40024

>  <SCORE.INTRA.POLAR>
0

>  <SCORE.INTRA.POLAR.0>
0

>  <SCORE.INTRA.REPUL>
0

>  <SCORE.INTRA.REPUL.0>
0

>  <SCORE.INTRA.SOLV>
-2.68626

>  <SCORE.INTRA.SOLV.lig_0>
-47.1049

>  <SCORE.INTRA.VDW>
-2.08734

>  <SCORE.INTRA.VDW.0>
-1.50278

>  <SCORE.INTRA.norm>
-0.175135

>  <SCORE.RESTR>
0.00435343

>  <SCORE.RESTR.CAVITY>
0.00435343

>  <SCORE.RESTR.norm>
0.000161238

>  <SCORE.SYSTEM>
0

>  <SCORE.SYSTEM.CONST>
0

>  <SCORE.SYSTEM.DIHEDRAL>
0

>  <SCORE.SYSTEM.SOLV>
0

>  <SCORE.SYSTEM.norm>
0

>  <SCORE.heavy>
27

>  <SCORE.norm>
-0.459335

>  <RMSD>
5.294

$$$$
ligand
 OpenBabel11021811433D
libRbt.so/2013.1/901 2013/11/27
 27 29  0  0  0  0  0  0  0  0999 V2000
   45.5935   57.9222   30.6242 N   0  0  0  0  0  0  0  0  0  0  0  0
   46.7707   58.7127   30.2512 C   0  0  2  0  0  0  0  0  0  0  0  0
   47.0914   58.4830   28.7851 C   0  0  0  0  0  0  0  0  0  0  0  0
   46.3559   57.7782   28.0996 O   0  0  0  0  0  0  0  0  0  0  0  0
   47.9857   58.3282   31.1190 C   0  0  0  0  0  0  0  0  0  0  0  0
   47.6536   58.5822   32.5886 C   0  0  0  0  0  0  0  0  0  0  0  0
   49.0781   58.4608   33.7464 S   0  0  2  0  0  0  0  0  0  0  0  0
   50.3886   59.4324   32.9398 C   0  0  0  0  0  0  0  0  0  0  0  0
   49.5506   56.7797   33.2888 C   0  0  0  0  0  0  0  0  0  0  0  0
   48.5231   55.7118   33.7022 C   0  0  1  0  0  0  0  0  0  0  0  0
   47.8099   55.2523   32.5161 O   0  0  0  0  0  0  0  0  0  0  0  0
   49.3955   54.5612   34.1338 C   0  0  1  0  0  0  0  0  0  0  0  0
   49.5583   54.5823   35.5522 O   0  0  0  0  0  0  0  0  0  0  0  0
   48.6136   53.3249   33.7073 C   0  0  1  0  0  0  0  0  0  0  0  0
   47.8487   52.7791   34.7758 O   0  0  0  0  0  0  0  0  0  0  0  0
   47.6754   53.7821   32.5314 C   0  0  2  0  0  0  0  0  0  0  0  0
   48.1205   58.9483   28.2949 O   0  0  0  0  0  0  0  0  0  0  0  0
   50.8965   54.4576   28.4387 N   0  0  0  0  0  0  0  0  0  0  0  0
   50.8371   55.1813   29.5621 C   0  0  0  0  0  0  0  0  0  0  0  0
   49.9814   54.8842   30.5273 N   0  0  0  0  0  0  0  0  0  0  0  0
   49.1154   53.8646   30.4057 C   0  0  0  0  0  0  0  0  0  0  0  0
   49.1303   53.0763   29.2264 C   0  0  0  0  0  0  0  0  0  0  0  0
   50.0756   53.4161   28.2258 C   0  0  0  0  0  0  0  0  0  0  0  0
   50.1506   52.6942   27.0558 N   0  0  0  0  0  0  0  0  0  0  0  0
   48.1734   52.1359   29.3573 N   0  0  0  0  0  0  0  0  0  0  0  0
   47.5777   52.2913   30.5033 C   0  0  0  0  0  0  0  0  0  0  0  0
   48.1210   53.3387   31.1938 N   0  0  0  0  0  0  0  0  0  0  0  0
  2  1  1  1  0  0  0
  2  3  1  0  0  0  0
  2  5  1  0  0  0  0
  3  4  1  0  0  0  0
  3 17  1  0  0  0  0
  5  6  1  0  0  0  0
  7  6  1  6  0  0  0
  7  8  1  0  0  0  0
  7  9  1  0  0  0  0
 10  9  1  6  0  0  0
 10 11  1  0  0  0  0
 10 12  1  0  0  0  0
 11 16  1  0  0  0  0
 12 13  1  1  0  0  0
 12 14  1  0  0  0  0
 14 15  1  1  0  0  0
 14 16  1  0  0  0  0
 16 27  1  6  0  0  0
 18 19  2  0  0  0  0
 18 23  1  0  0  0  0
 19 20  1  0  0  0  0
 20 21  2  0  0  0  0
 21 22  1  0  0  0  0
 21 27  1  0  0  0  0
 22 23  2  0  0  0  0
 22 25  1  0  0  0  0
 23 24  1  0  0  0  0
 25 26  2  0  0  0  0
 26 27  1  0  0  0  0
M  END
>  <CHROM.1>
3.65829158,-59.64701281,-169.76922722,47.06418605,-67.76330717,106.09745249
35.31209908,48.59904904,55.70417982,31.32685706,2.38557189,-1.37388457,1.31223181

>  <Name>
ligand

>  <RI>
0

>  <Rbt.Current_Directory>
/home/itssahil/PROJECTS/Mol_Feturizer/New_Systems/rnas/2GIS

>  <Rbt.Executable>
rbdock ($Id: //depot/dev/client3/rdock/2013.1/src/exe/rbdock.cxx#4 $)

>  <Rbt.Library>
libRbt.so (2013.1, Build901 2013/11/27)

>  <Rbt.Parameter_File>
/export/apps/rDock/src/rDock_2013.1_src/data/scripts/dock_solv.prm

>  <Rbt.Receptor>
prm/pocket_docking_4.prm

>  <SCORE>
-16.7883

>  <SCORE.INTER>
-14.4873

>  <SCORE.INTER.CONST>
1

>  <SCORE.INTER.POLAR>
0

>  <SCORE.INTER.ROT>
7

>  <SCORE.INTER.SOLV>
8.96612

>  <SCORE.INTER.VDW>
-20.9136

>  <SCORE.INTER.norm>
-0.536566

>  <SCORE.INTRA>
-2.30898

>  <SCORE.INTRA.DIHEDRAL>
-1.33792

>  <SCORE.INTRA.DIHEDRAL.0>
9.40024

>  <SCORE.INTRA.POLAR>
0

>  <SCORE.INTRA.POLAR.0>
0

>  <SCORE.INTRA.REPUL>
0

>  <SCORE.INTRA.REPUL.0>
0

>  <SCORE.INTRA.SOLV>
-1.964

>  <SCORE.INTRA.SOLV.lig_0>
-47.1049

>  <SCORE.INTRA.VDW>
-0.658016

>  <SCORE.INTRA.VDW.0>
-1.50278

>  <SCORE.INTRA.norm>
-0.0855177

>  <SCORE.RESTR>
0.0080043

>  <SCORE.RESTR.CAVITY>
0.0080043

>  <SCORE.RESTR.norm>
0.000296456

>  <SCORE.SYSTEM>
0

>  <SCORE.SYSTEM.CONST>
0

>  <SCORE.SYSTEM.DIHEDRAL>
0

>  <SCORE.SYSTEM.SOLV>
0

>  <SCORE.SYSTEM.norm>
0

>  <SCORE.heavy>
27

>  <SCORE.norm>
-0.621787

>  <RMSD>
5.297

$$$$
ligand
 OpenBabel11021811433D
libRbt.so/2013.1/901 2013/11/27
 27 29  0  0  0  0  0  0  0  0999 V2000
   48.5658   52.9192   28.4082 N   0  0  0  0  0  0  0  0  0  0  0  0
   48.2253   53.6114   27.1613 C   0  0  2  0  0  0  0  0  0  0  0  0
   48.2382   52.6198   26.0117 C   0  0  0  0  0  0  0  0  0  0  0  0
   47.5419   52.8206   25.0206 O   0  0  0  0  0  0  0  0  0  0  0  0
   49.2224   54.7529   26.8789 C   0  0  0  0  0  0  0  0  0  0  0  0
   49.0714   55.8288   27.9533 C   0  0  0  0  0  0  0  0  0  0  0  0
   47.4320   56.6619   28.0033 S   0  0  2  0  0  0  0  0  0  0  0  0
   47.4817   57.8221   26.6020 C   0  0  0  0  0  0  0  0  0  0  0  0
   47.8190   57.7578   29.3846 C   0  0  0  0  0  0  0  0  0  0  0  0
   46.5879   58.4587   29.9847 C   0  0  1  0  0  0  0  0  0  0  0  0
   45.7697   57.4720   30.6803 O   0  0  0  0  0  0  0  0  0  0  0  0
   47.1911   59.3285   31.0575 C   0  0  1  0  0  0  0  0  0  0  0  0
   47.3796   60.6528   30.5581 O   0  0  0  0  0  0  0  0  0  0  0  0
   46.1473   59.3230   32.1675 C   0  0  1  0  0  0  0  0  0  0  0  0
   45.2994   60.4643   32.1120 O   0  0  0  0  0  0  0  0  0  0  0  0
   45.3131   58.0035   31.9799 C   0  0  2  0  0  0  0  0  0  0  0  0
   48.8956   51.5821   26.0951 O   0  0  0  0  0  0  0  0  0  0  0  0
   48.8416   55.7337   35.1389 N   0  0  0  0  0  0  0  0  0  0  0  0
   49.0205   56.7880   34.3354 C   0  0  0  0  0  0  0  0  0  0  0  0
   48.0295   57.2702   33.6022 N   0  0  0  0  0  0  0  0  0  0  0  0
   46.8125   56.7017   33.6097 C   0  0  0  0  0  0  0  0  0  0  0  0
   46.5774   55.5723   34.4352 C   0  0  0  0  0  0  0  0  0  0  0  0
   47.6602   55.1000   35.2193 C   0  0  0  0  0  0  0  0  0  0  0  0
   47.5059   54.0104   36.0467 N   0  0  0  0  0  0  0  0  0  0  0  0
   45.2943   55.2004   34.2548 N   0  0  0  0  0  0  0  0  0  0  0  0
   44.7379   55.9968   33.3897 C   0  0  0  0  0  0  0  0  0  0  0  0
   45.6256   56.9447   32.9624 N   0  0  0  0  0  0  0  0  0  0  0  0
  2  1  1  1  0  0  0
  2  3  1  0  0  0  0
  2  5  1  0  0  0  0
  3  4  1  0  0  0  0
  3 17  1  0  0  0  0
  5  6  1  0  0  0  0
  7  6  1  6  0  0  0
  7  8  1  0  0  0  0
  7  9  1  0  0  0  0
 10  9  1  1  0  0  0
 10 11  1  0  0  0  0
 10 12  1  0  0  0  0
 11 16  1  0  0  0  0
 12 13  1  6  0  0  0
 12 14  1  0  0  0  0
 14 15  1  6  0  0  0
 14 16  1  0  0  0  0
 16 27  1  1  0  0  0
 18 19  2  0  0  0  0
 18 23  1  0  0  0  0
 19 20  1  0  0  0  0
 20 21  2  0  0  0  0
 21 22  1  0  0  0  0
 21 27  1  0  0  0  0
 22 23  2  0  0  0  0
 22 25  1  0  0  0  0
 23 24  1  0  0  0  0
 25 26  2  0  0  0  0
 26 27  1  0  0  0  0
M  END
>  <CHROM.1>
153.17121276,-65.99257678,-63.13693763,-76.89980246,-167.32842095,69.85824619
83.97772687,47.28091136,56.31051656,30.60445291,-0.76493003,-1.29763651,1.94935780

>  <Name>
ligand

>  <RI>
0

>  <Rbt.Current_Directory>
/home/itssahil/PROJECTS/Mol_Feturizer/New_Systems/rnas/2GIS

>  <Rbt.Executable>
rbdock ($Id: //depot/dev/client3/rdock/2013.1/src/exe/rbdock.cxx#4 $)

>  <Rbt.Library>
libRbt.so (2013.1, Build901 2013/11/27)

>  <Rbt.Parameter_File>
/export/apps/rDock/src/rDock_2013.1_src/data/scripts/dock_solv.prm

>  <Rbt.Receptor>
prm/pocket_docking_5.prm

>  <SCORE>
-14.1526

>  <SCORE.INTER>
-9.58255

>  <SCORE.INTER.CONST>
1

>  <SCORE.INTER.POLAR>
0

>  <SCORE.INTER.ROT>
7

>  <SCORE.INTER.SOLV>
11.2887

>  <SCORE.INTER.VDW>
-18.4179

>  <SCORE.INTER.norm>
-0.354909

>  <SCORE.INTRA>
-4.57009

>  <SCORE.INTRA.DIHEDRAL>
-4.25556

>  <SCORE.INTRA.DIHEDRAL.0>
9.40024

>  <SCORE.INTRA.POLAR>
0

>  <SCORE.INTRA.POLAR.0>
0

>  <SCORE.INTRA.REPUL>
0

>  <SCORE.INTRA.REPUL.0>
0

>  <SCORE.INTRA.SOLV>
-1.9175

>  <SCORE.INTRA.SOLV.lig_0>
-47.1049

>  <SCORE.INTRA.VDW>
-1.48355

>  <SCORE.INTRA.VDW.0>
-1.50278

>  <SCORE.INTRA.norm>
-0.169262

>  <SCORE.RESTR>
0

>  <SCORE.RESTR.CAVITY>
0

>  <SCORE.RESTR.norm>
0

>  <SCORE.SYSTEM>
0

>  <SCORE.SYSTEM.CONST>
0

>  <SCORE.SYSTEM.DIHEDRAL>
0

>  <SCORE.SYSTEM.SOLV>
0

>  <SCORE.SYSTEM.norm>
0

>  <SCORE.heavy>
27

>  <SCORE.norm>
-0.524172

>  <RMSD>
5.310

$$$$
ligand
 OpenBabel11021811433D
libRbt.so/2013.1/901 2013/11/27
 27 29  0  0  0  0  0  0  0  0999 V2000
   50.4228   53.0501   28.7388 N   0  0  0  0  0  0  0  0  0  0  0  0
   50.1110   54.3229   29.3967 C   0  0  2  0  0  0  0  0  0  0  0  0
   50.3000   54.1775   30.8962 C   0  0  0  0  0  0  0  0  0  0  0  0
   50.5926   53.0851   31.3744 O   0  0  0  0  0  0  0  0  0  0  0  0
   48.6634   54.7567   29.0915 C   0  0  0  0  0  0  0  0  0  0  0  0
   48.5360   56.2646   29.3024 C   0  0  0  0  0  0  0  0  0  0  0  0
   46.8505   56.9532   29.0396 S   0  0  2  0  0  0  0  0  0  0  0  0
   46.4874   56.5824   27.2953 C   0  0  0  0  0  0  0  0  0  0  0  0
   47.3661   58.6801   28.9350 C   0  0  0  0  0  0  0  0  0  0  0  0
   47.3778   59.4075   30.2907 C   0  0  1  0  0  0  0  0  0  0  0  0
   46.1134   59.1613   30.9745 O   0  0  0  0  0  0  0  0  0  0  0  0
   48.4238   58.6483   31.0658 C   0  0  1  0  0  0  0  0  0  0  0  0
   49.6766   59.3281   30.9828 O   0  0  0  0  0  0  0  0  0  0  0  0
   47.9051   58.6637   32.4985 C   0  0  1  0  0  0  0  0  0  0  0  0
   48.4922   59.7050   33.2702 O   0  0  0  0  0  0  0  0  0  0  0  0
   46.3479   58.8575   32.4002 C   0  0  2  0  0  0  0  0  0  0  0  0
   50.0991   55.1359   31.6424 O   0  0  0  0  0  0  0  0  0  0  0  0
   46.0509   54.1667   34.7431 N   0  0  0  0  0  0  0  0  0  0  0  0
   47.0679   55.0349   34.7749 C   0  0  0  0  0  0  0  0  0  0  0  0
   46.9987   56.1988   34.1483 N   0  0  0  0  0  0  0  0  0  0  0  0
   45.9183   56.5428   33.4280 C   0  0  0  0  0  0  0  0  0  0  0  0
   44.8194   55.6490   33.3524 C   0  0  0  0  0  0  0  0  0  0  0  0
   44.9264   54.4217   34.0543 C   0  0  0  0  0  0  0  0  0  0  0  0
   43.8985   53.5060   34.0294 N   0  0  0  0  0  0  0  0  0  0  0  0
   43.8816   56.2270   32.5755 N   0  0  0  0  0  0  0  0  0  0  0  0
   44.3188   57.3829   32.1691 C   0  0  0  0  0  0  0  0  0  0  0  0
   45.5670   57.6318   32.6683 N   0  0  0  0  0  0  0  0  0  0  0  0
  2  1  1  6  0  0  0
  2  3  1  0  0  0  0
  2  5  1  0  0  0  0
  3  4  1  0  0  0  0
  3 17  1  0  0  0  0
  5  6  1  0  0  0  0
  7  6  1  6  0  0  0
  7  8  1  0  0  0  0
  7  9  1  0  0  0  0
 10  9  1  6  0  0  0
 10 11  1  0  0  0  0
 10 12  1  0  0  0  0
 11 16  1  0  0  0  0
 12 13  1  1  0  0  0
 12 14  1  0  0  0  0
 14 15  1  1  0  0  0
 14 16  1  0  0  0  0
 16 27  1  6  0  0  0
 18 19  2  0  0  0  0
 18 23  1  0  0  0  0
 19 20  1  0  0  0  0
 20 21  2  0  0  0  0
 21 22  1  0  0  0  0
 21 27  1  0  0  0  0
 22 23  2  0  0  0  0
 22 25  1  0  0  0  0
 23 24  1  0  0  0  0
 25 26  2  0  0  0  0
 26 27  1  0  0  0  0
M  END
>  <CHROM.1>
-3.94742970,-158.17428666,-177.92678591,-61.36825452,-90.12443699,-48.93169011
139.56829557,47.34822852,56.48178886,31.42844840,-0.22448327,-0.78335709
2.69185168

>  <Name>
ligand

>  <RI>
0

>  <Rbt.Current_Directory>
/home/itssahil/PROJECTS/Mol_Feturizer/New_Systems/rnas/2GIS

>  <Rbt.Executable>
rbdock ($Id: //depot/dev/client3/rdock/2013.1/src/exe/rbdock.cxx#4 $)

>  <Rbt.Library>
libRbt.so (2013.1, Build901 2013/11/27)

>  <Rbt.Parameter_File>
/export/apps/rDock/src/rDock_2013.1_src/data/scripts/dock_solv.prm

>  <Rbt.Receptor>
prm/pocket_docking_4.prm

>  <SCORE>
-11.9754

>  <SCORE.INTER>
-8.83674

>  <SCORE.INTER.CONST>
1

>  <SCORE.INTER.POLAR>
0

>  <SCORE.INTER.ROT>
7

>  <SCORE.INTER.SOLV>
10.3847

>  <SCORE.INTER.VDW>
-17.6194

>  <SCORE.INTER.norm>
-0.327286

>  <SCORE.INTRA>
-3.14017

>  <SCORE.INTRA.DIHEDRAL>
-2.48902

>  <SCORE.INTRA.DIHEDRAL.0>
9.40024

>  <SCORE.INTRA.POLAR>
0

>  <SCORE.INTRA.POLAR.0>
0

>  <SCORE.INTRA.REPUL>
0

>  <SCORE.INTRA.REPUL.0>
0

>  <SCORE.INTRA.SOLV>
-2.70089

>  <SCORE.INTRA.SOLV.lig_0>
-47.1049

>  <SCORE.INTRA.VDW>
-0.545216

>  <SCORE.INTRA.VDW.0>
-1.50278

>  <SCORE.INTRA.norm>
-0.116303

>  <SCORE.RESTR>
0.00146517

>  <SCORE.RESTR.CAVITY>
0.00146517

>  <SCORE.RESTR.norm>
5.42654e-05

>  <SCORE.SYSTEM>
0

>  <SCORE.SYSTEM.CONST>
0

>  <SCORE.SYSTEM.DIHEDRAL>
0

>  <SCORE.SYSTEM.SOLV>
0

>  <SCORE.SYSTEM.norm>
0

>  <SCORE.heavy>
27

>  <SCORE.norm>
-0.443535

>  <RMSD>
5.325

$$$$
ligand
 OpenBabel11021811433D
libRbt.so/2013.1/901 2013/11/27
 27 29  0  0  0  0  0  0  0  0999 V2000
   49.5523   54.4334   23.5706 N   0  0  0  0  0  0  0  0  0  0  0  0
   49.5722   54.6794   25.0159 C   0  0  2  0  0  0  0  0  0  0  0  0
   49.5828   53.3533   25.7553 C   0  0  0  0  0  0  0  0  0  0  0  0
   48.8897   52.4223   25.3549 O   0  0  0  0  0  0  0  0  0  0  0  0
   48.3463   55.5090   25.4470 C   0  0  0  0  0  0  0  0  0  0  0  0
   48.4872   55.8844   26.9214 C   0  0  0  0  0  0  0  0  0  0  0  0
   47.1057   56.8844   27.6112 S   0  0  2  0  0  0  0  0  0  0  0  0
   47.2790   58.5017   26.7949 C   0  0  0  0  0  0  0  0  0  0  0  0
   47.8850   57.2076   29.2071 C   0  0  0  0  0  0  0  0  0  0  0  0
   47.2423   58.3668   29.9883 C   0  0  1  0  0  0  0  0  0  0  0  0
   46.1092   57.8565   30.7515 O   0  0  0  0  0  0  0  0  0  0  0  0
   48.3031   58.7130   31.0013 C   0  0  1  0  0  0  0  0  0  0  0  0
   49.0861   59.8088   30.5273 O   0  0  0  0  0  0  0  0  0  0  0  0
   47.5129   59.1209   32.2386 C   0  0  1  0  0  0  0  0  0  0  0  0
   47.3580   60.5320   32.3348 O   0  0  0  0  0  0  0  0  0  0  0  0
   46.1123   58.4167   32.1175 C   0  0  2  0  0  0  0  0  0  0  0  0
   50.2348   53.2264   26.7919 O   0  0  0  0  0  0  0  0  0  0  0  0
   48.2532   55.0293   35.5121 N   0  0  0  0  0  0  0  0  0  0  0  0
   48.8565   56.0341   34.8675 C   0  0  0  0  0  0  0  0  0  0  0  0
   48.1848   56.8276   34.0482 N   0  0  0  0  0  0  0  0  0  0  0  0
   46.8776   56.6373   33.8049 C   0  0  0  0  0  0  0  0  0  0  0  0
   46.1965   55.5757   34.4541 C   0  0  0  0  0  0  0  0  0  0  0  0
   46.9485   54.7618   35.3386 C   0  0  0  0  0  0  0  0  0  0  0  0
   46.3543   53.7147   36.0065 N   0  0  0  0  0  0  0  0  0  0  0  0
   44.9147   55.6040   34.0378 N   0  0  0  0  0  0  0  0  0  0  0  0
   44.7636   56.5797   33.1908 C   0  0  0  0  0  0  0  0  0  0  0  0
   45.9396   57.2539   33.0132 N   0  0  0  0  0  0  0  0  0  0  0  0
  2  1  1  6  0  0  0
  2  3  1  0  0  0  0
  2  5  1  0  0  0  0
  3  4  1  0  0  0  0
  3 17  1  0  0  0  0
  5  6  1  0  0  0  0
  7  6  1  6  0  0  0
  7  8  1  0  0  0  0
  7  9  1  0  0  0  0
 10  9  1  6  0  0  0
 10 11  1  0  0  0  0
 10 12  1  0  0  0  0
 11 16  1  0  0  0  0
 12 13  1  6  0  0  0
 12 14  1  0  0  0  0
 14 15  1  6  0  0  0
 14 16  1  0  0  0  0
 16 27  1  1  0  0  0
 18 19  2  0  0  0  0
 18 23  1  0  0  0  0
 19 20  1  0  0  0  0
 20 21  2  0  0  0  0
 21 22  1  0  0  0  0
 21 27  1  0  0  0  0
 22 23  2  0  0  0  0
 22 25  1  0  0  0  0
 23 24  1  0  0  0  0
 25 26  2  0  0  0  0
 26 27  1  0  0  0  0
M  END
>  <CHROM.1>
-40.28645911,-173.34552151,179.93779484,-69.35560024,163.26555519,85.54649146
105.46010706,47.63228534,56.45160587,30.33251213,-0.44109631,-1.30716367
2.48802843

>  <Name>
ligand

>  <RI>
0

>  <Rbt.Current_Directory>
/home/itssahil/PROJECTS/Mol_Feturizer/New_Systems/rnas/2GIS

>  <Rbt.Executable>
rbdock ($Id: //depot/dev/client3/rdock/2013.1/src/exe/rbdock.cxx#4 $)

>  <Rbt.Library>
libRbt.so (2013.1, Build901 2013/11/27)

>  <Rbt.Parameter_File>
/export/apps/rDock/src/rDock_2013.1_src/data/scripts/dock_solv.prm

>  <Rbt.Receptor>
prm/pocket_docking_8.prm

>  <SCORE>
-13.7185

>  <SCORE.INTER>
-9.56037

>  <SCORE.INTER.CONST>
1

>  <SCORE.INTER.POLAR>
0

>  <SCORE.INTER.ROT>
7

>  <SCORE.INTER.SOLV>
10.6549

>  <SCORE.INTER.VDW>
-18.1919

>  <SCORE.INTER.norm>
-0.354088

>  <SCORE.INTRA>
-4.1581

>  <SCORE.INTRA.DIHEDRAL>
-3.92625

>  <SCORE.INTRA.DIHEDRAL.0>
9.40024

>  <SCORE.INTRA.POLAR>
0

>  <SCORE.INTRA.POLAR.0>
0

>  <SCORE.INTRA.REPUL>
0

>  <SCORE.INTRA.REPUL.0>
0

>  <SCORE.INTRA.SOLV>
-3.14431

>  <SCORE.INTRA.SOLV.lig_0>
-47.1049

>  <SCORE.INTRA.VDW>
-0.622817

>  <SCORE.INTRA.VDW.0>
-1.50278

>  <SCORE.INTRA.norm>
-0.154004

>  <SCORE.RESTR>
0

>  <SCORE.RESTR.CAVITY>
0

>  <SCORE.RESTR.norm>
0

>  <SCORE.SYSTEM>
0

>  <SCORE.SYSTEM.CONST>
0

>  <SCORE.SYSTEM.DIHEDRAL>
0

>  <SCORE.SYSTEM.SOLV>
0

>  <SCORE.SYSTEM.norm>
0

>  <SCORE.heavy>
27

>  <SCORE.norm>
-0.508091

>  <RMSD>
5.325

$$$$
ligand
 OpenBabel11021811433D
libRbt.so/2013.1/901 2013/11/27
 27 29  0  0  0  0  0  0  0  0999 V2000
   49.7137   53.8738   27.1702 N   0  0  0  0  0  0  0  0  0  0  0  0
   50.2022   54.2518   28.5001 C   0  0  2  0  0  0  0  0  0  0  0  0
   50.1911   53.0352   29.4084 C   0  0  0  0  0  0  0  0  0  0  0  0
   49.8050   51.9520   28.9781 O   0  0  0  0  0  0  0  0  0  0  0  0
   49.3277   55.3666   29.1079 C   0  0  0  0  0  0  0  0  0  0  0  0
   49.1904   56.5044   28.0974 C   0  0  0  0  0  0  0  0  0  0  0  0
   47.5132   57.2511   27.9809 S   0  0  2  0  0  0  0  0  0  0  0  0
   47.5137   58.0915   26.3666 C   0  0  0  0  0  0  0  0  0  0  0  0
   47.8423   58.6301   29.0984 C   0  0  0  0  0  0  0  0  0  0  0  0
   46.6145   59.0776   29.9104 C   0  0  1  0  0  0  0  0  0  0  0  0
   46.0792   57.9312   30.6356 O   0  0  0  0  0  0  0  0  0  0  0  0
   47.2181   59.9833   30.9529 C   0  0  1  0  0  0  0  0  0  0  0  0
   47.1126   61.3437   30.5322 O   0  0  0  0  0  0  0  0  0  0  0  0
   46.3630   59.7425   32.1908 C   0  0  1  0  0  0  0  0  0  0  0  0
   45.3413   60.7221   32.3358 O   0  0  0  0  0  0  0  0  0  0  0  0
   45.7371   58.3101   32.0209 C   0  0  2  0  0  0  0  0  0  0  0  0
   50.5075   53.1430   30.5934 O   0  0  0  0  0  0  0  0  0  0  0  0
   50.0501   56.4408   34.3629 N   0  0  0  0  0  0  0  0  0  0  0  0
   49.9411   57.5343   33.6005 C   0  0  0  0  0  0  0  0  0  0  0  0
   48.7781   57.9007   33.0854 N   0  0  0  0  0  0  0  0  0  0  0  0
   47.6661   57.1727   33.2796 C   0  0  0  0  0  0  0  0  0  0  0  0
   47.7340   55.9964   34.0695 C   0  0  0  0  0  0  0  0  0  0  0  0
   48.9946   55.6506   34.6187 C   0  0  0  0  0  0  0  0  0  0  0  0
   49.1365   54.5246   35.3982 N   0  0  0  0  0  0  0  0  0  0  0  0
   46.4978   55.4600   34.1021 N   0  0  0  0  0  0  0  0  0  0  0  0
   45.6937   56.2005   33.3968 C   0  0  0  0  0  0  0  0  0  0  0  0
   46.3587   57.2729   32.8706 N   0  0  0  0  0  0  0  0  0  0  0  0
  2  1  1  6  0  0  0
  2  3  1  0  0  0  0
  2  5  1  0  0  0  0
  3  4  1  0  0  0  0
  3 17  1  0  0  0  0
  5  6  1  0  0  0  0
  7  6  1  6  0  0  0
  7  8  1  0  0  0  0
  7  9  1  0  0  0  0
 10  9  1  6  0  0  0
 10 11  1  0  0  0  0
 10 12  1  0  0  0  0
 11 16  1  0  0  0  0
 12 13  1  6  0  0  0
 12 14  1  0  0  0  0
 14 15  1  6  0  0  0
 14 16  1  0  0  0  0
 16 27  1  1  0  0  0
 18 19  2  0  0  0  0
 18 23  1  0  0  0  0
 19 20  1  0  0  0  0
 20 21  2  0  0  0  0
 21 22  1  0  0  0  0
 21 27  1  0  0  0  0
 22 23  2  0  0  0  0
 22 25  1  0  0  0  0
 23 24  1  0  0  0  0
 25 26  2  0  0  0  0
 26 27  1  0  0  0  0
M  END
>  <CHROM.1>
-0.17377573,-51.09893546,139.07865644,-160.42524529,-147.79534551,55.37327936
80.62501842,48.00916821,56.82935906,30.98158238,0.45691334,1.05460087,-1.45182680

>  <Name>
ligand

>  <RI>
0

>  <Rbt.Current_Directory>
/home/itssahil/PROJECTS/Mol_Feturizer/New_Systems/rnas/2GIS

>  <Rbt.Executable>
rbdock ($Id: //depot/dev/client3/rdock/2013.1/src/exe/rbdock.cxx#4 $)

>  <Rbt.Library>
libRbt.so (2013.1, Build901 2013/11/27)

>  <Rbt.Parameter_File>
/export/apps/rDock/src/rDock_2013.1_src/data/scripts/dock_solv.prm

>  <Rbt.Receptor>
prm/pocket_docking_2.prm

>  <SCORE>
-7.73591

>  <SCORE.INTER>
-8.59031

>  <SCORE.INTER.CONST>
1

>  <SCORE.INTER.POLAR>
0

>  <SCORE.INTER.ROT>
7

>  <SCORE.INTER.SOLV>
13.1903

>  <SCORE.INTER.VDW>
-18.3903

>  <SCORE.INTER.norm>
-0.31816

>  <SCORE.INTRA>
-0.273097

>  <SCORE.INTRA.DIHEDRAL>
3.62987

>  <SCORE.INTRA.DIHEDRAL.0>
9.40024

>  <SCORE.INTRA.POLAR>
0

>  <SCORE.INTRA.POLAR.0>
0

>  <SCORE.INTRA.REPUL>
0

>  <SCORE.INTRA.REPUL.0>
0

>  <SCORE.INTRA.SOLV>
-1.93671

>  <SCORE.INTRA.SOLV.lig_0>
-47.1049

>  <SCORE.INTRA.VDW>
-1.11967

>  <SCORE.INTRA.VDW.0>
-1.50278

>  <SCORE.INTRA.norm>
-0.0101147

>  <SCORE.RESTR>
1.1275

>  <SCORE.RESTR.CAVITY>
1.1275

>  <SCORE.RESTR.norm>
0.0417592

>  <SCORE.SYSTEM>
0

>  <SCORE.SYSTEM.CONST>
0

>  <SCORE.SYSTEM.DIHEDRAL>
0

>  <SCORE.SYSTEM.SOLV>
0

>  <SCORE.SYSTEM.norm>
0

>  <SCORE.heavy>
27

>  <SCORE.norm>
-0.286515

>  <RMSD>
5.332

$$$$
ligand
 OpenBabel11021811433D
libRbt.so/2013.1/901 2013/11/27
 27 29  0  0  0  0  0  0  0  0999 V2000
   49.7380   54.8956   23.8467 N   0  0  0  0  0  0  0  0  0  0  0  0
   48.8263   54.7550   24.9864 C   0  0  2  0  0  0  0  0  0  0  0  0
   47.6609   53.8635   24.5958 C   0  0  0  0  0  0  0  0  0  0  0  0
   47.1886   53.0783   25.4130 O   0  0  0  0  0  0  0  0  0  0  0  0
   48.3023   56.1317   25.4414 C   0  0  0  0  0  0  0  0  0  0  0  0
   47.4868   55.9604   26.7221 C   0  0  0  0  0  0  0  0  0  0  0  0
   46.9428   57.5261   27.5203 S   0  0  2  0  0  0  0  0  0  0  0  0
   48.4954   58.3230   28.0362 C   0  0  0  0  0  0  0  0  0  0  0  0
   46.4008   56.7708   29.0677 C   0  0  0  0  0  0  0  0  0  0  0  0
   45.5597   57.7061   29.9537 C   0  0  1  0  0  0  0  0  0  0  0  0
   44.9302   56.9228   31.0105 O   0  0  0  0  0  0  0  0  0  0  0  0
   46.6070   58.5519   30.6315 C   0  0  1  0  0  0  0  0  0  0  0  0
   46.7644   59.7841   29.9276 O   0  0  0  0  0  0  0  0  0  0  0  0
   46.0355   58.8034   32.0214 C   0  0  1  0  0  0  0  0  0  0  0  0
   45.3692   60.0575   32.1083 O   0  0  0  0  0  0  0  0  0  0  0  0
   45.0356   57.6238   32.3056 C   0  0  2  0  0  0  0  0  0  0  0  0
   47.2277   53.8785   23.4434 O   0  0  0  0  0  0  0  0  0  0  0  0
   49.0272   55.8263   35.2069 N   0  0  0  0  0  0  0  0  0  0  0  0
   49.0141   56.8982   34.4069 C   0  0  0  0  0  0  0  0  0  0  0  0
   47.9233   57.2485   33.7439 N   0  0  0  0  0  0  0  0  0  0  0  0
   46.7945   56.5245   33.8211 C   0  0  0  0  0  0  0  0  0  0  0  0
   46.7633   55.3706   34.6457 C   0  0  0  0  0  0  0  0  0  0  0  0
   47.9469   55.0420   35.3539 C   0  0  0  0  0  0  0  0  0  0  0  0
   47.9904   53.9383   36.1758 N   0  0  0  0  0  0  0  0  0  0  0  0
   45.5312   54.8336   34.5422 N   0  0  0  0  0  0  0  0  0  0  0  0
   44.8206   55.5531   33.7239 C   0  0  0  0  0  0  0  0  0  0  0  0
   45.5469   56.6115   33.2532 N   0  0  0  0  0  0  0  0  0  0  0  0
  2  1  1  6  0  0  0
  2  3  1  0  0  0  0
  2  5  1  0  0  0  0
  3  4  1  0  0  0  0
  3 17  1  0  0  0  0
  5  6  1  0  0  0  0
  7  6  1  6  0  0  0
  7  8  1  0  0  0  0
  7  9  1  0  0  0  0
 10  9  1  6  0  0  0
 10 11  1  0  0  0  0
 10 12  1  0  0  0  0
 11 16  1  0  0  0  0
 12 13  1  6  0  0  0
 12 14  1  0  0  0  0
 14 15  1  6  0  0  0
 14 16  1  0  0  0  0
 16 27  1  1  0  0  0
 18 19  2  0  0  0  0
 18 23  1  0  0  0  0
 19 20  1  0  0  0  0
 20 21  2  0  0  0  0
 21 22  1  0  0  0  0
 21 27  1  0  0  0  0
 22 23  2  0  0  0  0
 22 25  1  0  0  0  0
 23 24  1  0  0  0  0
 25 26  2  0  0  0  0
 26 27  1  0  0  0  0
M  END
>  <CHROM.1>
142.88652956,-173.62003827,173.23715383,-65.02414628,-166.99833673,167.32363179
108.08003783,47.01904228,56.46694831,30.18118052,-1.23832000,-1.21109498
1.75259575

>  <Name>
ligand

>  <RI>
0

>  <Rbt.Current_Directory>
/home/itssahil/PROJECTS/Mol_Feturizer/New_Systems/rnas/2GIS

>  <Rbt.Executable>
rbdock ($Id: //depot/dev/client3/rdock/2013.1/src/exe/rbdock.cxx#4 $)

>  <Rbt.Library>
libRbt.so (2013.1, Build901 2013/11/27)

>  <Rbt.Parameter_File>
/export/apps/rDock/src/rDock_2013.1_src/data/scripts/dock_solv.prm

>  <Rbt.Receptor>
prm/pocket_docking_8.prm

>  <SCORE>
-16.3602

>  <SCORE.INTER>
-12.64

>  <SCORE.INTER.CONST>
1

>  <SCORE.INTER.POLAR>
0

>  <SCORE.INTER.ROT>
7

>  <SCORE.INTER.SOLV>
11.7836

>  <SCORE.INTER.VDW>
-20.6212

>  <SCORE.INTER.norm>
-0.468147

>  <SCORE.INTRA>
-3.72023

>  <SCORE.INTRA.DIHEDRAL>
-4.10315

>  <SCORE.INTRA.DIHEDRAL.0>
9.40024

>  <SCORE.INTRA.POLAR>
0

>  <SCORE.INTRA.POLAR.0>
0

>  <SCORE.INTRA.REPUL>
0

>  <SCORE.INTRA.REPUL.0>
0

>  <SCORE.INTRA.SOLV>
-2.79008

>  <SCORE.INTRA.SOLV.lig_0>
-47.1049

>  <SCORE.INTRA.VDW>
-0.273617

>  <SCORE.INTRA.VDW.0>
-1.50278

>  <SCORE.INTRA.norm>
-0.137786

>  <SCORE.RESTR>
0

>  <SCORE.RESTR.CAVITY>
0

>  <SCORE.RESTR.norm>
0

>  <SCORE.SYSTEM>
0

>  <SCORE.SYSTEM.CONST>
0

>  <SCORE.SYSTEM.DIHEDRAL>
0

>  <SCORE.SYSTEM.SOLV>
0

>  <SCORE.SYSTEM.norm>
0

>  <SCORE.heavy>
27

>  <SCORE.norm>
-0.605934

>  <RMSD>
5.334

$$$$
ligand
 OpenBabel11021811433D
libRbt.so/2013.1/901 2013/11/27
 27 29  0  0  0  0  0  0  0  0999 V2000
   52.1083   53.1061   27.8346 N   0  0  0  0  0  0  0  0  0  0  0  0
   50.6814   53.1339   28.1707 C   0  0  2  0  0  0  0  0  0  0  0  0
   49.8888   52.4481   27.0722 C   0  0  0  0  0  0  0  0  0  0  0  0
   48.9077   51.7673   27.3573 O   0  0  0  0  0  0  0  0  0  0  0  0
   50.1880   54.5841   28.3445 C   0  0  0  0  0  0  0  0  0  0  0  0
   48.7156   54.5682   28.7524 C   0  0  0  0  0  0  0  0  0  0  0  0
   47.9466   56.2241   28.9776 S   0  0  2  0  0  0  0  0  0  0  0  0
   48.4663   57.1579   27.5045 C   0  0  0  0  0  0  0  0  0  0  0  0
   49.1286   56.8156   30.2072 C   0  0  0  0  0  0  0  0  0  0  0  0
   48.5933   57.9634   31.0808 C   0  0  1  0  0  0  0  0  0  0  0  0
   47.3972   57.5109   31.7817 O   0  0  0  0  0  0  0  0  0  0  0  0
   49.6624   58.1058   32.1335 C   0  0  1  0  0  0  0  0  0  0  0  0
   50.5653   59.1499   31.7686 O   0  0  0  0  0  0  0  0  0  0  0  0
   48.8926   58.4851   33.3925 C   0  0  1  0  0  0  0  0  0  0  0  0
   48.8835   59.8909   33.6123 O   0  0  0  0  0  0  0  0  0  0  0  0
   47.4292   57.9461   33.1921 C   0  0  2  0  0  0  0  0  0  0  0  0
   50.2623   52.5192   25.9011 O   0  0  0  0  0  0  0  0  0  0  0  0
   49.1408   54.0395   36.2565 N   0  0  0  0  0  0  0  0  0  0  0  0
   49.8605   55.0226   35.7046 C   0  0  0  0  0  0  0  0  0  0  0  0
   49.2907   55.9596   34.9632 N   0  0  0  0  0  0  0  0  0  0  0  0
   47.9721   55.9441   34.7075 C   0  0  0  0  0  0  0  0  0  0  0  0
   47.1686   54.9134   35.2591 C   0  0  0  0  0  0  0  0  0  0  0  0
   47.8153   53.9411   36.0633 C   0  0  0  0  0  0  0  0  0  0  0  0
   47.0997   52.9129   36.6346 N   0  0  0  0  0  0  0  0  0  0  0  0
   45.9017   55.1270   34.8511 N   0  0  0  0  0  0  0  0  0  0  0  0
   45.8703   56.1867   34.0972 C   0  0  0  0  0  0  0  0  0  0  0  0
   47.1173   56.7342   33.9783 N   0  0  0  0  0  0  0  0  0  0  0  0
  2  1  1  6  0  0  0
  2  3  1  0  0  0  0
  2  5  1  0  0  0  0
  3  4  1  0  0  0  0
  3 17  1  0  0  0  0
  5  6  1  0  0  0  0
  7  6  1  6  0  0  0
  7  8  1  0  0  0  0
  7  9  1  0  0  0  0
 10  9  1  6  0  0  0
 10 11  1  0  0  0  0
 10 12  1  0  0  0  0
 11 16  1  0  0  0  0
 12 13  1  6  0  0  0
 12 14  1  0  0  0  0
 14 15  1  6  0  0  0
 14 16  1  0  0  0  0
 16 27  1  1  0  0  0
 18 19  2  0  0  0  0
 18 23  1  0  0  0  0
 19 20  1  0  0  0  0
 20 21  2  0  0  0  0
 21 22  1  0  0  0  0
 21 27  1  0  0  0  0
 22 23  2  0  0  0  0
 22 25  1  0  0  0  0
 23 24  1  0  0  0  0
 25 26  2  0  0  0  0
 26 27  1  0  0  0  0
M  END
>  <CHROM.1>
143.18536829,-177.57474060,-178.99926032,46.83197861,-158.09366939,59.17631929
104.41920195,48.69351192,55.68875862,31.59052020,0.14986896,-1.32962151,3.00454743

>  <Name>
ligand

>  <RI>
0

>  <Rbt.Current_Directory>
/home/itssahil/PROJECTS/Mol_Feturizer/New_Systems/rnas/2GIS

>  <Rbt.Executable>
rbdock ($Id: //depot/dev/client3/rdock/2013.1/src/exe/rbdock.cxx#4 $)

>  <Rbt.Library>
libRbt.so (2013.1, Build901 2013/11/27)

>  <Rbt.Parameter_File>
/export/apps/rDock/src/rDock_2013.1_src/data/scripts/dock_solv.prm

>  <Rbt.Receptor>
prm/pocket_docking_3.prm

>  <SCORE>
-10.3696

>  <SCORE.INTER>
-7.03673

>  <SCORE.INTER.CONST>
1

>  <SCORE.INTER.POLAR>
0

>  <SCORE.INTER.ROT>
7

>  <SCORE.INTER.SOLV>
17.7542

>  <SCORE.INTER.VDW>
-18.8759

>  <SCORE.INTER.norm>
-0.26062

>  <SCORE.INTRA>
-3.34115

>  <SCORE.INTRA.DIHEDRAL>
-3.88025

>  <SCORE.INTRA.DIHEDRAL.0>
9.40024

>  <SCORE.INTRA.POLAR>
0

>  <SCORE.INTRA.POLAR.0>
0

>  <SCORE.INTRA.REPUL>
0

>  <SCORE.INTRA.REPUL.0>
0

>  <SCORE.INTRA.SOLV>
-3.13502

>  <SCORE.INTRA.SOLV.lig_0>
-47.1049

>  <SCORE.INTRA.VDW>
0.166485

>  <SCORE.INTRA.VDW.0>
-1.50278

>  <SCORE.INTRA.norm>
-0.123746

>  <SCORE.RESTR>
0.00831665

>  <SCORE.RESTR.CAVITY>
0.00831665

>  <SCORE.RESTR.norm>
0.000308024

>  <SCORE.SYSTEM>
0

>  <SCORE.SYSTEM.CONST>
0

>  <SCORE.SYSTEM.DIHEDRAL>
0

>  <SCORE.SYSTEM.SOLV>
0

>  <SCORE.SYSTEM.norm>
0

>  <SCORE.heavy>
27

>  <SCORE.norm>
-0.384058

>  <RMSD>
5.338

$$$$
ligand
 OpenBabel11021811433D
libRbt.so/2013.1/901 2013/11/27
 27 29  0  0  0  0  0  0  0  0999 V2000
   49.7036   54.8856   23.8493 N   0  0  0  0  0  0  0  0  0  0  0  0
   48.7485   54.7584   24.9545 C   0  0  2  0  0  0  0  0  0  0  0  0
   47.5516   53.9433   24.4982 C   0  0  0  0  0  0  0  0  0  0  0  0
   47.2527   53.9062   23.3079 O   0  0  0  0  0  0  0  0  0  0  0  0
   48.2828   56.1463   25.4380 C   0  0  0  0  0  0  0  0  0  0  0  0
   47.4475   55.9818   26.7068 C   0  0  0  0  0  0  0  0  0  0  0  0
   46.9300   57.5520   27.5136 S   0  0  2  0  0  0  0  0  0  0  0  0
   48.4956   58.3168   28.0392 C   0  0  0  0  0  0  0  0  0  0  0  0
   46.3697   56.7968   29.0546 C   0  0  0  0  0  0  0  0  0  0  0  0
   45.5461   57.7427   29.9457 C   0  0  1  0  0  0  0  0  0  0  0  0
   44.8956   56.9642   30.9935 O   0  0  0  0  0  0  0  0  0  0  0  0
   46.6092   58.5592   30.6346 C   0  0  1  0  0  0  0  0  0  0  0  0
   46.7962   59.7938   29.9421 O   0  0  0  0  0  0  0  0  0  0  0  0
   46.0382   58.8112   32.0246 C   0  0  1  0  0  0  0  0  0  0  0  0
   45.3993   60.0789   32.1202 O   0  0  0  0  0  0  0  0  0  0  0  0
   45.0116   57.6515   32.2950 C   0  0  2  0  0  0  0  0  0  0  0  0
   46.8405   53.3700   25.3237 O   0  0  0  0  0  0  0  0  0  0  0  0
   48.9436   55.7576   35.2164 N   0  0  0  0  0  0  0  0  0  0  0  0
   48.9555   56.8391   34.4295 C   0  0  0  0  0  0  0  0  0  0  0  0
   47.8774   57.2142   33.7593 N   0  0  0  0  0  0  0  0  0  0  0  0
   46.7370   56.5068   33.8156 C   0  0  0  0  0  0  0  0  0  0  0  0
   46.6792   55.3437   34.6256 C   0  0  0  0  0  0  0  0  0  0  0  0
   47.8498   54.9883   35.3422 C   0  0  0  0  0  0  0  0  0  0  0  0
   47.8676   53.8741   36.1509 N   0  0  0  0  0  0  0  0  0  0  0  0
   45.4402   54.8270   34.5023 N   0  0  0  0  0  0  0  0  0  0  0  0
   44.7496   55.5673   33.6853 C   0  0  0  0  0  0  0  0  0  0  0  0
   45.4970   56.6199   33.2355 N   0  0  0  0  0  0  0  0  0  0  0  0
  2  1  1  6  0  0  0
  2  3  1  0  0  0  0
  2  5  1  0  0  0  0
  3  4  1  0  0  0  0
  3 17  1  0  0  0  0
  5  6  1  0  0  0  0
  7  6  1  6  0  0  0
  7  8  1  0  0  0  0
  7  9  1  0  0  0  0
 10  9  1  6  0  0  0
 10 11  1  0  0  0  0
 10 12  1  0  0  0  0
 11 16  1  0  0  0  0
 12 13  1  6  0  0  0
 12 14  1  0  0  0  0
 14 15  1  6  0  0  0
 14 16  1  0  0  0  0
 16 27  1  1  0  0  0
 18 19  2  0  0  0  0
 18 23  1  0  0  0  0
 19 20  1  0  0  0  0
 20 21  2  0  0  0  0
 21 22  1  0  0  0  0
 21 27  1  0  0  0  0
 22 23  2  0  0  0  0
 22 25  1  0  0  0  0
 23 24  1  0  0  0  0
 25 26  2  0  0  0  0
 26 27  1  0  0  0  0
M  END
>  <CHROM.1>
-25.66236987,-172.16341554,174.75407404,-64.38424729,-167.13286191,167.16660069
108.67374535,46.96893652,56.48164980,30.16267977,-1.22601560,-1.23074812
1.77597899

>  <Name>
ligand

>  <RI>
0

>  <Rbt.Current_Directory>
/home/itssahil/PROJECTS/Mol_Feturizer/New_Systems/rnas/2GIS

>  <Rbt.Executable>
rbdock ($Id: //depot/dev/client3/rdock/2013.1/src/exe/rbdock.cxx#4 $)

>  <Rbt.Library>
libRbt.so (2013.1, Build901 2013/11/27)

>  <Rbt.Parameter_File>
/export/apps/rDock/src/rDock_2013.1_src/data/scripts/dock_solv.prm

>  <Rbt.Receptor>
prm/pocket_docking_7.prm

>  <SCORE>
-16.3285

>  <SCORE.INTER>
-12.6347

>  <SCORE.INTER.CONST>
1

>  <SCORE.INTER.POLAR>
0

>  <SCORE.INTER.ROT>
7

>  <SCORE.INTER.SOLV>
11.764

>  <SCORE.INTER.VDW>
-20.6111

>  <SCORE.INTER.norm>
-0.467951

>  <SCORE.INTRA>
-3.69382

>  <SCORE.INTRA.DIHEDRAL>
-4.32536

>  <SCORE.INTRA.DIHEDRAL.0>
9.40024

>  <SCORE.INTRA.POLAR>
0

>  <SCORE.INTRA.POLAR.0>
0

>  <SCORE.INTRA.REPUL>
0

>  <SCORE.INTRA.REPUL.0>
0

>  <SCORE.INTRA.SOLV>
-2.8006

>  <SCORE.INTRA.SOLV.lig_0>
-47.1049

>  <SCORE.INTRA.VDW>
-0.130839

>  <SCORE.INTRA.VDW.0>
-1.50278

>  <SCORE.INTRA.norm>
-0.136808

>  <SCORE.RESTR>
0

>  <SCORE.RESTR.CAVITY>
0

>  <SCORE.RESTR.norm>
0

>  <SCORE.SYSTEM>
0

>  <SCORE.SYSTEM.CONST>
0

>  <SCORE.SYSTEM.DIHEDRAL>
0

>  <SCORE.SYSTEM.SOLV>
0

>  <SCORE.SYSTEM.norm>
0

>  <SCORE.heavy>
27

>  <SCORE.norm>
-0.604759

>  <RMSD>
5.342

$$$$
ligand
 OpenBabel11021811433D
libRbt.so/2013.1/901 2013/11/27
 27 29  0  0  0  0  0  0  0  0999 V2000
   46.8267   57.1215   29.4976 N   0  0  0  0  0  0  0  0  0  0  0  0
   46.6506   57.7672   30.8022 C   0  0  2  0  0  0  0  0  0  0  0  0
   45.9433   59.0979   30.6172 C   0  0  0  0  0  0  0  0  0  0  0  0
   45.8068   59.5687   29.4915 O   0  0  0  0  0  0  0  0  0  0  0  0
   48.0118   57.9895   31.4912 C   0  0  0  0  0  0  0  0  0  0  0  0
   47.7775   58.4666   32.9237 C   0  0  0  0  0  0  0  0  0  0  0  0
   49.3008   58.7323   33.9204 S   0  0  2  0  0  0  0  0  0  0  0  0
   50.4921   59.4261   32.7323 C   0  0  0  0  0  0  0  0  0  0  0  0
   49.8063   56.9997   33.9582 C   0  0  0  0  0  0  0  0  0  0  0  0
   48.7928   56.0725   34.6511 C   0  0  1  0  0  0  0  0  0  0  0  0
   47.7170   55.7599   33.7174 O   0  0  0  0  0  0  0  0  0  0  0  0
   49.5753   54.7963   34.8251 C   0  0  1  0  0  0  0  0  0  0  0  0
   50.1305   54.7440   36.1396 O   0  0  0  0  0  0  0  0  0  0  0  0
   48.5351   53.6977   34.6439 C   0  0  1  0  0  0  0  0  0  0  0  0
   48.0299   53.2271   35.8880 O   0  0  0  0  0  0  0  0  0  0  0  0
   47.3812   54.3235   33.7783 C   0  0  2  0  0  0  0  0  0  0  0  0
   45.5615   59.7388   31.5967 O   0  0  0  0  0  0  0  0  0  0  0  0
   50.0824   53.0529   29.4573 N   0  0  0  0  0  0  0  0  0  0  0  0
   50.5670   53.4588   30.6361 C   0  0  0  0  0  0  0  0  0  0  0  0
   49.7646   53.7294   31.6535 N   0  0  0  0  0  0  0  0  0  0  0  0
   48.4296   53.6393   31.5351 C   0  0  0  0  0  0  0  0  0  0  0  0
   47.8670   53.2266   30.3000 C   0  0  0  0  0  0  0  0  0  0  0  0
   48.7625   52.9274   29.2423 C   0  0  0  0  0  0  0  0  0  0  0  0
   48.2896   52.5177   28.0158 N   0  0  0  0  0  0  0  0  0  0  0  0
   46.5271   53.2238   30.4475 N   0  0  0  0  0  0  0  0  0  0  0  0
   46.2310   53.6056   31.6554 C   0  0  0  0  0  0  0  0  0  0  0  0
   47.3650   53.8698   32.3719 N   0  0  0  0  0  0  0  0  0  0  0  0
  2  1  1  6  0  0  0
  2  3  1  0  0  0  0
  2  5  1  0  0  0  0
  3  4  1  0  0  0  0
  3 17  1  0  0  0  0
  5  6  1  0  0  0  0
  7  6  1  6  0  0  0
  7  8  1  0  0  0  0
  7  9  1  0  0  0  0
 10  9  1  6  0  0  0
 10 11  1  0  0  0  0
 10 12  1  0  0  0  0
 11 16  1  0  0  0  0
 12 13  1  1  0  0  0
 12 14  1  0  0  0  0
 14 15  1  1  0  0  0
 14 16  1  0  0  0  0
 16 27  1  6  0  0  0
 18 19  2  0  0  0  0
 18 23  1  0  0  0  0
 19 20  1  0  0  0  0
 20 21  2  0  0  0  0
 21 22  1  0  0  0  0
 21 27  1  0  0  0  0
 22 23  2  0  0  0  0
 22 25  1  0  0  0  0
 23 24  1  0  0  0  0
 25 26  2  0  0  0  0
 26 27  1  0  0  0  0
M  END
>  <CHROM.1>
-11.54654048,-171.58327490,178.10352433,37.40313160,-61.75040556,80.27381512
74.54031745,48.20299594,55.80841804,32.21607668,2.02243830,-1.15565482,0.51597122

>  <Name>
ligand

>  <RI>
0

>  <Rbt.Current_Directory>
/home/itssahil/PROJECTS/Mol_Feturizer/New_Systems/rnas/2GIS

>  <Rbt.Executable>
rbdock ($Id: //depot/dev/client3/rdock/2013.1/src/exe/rbdock.cxx#4 $)

>  <Rbt.Library>
libRbt.so (2013.1, Build901 2013/11/27)

>  <Rbt.Parameter_File>
/export/apps/rDock/src/rDock_2013.1_src/data/scripts/dock_solv.prm

>  <Rbt.Receptor>
prm/pocket_docking_3.prm

>  <SCORE>
-20.2627

>  <SCORE.INTER>
-16.5274

>  <SCORE.INTER.CONST>
1

>  <SCORE.INTER.POLAR>
0

>  <SCORE.INTER.ROT>
7

>  <SCORE.INTER.SOLV>
10.4181

>  <SCORE.INTER.VDW>
-22.7576

>  <SCORE.INTER.norm>
-0.612126

>  <SCORE.INTRA>
-3.74034

>  <SCORE.INTRA.DIHEDRAL>
-4.01535

>  <SCORE.INTRA.DIHEDRAL.0>
9.40024

>  <SCORE.INTRA.POLAR>
0

>  <SCORE.INTRA.POLAR.0>
0

>  <SCORE.INTRA.REPUL>
0

>  <SCORE.INTRA.REPUL.0>
0

>  <SCORE.INTRA.SOLV>
-2.84463

>  <SCORE.INTRA.SOLV.lig_0>
-47.1049

>  <SCORE.INTRA.VDW>
-0.310345

>  <SCORE.INTRA.VDW.0>
-1.50278

>  <SCORE.INTRA.norm>
-0.138531

>  <SCORE.RESTR>
0.00500601

>  <SCORE.RESTR.CAVITY>
0.00500601

>  <SCORE.RESTR.norm>
0.000185408

>  <SCORE.SYSTEM>
0

>  <SCORE.SYSTEM.CONST>
0

>  <SCORE.SYSTEM.DIHEDRAL>
0

>  <SCORE.SYSTEM.SOLV>
0

>  <SCORE.SYSTEM.norm>
0

>  <SCORE.heavy>
27

>  <SCORE.norm>
-0.750472

>  <RMSD>
5.347

$$$$
ligand
 OpenBabel11021811433D
libRbt.so/2013.1/901 2013/11/27
 27 29  0  0  0  0  0  0  0  0999 V2000
   45.4103   53.6279   30.2590 N   0  0  0  0  0  0  0  0  0  0  0  0
   46.4086   53.2110   29.2694 C   0  0  2  0  0  0  0  0  0  0  0  0
   47.7073   52.8640   29.9753 C   0  0  0  0  0  0  0  0  0  0  0  0
   48.0064   53.4306   31.0227 O   0  0  0  0  0  0  0  0  0  0  0  0
   46.6567   54.3292   28.2374 C   0  0  0  0  0  0  0  0  0  0  0  0
   47.0805   55.6022   28.9685 C   0  0  0  0  0  0  0  0  0  0  0  0
   47.4126   57.0533   27.8876 S   0  0  2  0  0  0  0  0  0  0  0  0
   49.0744   56.7353   27.2174 C   0  0  0  0  0  0  0  0  0  0  0  0
   47.7849   58.2051   29.2268 C   0  0  0  0  0  0  0  0  0  0  0  0
   46.5374   58.7334   29.9559 C   0  0  1  0  0  0  0  0  0  0  0  0
   45.9228   57.6410   30.7014 O   0  0  0  0  0  0  0  0  0  0  0  0
   47.1243   59.6617   30.9880 C   0  0  1  0  0  0  0  0  0  0  0  0
   47.0929   61.0050   30.5049 O   0  0  0  0  0  0  0  0  0  0  0  0
   46.2010   59.5081   32.1903 C   0  0  1  0  0  0  0  0  0  0  0  0
   45.2126   60.5303   32.2416 O   0  0  0  0  0  0  0  0  0  0  0  0
   45.5286   58.0937   32.0503 C   0  0  2  0  0  0  0  0  0  0  0  0
   48.4931   52.0624   29.4696 O   0  0  0  0  0  0  0  0  0  0  0  0
   49.5523   56.3593   34.9456 N   0  0  0  0  0  0  0  0  0  0  0  0
   49.5080   57.4533   34.1773 C   0  0  0  0  0  0  0  0  0  0  0  0
   48.4123   57.7826   33.5117 N   0  0  0  0  0  0  0  0  0  0  0  0
   47.3105   57.0154   33.5540 C   0  0  0  0  0  0  0  0  0  0  0  0
   47.3133   55.8371   34.3439 C   0  0  0  0  0  0  0  0  0  0  0  0
   48.5004   55.5315   35.0563 C   0  0  0  0  0  0  0  0  0  0  0  0
   48.5760   54.4061   35.8459 N   0  0  0  0  0  0  0  0  0  0  0  0
   46.1033   55.2583   34.2096 N   0  0  0  0  0  0  0  0  0  0  0  0
   45.3754   55.9751   33.4043 C   0  0  0  0  0  0  0  0  0  0  0  0
   46.0668   57.0732   32.9738 N   0  0  0  0  0  0  0  0  0  0  0  0
  2  1  1  1  0  0  0
  2  3  1  0  0  0  0
  2  5  1  0  0  0  0
  3  4  1  0  0  0  0
  3 17  1  0  0  0  0
  5  6  1  0  0  0  0
  7  6  1  1  0  0  0
  7  8  1  0  0  0  0
  7  9  1  0  0  0  0
 10  9  1  6  0  0  0
 10 11  1  0  0  0  0
 10 12  1  0  0  0  0
 11 16  1  0  0  0  0
 12 13  1  6  0  0  0
 12 14  1  0  0  0  0
 14 15  1  6  0  0  0
 14 16  1  0  0  0  0
 16 27  1  1  0  0  0
 18 19  2  0  0  0  0
 18 23  1  0  0  0  0
 19 20  1  0  0  0  0
 20 21  2  0  0  0  0
 21 22  1  0  0  0  0
 21 27  1  0  0  0  0
 22 23  2  0  0  0  0
 22 25  1  0  0  0  0
 23 24  1  0  0  0  0
 25 26  2  0  0  0  0
 26 27  1  0  0  0  0
M  END
>  <CHROM.1>
-29.93883584,56.47153211,-179.70118155,-78.68439263,-77.55353798,68.46366576
87.58365351,47.20505358,56.52389989,31.31251389,-1.50121822,-1.38911693,1.14252788

>  <Name>
ligand

>  <RI>
0

>  <Rbt.Current_Directory>
/home/itssahil/PROJECTS/Mol_Feturizer/New_Systems/rnas/2GIS

>  <Rbt.Executable>
rbdock ($Id: //depot/dev/client3/rdock/2013.1/src/exe/rbdock.cxx#4 $)

>  <Rbt.Library>
libRbt.so (2013.1, Build901 2013/11/27)

>  <Rbt.Parameter_File>
/export/apps/rDock/src/rDock_2013.1_src/data/scripts/dock_solv.prm

>  <Rbt.Receptor>
prm/pocket_docking_4.prm

>  <SCORE>
-14.8636

>  <SCORE.INTER>
-9.83296

>  <SCORE.INTER.CONST>
1

>  <SCORE.INTER.POLAR>
0

>  <SCORE.INTER.ROT>
7

>  <SCORE.INTER.SOLV>
12.9757

>  <SCORE.INTER.VDW>
-19.1472

>  <SCORE.INTER.norm>
-0.364184

>  <SCORE.INTRA>
-5.03069

>  <SCORE.INTRA.DIHEDRAL>
-5.40896

>  <SCORE.INTRA.DIHEDRAL.0>
9.40024

>  <SCORE.INTRA.POLAR>
0

>  <SCORE.INTRA.POLAR.0>
0

>  <SCORE.INTRA.REPUL>
0

>  <SCORE.INTRA.REPUL.0>
0

>  <SCORE.INTRA.SOLV>
-2.06921

>  <SCORE.INTRA.SOLV.lig_0>
-47.1049

>  <SCORE.INTRA.VDW>
-1.2916

>  <SCORE.INTRA.VDW.0>
-1.50278

>  <SCORE.INTRA.norm>
-0.186322

>  <SCORE.RESTR>
0

>  <SCORE.RESTR.CAVITY>
0

>  <SCORE.RESTR.norm>
0

>  <SCORE.SYSTEM>
0

>  <SCORE.SYSTEM.CONST>
0

>  <SCORE.SYSTEM.DIHEDRAL>
0

>  <SCORE.SYSTEM.SOLV>
0

>  <SCORE.SYSTEM.norm>
0

>  <SCORE.heavy>
27

>  <SCORE.norm>
-0.550505

>  <RMSD>
5.348

$$$$
ligand
 OpenBabel11021811433D
libRbt.so/2013.1/901 2013/11/27
 27 29  0  0  0  0  0  0  0  0999 V2000
   47.2335   53.3812   31.8752 N   0  0  0  0  0  0  0  0  0  0  0  0
   47.9699   53.9775   30.7562 C   0  0  2  0  0  0  0  0  0  0  0  0
   49.3022   54.5099   31.2532 C   0  0  0  0  0  0  0  0  0  0  0  0
   50.3412   53.9171   30.9768 O   0  0  0  0  0  0  0  0  0  0  0  0
   47.1576   55.1189   30.1125 C   0  0  0  0  0  0  0  0  0  0  0  0
   47.8854   55.6097   28.8619 C   0  0  0  0  0  0  0  0  0  0  0  0
   47.0468   56.9698   27.9501 S   0  0  2  0  0  0  0  0  0  0  0  0
   48.1575   57.3154   26.5504 C   0  0  0  0  0  0  0  0  0  0  0  0
   47.5084   58.2816   29.1011 C   0  0  0  0  0  0  0  0  0  0  0  0
   46.3258   58.8422   29.9099 C   0  0  1  0  0  0  0  0  0  0  0  0
   45.7118   57.7590   30.6694 O   0  0  0  0  0  0  0  0  0  0  0  0
   47.0060   59.7262   30.9234 C   0  0  1  0  0  0  0  0  0  0  0  0
   47.0001   61.0792   30.4674 O   0  0  0  0  0  0  0  0  0  0  0  0
   46.1468   59.5834   32.1736 C   0  0  1  0  0  0  0  0  0  0  0  0
   45.2037   60.6413   32.2999 O   0  0  0  0  0  0  0  0  0  0  0  0
   45.4125   58.1989   32.0466 C   0  0  2  0  0  0  0  0  0  0  0  0
   49.3406   55.4987   31.9858 O   0  0  0  0  0  0  0  0  0  0  0  0
   49.4135   56.4220   34.9477 N   0  0  0  0  0  0  0  0  0  0  0  0
   49.3507   57.5614   34.2500 C   0  0  0  0  0  0  0  0  0  0  0  0
   48.2629   57.8947   33.5734 N   0  0  0  0  0  0  0  0  0  0  0  0
   47.1895   57.0882   33.5325 C   0  0  0  0  0  0  0  0  0  0  0  0
   47.2133   55.8619   34.2451 C   0  0  0  0  0  0  0  0  0  0  0  0
   48.3902   55.5524   34.9728 C   0  0  0  0  0  0  0  0  0  0  0  0
   48.4848   54.3813   35.6907 N   0  0  0  0  0  0  0  0  0  0  0  0
   46.0300   55.2509   34.0368 N   0  0  0  0  0  0  0  0  0  0  0  0
   45.2993   55.9926   33.2569 C   0  0  0  0  0  0  0  0  0  0  0  0
   45.9616   57.1399   32.9191 N   0  0  0  0  0  0  0  0  0  0  0  0
  2  1  1  1  0  0  0
  2  3  1  0  0  0  0
  2  5  1  0  0  0  0
  3  4  1  0  0  0  0
  3 17  1  0  0  0  0
  5  6  1  0  0  0  0
  7  6  1  1  0  0  0
  7  8  1  0  0  0  0
  7  9  1  0  0  0  0
 10  9  1  6  0  0  0
 10 11  1  0  0  0  0
 10 12  1  0  0  0  0
 11 16  1  0  0  0  0
 12 13  1  6  0  0  0
 12 14  1  0  0  0  0
 14 15  1  6  0  0  0
 14 16  1  0  0  0  0
 16 27  1  1  0  0  0
 18 19  2  0  0  0  0
 18 23  1  0  0  0  0
 19 20  1  0  0  0  0
 20 21  2  0  0  0  0
 21 22  1  0  0  0  0
 21 27  1  0  0  0  0
 22 23  2  0  0  0  0
 22 25  1  0  0  0  0
 23 24  1  0  0  0  0
 25 26  2  0  0  0  0
 26 27  1  0  0  0  0
M  END
>  <CHROM.1>
106.63706268,-173.82582683,179.47291303,179.71438467,-110.38665701,58.87037473
94.63526477,47.40678162,56.83815860,31.57429378,-1.00460423,1.12002321,-1.51304353

>  <Name>
ligand

>  <RI>
0

>  <Rbt.Current_Directory>
/home/itssahil/PROJECTS/Mol_Feturizer/New_Systems/rnas/2GIS

>  <Rbt.Executable>
rbdock ($Id: //depot/dev/client3/rdock/2013.1/src/exe/rbdock.cxx#4 $)

>  <Rbt.Library>
libRbt.so (2013.1, Build901 2013/11/27)

>  <Rbt.Parameter_File>
/export/apps/rDock/src/rDock_2013.1_src/data/scripts/dock_solv.prm

>  <Rbt.Receptor>
prm/pocket_docking_4.prm

>  <SCORE>
-14.3758

>  <SCORE.INTER>
-8.49375

>  <SCORE.INTER.CONST>
1

>  <SCORE.INTER.POLAR>
0

>  <SCORE.INTER.ROT>
7

>  <SCORE.INTER.SOLV>
13.8621

>  <SCORE.INTER.VDW>
-18.5499

>  <SCORE.INTER.norm>
-0.314584

>  <SCORE.INTRA>
-5.88205

>  <SCORE.INTRA.DIHEDRAL>
-2.29852

>  <SCORE.INTRA.DIHEDRAL.0>
9.40024

>  <SCORE.INTRA.POLAR>
0

>  <SCORE.INTRA.POLAR.0>
0

>  <SCORE.INTRA.REPUL>
0

>  <SCORE.INTRA.REPUL.0>
0

>  <SCORE.INTRA.SOLV>
-1.30397

>  <SCORE.INTRA.SOLV.lig_0>
-47.1049

>  <SCORE.INTRA.VDW>
-4.08081

>  <SCORE.INTRA.VDW.0>
-1.50278

>  <SCORE.INTRA.norm>
-0.217854

>  <SCORE.RESTR>
0

>  <SCORE.RESTR.CAVITY>
0

>  <SCORE.RESTR.norm>
0

>  <SCORE.SYSTEM>
0

>  <SCORE.SYSTEM.CONST>
0

>  <SCORE.SYSTEM.DIHEDRAL>
0

>  <SCORE.SYSTEM.SOLV>
0

>  <SCORE.SYSTEM.norm>
0

>  <SCORE.heavy>
27

>  <SCORE.norm>
-0.532437

>  <RMSD>
5.351

$$$$
ligand
 OpenBabel11021811433D
libRbt.so/2013.1/901 2013/11/27
 27 29  0  0  0  0  0  0  0  0999 V2000
   48.1581   52.8380   26.9506 N   0  0  0  0  0  0  0  0  0  0  0  0
   48.4386   53.8162   28.0062 C   0  0  2  0  0  0  0  0  0  0  0  0
   49.1066   53.1193   29.1781 C   0  0  0  0  0  0  0  0  0  0  0  0
   49.9834   53.6957   29.8157 O   0  0  0  0  0  0  0  0  0  0  0  0
   47.1401   54.5018   28.4763 C   0  0  0  0  0  0  0  0  0  0  0  0
   47.4945   55.7613   29.2653 C   0  0  0  0  0  0  0  0  0  0  0  0
   48.1790   57.1458   28.2658 S   0  0  2  0  0  0  0  0  0  0  0  0
   49.9135   56.6729   27.9832 C   0  0  0  0  0  0  0  0  0  0  0  0
   48.3470   58.3052   29.6391 C   0  0  0  0  0  0  0  0  0  0  0  0
   47.0285   58.9906   30.0377 C   0  0  1  0  0  0  0  0  0  0  0  0
   46.0750   57.9750   30.4692 O   0  0  0  0  0  0  0  0  0  0  0  0
   47.4128   59.7534   31.2793 C   0  0  1  0  0  0  0  0  0  0  0  0
   47.7140   61.1077   30.9419 O   0  0  0  0  0  0  0  0  0  0  0  0
   46.1663   59.6884   32.1532 C   0  0  1  0  0  0  0  0  0  0  0  0
   45.3608   60.8544   32.0259 O   0  0  0  0  0  0  0  0  0  0  0  0
   45.3716   58.4128   31.6912 C   0  0  2  0  0  0  0  0  0  0  0  0
   48.8183   51.9544   29.4532 O   0  0  0  0  0  0  0  0  0  0  0  0
   48.2691   55.6267   35.0711 N   0  0  0  0  0  0  0  0  0  0  0  0
   48.6370   56.7077   34.3746 C   0  0  0  0  0  0  0  0  0  0  0  0
   47.7906   57.3263   33.5664 N   0  0  0  0  0  0  0  0  0  0  0  0
   46.5379   56.8757   33.3872 C   0  0  0  0  0  0  0  0  0  0  0  0
   46.1052   55.7240   34.0933 C   0  0  0  0  0  0  0  0  0  0  0  0
   47.0368   55.1034   34.9635 C   0  0  0  0  0  0  0  0  0  0  0  0
   46.6871   53.9834   35.6840 N   0  0  0  0  0  0  0  0  0  0  0  0
   44.8276   55.4868   33.7346 N   0  0  0  0  0  0  0  0  0  0  0  0
   44.4543   56.3848   32.8706 C   0  0  0  0  0  0  0  0  0  0  0  0
   45.4666   57.2697   32.6231 N   0  0  0  0  0  0  0  0  0  0  0  0
  2  1  1  6  0  0  0
  2  3  1  0  0  0  0
  2  5  1  0  0  0  0
  3  4  1  0  0  0  0
  3 17  1  0  0  0  0
  5  6  1  0  0  0  0
  7  6  1  1  0  0  0
  7  8  1  0  0  0  0
  7  9  1  0  0  0  0
 10  9  1  1  0  0  0
 10 11  1  0  0  0  0
 10 12  1  0  0  0  0
 11 16  1  0  0  0  0
 12 13  1  6  0  0  0
 12 14  1  0  0  0  0
 14 15  1  6  0  0  0
 14 16  1  0  0  0  0
 16 27  1  1  0  0  0
 18 19  2  0  0  0  0
 18 23  1  0  0  0  0
 19 20  1  0  0  0  0
 20 21  2  0  0  0  0
 21 22  1  0  0  0  0
 21 27  1  0  0  0  0
 22 23  2  0  0  0  0
 22 25  1  0  0  0  0
 23 24  1  0  0  0  0
 25 26  2  0  0  0  0
 26 27  1  0  0  0  0
M  END
>  <CHROM.1>
143.56315091,-164.16889701,70.55774866,-78.36179268,-79.45315935,61.33384971
77.82443526,47.34930186,56.53634924,31.11539227,0.05892789,-1.19630630,2.51960941

>  <Name>
ligand

>  <RI>
0

>  <Rbt.Current_Directory>
/home/itssahil/PROJECTS/Mol_Feturizer/New_Systems/rnas/2GIS

>  <Rbt.Executable>
rbdock ($Id: //depot/dev/client3/rdock/2013.1/src/exe/rbdock.cxx#4 $)

>  <Rbt.Library>
libRbt.so (2013.1, Build901 2013/11/27)

>  <Rbt.Parameter_File>
/export/apps/rDock/src/rDock_2013.1_src/data/scripts/dock_solv.prm

>  <Rbt.Receptor>
prm/pocket_docking_4.prm

>  <SCORE>
-13.8539

>  <SCORE.INTER>
-8.79476

>  <SCORE.INTER.CONST>
1

>  <SCORE.INTER.POLAR>
0

>  <SCORE.INTER.ROT>
7

>  <SCORE.INTER.SOLV>
11.6125

>  <SCORE.INTER.VDW>
-18.0007

>  <SCORE.INTER.norm>
-0.325732

>  <SCORE.INTRA>
-5.05912

>  <SCORE.INTRA.DIHEDRAL>
-3.99413

>  <SCORE.INTRA.DIHEDRAL.0>
9.40024

>  <SCORE.INTRA.POLAR>
0

>  <SCORE.INTRA.POLAR.0>
0

>  <SCORE.INTRA.REPUL>
0

>  <SCORE.INTRA.REPUL.0>
0

>  <SCORE.INTRA.SOLV>
-2.47253

>  <SCORE.INTRA.SOLV.lig_0>
-47.1049

>  <SCORE.INTRA.VDW>
-1.82579

>  <SCORE.INTRA.VDW.0>
-1.50278

>  <SCORE.INTRA.norm>
-0.187375

>  <SCORE.RESTR>
0

>  <SCORE.RESTR.CAVITY>
0

>  <SCORE.RESTR.norm>
0

>  <SCORE.SYSTEM>
0

>  <SCORE.SYSTEM.CONST>
0

>  <SCORE.SYSTEM.DIHEDRAL>
0

>  <SCORE.SYSTEM.SOLV>
0

>  <SCORE.SYSTEM.norm>
0

>  <SCORE.heavy>
27

>  <SCORE.norm>
-0.513106

>  <RMSD>
5.352

$$$$
ligand
 OpenBabel11021811433D
libRbt.so/2013.1/901 2013/11/27
 27 29  0  0  0  0  0  0  0  0999 V2000
   52.0105   54.2441   27.7373 N   0  0  0  0  0  0  0  0  0  0  0  0
   51.1986   53.0659   28.0575 C   0  0  2  0  0  0  0  0  0  0  0  0
   50.5976   52.5031   26.7819 C   0  0  0  0  0  0  0  0  0  0  0  0
   50.9047   51.3759   26.4044 O   0  0  0  0  0  0  0  0  0  0  0  0
   50.0756   53.4282   29.0496 C   0  0  0  0  0  0  0  0  0  0  0  0
   50.6948   53.7897   30.3989 C   0  0  0  0  0  0  0  0  0  0  0  0
   49.5989   54.7322   31.5369 S   0  0  2  0  0  0  0  0  0  0  0  0
   48.0586   53.7635   31.5720 C   0  0  0  0  0  0  0  0  0  0  0  0
   49.1740   56.0310   30.3575 C   0  0  0  0  0  0  0  0  0  0  0  0
   48.4163   57.2146   30.9838 C   0  0  1  0  0  0  0  0  0  0  0  0
   47.2734   56.7057   31.7332 O   0  0  0  0  0  0  0  0  0  0  0  0
   49.3921   57.7268   32.0118 C   0  0  1  0  0  0  0  0  0  0  0  0
   50.1333   58.8216   31.4728 O   0  0  0  0  0  0  0  0  0  0  0  0
   48.5065   58.1983   33.1586 C   0  0  1  0  0  0  0  0  0  0  0  0
   48.2600   59.5986   33.1051 O   0  0  0  0  0  0  0  0  0  0  0  0
   47.1613   57.3938   33.0346 C   0  0  2  0  0  0  0  0  0  0  0  0
   49.8518   53.1961   26.0894 O   0  0  0  0  0  0  0  0  0  0  0  0
   49.4146   54.1374   36.4843 N   0  0  0  0  0  0  0  0  0  0  0  0
   50.0110   55.0514   35.7110 C   0  0  0  0  0  0  0  0  0  0  0  0
   49.3117   55.8233   34.8941 N   0  0  0  0  0  0  0  0  0  0  0  0
   47.9788   55.6990   34.7835 C   0  0  0  0  0  0  0  0  0  0  0  0
   47.3024   54.7337   35.5728 C   0  0  0  0  0  0  0  0  0  0  0  0
   48.0863   53.9413   36.4490 C   0  0  0  0  0  0  0  0  0  0  0  0
   47.4988   52.9863   37.2480 N   0  0  0  0  0  0  0  0  0  0  0  0
   45.9910   54.8126   35.2709 N   0  0  0  0  0  0  0  0  0  0  0  0
   45.8169   55.7306   34.3657 C   0  0  0  0  0  0  0  0  0  0  0  0
   47.0075   56.3137   34.0316 N   0  0  0  0  0  0  0  0  0  0  0  0
  2  1  1  6  0  0  0
  2  3  1  0  0  0  0
  2  5  1  0  0  0  0
  3  4  1  0  0  0  0
  3 17  1  0  0  0  0
  5  6  1  0  0  0  0
  7  6  1  6  0  0  0
  7  8  1  0  0  0  0
  7  9  1  0  0  0  0
 10  9  1  1  0  0  0
 10 11  1  0  0  0  0
 10 12  1  0  0  0  0
 11 16  1  0  0  0  0
 12 13  1  6  0  0  0
 12 14  1  0  0  0  0
 14 15  1  6  0  0  0
 14 16  1  0  0  0  0
 16 27  1  1  0  0  0
 18 19  2  0  0  0  0
 18 23  1  0  0  0  0
 19 20  1  0  0  0  0
 20 21  2  0  0  0  0
 21 22  1  0  0  0  0
 21 27  1  0  0  0  0
 22 23  2  0  0  0  0
 22 25  1  0  0  0  0
 23 24  1  0  0  0  0
 25 26  2  0  0  0  0
 26 27  1  0  0  0  0
M  END
>  <CHROM.1>
116.58450181,-67.46582399,161.95270161,50.70977849,-170.33643843,-51.85394964
94.34049643,48.93752528,55.21440384,32.02146756,0.06146425,1.22547785,-0.37948482

>  <Name>
ligand

>  <RI>
0

>  <Rbt.Current_Directory>
/home/itssahil/PROJECTS/Mol_Feturizer/New_Systems/rnas/2GIS

>  <Rbt.Executable>
rbdock ($Id: //depot/dev/client3/rdock/2013.1/src/exe/rbdock.cxx#4 $)

>  <Rbt.Library>
libRbt.so (2013.1, Build901 2013/11/27)

>  <Rbt.Parameter_File>
/export/apps/rDock/src/rDock_2013.1_src/data/scripts/dock_solv.prm

>  <Rbt.Receptor>
prm/pocket_docking_7.prm

>  <SCORE>
-15.1414

>  <SCORE.INTER>
-11.2003

>  <SCORE.INTER.CONST>
1

>  <SCORE.INTER.POLAR>
0

>  <SCORE.INTER.ROT>
7

>  <SCORE.INTER.SOLV>
15.6145

>  <SCORE.INTER.VDW>
-20.9384

>  <SCORE.INTER.norm>
-0.414827

>  <SCORE.INTRA>
-3.94109

>  <SCORE.INTRA.DIHEDRAL>
-3.81472

>  <SCORE.INTRA.DIHEDRAL.0>
9.40024

>  <SCORE.INTRA.POLAR>
0

>  <SCORE.INTRA.POLAR.0>
0

>  <SCORE.INTRA.REPUL>
0

>  <SCORE.INTRA.REPUL.0>
0

>  <SCORE.INTRA.SOLV>
-1.76559

>  <SCORE.INTRA.SOLV.lig_0>
-47.1049

>  <SCORE.INTRA.VDW>
-1.15093

>  <SCORE.INTRA.VDW.0>
-1.50278

>  <SCORE.INTRA.norm>
-0.145966

>  <SCORE.RESTR>
0

>  <SCORE.RESTR.CAVITY>
0

>  <SCORE.RESTR.norm>
0

>  <SCORE.SYSTEM>
0

>  <SCORE.SYSTEM.CONST>
0

>  <SCORE.SYSTEM.DIHEDRAL>
0

>  <SCORE.SYSTEM.SOLV>
0

>  <SCORE.SYSTEM.norm>
0

>  <SCORE.heavy>
27

>  <SCORE.norm>
-0.560793

>  <RMSD>
5.363

$$$$
ligand
 OpenBabel11021811433D
libRbt.so/2013.1/901 2013/11/27
 27 29  0  0  0  0  0  0  0  0999 V2000
   50.8979   52.4069   27.3705 N   0  0  0  0  0  0  0  0  0  0  0  0
   50.8742   53.8728   27.3460 C   0  0  2  0  0  0  0  0  0  0  0  0
   52.0878   54.4113   28.0826 C   0  0  0  0  0  0  0  0  0  0  0  0
   52.5344   55.5197   27.8007 O   0  0  0  0  0  0  0  0  0  0  0  0
   49.5850   54.4104   27.9985 C   0  0  0  0  0  0  0  0  0  0  0  0
   49.4074   55.8807   27.6225 C   0  0  0  0  0  0  0  0  0  0  0  0
   48.1287   56.7871   28.5856 S   0  0  2  0  0  0  0  0  0  0  0  0
   48.1194   58.4526   27.8520 C   0  0  0  0  0  0  0  0  0  0  0  0
   49.1484   57.0513   30.0516 C   0  0  0  0  0  0  0  0  0  0  0  0
   48.6120   58.1443   30.9921 C   0  0  1  0  0  0  0  0  0  0  0  0
   47.3825   57.6725   31.6187 O   0  0  0  0  0  0  0  0  0  0  0  0
   49.6483   58.1793   32.0857 C   0  0  1  0  0  0  0  0  0  0  0  0
   50.5877   59.2236   31.8296 O   0  0  0  0  0  0  0  0  0  0  0  0
   48.8462   58.4837   33.3449 C   0  0  1  0  0  0  0  0  0  0  0  0
   48.8634   59.8688   33.6700 O   0  0  0  0  0  0  0  0  0  0  0  0
   47.3778   58.0000   33.0583 C   0  0  2  0  0  0  0  0  0  0  0  0
   52.6655   53.7154   28.9180 O   0  0  0  0  0  0  0  0  0  0  0  0
   48.7765   54.0690   36.2477 N   0  0  0  0  0  0  0  0  0  0  0  0
   49.5186   55.1119   35.8594 C   0  0  0  0  0  0  0  0  0  0  0  0
   49.0275   56.0463   35.0607 N   0  0  0  0  0  0  0  0  0  0  0  0
   47.7753   55.9696   34.5809 C   0  0  0  0  0  0  0  0  0  0  0  0
   46.9538   54.8746   34.9529 C   0  0  0  0  0  0  0  0  0  0  0  0
   47.5119   53.9065   35.8257 C   0  0  0  0  0  0  0  0  0  0  0  0
   46.7732   52.8181   36.2323 N   0  0  0  0  0  0  0  0  0  0  0  0
   45.7643   55.0355   34.3394 N   0  0  0  0  0  0  0  0  0  0  0  0
   45.7974   56.1222   33.6250 C   0  0  0  0  0  0  0  0  0  0  0  0
   47.0108   56.7414   33.7404 N   0  0  0  0  0  0  0  0  0  0  0  0
  2  1  1  1  0  0  0
  2  3  1  0  0  0  0
  2  5  1  0  0  0  0
  3  4  1  0  0  0  0
  3 17  1  0  0  0  0
  5  6  1  0  0  0  0
  7  6  1  6  0  0  0
  7  8  1  0  0  0  0
  7  9  1  0  0  0  0
 10  9  1  6  0  0  0
 10 11  1  0  0  0  0
 10 12  1  0  0  0  0
 11 16  1  0  0  0  0
 12 13  1  6  0  0  0
 12 14  1  0  0  0  0
 14 15  1  6  0  0  0
 14 16  1  0  0  0  0
 16 27  1  1  0  0  0
 18 19  2  0  0  0  0
 18 23  1  0  0  0  0
 19 20  1  0  0  0  0
 20 21  2  0  0  0  0
 21 22  1  0  0  0  0
 21 27  1  0  0  0  0
 22 23  2  0  0  0  0
 22 25  1  0  0  0  0
 23 24  1  0  0  0  0
 25 26  2  0  0  0  0
 26 27  1  0  0  0  0
M  END
>  <CHROM.1>
153.97165717,-164.61800108,-167.63404940,-177.55408604,163.00358741,69.24304202
114.00477458,48.89544368,56.11301982,31.56089391,-0.48452073,-1.11102342
2.54637802

>  <Name>
ligand

>  <RI>
0

>  <Rbt.Current_Directory>
/home/itssahil/PROJECTS/Mol_Feturizer/New_Systems/rnas/2GIS

>  <Rbt.Executable>
rbdock ($Id: //depot/dev/client3/rdock/2013.1/src/exe/rbdock.cxx#4 $)

>  <Rbt.Library>
libRbt.so (2013.1, Build901 2013/11/27)

>  <Rbt.Parameter_File>
/export/apps/rDock/src/rDock_2013.1_src/data/scripts/dock_solv.prm

>  <Rbt.Receptor>
prm/pocket_docking_4.prm

>  <SCORE>
-15.5047

>  <SCORE.INTER>
-11.312

>  <SCORE.INTER.CONST>
1

>  <SCORE.INTER.POLAR>
0

>  <SCORE.INTER.ROT>
7

>  <SCORE.INTER.SOLV>
15.7019

>  <SCORE.INTER.VDW>
-21.042

>  <SCORE.INTER.norm>
-0.418965

>  <SCORE.INTRA>
-4.19261

>  <SCORE.INTRA.DIHEDRAL>
-3.70303

>  <SCORE.INTRA.DIHEDRAL.0>
9.40024

>  <SCORE.INTRA.POLAR>
0

>  <SCORE.INTRA.POLAR.0>
0

>  <SCORE.INTRA.REPUL>
0

>  <SCORE.INTRA.REPUL.0>
0

>  <SCORE.INTRA.SOLV>
-3.10541

>  <SCORE.INTRA.SOLV.lig_0>
-47.1049

>  <SCORE.INTRA.VDW>
-0.788394

>  <SCORE.INTRA.VDW.0>
-1.50278

>  <SCORE.INTRA.norm>
-0.155282

>  <SCORE.RESTR>
0

>  <SCORE.RESTR.CAVITY>
0

>  <SCORE.RESTR.norm>
0

>  <SCORE.SYSTEM>
0

>  <SCORE.SYSTEM.CONST>
0

>  <SCORE.SYSTEM.DIHEDRAL>
0

>  <SCORE.SYSTEM.SOLV>
0

>  <SCORE.SYSTEM.norm>
0

>  <SCORE.heavy>
27

>  <SCORE.norm>
-0.574247

>  <RMSD>
5.366

$$$$
ligand
 OpenBabel11021811433D
libRbt.so/2013.1/901 2013/11/27
 27 29  0  0  0  0  0  0  0  0999 V2000
   49.9595   52.2340   25.7923 N   0  0  0  0  0  0  0  0  0  0  0  0
   50.3549   52.8118   27.0806 C   0  0  2  0  0  0  0  0  0  0  0  0
   51.8371   52.5743   27.3085 C   0  0  0  0  0  0  0  0  0  0  0  0
   52.4889   53.3674   27.9821 O   0  0  0  0  0  0  0  0  0  0  0  0
   49.5419   52.1886   28.2327 C   0  0  0  0  0  0  0  0  0  0  0  0
   49.8668   52.9243   29.5319 C   0  0  0  0  0  0  0  0  0  0  0  0
   49.2165   54.6415   29.6439 S   0  0  2  0  0  0  0  0  0  0  0  0
   50.4797   55.6490   28.8064 C   0  0  0  0  0  0  0  0  0  0  0  0
   49.6523   54.8958   31.3772 C   0  0  0  0  0  0  0  0  0  0  0  0
   49.2913   56.2934   31.9094 C   0  0  1  0  0  0  0  0  0  0  0  0
   47.8428   56.4585   31.8707 O   0  0  0  0  0  0  0  0  0  0  0  0
   49.6595   56.1987   33.3677 C   0  0  1  0  0  0  0  0  0  0  0  0
   50.9642   56.7410   33.5740 O   0  0  0  0  0  0  0  0  0  0  0  0
   48.6119   57.0542   34.0693 C   0  0  1  0  0  0  0  0  0  0  0  0
   49.0805   58.3729   34.3258 O   0  0  0  0  0  0  0  0  0  0  0  0
   47.3610   57.0861   33.1172 C   0  0  2  0  0  0  0  0  0  0  0  0
   52.4032   51.6236   26.7685 O   0  0  0  0  0  0  0  0  0  0  0  0
   45.6043   53.3129   36.3201 N   0  0  0  0  0  0  0  0  0  0  0  0
   46.8405   53.8191   36.2519 C   0  0  0  0  0  0  0  0  0  0  0  0
   47.1409   54.7889   35.4026 N   0  0  0  0  0  0  0  0  0  0  0  0
   46.2261   55.2825   34.5519 C   0  0  0  0  0  0  0  0  0  0  0  0
   44.9043   54.7680   34.5764 C   0  0  0  0  0  0  0  0  0  0  0  0
   44.6198   53.7438   35.5146 C   0  0  0  0  0  0  0  0  0  0  0  0
   43.3584   53.1982   35.5983 N   0  0  0  0  0  0  0  0  0  0  0  0
   44.1982   55.4240   33.6340 N   0  0  0  0  0  0  0  0  0  0  0  0
   44.9758   56.2799   33.0382 C   0  0  0  0  0  0  0  0  0  0  0  0
   46.2359   56.2398   33.5669 N   0  0  0  0  0  0  0  0  0  0  0  0
  2  1  1  6  0  0  0
  2  3  1  0  0  0  0
  2  5  1  0  0  0  0
  3  4  1  0  0  0  0
  3 17  1  0  0  0  0
  5  6  1  0  0  0  0
  7  6  1  6  0  0  0
  7  8  1  0  0  0  0
  7  9  1  0  0  0  0
 10  9  1  6  0  0  0
 10 11  1  0  0  0  0
 10 12  1  0  0  0  0
 11 16  1  0  0  0  0
 12 13  1  6  0  0  0
 12 14  1  0  0  0  0
 14 15  1  6  0  0  0
 14 16  1  0  0  0  0
 16 27  1  1  0  0  0
 18 19  2  0  0  0  0
 18 23  1  0  0  0  0
 19 20  1  0  0  0  0
 20 21  2  0  0  0  0
 21 22  1  0  0  0  0
 21 27  1  0  0  0  0
 22 23  2  0  0  0  0
 22 25  1  0  0  0  0
 23 24  1  0  0  0  0
 25 26  2  0  0  0  0
 26 27  1  0  0  0  0
M  END
>  <CHROM.1>
150.82607368,-173.62812996,70.48348976,-84.71195623,178.85496446,63.85179864
101.33741730,48.39986646,54.74751352,31.77998285,0.81064778,-0.61499264,-2.35827684

>  <Name>
ligand

>  <RI>
0

>  <Rbt.Current_Directory>
/home/itssahil/PROJECTS/Mol_Feturizer/New_Systems/rnas/2GIS

>  <Rbt.Executable>
rbdock ($Id: //depot/dev/client3/rdock/2013.1/src/exe/rbdock.cxx#4 $)

>  <Rbt.Library>
libRbt.so (2013.1, Build901 2013/11/27)

>  <Rbt.Parameter_File>
/export/apps/rDock/src/rDock_2013.1_src/data/scripts/dock_solv.prm

>  <Rbt.Receptor>
prm/pocket_docking_6.prm

>  <SCORE>
-16.4022

>  <SCORE.INTER>
-11.4805

>  <SCORE.INTER.CONST>
1

>  <SCORE.INTER.POLAR>
0

>  <SCORE.INTER.ROT>
7

>  <SCORE.INTER.SOLV>
9.77766

>  <SCORE.INTER.VDW>
-19.1796

>  <SCORE.INTER.norm>
-0.425205

>  <SCORE.INTRA>
-4.92168

>  <SCORE.INTRA.DIHEDRAL>
-4.61219

>  <SCORE.INTRA.DIHEDRAL.0>
9.40024

>  <SCORE.INTRA.POLAR>
0

>  <SCORE.INTRA.POLAR.0>
0

>  <SCORE.INTRA.REPUL>
0

>  <SCORE.INTRA.REPUL.0>
0

>  <SCORE.INTRA.SOLV>
-2.8796

>  <SCORE.INTRA.SOLV.lig_0>
-47.1049

>  <SCORE.INTRA.VDW>
-1.17578

>  <SCORE.INTRA.VDW.0>
-1.50278

>  <SCORE.INTRA.norm>
-0.182284

>  <SCORE.RESTR>
0

>  <SCORE.RESTR.CAVITY>
0

>  <SCORE.RESTR.norm>
0

>  <SCORE.SYSTEM>
0

>  <SCORE.SYSTEM.CONST>
0

>  <SCORE.SYSTEM.DIHEDRAL>
0

>  <SCORE.SYSTEM.SOLV>
0

>  <SCORE.SYSTEM.norm>
0

>  <SCORE.heavy>
27

>  <SCORE.norm>
-0.607489

>  <RMSD>
5.373

$$$$
ligand
 OpenBabel11021811433D
libRbt.so/2013.1/901 2013/11/27
 27 29  0  0  0  0  0  0  0  0999 V2000
   46.7944   61.2262   30.8369 N   0  0  0  0  0  0  0  0  0  0  0  0
   47.5901   60.0426   31.1774 C   0  0  2  0  0  0  0  0  0  0  0  0
   47.8905   59.2540   29.9152 C   0  0  0  0  0  0  0  0  0  0  0  0
   49.0473   58.9408   29.6485 O   0  0  0  0  0  0  0  0  0  0  0  0
   46.8396   59.1500   32.1858 C   0  0  0  0  0  0  0  0  0  0  0  0
   47.7626   58.0206   32.6408 C   0  0  0  0  0  0  0  0  0  0  0  0
   49.0398   58.5011   33.8746 S   0  0  2  0  0  0  0  0  0  0  0  0
   50.3112   59.3510   32.8880 C   0  0  0  0  0  0  0  0  0  0  0  0
   49.7648   56.8568   34.0460 C   0  0  0  0  0  0  0  0  0  0  0  0
   48.7311   55.7462   34.3010 C   0  0  1  0  0  0  0  0  0  0  0  0
   48.1421   55.3423   33.0295 O   0  0  0  0  0  0  0  0  0  0  0  0
   49.5890   54.5901   34.7470 C   0  0  1  0  0  0  0  0  0  0  0  0
   49.6198   54.5318   36.1733 O   0  0  0  0  0  0  0  0  0  0  0  0
   48.8814   53.3653   34.1806 C   0  0  1  0  0  0  0  0  0  0  0  0
   48.0354   52.7429   35.1405 O   0  0  0  0  0  0  0  0  0  0  0  0
   48.0443   53.8713   32.9496 C   0  0  2  0  0  0  0  0  0  0  0  0
   46.9871   58.9815   29.1243 O   0  0  0  0  0  0  0  0  0  0  0  0
   47.2604   52.4645   27.9508 N   0  0  0  0  0  0  0  0  0  0  0  0
   46.3370   52.7050   28.8881 C   0  0  0  0  0  0  0  0  0  0  0  0
   46.6794   53.0731   30.1127 N   0  0  0  0  0  0  0  0  0  0  0  0
   47.9679   53.1887   30.4743 C   0  0  0  0  0  0  0  0  0  0  0  0
   48.9843   52.9303   29.5190 C   0  0  0  0  0  0  0  0  0  0  0  0
   48.5742   52.5581   28.2138 C   0  0  0  0  0  0  0  0  0  0  0  0
   49.5043   52.2948   27.2334 N   0  0  0  0  0  0  0  0  0  0  0  0
   50.1706   53.1125   30.1325 N   0  0  0  0  0  0  0  0  0  0  0  0
   49.9619   53.4482   31.3719 C   0  0  0  0  0  0  0  0  0  0  0  0
   48.6223   53.5156   31.6368 N   0  0  0  0  0  0  0  0  0  0  0  0
  2  1  1  6  0  0  0
  2  3  1  0  0  0  0
  2  5  1  0  0  0  0
  3  4  1  0  0  0  0
  3 17  1  0  0  0  0
  5  6  1  0  0  0  0
  7  6  1  6  0  0  0
  7  8  1  0  0  0  0
  7  9  1  0  0  0  0
 10  9  1  6  0  0  0
 10 11  1  0  0  0  0
 10 12  1  0  0  0  0
 11 16  1  0  0  0  0
 12 13  1  1  0  0  0
 12 14  1  0  0  0  0
 14 15  1  1  0  0  0
 14 16  1  0  0  0  0
 16 27  1  6  0  0  0
 18 19  2  0  0  0  0
 18 23  1  0  0  0  0
 19 20  1  0  0  0  0
 20 21  2  0  0  0  0
 21 22  1  0  0  0  0
 21 27  1  0  0  0  0
 22 23  2  0  0  0  0
 22 25  1  0  0  0  0
 23 24  1  0  0  0  0
 25 26  2  0  0  0  0
 26 27  1  0  0  0  0
M  END
>  <CHROM.1>
127.76655883,-173.33943143,77.11197826,-77.60664750,-49.90690432,81.71853305
-101.56577591,48.44705058,55.75694898,31.73960612,1.63949213,-1.34844413
0.39405559

>  <Name>
ligand

>  <RI>
0

>  <Rbt.Current_Directory>
/home/itssahil/PROJECTS/Mol_Feturizer/New_Systems/rnas/2GIS

>  <Rbt.Executable>
rbdock ($Id: //depot/dev/client3/rdock/2013.1/src/exe/rbdock.cxx#4 $)

>  <Rbt.Library>
libRbt.so (2013.1, Build901 2013/11/27)

>  <Rbt.Parameter_File>
/export/apps/rDock/src/rDock_2013.1_src/data/scripts/dock_solv.prm

>  <Rbt.Receptor>
prm/pocket_docking_5.prm

>  <SCORE>
-19.4715

>  <SCORE.INTER>
-17.082

>  <SCORE.INTER.CONST>
1

>  <SCORE.INTER.POLAR>
0

>  <SCORE.INTER.ROT>
7

>  <SCORE.INTER.SOLV>
17.0634

>  <SCORE.INTER.VDW>
-25.3425

>  <SCORE.INTER.norm>
-0.632666

>  <SCORE.INTRA>
-2.38954

>  <SCORE.INTRA.DIHEDRAL>
-2.34781

>  <SCORE.INTRA.DIHEDRAL.0>
9.40024

>  <SCORE.INTRA.POLAR>
0

>  <SCORE.INTRA.POLAR.0>
0

>  <SCORE.INTRA.REPUL>
0

>  <SCORE.INTRA.REPUL.0>
0

>  <SCORE.INTRA.SOLV>
-2.71966

>  <SCORE.INTRA.SOLV.lig_0>
-47.1049

>  <SCORE.INTRA.VDW>
0.144201

>  <SCORE.INTRA.VDW.0>
-1.50278

>  <SCORE.INTRA.norm>
-0.0885013

>  <SCORE.RESTR>
0

>  <SCORE.RESTR.CAVITY>
0

>  <SCORE.RESTR.norm>
0

>  <SCORE.SYSTEM>
0

>  <SCORE.SYSTEM.CONST>
0

>  <SCORE.SYSTEM.DIHEDRAL>
0

>  <SCORE.SYSTEM.SOLV>
0

>  <SCORE.SYSTEM.norm>
0

>  <SCORE.heavy>
27

>  <SCORE.norm>
-0.721167

>  <RMSD>
5.375

$$$$
ligand
 OpenBabel11021811433D
libRbt.so/2013.1/901 2013/11/27
 27 29  0  0  0  0  0  0  0  0999 V2000
   46.1011   52.6596   26.1171 N   0  0  0  0  0  0  0  0  0  0  0  0
   47.3053   53.4910   26.0244 C   0  0  2  0  0  0  0  0  0  0  0  0
   48.4825   52.6316   25.5990 C   0  0  0  0  0  0  0  0  0  0  0  0
   48.6794   51.5485   26.1427 O   0  0  0  0  0  0  0  0  0  0  0  0
   47.6110   54.1645   27.3771 C   0  0  0  0  0  0  0  0  0  0  0  0
   46.3801   54.9422   27.8404 C   0  0  0  0  0  0  0  0  0  0  0  0
   46.5759   55.8444   29.4316 S   0  0  2  0  0  0  0  0  0  0  0  0
   44.9596   55.6597   30.2474 C   0  0  0  0  0  0  0  0  0  0  0  0
   46.4309   57.5008   28.7286 C   0  0  0  0  0  0  0  0  0  0  0  0
   46.7057   58.6294   29.7375 C   0  0  1  0  0  0  0  0  0  0  0  0
   45.7877   58.4965   30.8629 O   0  0  0  0  0  0  0  0  0  0  0  0
   48.0699   58.2737   30.2702 C   0  0  1  0  0  0  0  0  0  0  0  0
   49.0713   59.0097   29.5672 O   0  0  0  0  0  0  0  0  0  0  0  0
   48.0202   58.7058   31.7305 C   0  0  1  0  0  0  0  0  0  0  0  0
   48.5885   59.9952   31.9278 O   0  0  0  0  0  0  0  0  0  0  0  0
   46.5018   58.7011   32.1389 C   0  0  2  0  0  0  0  0  0  0  0  0
   49.2785   53.0439   24.7550 O   0  0  0  0  0  0  0  0  0  0  0  0
   47.9332   54.9018   35.4702 N   0  0  0  0  0  0  0  0  0  0  0  0
   48.7175   55.8068   34.8746 C   0  0  0  0  0  0  0  0  0  0  0  0
   48.2153   56.7266   34.0659 N   0  0  0  0  0  0  0  0  0  0  0  0
   46.9026   56.7695   33.7842 C   0  0  0  0  0  0  0  0  0  0  0  0
   46.0319   55.8216   34.3806 C   0  0  0  0  0  0  0  0  0  0  0  0
   46.6078   54.8662   35.2558 C   0  0  0  0  0  0  0  0  0  0  0  0
   45.8245   53.9172   35.8735 N   0  0  0  0  0  0  0  0  0  0  0  0
   44.7866   56.0804   33.9341 N   0  0  0  0  0  0  0  0  0  0  0  0
   44.8291   57.0914   33.1166 C   0  0  0  0  0  0  0  0  0  0  0  0
   46.1073   57.5597   32.9906 N   0  0  0  0  0  0  0  0  0  0  0  0
  2  1  1  1  0  0  0
  2  3  1  0  0  0  0
  2  5  1  0  0  0  0
  3  4  1  0  0  0  0
  3 17  1  0  0  0  0
  5  6  1  0  0  0  0
  7  6  1  6  0  0  0
  7  8  1  0  0  0  0
  7  9  1  0  0  0  0
 10  9  1  6  0  0  0
 10 11  1  0  0  0  0
 10 12  1  0  0  0  0
 11 16  1  0  0  0  0
 12 13  1  6  0  0  0
 12 14  1  0  0  0  0
 14 15  1  6  0  0  0
 14 16  1  0  0  0  0
 16 27  1  1  0  0  0
 18 19  2  0  0  0  0
 18 23  1  0  0  0  0
 19 20  1  0  0  0  0
 20 21  2  0  0  0  0
 21 22  1  0  0  0  0
 21 27  1  0  0  0  0
 22 23  2  0  0  0  0
 22 25  1  0  0  0  0
 23 24  1  0  0  0  0
 25 26  2  0  0  0  0
 26 27  1  0  0  0  0
M  END
>  <CHROM.1>
-46.40799579,-54.80652879,-178.80081927,-142.48411534,-173.27804236,-57.44254554
135.27253416,47.05983505,56.02828118,30.65104501,0.86402269,-1.38706362,-2.67598349

>  <Name>
ligand

>  <RI>
0

>  <Rbt.Current_Directory>
/home/itssahil/PROJECTS/Mol_Feturizer/New_Systems/rnas/2GIS

>  <Rbt.Executable>
rbdock ($Id: //depot/dev/client3/rdock/2013.1/src/exe/rbdock.cxx#4 $)

>  <Rbt.Library>
libRbt.so (2013.1, Build901 2013/11/27)

>  <Rbt.Parameter_File>
/export/apps/rDock/src/rDock_2013.1_src/data/scripts/dock_solv.prm

>  <Rbt.Receptor>
prm/pocket_docking_5.prm

>  <SCORE>
-9.90441

>  <SCORE.INTER>
-7.1484

>  <SCORE.INTER.CONST>
1

>  <SCORE.INTER.POLAR>
0

>  <SCORE.INTER.ROT>
7

>  <SCORE.INTER.SOLV>
12.9093

>  <SCORE.INTER.VDW>
-17.3354

>  <SCORE.INTER.norm>
-0.264755

>  <SCORE.INTRA>
-2.75601

>  <SCORE.INTRA.DIHEDRAL>
-1.81471

>  <SCORE.INTRA.DIHEDRAL.0>
9.40024

>  <SCORE.INTRA.POLAR>
0

>  <SCORE.INTRA.POLAR.0>
0

>  <SCORE.INTRA.REPUL>
0

>  <SCORE.INTRA.REPUL.0>
0

>  <SCORE.INTRA.SOLV>
-2.08111

>  <SCORE.INTRA.SOLV.lig_0>
-47.1049

>  <SCORE.INTRA.VDW>
-0.808104

>  <SCORE.INTRA.VDW.0>
-1.50278

>  <SCORE.INTRA.norm>
-0.102075

>  <SCORE.RESTR>
0

>  <SCORE.RESTR.CAVITY>
0

>  <SCORE.RESTR.norm>
0

>  <SCORE.SYSTEM>
0

>  <SCORE.SYSTEM.CONST>
0

>  <SCORE.SYSTEM.DIHEDRAL>
0

>  <SCORE.SYSTEM.SOLV>
0

>  <SCORE.SYSTEM.norm>
0

>  <SCORE.heavy>
27

>  <SCORE.norm>
-0.36683

>  <RMSD>
5.379

$$$$
ligand
 OpenBabel11021811433D
libRbt.so/2013.1/901 2013/11/27
 27 29  0  0  0  0  0  0  0  0999 V2000
   45.8469   54.5071   31.8140 N   0  0  0  0  0  0  0  0  0  0  0  0
   47.2460   54.1685   31.5352 C   0  0  2  0  0  0  0  0  0  0  0  0
   47.3647   53.6308   30.1202 C   0  0  0  0  0  0  0  0  0  0  0  0
   46.4205   53.0348   29.6094 O   0  0  0  0  0  0  0  0  0  0  0  0
   47.7659   53.1199   32.5387 C   0  0  0  0  0  0  0  0  0  0  0  0
   47.8625   53.7559   33.9246 C   0  0  0  0  0  0  0  0  0  0  0  0
   49.1832   55.0222   34.1157 S   0  0  2  0  0  0  0  0  0  0  0  0
   49.2152   55.3626   35.9032 C   0  0  0  0  0  0  0  0  0  0  0  0
   48.2028   56.4108   33.5080 C   0  0  0  0  0  0  0  0  0  0  0  0
   49.0478   57.5924   33.0010 C   0  0  1  0  0  0  0  0  0  0  0  0
   49.9747   57.1129   31.9823 O   0  0  0  0  0  0  0  0  0  0  0  0
   48.0337   58.4382   32.2747 C   0  0  1  0  0  0  0  0  0  0  0  0
   47.5652   59.4776   33.1342 O   0  0  0  0  0  0  0  0  0  0  0  0
   48.8136   59.0270   31.1055 C   0  0  1  0  0  0  0  0  0  0  0  0
   49.2909   60.3379   31.3852 O   0  0  0  0  0  0  0  0  0  0  0  0
   50.0130   58.0459   30.8387 C   0  0  2  0  0  0  0  0  0  0  0  0
   48.4259   53.7336   29.5045 O   0  0  0  0  0  0  0  0  0  0  0  0
   47.8338   57.3632   26.1093 N   0  0  0  0  0  0  0  0  0  0  0  0
   47.6855   58.4037   26.9367 C   0  0  0  0  0  0  0  0  0  0  0  0
   48.3148   58.4526   28.1002 N   0  0  0  0  0  0  0  0  0  0  0  0
   49.1023   57.4456   28.5128 C   0  0  0  0  0  0  0  0  0  0  0  0
   49.2798   56.3138   27.6764 C   0  0  0  0  0  0  0  0  0  0  0  0
   48.6035   56.3104   26.4302 C   0  0  0  0  0  0  0  0  0  0  0  0
   48.7306   55.2472   25.5646 N   0  0  0  0  0  0  0  0  0  0  0  0
   50.1023   55.4613   28.3197 N   0  0  0  0  0  0  0  0  0  0  0  0
   50.4291   55.9721   29.4706 C   0  0  0  0  0  0  0  0  0  0  0  0
   49.8457   57.1968   29.6407 N   0  0  0  0  0  0  0  0  0  0  0  0
  2  1  1  1  0  0  0
  2  3  1  0  0  0  0
  2  5  1  0  0  0  0
  3  4  1  0  0  0  0
  3 17  1  0  0  0  0
  5  6  1  0  0  0  0
  7  6  1  1  0  0  0
  7  8  1  0  0  0  0
  7  9  1  0  0  0  0
 10  9  1  6  0  0  0
 10 11  1  0  0  0  0
 10 12  1  0  0  0  0
 11 16  1  0  0  0  0
 12 13  1  1  0  0  0
 12 14  1  0  0  0  0
 14 15  1  1  0  0  0
 14 16  1  0  0  0  0
 16 27  1  6  0  0  0
 18 19  2  0  0  0  0
 18 23  1  0  0  0  0
 19 20  1  0  0  0  0
 20 21  2  0  0  0  0
 21 22  1  0  0  0  0
 21 27  1  0  0  0  0
 22 23  2  0  0  0  0
 22 25  1  0  0  0  0
 23 24  1  0  0  0  0
 25 26  2  0  0  0  0
 26 27  1  0  0  0  0
M  END
>  <CHROM.1>
-29.73260474,-68.40201504,-69.55240972,-170.79261330,-158.46852712,55.10730331
139.40686128,48.54516695,56.26366328,30.73685677,1.67460297,1.32914667,1.65260110

>  <Name>
ligand

>  <RI>
0

>  <Rbt.Current_Directory>
/home/itssahil/PROJECTS/Mol_Feturizer/New_Systems/rnas/2GIS

>  <Rbt.Executable>
rbdock ($Id: //depot/dev/client3/rdock/2013.1/src/exe/rbdock.cxx#4 $)

>  <Rbt.Library>
libRbt.so (2013.1, Build901 2013/11/27)

>  <Rbt.Parameter_File>
/export/apps/rDock/src/rDock_2013.1_src/data/scripts/dock_solv.prm

>  <Rbt.Receptor>
prm/pocket_docking_3.prm

>  <SCORE>
-13.4

>  <SCORE.INTER>
-9.24303

>  <SCORE.INTER.CONST>
1

>  <SCORE.INTER.POLAR>
0

>  <SCORE.INTER.ROT>
7

>  <SCORE.INTER.SOLV>
9.38956

>  <SCORE.INTER.VDW>
-17.5585

>  <SCORE.INTER.norm>
-0.342334

>  <SCORE.INTRA>
-4.15694

>  <SCORE.INTRA.DIHEDRAL>
-2.70644

>  <SCORE.INTRA.DIHEDRAL.0>
9.40024

>  <SCORE.INTRA.POLAR>
0

>  <SCORE.INTRA.POLAR.0>
0

>  <SCORE.INTRA.REPUL>
0

>  <SCORE.INTRA.REPUL.0>
0

>  <SCORE.INTRA.SOLV>
-1.02808

>  <SCORE.INTRA.SOLV.lig_0>
-47.1049

>  <SCORE.INTRA.VDW>
-2.28968

>  <SCORE.INTRA.VDW.0>
-1.50278

>  <SCORE.INTRA.norm>
-0.153961

>  <SCORE.RESTR>
0

>  <SCORE.RESTR.CAVITY>
0

>  <SCORE.RESTR.norm>
0

>  <SCORE.SYSTEM>
0

>  <SCORE.SYSTEM.CONST>
0

>  <SCORE.SYSTEM.DIHEDRAL>
0

>  <SCORE.SYSTEM.SOLV>
0

>  <SCORE.SYSTEM.norm>
0

>  <SCORE.heavy>
27

>  <SCORE.norm>
-0.496295

>  <RMSD>
5.383

$$$$
ligand
 OpenBabel11021811433D
libRbt.so/2013.1/901 2013/11/27
 27 29  0  0  0  0  0  0  0  0999 V2000
   49.1122   52.8053   27.8612 N   0  0  0  0  0  0  0  0  0  0  0  0
   47.6503   52.7021   27.9079 C   0  0  2  0  0  0  0  0  0  0  0  0
   47.1315   52.2438   26.5565 C   0  0  0  0  0  0  0  0  0  0  0  0
   47.9106   52.0923   25.6198 O   0  0  0  0  0  0  0  0  0  0  0  0
   47.0174   54.0582   28.2788 C   0  0  0  0  0  0  0  0  0  0  0  0
   47.4897   55.1207   27.2875 C   0  0  0  0  0  0  0  0  0  0  0  0
   46.7834   56.8000   27.5428 S   0  0  2  0  0  0  0  0  0  0  0  0
   47.5681   57.8119   26.2495 C   0  0  0  0  0  0  0  0  0  0  0  0
   47.7952   57.2141   28.9793 C   0  0  0  0  0  0  0  0  0  0  0  0
   47.3034   58.4524   29.7487 C   0  0  1  0  0  0  0  0  0  0  0  0
   45.9479   58.2083   30.2281 O   0  0  0  0  0  0  0  0  0  0  0  0
   48.1828   58.4536   30.9726 C   0  0  1  0  0  0  0  0  0  0  0  0
   49.2877   59.3359   30.7743 O   0  0  0  0  0  0  0  0  0  0  0  0
   47.2756   58.9790   32.0784 C   0  0  1  0  0  0  0  0  0  0  0  0
   47.4491   60.3742   32.2969 O   0  0  0  0  0  0  0  0  0  0  0  0
   45.8029   58.6684   31.6235 C   0  0  2  0  0  0  0  0  0  0  0  0
   45.9240   52.0842   26.3774 O   0  0  0  0  0  0  0  0  0  0  0  0
   42.1226   54.9229   31.7124 N   0  0  0  0  0  0  0  0  0  0  0  0
   42.3492   55.8254   30.7516 C   0  0  0  0  0  0  0  0  0  0  0  0
   43.3318   56.7065   30.8533 N   0  0  0  0  0  0  0  0  0  0  0  0
   44.1212   56.7523   31.9392 C   0  0  0  0  0  0  0  0  0  0  0  0
   43.9110   55.8246   32.9916 C   0  0  0  0  0  0  0  0  0  0  0  0
   42.8607   54.8853   32.8338 C   0  0  0  0  0  0  0  0  0  0  0  0
   42.5995   53.9524   33.8122 N   0  0  0  0  0  0  0  0  0  0  0  0
   44.8235   56.0862   33.9486 N   0  0  0  0  0  0  0  0  0  0  0  0
   45.5580   57.0921   33.5730 C   0  0  0  0  0  0  0  0  0  0  0  0
   45.1732   57.5394   32.3397 N   0  0  0  0  0  0  0  0  0  0  0  0
  2  1  1  6  0  0  0
  2  3  1  0  0  0  0
  2  5  1  0  0  0  0
  3  4  1  0  0  0  0
  3 17  1  0  0  0  0
  5  6  1  0  0  0  0
  7  6  1  6  0  0  0
  7  8  1  0  0  0  0
  7  9  1  0  0  0  0
 10  9  1  6  0  0  0
 10 11  1  0  0  0  0
 10 12  1  0  0  0  0
 11 16  1  0  0  0  0
 12 13  1  6  0  0  0
 12 14  1  0  0  0  0
 14 15  1  6  0  0  0
 14 16  1  0  0  0  0
 16 27  1  1  0  0  0
 18 19  2  0  0  0  0
 18 23  1  0  0  0  0
 19 20  1  0  0  0  0
 20 21  2  0  0  0  0
 21 22  1  0  0  0  0
 21 27  1  0  0  0  0
 22 23  2  0  0  0  0
 22 25  1  0  0  0  0
 23 24  1  0  0  0  0
 25 26  2  0  0  0  0
 26 27  1  0  0  0  0
M  END
>  <CHROM.1>
-3.83470195,55.94148394,177.93872662,178.60657841,-166.44013480,60.22000606
-44.12626578,46.12692551,56.15862045,29.98646277,1.06850276,-0.73159698,-2.48658057

>  <Name>
ligand

>  <RI>
0

>  <Rbt.Current_Directory>
/home/itssahil/PROJECTS/Mol_Feturizer/New_Systems/rnas/2GIS

>  <Rbt.Executable>
rbdock ($Id: //depot/dev/client3/rdock/2013.1/src/exe/rbdock.cxx#4 $)

>  <Rbt.Library>
libRbt.so (2013.1, Build901 2013/11/27)

>  <Rbt.Parameter_File>
/export/apps/rDock/src/rDock_2013.1_src/data/scripts/dock_solv.prm

>  <Rbt.Receptor>
prm/pocket_docking_8.prm

>  <SCORE>
-15.1471

>  <SCORE.INTER>
-11.4316

>  <SCORE.INTER.CONST>
1

>  <SCORE.INTER.POLAR>
0

>  <SCORE.INTER.ROT>
7

>  <SCORE.INTER.SOLV>
9.04821

>  <SCORE.INTER.VDW>
-18.9038

>  <SCORE.INTER.norm>
-0.423392

>  <SCORE.INTRA>
-3.71556

>  <SCORE.INTRA.DIHEDRAL>
-4.8228

>  <SCORE.INTRA.DIHEDRAL.0>
9.40024

>  <SCORE.INTRA.POLAR>
0

>  <SCORE.INTRA.POLAR.0>
0

>  <SCORE.INTRA.REPUL>
0

>  <SCORE.INTRA.REPUL.0>
0

>  <SCORE.INTRA.SOLV>
-2.37403

>  <SCORE.INTRA.SOLV.lig_0>
-47.1049

>  <SCORE.INTRA.VDW>
-0.117139

>  <SCORE.INTRA.VDW.0>
-1.50278

>  <SCORE.INTRA.norm>
-0.137613

>  <SCORE.RESTR>
0

>  <SCORE.RESTR.CAVITY>
0

>  <SCORE.RESTR.norm>
0

>  <SCORE.SYSTEM>
0

>  <SCORE.SYSTEM.CONST>
0

>  <SCORE.SYSTEM.DIHEDRAL>
0

>  <SCORE.SYSTEM.SOLV>
0

>  <SCORE.SYSTEM.norm>
0

>  <SCORE.heavy>
27

>  <SCORE.norm>
-0.561005

>  <RMSD>
5.388

$$$$
ligand
 OpenBabel11021811433D
libRbt.so/2013.1/901 2013/11/27
 27 29  0  0  0  0  0  0  0  0999 V2000
   48.4188   58.6186   31.3947 N   0  0  0  0  0  0  0  0  0  0  0  0
   47.5973   59.6909   30.8242 C   0  0  2  0  0  0  0  0  0  0  0  0
   47.6166   60.8921   31.7527 C   0  0  0  0  0  0  0  0  0  0  0  0
   46.8665   61.8413   31.5432 O   0  0  0  0  0  0  0  0  0  0  0  0
   46.1459   59.2156   30.6137 C   0  0  0  0  0  0  0  0  0  0  0  0
   46.1197   58.1533   29.5157 C   0  0  0  0  0  0  0  0  0  0  0  0
   46.8826   56.5411   29.9664 S   0  0  2  0  0  0  0  0  0  0  0  0
   46.5824   55.4873   28.5133 C   0  0  0  0  0  0  0  0  0  0  0  0
   45.5581   56.0076   31.0708 C   0  0  0  0  0  0  0  0  0  0  0  0
   45.8993   54.7483   31.8862 C   0  0  1  0  0  0  0  0  0  0  0  0
   46.4006   53.7178   30.9841 O   0  0  0  0  0  0  0  0  0  0  0  0
   47.0828   55.1941   32.7058 C   0  0  1  0  0  0  0  0  0  0  0  0
   46.6476   55.6013   34.0033 O   0  0  0  0  0  0  0  0  0  0  0  0
   47.9539   53.9478   32.8047 C   0  0  1  0  0  0  0  0  0  0  0  0
   47.7375   53.2372   34.0183 O   0  0  0  0  0  0  0  0  0  0  0  0
   47.5840   53.0535   31.5655 C   0  0  2  0  0  0  0  0  0  0  0  0
   48.4259   60.9472   32.6789 O   0  0  0  0  0  0  0  0  0  0  0  0
   51.2981   55.6732   28.9340 N   0  0  0  0  0  0  0  0  0  0  0  0
   50.5467   56.1158   29.9482 C   0  0  0  0  0  0  0  0  0  0  0  0
   49.6541   55.3342   30.5353 N   0  0  0  0  0  0  0  0  0  0  0  0
   49.4426   54.0756   30.1164 C   0  0  0  0  0  0  0  0  0  0  0  0
   50.2051   53.5652   29.0345 C   0  0  0  0  0  0  0  0  0  0  0  0
   51.1641   54.4286   28.4471 C   0  0  0  0  0  0  0  0  0  0  0  0
   51.9431   54.0016   27.3951 N   0  0  0  0  0  0  0  0  0  0  0  0
   49.7986   52.2987   28.8162 N   0  0  0  0  0  0  0  0  0  0  0  0
   48.8550   52.0028   29.6614 C   0  0  0  0  0  0  0  0  0  0  0  0
   48.5981   53.0590   30.4905 N   0  0  0  0  0  0  0  0  0  0  0  0
  2  1  1  1  0  0  0
  2  3  1  0  0  0  0
  2  5  1  0  0  0  0
  3  4  1  0  0  0  0
  3 17  1  0  0  0  0
  5  6  1  0  0  0  0
  7  6  1  6  0  0  0
  7  8  1  0  0  0  0
  7  9  1  0  0  0  0
 10  9  1  6  0  0  0
 10 11  1  0  0  0  0
 10 12  1  0  0  0  0
 11 16  1  0  0  0  0
 12 13  1  1  0  0  0
 12 14  1  0  0  0  0
 14 15  1  1  0  0  0
 14 16  1  0  0  0  0
 16 27  1  6  0  0  0
 18 19  2  0  0  0  0
 18 23  1  0  0  0  0
 19 20  1  0  0  0  0
 20 21  2  0  0  0  0
 21 22  1  0  0  0  0
 21 27  1  0  0  0  0
 22 23  2  0  0  0  0
 22 25  1  0  0  0  0
 23 24  1  0  0  0  0
 25 26  2  0  0  0  0
 26 27  1  0  0  0  0
M  END
>  <CHROM.1>
-171.34134255,-67.63700046,69.89427112,176.08808266,-170.27131864,-50.19498149
81.57633514,48.06411217,55.92163287,30.73231069,-2.04688124,-0.76950658,3.05603483

>  <Name>
ligand

>  <RI>
0

>  <Rbt.Current_Directory>
/home/itssahil/PROJECTS/Mol_Feturizer/New_Systems/rnas/2GIS

>  <Rbt.Executable>
rbdock ($Id: //depot/dev/client3/rdock/2013.1/src/exe/rbdock.cxx#4 $)

>  <Rbt.Library>
libRbt.so (2013.1, Build901 2013/11/27)

>  <Rbt.Parameter_File>
/export/apps/rDock/src/rDock_2013.1_src/data/scripts/dock_solv.prm

>  <Rbt.Receptor>
prm/pocket_docking_3.prm

>  <SCORE>
-13.5342

>  <SCORE.INTER>
-8.99596

>  <SCORE.INTER.CONST>
1

>  <SCORE.INTER.POLAR>
0

>  <SCORE.INTER.ROT>
7

>  <SCORE.INTER.SOLV>
9.72657

>  <SCORE.INTER.VDW>
-17.5062

>  <SCORE.INTER.norm>
-0.333184

>  <SCORE.INTRA>
-4.54415

>  <SCORE.INTRA.DIHEDRAL>
-4.47316

>  <SCORE.INTRA.DIHEDRAL.0>
9.40024

>  <SCORE.INTRA.POLAR>
0

>  <SCORE.INTRA.POLAR.0>
0

>  <SCORE.INTRA.REPUL>
0

>  <SCORE.INTRA.REPUL.0>
0

>  <SCORE.INTRA.SOLV>
0.653524

>  <SCORE.INTRA.SOLV.lig_0>
-47.1049

>  <SCORE.INTRA.VDW>
-2.63433

>  <SCORE.INTRA.VDW.0>
-1.50278

>  <SCORE.INTRA.norm>
-0.168302

>  <SCORE.RESTR>
0.00592556

>  <SCORE.RESTR.CAVITY>
0.00592556

>  <SCORE.RESTR.norm>
0.000219465

>  <SCORE.SYSTEM>
0

>  <SCORE.SYSTEM.CONST>
0

>  <SCORE.SYSTEM.DIHEDRAL>
0

>  <SCORE.SYSTEM.SOLV>
0

>  <SCORE.SYSTEM.norm>
0

>  <SCORE.heavy>
27

>  <SCORE.norm>
-0.501266

>  <RMSD>
5.391

$$$$
ligand
 OpenBabel11021811433D
libRbt.so/2013.1/901 2013/11/27
 27 29  0  0  0  0  0  0  0  0999 V2000
   49.2847   53.5174   28.2260 N   0  0  0  0  0  0  0  0  0  0  0  0
   47.9289   53.2598   27.7307 C   0  0  2  0  0  0  0  0  0  0  0  0
   47.9732   52.1657   26.6790 C   0  0  0  0  0  0  0  0  0  0  0  0
   46.9842   51.9390   25.9877 O   0  0  0  0  0  0  0  0  0  0  0  0
   47.3136   54.5391   27.1292 C   0  0  0  0  0  0  0  0  0  0  0  0
   47.1974   55.6017   28.2210 C   0  0  0  0  0  0  0  0  0  0  0  0
   46.5698   57.2372   27.6593 S   0  0  2  0  0  0  0  0  0  0  0  0
   47.7324   57.7318   26.3494 C   0  0  0  0  0  0  0  0  0  0  0  0
   47.2013   58.1753   29.0665 C   0  0  0  0  0  0  0  0  0  0  0  0
   46.1000   58.7997   29.9407 C   0  0  1  0  0  0  0  0  0  0  0  0
   45.4966   57.7576   30.7635 O   0  0  0  0  0  0  0  0  0  0  0  0
   46.8827   59.6741   30.8863 C   0  0  1  0  0  0  0  0  0  0  0  0
   46.8997   61.0172   30.4021 O   0  0  0  0  0  0  0  0  0  0  0  0
   46.1058   59.5910   32.1945 C   0  0  1  0  0  0  0  0  0  0  0  0
   45.2166   60.6893   32.3608 O   0  0  0  0  0  0  0  0  0  0  0  0
   45.3099   58.2359   32.1477 C   0  0  2  0  0  0  0  0  0  0  0  0
   48.9758   51.4613   26.5587 O   0  0  0  0  0  0  0  0  0  0  0  0
   49.3774   56.4231   34.9317 N   0  0  0  0  0  0  0  0  0  0  0  0
   49.3047   57.5630   34.2358 C   0  0  0  0  0  0  0  0  0  0  0  0
   48.2007   57.9061   33.5910 N   0  0  0  0  0  0  0  0  0  0  0  0
   47.1193   57.1093   33.5816 C   0  0  0  0  0  0  0  0  0  0  0  0
   47.1528   55.8829   34.2937 C   0  0  0  0  0  0  0  0  0  0  0  0
   48.3475   55.5628   34.9869 C   0  0  0  0  0  0  0  0  0  0  0  0
   48.4525   54.3910   35.7022 N   0  0  0  0  0  0  0  0  0  0  0  0
   45.9584   55.2826   34.1202 N   0  0  0  0  0  0  0  0  0  0  0  0
   45.2121   56.0308   33.3616 C   0  0  0  0  0  0  0  0  0  0  0  0
   45.8746   57.1721   33.0042 N   0  0  0  0  0  0  0  0  0  0  0  0
  2  1  1  6  0  0  0
  2  3  1  0  0  0  0
  2  5  1  0  0  0  0
  3  4  1  0  0  0  0
  3 17  1  0  0  0  0
  5  6  1  0  0  0  0
  7  6  1  1  0  0  0
  7  8  1  0  0  0  0
  7  9  1  0  0  0  0
 10  9  1  6  0  0  0
 10 11  1  0  0  0  0
 10 12  1  0  0  0  0
 11 16  1  0  0  0  0
 12 13  1  6  0  0  0
 12 14  1  0  0  0  0
 14 15  1  6  0  0  0
 14 16  1  0  0  0  0
 16 27  1  1  0  0  0
 18 19  2  0  0  0  0
 18 23  1  0  0  0  0
 19 20  1  0  0  0  0
 20 21  2  0  0  0  0
 21 22  1  0  0  0  0
 21 27  1  0  0  0  0
 22 23  2  0  0  0  0
 22 25  1  0  0  0  0
 23 24  1  0  0  0  0
 25 26  2  0  0  0  0
 26 27  1  0  0  0  0
M  END
>  <CHROM.1>
-168.70743313,-62.33616564,176.61073297,-57.02936514,-115.33180496,76.07868111
97.73453016,47.15124422,56.51711343,30.63198243,-1.24135345,-1.24739143,1.32846263

>  <Name>
ligand

>  <RI>
0

>  <Rbt.Current_Directory>
/home/itssahil/PROJECTS/Mol_Feturizer/New_Systems/rnas/2GIS

>  <Rbt.Executable>
rbdock ($Id: //depot/dev/client3/rdock/2013.1/src/exe/rbdock.cxx#4 $)

>  <Rbt.Library>
libRbt.so (2013.1, Build901 2013/11/27)

>  <Rbt.Parameter_File>
/export/apps/rDock/src/rDock_2013.1_src/data/scripts/dock_solv.prm

>  <Rbt.Receptor>
prm/pocket_docking_4.prm

>  <SCORE>
-12.9093

>  <SCORE.INTER>
-10.7299

>  <SCORE.INTER.CONST>
1

>  <SCORE.INTER.POLAR>
0

>  <SCORE.INTER.ROT>
7

>  <SCORE.INTER.SOLV>
12.5953

>  <SCORE.INTER.VDW>
-19.6184

>  <SCORE.INTER.norm>
-0.397403

>  <SCORE.INTRA>
-2.1867

>  <SCORE.INTRA.DIHEDRAL>
-0.947321

>  <SCORE.INTRA.DIHEDRAL.0>
9.40024

>  <SCORE.INTRA.POLAR>
0

>  <SCORE.INTRA.POLAR.0>
0

>  <SCORE.INTRA.REPUL>
0

>  <SCORE.INTRA.REPUL.0>
0

>  <SCORE.INTRA.SOLV>
-2.45225

>  <SCORE.INTRA.SOLV.lig_0>
-47.1049

>  <SCORE.INTRA.VDW>
-0.486917

>  <SCORE.INTRA.VDW.0>
-1.50278

>  <SCORE.INTRA.norm>
-0.0809889

>  <SCORE.RESTR>
0.00726904

>  <SCORE.RESTR.CAVITY>
0.00726904

>  <SCORE.RESTR.norm>
0.000269224

>  <SCORE.SYSTEM>
0

>  <SCORE.SYSTEM.CONST>
0

>  <SCORE.SYSTEM.DIHEDRAL>
0

>  <SCORE.SYSTEM.SOLV>
0

>  <SCORE.SYSTEM.norm>
0

>  <SCORE.heavy>
27

>  <SCORE.norm>
-0.478123

>  <RMSD>
5.393

$$$$
ligand
 OpenBabel11021811433D
libRbt.so/2013.1/901 2013/11/27
 27 29  0  0  0  0  0  0  0  0999 V2000
   47.0300   58.3433   28.9050 N   0  0  0  0  0  0  0  0  0  0  0  0
   46.7766   57.1902   29.7746 C   0  0  2  0  0  0  0  0  0  0  0  0
   45.4053   56.6156   29.4670 C   0  0  0  0  0  0  0  0  0  0  0  0
   44.5794   57.2912   28.8597 O   0  0  0  0  0  0  0  0  0  0  0  0
   46.8521   57.5975   31.2596 C   0  0  0  0  0  0  0  0  0  0  0  0
   48.2735   58.0554   31.5831 C   0  0  0  0  0  0  0  0  0  0  0  0
   48.5947   58.4207   33.3573 S   0  0  2  0  0  0  0  0  0  0  0  0
   50.0681   59.4886   33.3300 C   0  0  0  0  0  0  0  0  0  0  0  0
   49.3260   56.8178   33.7507 C   0  0  0  0  0  0  0  0  0  0  0  0
   48.3081   55.7760   34.2463 C   0  0  1  0  0  0  0  0  0  0  0  0
   47.4322   55.4026   33.1417 O   0  0  0  0  0  0  0  0  0  0  0  0
   49.1716   54.5708   34.5170 C   0  0  1  0  0  0  0  0  0  0  0  0
   49.5099   54.5190   35.9032 O   0  0  0  0  0  0  0  0  0  0  0  0
   48.2849   53.3897   34.1423 C   0  0  1  0  0  0  0  0  0  0  0  0
   47.6333   52.8275   35.2754 O   0  0  0  0  0  0  0  0  0  0  0  0
   47.2309   53.9403   33.1137 C   0  0  2  0  0  0  0  0  0  0  0  0
   45.0945   55.4978   29.8792 O   0  0  0  0  0  0  0  0  0  0  0  0
   50.6960   53.1580   29.2455 N   0  0  0  0  0  0  0  0  0  0  0  0
   50.9415   53.5728   30.4932 C   0  0  0  0  0  0  0  0  0  0  0  0
   49.9658   53.7093   31.3773 N   0  0  0  0  0  0  0  0  0  0  0  0
   48.6856   53.4685   31.0496 C   0  0  0  0  0  0  0  0  0  0  0  0
   48.3732   53.0399   29.7340 C   0  0  0  0  0  0  0  0  0  0  0  0
   49.4498   52.8875   28.8240 C   0  0  0  0  0  0  0  0  0  0  0  0
   49.2235   52.4721   27.5310 N   0  0  0  0  0  0  0  0  0  0  0  0
   47.0368   52.8752   29.6697 N   0  0  0  0  0  0  0  0  0  0  0  0
   46.5151   53.1739   30.8233 C   0  0  0  0  0  0  0  0  0  0  0  0
   47.4854   53.5413   31.7136 N   0  0  0  0  0  0  0  0  0  0  0  0
  2  1  1  6  0  0  0
  2  3  1  0  0  0  0
  2  5  1  0  0  0  0
  3  4  1  0  0  0  0
  3 17  1  0  0  0  0
  5  6  1  0  0  0  0
  7  6  1  6  0  0  0
  7  8  1  0  0  0  0
  7  9  1  0  0  0  0
 10  9  1  6  0  0  0
 10 11  1  0  0  0  0
 10 12  1  0  0  0  0
 11 16  1  0  0  0  0
 12 13  1  1  0  0  0
 12 14  1  0  0  0  0
 14 15  1  1  0  0  0
 14 16  1  0  0  0  0
 16 27  1  6  0  0  0
 18 19  2  0  0  0  0
 18 23  1  0  0  0  0
 19 20  1  0  0  0  0
 20 21  2  0  0  0  0
 21 22  1  0  0  0  0
 21 27  1  0  0  0  0
 22 23  2  0  0  0  0
 22 25  1  0  0  0  0
 23 24  1  0  0  0  0
 25 26  2  0  0  0  0
 26 27  1  0  0  0  0
M  END
>  <CHROM.1>
-18.06464501,-63.96287082,-174.11168330,-159.53618998,-91.16634074,68.79042127
73.01736720,48.06692303,55.30532562,31.65897731,2.00353252,1.11215214,-2.43520644

>  <Name>
ligand

>  <RI>
0

>  <Rbt.Current_Directory>
/home/itssahil/PROJECTS/Mol_Feturizer/New_Systems/rnas/2GIS

>  <Rbt.Executable>
rbdock ($Id: //depot/dev/client3/rdock/2013.1/src/exe/rbdock.cxx#4 $)

>  <Rbt.Library>
libRbt.so (2013.1, Build901 2013/11/27)

>  <Rbt.Parameter_File>
/export/apps/rDock/src/rDock_2013.1_src/data/scripts/dock_solv.prm

>  <Rbt.Receptor>
prm/pocket_docking_8.prm

>  <SCORE>
-18.4745

>  <SCORE.INTER>
-13.3417

>  <SCORE.INTER.CONST>
1

>  <SCORE.INTER.POLAR>
0

>  <SCORE.INTER.ROT>
7

>  <SCORE.INTER.SOLV>
10.02

>  <SCORE.INTER.VDW>
-20.5012

>  <SCORE.INTER.norm>
-0.494138

>  <SCORE.INTRA>
-5.13275

>  <SCORE.INTRA.DIHEDRAL>
-2.26085

>  <SCORE.INTRA.DIHEDRAL.0>
9.40024

>  <SCORE.INTRA.POLAR>
0

>  <SCORE.INTRA.POLAR.0>
0

>  <SCORE.INTRA.REPUL>
0

>  <SCORE.INTRA.REPUL.0>
0

>  <SCORE.INTRA.SOLV>
-2.18192

>  <SCORE.INTRA.SOLV.lig_0>
-47.1049

>  <SCORE.INTRA.VDW>
-2.91136

>  <SCORE.INTRA.VDW.0>
-1.50278

>  <SCORE.INTRA.norm>
-0.190102

>  <SCORE.RESTR>
0

>  <SCORE.RESTR.CAVITY>
0

>  <SCORE.RESTR.norm>
0

>  <SCORE.SYSTEM>
0

>  <SCORE.SYSTEM.CONST>
0

>  <SCORE.SYSTEM.DIHEDRAL>
0

>  <SCORE.SYSTEM.SOLV>
0

>  <SCORE.SYSTEM.norm>
0

>  <SCORE.heavy>
27

>  <SCORE.norm>
-0.68424

>  <RMSD>
5.395

$$$$
ligand
 OpenBabel11021811433D
libRbt.so/2013.1/901 2013/11/27
 27 29  0  0  0  0  0  0  0  0999 V2000
   50.6943   54.3762   26.4924 N   0  0  0  0  0  0  0  0  0  0  0  0
   51.0023   54.9244   27.8170 C   0  0  2  0  0  0  0  0  0  0  0  0
   51.5320   53.8184   28.7122 C   0  0  0  0  0  0  0  0  0  0  0  0
   50.7491   53.0813   29.3049 O   0  0  0  0  0  0  0  0  0  0  0  0
   49.7482   55.5567   28.4529 C   0  0  0  0  0  0  0  0  0  0  0  0
   49.2762   56.7204   27.5823 C   0  0  0  0  0  0  0  0  0  0  0  0
   47.5369   57.2515   27.8597 S   0  0  2  0  0  0  0  0  0  0  0  0
   47.2654   58.5481   26.6118 C   0  0  0  0  0  0  0  0  0  0  0  0
   47.8740   58.2411   29.3313 C   0  0  0  0  0  0  0  0  0  0  0  0
   46.6142   58.8476   29.9735 C   0  0  1  0  0  0  0  0  0  0  0  0
   45.8503   57.7861   30.6189 O   0  0  0  0  0  0  0  0  0  0  0  0
   47.1816   59.6877   31.0886 C   0  0  1  0  0  0  0  0  0  0  0  0
   47.3015   61.0444   30.6601 O   0  0  0  0  0  0  0  0  0  0  0  0
   46.1471   59.5716   32.2013 C   0  0  1  0  0  0  0  0  0  0  0  0
   45.2440   60.6711   32.2107 O   0  0  0  0  0  0  0  0  0  0  0  0
   45.3773   58.2244   31.9470 C   0  0  2  0  0  0  0  0  0  0  0  0
   52.7431   53.6966   28.8971 O   0  0  0  0  0  0  0  0  0  0  0  0
   49.0089   56.0122   35.0292 N   0  0  0  0  0  0  0  0  0  0  0  0
   49.1259   57.1232   34.2936 C   0  0  0  0  0  0  0  0  0  0  0  0
   48.1144   57.5805   33.5724 N   0  0  0  0  0  0  0  0  0  0  0  0
   46.9397   56.9310   33.5234 C   0  0  0  0  0  0  0  0  0  0  0  0
   46.7715   55.7400   34.2755 C   0  0  0  0  0  0  0  0  0  0  0  0
   47.8731   55.2957   35.0497 C   0  0  0  0  0  0  0  0  0  0  0  0
   47.7827   54.1497   35.8075 N   0  0  0  0  0  0  0  0  0  0  0  0
   45.5200   55.2932   34.0495 N   0  0  0  0  0  0  0  0  0  0  0  0
   44.9222   56.1010   33.2234 C   0  0  0  0  0  0  0  0  0  0  0  0
   45.7482   57.1315   32.8701 N   0  0  0  0  0  0  0  0  0  0  0  0
  2  1  1  6  0  0  0
  2  3  1  0  0  0  0
  2  5  1  0  0  0  0
  3  4  1  0  0  0  0
  3 17  1  0  0  0  0
  5  6  1  0  0  0  0
  7  6  1  6  0  0  0
  7  8  1  0  0  0  0
  7  9  1  0  0  0  0
 10  9  1  1  0  0  0
 10 11  1  0  0  0  0
 10 12  1  0  0  0  0
 11 16  1  0  0  0  0
 12 13  1  6  0  0  0
 12 14  1  0  0  0  0
 14 15  1  6  0  0  0
 14 16  1  0  0  0  0
 16 27  1  1  0  0  0
 18 19  2  0  0  0  0
 18 23  1  0  0  0  0
 19 20  1  0  0  0  0
 20 21  2  0  0  0  0
 21 22  1  0  0  0  0
 21 27  1  0  0  0  0
 22 23  2  0  0  0  0
 22 25  1  0  0  0  0
 23 24  1  0  0  0  0
 25 26  2  0  0  0  0
 26 27  1  0  0  0  0
M  END
>  <CHROM.1>
-83.75051657,-62.21695956,161.36629344,-176.25746125,-176.91372134,71.95874372
85.71576406,47.92625293,56.84139809,30.92394522,-0.60478658,-0.85223552,1.98547897

>  <Name>
ligand

>  <RI>
0

>  <Rbt.Current_Directory>
/home/itssahil/PROJECTS/Mol_Feturizer/New_Systems/rnas/2GIS

>  <Rbt.Executable>
rbdock ($Id: //depot/dev/client3/rdock/2013.1/src/exe/rbdock.cxx#4 $)

>  <Rbt.Library>
libRbt.so (2013.1, Build901 2013/11/27)

>  <Rbt.Parameter_File>
/export/apps/rDock/src/rDock_2013.1_src/data/scripts/dock_solv.prm

>  <Rbt.Receptor>
prm/pocket_docking_7.prm

>  <SCORE>
-16.3469

>  <SCORE.INTER>
-12.5149

>  <SCORE.INTER.CONST>
1

>  <SCORE.INTER.POLAR>
0

>  <SCORE.INTER.ROT>
7

>  <SCORE.INTER.SOLV>
12.5795

>  <SCORE.INTER.VDW>
-20.8031

>  <SCORE.INTER.norm>
-0.463514

>  <SCORE.INTRA>
-3.84916

>  <SCORE.INTRA.DIHEDRAL>
-3.63805

>  <SCORE.INTRA.DIHEDRAL.0>
9.40024

>  <SCORE.INTRA.POLAR>
0

>  <SCORE.INTRA.POLAR.0>
0

>  <SCORE.INTRA.REPUL>
0

>  <SCORE.INTRA.REPUL.0>
0

>  <SCORE.INTRA.SOLV>
-2.4049

>  <SCORE.INTRA.SOLV.lig_0>
-47.1049

>  <SCORE.INTRA.VDW>
-0.82769

>  <SCORE.INTRA.VDW.0>
-1.50278

>  <SCORE.INTRA.norm>
-0.142562

>  <SCORE.RESTR>
0.017154

>  <SCORE.RESTR.CAVITY>
0.017154

>  <SCORE.RESTR.norm>
0.000635334

>  <SCORE.SYSTEM>
0

>  <SCORE.SYSTEM.CONST>
0

>  <SCORE.SYSTEM.DIHEDRAL>
0

>  <SCORE.SYSTEM.SOLV>
0

>  <SCORE.SYSTEM.norm>
0

>  <SCORE.heavy>
27

>  <SCORE.norm>
-0.605441

>  <RMSD>
5.405

$$$$
ligand
 OpenBabel11021811433D
libRbt.so/2013.1/901 2013/11/27
 27 29  0  0  0  0  0  0  0  0999 V2000
   46.3751   52.8484   25.4034 N   0  0  0  0  0  0  0  0  0  0  0  0
   47.3728   53.7890   25.9229 C   0  0  2  0  0  0  0  0  0  0  0  0
   48.2278   53.0944   26.9678 C   0  0  0  0  0  0  0  0  0  0  0  0
   47.7065   52.3395   27.7838 O   0  0  0  0  0  0  0  0  0  0  0  0
   46.6899   55.0244   26.5428 C   0  0  0  0  0  0  0  0  0  0  0  0
   47.7499   56.0786   26.8584 C   0  0  0  0  0  0  0  0  0  0  0  0
   47.1163   57.6161   27.6452 S   0  0  2  0  0  0  0  0  0  0  0  0
   48.6183   58.4805   28.2013 C   0  0  0  0  0  0  0  0  0  0  0  0
   46.5703   56.8331   29.1774 C   0  0  0  0  0  0  0  0  0  0  0  0
   45.6783   57.7326   30.0505 C   0  0  1  0  0  0  0  0  0  0  0  0
   45.0388   56.9173   31.0768 O   0  0  0  0  0  0  0  0  0  0  0  0
   46.6817   58.5956   30.7714 C   0  0  1  0  0  0  0  0  0  0  0  0
   46.8268   59.8419   30.0899 O   0  0  0  0  0  0  0  0  0  0  0  0
   46.0625   58.8114   32.1468 C   0  0  1  0  0  0  0  0  0  0  0  0
   45.3603   60.0460   32.2311 O   0  0  0  0  0  0  0  0  0  0  0  0
   45.0866   57.6016   32.3841 C   0  0  2  0  0  0  0  0  0  0  0  0
   49.4334   53.3334   27.0415 O   0  0  0  0  0  0  0  0  0  0  0  0
   49.1000   55.7526   35.2223 N   0  0  0  0  0  0  0  0  0  0  0  0
   49.0925   56.8155   34.4104 C   0  0  0  0  0  0  0  0  0  0  0  0
   47.9955   57.1814   33.7663 N   0  0  0  0  0  0  0  0  0  0  0  0
   46.8537   56.4823   33.8753 C   0  0  0  0  0  0  0  0  0  0  0  0
   46.8158   55.3386   34.7137 C   0  0  0  0  0  0  0  0  0  0  0  0
   48.0068   54.9930   35.4008 C   0  0  0  0  0  0  0  0  0  0  0  0
   48.0446   53.8977   36.2343 N   0  0  0  0  0  0  0  0  0  0  0  0
   45.5708   54.8266   34.6419 N   0  0  0  0  0  0  0  0  0  0  0  0
   44.8584   55.5518   33.8303 C   0  0  0  0  0  0  0  0  0  0  0  0
   45.5965   56.5893   33.3325 N   0  0  0  0  0  0  0  0  0  0  0  0
  2  1  1  1  0  0  0
  2  3  1  0  0  0  0
  2  5  1  0  0  0  0
  3  4  1  0  0  0  0
  3 17  1  0  0  0  0
  5  6  1  0  0  0  0
  7  6  1  6  0  0  0
  7  8  1  0  0  0  0
  7  9  1  0  0  0  0
 10  9  1  6  0  0  0
 10 11  1  0  0  0  0
 10 12  1  0  0  0  0
 11 16  1  0  0  0  0
 12 13  1  6  0  0  0
 12 14  1  0  0  0  0
 14 15  1  6  0  0  0
 14 16  1  0  0  0  0
 16 27  1  1  0  0  0
 18 19  2  0  0  0  0
 18 23  1  0  0  0  0
 19 20  1  0  0  0  0
 20 21  2  0  0  0  0
 21 22  1  0  0  0  0
 21 27  1  0  0  0  0
 22 23  2  0  0  0  0
 22 25  1  0  0  0  0
 23 24  1  0  0  0  0
 25 26  2  0  0  0  0
 26 27  1  0  0  0  0
M  END
>  <CHROM.1>
-41.20837832,-170.62976390,-178.63308303,168.42268828,-167.60787370,166.41033983
103.81841663,46.99047487,56.25476373,30.69847589,-1.29924764,-1.28762617
1.62245408

>  <Name>
ligand

>  <RI>
0

>  <Rbt.Current_Directory>
/home/itssahil/PROJECTS/Mol_Feturizer/New_Systems/rnas/2GIS

>  <Rbt.Executable>
rbdock ($Id: //depot/dev/client3/rdock/2013.1/src/exe/rbdock.cxx#4 $)

>  <Rbt.Library>
libRbt.so (2013.1, Build901 2013/11/27)

>  <Rbt.Parameter_File>
/export/apps/rDock/src/rDock_2013.1_src/data/scripts/dock_solv.prm

>  <Rbt.Receptor>
prm/pocket_docking_6.prm

>  <SCORE>
-14.1819

>  <SCORE.INTER>
-10.2535

>  <SCORE.INTER.CONST>
1

>  <SCORE.INTER.POLAR>
0

>  <SCORE.INTER.ROT>
7

>  <SCORE.INTER.SOLV>
13.1397

>  <SCORE.INTER.VDW>
-19.4822

>  <SCORE.INTER.norm>
-0.37976

>  <SCORE.INTRA>
-3.92837

>  <SCORE.INTRA.DIHEDRAL>
-4.31364

>  <SCORE.INTRA.DIHEDRAL.0>
9.40024

>  <SCORE.INTRA.POLAR>
0

>  <SCORE.INTRA.POLAR.0>
0

>  <SCORE.INTRA.REPUL>
0

>  <SCORE.INTRA.REPUL.0>
0

>  <SCORE.INTRA.SOLV>
-2.79845

>  <SCORE.INTRA.SOLV.lig_0>
-47.1049

>  <SCORE.INTRA.VDW>
-0.372331

>  <SCORE.INTRA.VDW.0>
-1.50278

>  <SCORE.INTRA.norm>
-0.145495

>  <SCORE.RESTR>
0

>  <SCORE.RESTR.CAVITY>
0

>  <SCORE.RESTR.norm>
0

>  <SCORE.SYSTEM>
0

>  <SCORE.SYSTEM.CONST>
0

>  <SCORE.SYSTEM.DIHEDRAL>
0

>  <SCORE.SYSTEM.SOLV>
0

>  <SCORE.SYSTEM.norm>
0

>  <SCORE.heavy>
27

>  <SCORE.norm>
-0.525255

>  <RMSD>
5.407

$$$$
ligand
 OpenBabel11021811433D
libRbt.so/2013.1/901 2013/11/27
 27 29  0  0  0  0  0  0  0  0999 V2000
   46.0093   59.3295   30.6933 N   0  0  0  0  0  0  0  0  0  0  0  0
   46.5815   57.9801   30.7371 C   0  0  2  0  0  0  0  0  0  0  0  0
   45.6167   57.0437   31.4426 C   0  0  0  0  0  0  0  0  0  0  0  0
   44.7953   57.4936   32.2365 O   0  0  0  0  0  0  0  0  0  0  0  0
   47.9375   57.9840   31.4707 C   0  0  0  0  0  0  0  0  0  0  0  0
   47.7279   58.4488   32.9110 C   0  0  0  0  0  0  0  0  0  0  0  0
   49.2555   58.5551   33.9305 S   0  0  2  0  0  0  0  0  0  0  0  0
   50.4531   59.3950   32.8477 C   0  0  0  0  0  0  0  0  0  0  0  0
   49.7410   56.8287   33.7239 C   0  0  0  0  0  0  0  0  0  0  0  0
   48.6565   55.8238   34.1498 C   0  0  1  0  0  0  0  0  0  0  0  0
   47.8602   55.4594   32.9836 O   0  0  0  0  0  0  0  0  0  0  0  0
   49.4597   54.5986   34.5034 C   0  0  1  0  0  0  0  0  0  0  0  0
   49.6854   54.5575   35.9126 O   0  0  0  0  0  0  0  0  0  0  0  0
   48.5708   53.4379   34.0739 C   0  0  1  0  0  0  0  0  0  0  0  0
   47.8151   52.9113   35.1583 O   0  0  0  0  0  0  0  0  0  0  0  0
   47.6185   54.0032   32.9578 C   0  0  2  0  0  0  0  0  0  0  0  0
   45.6956   55.8271   31.2705 O   0  0  0  0  0  0  0  0  0  0  0  0
   50.6385   54.6502   28.7101 N   0  0  0  0  0  0  0  0  0  0  0  0
   50.6713   55.3463   29.8518 C   0  0  0  0  0  0  0  0  0  0  0  0
   49.8573   55.0601   30.8557 N   0  0  0  0  0  0  0  0  0  0  0  0
   48.9431   54.0808   30.7581 C   0  0  0  0  0  0  0  0  0  0  0  0
   48.8600   53.3235   29.5615 C   0  0  0  0  0  0  0  0  0  0  0  0
   49.7633   53.6496   28.5185 C   0  0  0  0  0  0  0  0  0  0  0  0
   49.7436   52.9558   27.3293 N   0  0  0  0  0  0  0  0  0  0  0  0
   47.8722   52.4206   29.7230 N   0  0  0  0  0  0  0  0  0  0  0  0
   47.3469   52.5708   30.9035 C   0  0  0  0  0  0  0  0  0  0  0  0
   47.9712   53.5765   31.5875 N   0  0  0  0  0  0  0  0  0  0  0  0
  2  1  1  1  0  0  0
  2  3  1  0  0  0  0
  2  5  1  0  0  0  0
  3  4  1  0  0  0  0
  3 17  1  0  0  0  0
  5  6  1  0  0  0  0
  7  6  1  6  0  0  0
  7  8  1  0  0  0  0
  7  9  1  0  0  0  0
 10  9  1  6  0  0  0
 10 11  1  0  0  0  0
 10 12  1  0  0  0  0
 11 16  1  0  0  0  0
 12 13  1  1  0  0  0
 12 14  1  0  0  0  0
 14 15  1  1  0  0  0
 14 16  1  0  0  0  0
 16 27  1  6  0  0  0
 18 19  2  0  0  0  0
 18 23  1  0  0  0  0
 19 20  1  0  0  0  0
 20 21  2  0  0  0  0
 21 22  1  0  0  0  0
 21 27  1  0  0  0  0
 22 23  2  0  0  0  0
 22 25  1  0  0  0  0
 23 24  1  0  0  0  0
 25 26  2  0  0  0  0
 26 27  1  0  0  0  0
M  END
>  <CHROM.1>
-24.09539949,61.45033092,-178.56362780,45.55236691,-55.77162811,93.43560617
33.38427706,48.35299788,55.64276351,31.98353556,2.10099892,-1.25776993,1.18949119

>  <Name>
ligand

>  <RI>
0

>  <Rbt.Current_Directory>
/home/itssahil/PROJECTS/Mol_Feturizer/New_Systems/rnas/2GIS

>  <Rbt.Executable>
rbdock ($Id: //depot/dev/client3/rdock/2013.1/src/exe/rbdock.cxx#4 $)

>  <Rbt.Library>
libRbt.so (2013.1, Build901 2013/11/27)

>  <Rbt.Parameter_File>
/export/apps/rDock/src/rDock_2013.1_src/data/scripts/dock_solv.prm

>  <Rbt.Receptor>
prm/pocket_docking_3.prm

>  <SCORE>
-17.1813

>  <SCORE.INTER>
-13.3749

>  <SCORE.INTER.CONST>
1

>  <SCORE.INTER.POLAR>
0

>  <SCORE.INTER.ROT>
7

>  <SCORE.INTER.SOLV>
9.46443

>  <SCORE.INTER.VDW>
-20.3381

>  <SCORE.INTER.norm>
-0.495367

>  <SCORE.INTRA>
-3.80637

>  <SCORE.INTRA.DIHEDRAL>
-2.83042

>  <SCORE.INTRA.DIHEDRAL.0>
9.40024

>  <SCORE.INTRA.POLAR>
0

>  <SCORE.INTRA.POLAR.0>
0

>  <SCORE.INTRA.REPUL>
0

>  <SCORE.INTRA.REPUL.0>
0

>  <SCORE.INTRA.SOLV>
-2.02178

>  <SCORE.INTRA.SOLV.lig_0>
-47.1049

>  <SCORE.INTRA.VDW>
-1.38027

>  <SCORE.INTRA.VDW.0>
-1.50278

>  <SCORE.INTRA.norm>
-0.140977

>  <SCORE.RESTR>
0

>  <SCORE.RESTR.CAVITY>
0

>  <SCORE.RESTR.norm>
0

>  <SCORE.SYSTEM>
0

>  <SCORE.SYSTEM.CONST>
0

>  <SCORE.SYSTEM.DIHEDRAL>
0

>  <SCORE.SYSTEM.SOLV>
0

>  <SCORE.SYSTEM.norm>
0

>  <SCORE.heavy>
27

>  <SCORE.norm>
-0.636344

>  <RMSD>
5.415

$$$$
ligand
 OpenBabel11021811433D
libRbt.so/2013.1/901 2013/11/27
 27 29  0  0  0  0  0  0  0  0999 V2000
   49.5179   51.6644   28.9598 N   0  0  0  0  0  0  0  0  0  0  0  0
   49.6002   52.6216   27.8522 C   0  0  2  0  0  0  0  0  0  0  0  0
   49.5681   51.8724   26.5320 C   0  0  0  0  0  0  0  0  0  0  0  0
   48.5194   51.7904   25.8987 O   0  0  0  0  0  0  0  0  0  0  0  0
   50.8910   53.4592   27.9472 C   0  0  0  0  0  0  0  0  0  0  0  0
   50.8483   54.3051   29.2189 C   0  0  0  0  0  0  0  0  0  0  0  0
   49.4305   55.4712   29.3375 S   0  0  2  0  0  0  0  0  0  0  0  0
   49.7239   56.6633   27.9939 C   0  0  0  0  0  0  0  0  0  0  0  0
   50.0555   56.3841   30.7639 C   0  0  0  0  0  0  0  0  0  0  0  0
   49.1295   57.5221   31.2269 C   0  0  1  0  0  0  0  0  0  0  0  0
   47.8775   56.9511   31.7099 O   0  0  0  0  0  0  0  0  0  0  0  0
   49.8403   58.0540   32.4447 C   0  0  1  0  0  0  0  0  0  0  0  0
   50.6290   59.1895   32.0879 O   0  0  0  0  0  0  0  0  0  0  0  0
   48.7109   58.4650   33.3813 C   0  0  1  0  0  0  0  0  0  0  0  0
   48.4185   59.8546   33.2914 O   0  0  0  0  0  0  0  0  0  0  0  0
   47.4604   57.6077   32.9647 C   0  0  2  0  0  0  0  0  0  0  0  0
   50.5741   51.2919   26.1236 O   0  0  0  0  0  0  0  0  0  0  0  0
   49.1636   54.1231   36.5058 N   0  0  0  0  0  0  0  0  0  0  0  0
   49.8838   55.0326   35.8399 C   0  0  0  0  0  0  0  0  0  0  0  0
   49.3160   55.8668   34.9833 N   0  0  0  0  0  0  0  0  0  0  0  0
   47.9994   55.8136   34.7226 C   0  0  0  0  0  0  0  0  0  0  0  0
   47.1956   54.8564   35.3934 C   0  0  0  0  0  0  0  0  0  0  0  0
   47.8399   53.9954   36.3174 C   0  0  0  0  0  0  0  0  0  0  0  0
   47.1238   53.0437   37.0081 N   0  0  0  0  0  0  0  0  0  0  0  0
   45.9310   55.0117   34.9533 N   0  0  0  0  0  0  0  0  0  0  0  0
   45.9012   55.9684   34.0724 C   0  0  0  0  0  0  0  0  0  0  0  0
   47.1471   56.5024   33.8944 N   0  0  0  0  0  0  0  0  0  0  0  0
  2  1  1  1  0  0  0
  2  3  1  0  0  0  0
  2  5  1  0  0  0  0
  3  4  1  0  0  0  0
  3 17  1  0  0  0  0
  5  6  1  0  0  0  0
  7  6  1  6  0  0  0
  7  8  1  0  0  0  0
  7  9  1  0  0  0  0
 10  9  1  1  0  0  0
 10 11  1  0  0  0  0
 10 12  1  0  0  0  0
 11 16  1  0  0  0  0
 12 13  1  6  0  0  0
 12 14  1  0  0  0  0
 14 15  1  6  0  0  0
 14 16  1  0  0  0  0
 16 27  1  1  0  0  0
 18 19  2  0  0  0  0
 18 23  1  0  0  0  0
 19 20  1  0  0  0  0
 20 21  2  0  0  0  0
 21 22  1  0  0  0  0
 21 27  1  0  0  0  0
 22 23  2  0  0  0  0
 22 25  1  0  0  0  0
 23 24  1  0  0  0  0
 25 26  2  0  0  0  0
 26 27  1  0  0  0  0
M  END
>  <CHROM.1>
99.26961586,-64.09983177,-59.24210171,-65.77141539,179.88929684,65.00819055
86.28440596,48.88784032,55.33680388,31.66770494,0.76551108,-1.26263338,-2.74533193

>  <Name>
ligand

>  <RI>
0

>  <Rbt.Current_Directory>
/home/itssahil/PROJECTS/Mol_Feturizer/New_Systems/rnas/2GIS

>  <Rbt.Executable>
rbdock ($Id: //depot/dev/client3/rdock/2013.1/src/exe/rbdock.cxx#4 $)

>  <Rbt.Library>
libRbt.so (2013.1, Build901 2013/11/27)

>  <Rbt.Parameter_File>
/export/apps/rDock/src/rDock_2013.1_src/data/scripts/dock_solv.prm

>  <Rbt.Receptor>
prm/pocket_docking_5.prm

>  <SCORE>
-16.8522

>  <SCORE.INTER>
-11.9212

>  <SCORE.INTER.CONST>
1

>  <SCORE.INTER.POLAR>
0

>  <SCORE.INTER.ROT>
7

>  <SCORE.INTER.SOLV>
18.138

>  <SCORE.INTER.VDW>
-22.2602

>  <SCORE.INTER.norm>
-0.441527

>  <SCORE.INTRA>
-4.931

>  <SCORE.INTRA.DIHEDRAL>
-5.9974

>  <SCORE.INTRA.DIHEDRAL.0>
9.40024

>  <SCORE.INTRA.POLAR>
0

>  <SCORE.INTRA.POLAR.0>
0

>  <SCORE.INTRA.REPUL>
0

>  <SCORE.INTRA.REPUL.0>
0

>  <SCORE.INTRA.SOLV>
-1.80905

>  <SCORE.INTRA.SOLV.lig_0>
-47.1049

>  <SCORE.INTRA.VDW>
-1.02778

>  <SCORE.INTRA.VDW.0>
-1.50278

>  <SCORE.INTRA.norm>
-0.18263

>  <SCORE.RESTR>
0

>  <SCORE.RESTR.CAVITY>
0

>  <SCORE.RESTR.norm>
0

>  <SCORE.SYSTEM>
0

>  <SCORE.SYSTEM.CONST>
0

>  <SCORE.SYSTEM.DIHEDRAL>
0

>  <SCORE.SYSTEM.SOLV>
0

>  <SCORE.SYSTEM.norm>
0

>  <SCORE.heavy>
27

>  <SCORE.norm>
-0.624156

>  <RMSD>
5.424

$$$$
ligand
 OpenBabel11021811433D
libRbt.so/2013.1/901 2013/11/27
 27 29  0  0  0  0  0  0  0  0999 V2000
   48.0622   56.3976   29.3956 N   0  0  0  0  0  0  0  0  0  0  0  0
   47.4369   57.6828   29.7227 C   0  0  2  0  0  0  0  0  0  0  0  0
   46.3888   58.0170   28.6762 C   0  0  0  0  0  0  0  0  0  0  0  0
   45.5558   58.8909   28.8997 O   0  0  0  0  0  0  0  0  0  0  0  0
   48.4920   58.8052   29.7836 C   0  0  0  0  0  0  0  0  0  0  0  0
   49.4553   58.5269   30.9365 C   0  0  0  0  0  0  0  0  0  0  0  0
   48.6904   58.5064   32.6094 S   0  0  2  0  0  0  0  0  0  0  0  0
   49.9578   59.2471   33.6851 C   0  0  0  0  0  0  0  0  0  0  0  0
   48.9511   56.7464   32.9147 C   0  0  0  0  0  0  0  0  0  0  0  0
   48.4531   56.2749   34.2919 C   0  0  1  0  0  0  0  0  0  0  0  0
   46.9990   56.1672   34.2616 O   0  0  0  0  0  0  0  0  0  0  0  0
   48.9725   54.8621   34.3670 C   0  0  1  0  0  0  0  0  0  0  0  0
   50.2028   54.8362   35.0910 O   0  0  0  0  0  0  0  0  0  0  0  0
   47.8900   54.1110   35.1323 C   0  0  1  0  0  0  0  0  0  0  0  0
   48.1934   53.9976   36.5178 O   0  0  0  0  0  0  0  0  0  0  0  0
   46.5594   54.9216   34.9210 C   0  0  2  0  0  0  0  0  0  0  0  0
   46.3303   57.3722   27.6290 O   0  0  0  0  0  0  0  0  0  0  0  0
   42.3493   51.8749   34.1631 N   0  0  0  0  0  0  0  0  0  0  0  0
   42.9230   52.2042   35.3256 C   0  0  0  0  0  0  0  0  0  0  0  0
   43.9775   53.0032   35.3704 N   0  0  0  0  0  0  0  0  0  0  0  0
   44.5348   53.4901   34.2494 C   0  0  0  0  0  0  0  0  0  0  0  0
   43.9706   53.1577   32.9910 C   0  0  0  0  0  0  0  0  0  0  0  0
   42.8301   52.3154   32.9889 C   0  0  0  0  0  0  0  0  0  0  0  0
   42.2267   51.9527   31.8057 N   0  0  0  0  0  0  0  0  0  0  0  0
   44.7121   53.7650   32.0431 N   0  0  0  0  0  0  0  0  0  0  0  0
   45.6762   54.4251   32.6148 C   0  0  0  0  0  0  0  0  0  0  0  0
   45.6128   54.2956   33.9743 N   0  0  0  0  0  0  0  0  0  0  0  0
  2  1  1  6  0  0  0
  2  3  1  0  0  0  0
  2  5  1  0  0  0  0
  3  4  1  0  0  0  0
  3 17  1  0  0  0  0
  5  6  1  0  0  0  0
  7  6  1  6  0  0  0
  7  8  1  0  0  0  0
  7  9  1  0  0  0  0
 10  9  1  6  0  0  0
 10 11  1  0  0  0  0
 10 12  1  0  0  0  0
 11 16  1  0  0  0  0
 12 13  1  1  0  0  0
 12 14  1  0  0  0  0
 14 15  1  1  0  0  0
 14 16  1  0  0  0  0
 16 27  1  6  0  0  0
 18 19  2  0  0  0  0
 18 23  1  0  0  0  0
 19 20  1  0  0  0  0
 20 21  2  0  0  0  0
 21 22  1  0  0  0  0
 21 27  1  0  0  0  0
 22 23  2  0  0  0  0
 22 25  1  0  0  0  0
 23 24  1  0  0  0  0
 25 26  2  0  0  0  0
 26 27  1  0  0  0  0
M  END
>  <CHROM.1>
164.55640277,-64.73150988,-62.32592345,-143.69901556,178.98482718,76.12675187
-150.13529689,46.67931678,55.62043284,32.72920005,0.84392831,-0.58515177
-1.01515800

>  <Name>
ligand

>  <RI>
0

>  <Rbt.Current_Directory>
/home/itssahil/PROJECTS/Mol_Feturizer/New_Systems/rnas/2GIS

>  <Rbt.Executable>
rbdock ($Id: //depot/dev/client3/rdock/2013.1/src/exe/rbdock.cxx#4 $)

>  <Rbt.Library>
libRbt.so (2013.1, Build901 2013/11/27)

>  <Rbt.Parameter_File>
/export/apps/rDock/src/rDock_2013.1_src/data/scripts/dock_solv.prm

>  <Rbt.Receptor>
prm/pocket_docking_7.prm

>  <SCORE>
-15.3085

>  <SCORE.INTER>
-12.9213

>  <SCORE.INTER.CONST>
1

>  <SCORE.INTER.POLAR>
0

>  <SCORE.INTER.ROT>
7

>  <SCORE.INTER.SOLV>
9.52788

>  <SCORE.INTER.VDW>
-20.0568

>  <SCORE.INTER.norm>
-0.478567

>  <SCORE.INTRA>
-2.38716

>  <SCORE.INTRA.DIHEDRAL>
-1.35766

>  <SCORE.INTRA.DIHEDRAL.0>
9.40024

>  <SCORE.INTRA.POLAR>
0

>  <SCORE.INTRA.POLAR.0>
0

>  <SCORE.INTRA.REPUL>
0

>  <SCORE.INTRA.REPUL.0>
0

>  <SCORE.INTRA.SOLV>
-1.16362

>  <SCORE.INTRA.SOLV.lig_0>
-47.1049

>  <SCORE.INTRA.VDW>
-1.12652

>  <SCORE.INTRA.VDW.0>
-1.50278

>  <SCORE.INTRA.norm>
-0.0884133

>  <SCORE.RESTR>
0

>  <SCORE.RESTR.CAVITY>
0

>  <SCORE.RESTR.norm>
0

>  <SCORE.SYSTEM>
0

>  <SCORE.SYSTEM.CONST>
0

>  <SCORE.SYSTEM.DIHEDRAL>
0

>  <SCORE.SYSTEM.SOLV>
0

>  <SCORE.SYSTEM.norm>
0

>  <SCORE.heavy>
27

>  <SCORE.norm>
-0.56698

>  <RMSD>
5.425

$$$$
ligand
 OpenBabel11021811433D
libRbt.so/2013.1/901 2013/11/27
 27 29  0  0  0  0  0  0  0  0999 V2000
   49.3719   56.3987   28.9415 N   0  0  0  0  0  0  0  0  0  0  0  0
   48.1305   57.1757   29.0137 C   0  0  2  0  0  0  0  0  0  0  0  0
   48.2444   58.3965   28.1181 C   0  0  0  0  0  0  0  0  0  0  0  0
   47.3544   58.6504   27.3113 O   0  0  0  0  0  0  0  0  0  0  0  0
   47.8433   57.6151   30.4632 C   0  0  0  0  0  0  0  0  0  0  0  0
   47.6903   56.3752   31.3429 C   0  0  0  0  0  0  0  0  0  0  0  0
   47.2804   56.7098   33.1048 S   0  0  2  0  0  0  0  0  0  0  0  0
   48.8680   57.2078   33.8420 C   0  0  0  0  0  0  0  0  0  0  0  0
   47.1833   54.9789   33.6081 C   0  0  0  0  0  0  0  0  0  0  0  0
   46.3231   54.7444   34.8620 C   0  0  1  0  0  0  0  0  0  0  0  0
   44.9994   55.3169   34.6456 O   0  0  0  0  0  0  0  0  0  0  0  0
   46.1341   53.2492   34.8601 C   0  0  1  0  0  0  0  0  0  0  0  0
   47.0952   52.6385   35.7216 O   0  0  0  0  0  0  0  0  0  0  0  0
   44.7271   53.0543   35.4114 C   0  0  1  0  0  0  0  0  0  0  0  0
   44.7320   52.7699   36.8055 O   0  0  0  0  0  0  0  0  0  0  0  0
   43.9522   54.3913   35.1214 C   0  0  2  0  0  0  0  0  0  0  0  0
   49.2552   59.0986   28.1522 O   0  0  0  0  0  0  0  0  0  0  0  0
   42.3366   56.1398   30.4402 N   0  0  0  0  0  0  0  0  0  0  0  0
   43.3819   56.5665   31.1573 C   0  0  0  0  0  0  0  0  0  0  0  0
   43.6867   56.0176   32.3227 N   0  0  0  0  0  0  0  0  0  0  0  0
   42.9408   55.0321   32.8486 C   0  0  0  0  0  0  0  0  0  0  0  0
   41.8133   54.5550   32.1320 C   0  0  0  0  0  0  0  0  0  0  0  0
   41.5336   55.1566   30.8790 C   0  0  0  0  0  0  0  0  0  0  0  0
   40.4578   54.7434   30.1257 N   0  0  0  0  0  0  0  0  0  0  0  0
   41.2462   53.5821   32.8730 N   0  0  0  0  0  0  0  0  0  0  0  0
   41.9234   53.4359   33.9740 C   0  0  0  0  0  0  0  0  0  0  0  0
   42.9821   54.3002   34.0103 N   0  0  0  0  0  0  0  0  0  0  0  0
  2  1  1  1  0  0  0
  2  3  1  0  0  0  0
  2  5  1  0  0  0  0
  3  4  1  0  0  0  0
  3 17  1  0  0  0  0
  5  6  1  0  0  0  0
  7  6  1  6  0  0  0
  7  8  1  0  0  0  0
  7  9  1  0  0  0  0
 10  9  1  6  0  0  0
 10 11  1  0  0  0  0
 10 12  1  0  0  0  0
 11 16  1  0  0  0  0
 12 13  1  1  0  0  0
 12 14  1  0  0  0  0
 14 15  1  1  0  0  0
 14 16  1  0  0  0  0
 16 27  1  6  0  0  0
 18 19  2  0  0  0  0
 18 23  1  0  0  0  0
 19 20  1  0  0  0  0
 20 21  2  0  0  0  0
 21 22  1  0  0  0  0
 21 27  1  0  0  0  0
 22 23  2  0  0  0  0
 22 25  1  0  0  0  0
 23 24  1  0  0  0  0
 25 26  2  0  0  0  0
 26 27  1  0  0  0  0
M  END
>  <CHROM.1>
129.94084036,-60.58834571,-177.85216767,-78.16853472,-156.60350581,54.61507180
-7.65333852,45.43302990,55.57001558,32.35089992,-0.91536584,0.23534537,2.06610449

>  <Name>
ligand

>  <RI>
0

>  <Rbt.Current_Directory>
/home/itssahil/PROJECTS/Mol_Feturizer/New_Systems/rnas/2GIS

>  <Rbt.Executable>
rbdock ($Id: //depot/dev/client3/rdock/2013.1/src/exe/rbdock.cxx#4 $)

>  <Rbt.Library>
libRbt.so (2013.1, Build901 2013/11/27)

>  <Rbt.Parameter_File>
/export/apps/rDock/src/rDock_2013.1_src/data/scripts/dock_solv.prm

>  <Rbt.Receptor>
prm/pocket_docking_8.prm

>  <SCORE>
-14.1729

>  <SCORE.INTER>
-9.88044

>  <SCORE.INTER.CONST>
1

>  <SCORE.INTER.POLAR>
0

>  <SCORE.INTER.ROT>
7

>  <SCORE.INTER.SOLV>
7.89826

>  <SCORE.INTER.VDW>
-17.4864

>  <SCORE.INTER.norm>
-0.365942

>  <SCORE.INTRA>
-4.29247

>  <SCORE.INTRA.DIHEDRAL>
-3.46393

>  <SCORE.INTRA.DIHEDRAL.0>
9.40024

>  <SCORE.INTRA.POLAR>
0

>  <SCORE.INTRA.POLAR.0>
0

>  <SCORE.INTRA.REPUL>
0

>  <SCORE.INTRA.REPUL.0>
0

>  <SCORE.INTRA.SOLV>
-2.37282

>  <SCORE.INTRA.SOLV.lig_0>
-47.1049

>  <SCORE.INTRA.VDW>
-1.3741

>  <SCORE.INTRA.VDW.0>
-1.50278

>  <SCORE.INTRA.norm>
-0.15898

>  <SCORE.RESTR>
0

>  <SCORE.RESTR.CAVITY>
0

>  <SCORE.RESTR.norm>
0

>  <SCORE.SYSTEM>
0

>  <SCORE.SYSTEM.CONST>
0

>  <SCORE.SYSTEM.DIHEDRAL>
0

>  <SCORE.SYSTEM.SOLV>
0

>  <SCORE.SYSTEM.norm>
0

>  <SCORE.heavy>
27

>  <SCORE.norm>
-0.524923

>  <RMSD>
5.428

$$$$
ligand
 OpenBabel11021811433D
libRbt.so/2013.1/901 2013/11/27
 27 29  0  0  0  0  0  0  0  0999 V2000
   49.6023   52.8527   24.0313 N   0  0  0  0  0  0  0  0  0  0  0  0
   49.8225   53.2490   25.4257 C   0  0  2  0  0  0  0  0  0  0  0  0
   49.8028   52.0161   26.3117 C   0  0  0  0  0  0  0  0  0  0  0  0
   49.1724   51.0213   25.9644 O   0  0  0  0  0  0  0  0  0  0  0  0
   48.7400   54.2440   25.8895 C   0  0  0  0  0  0  0  0  0  0  0  0
   49.3017   55.1066   27.0187 C   0  0  0  0  0  0  0  0  0  0  0  0
   48.1307   56.3407   27.7190 S   0  0  2  0  0  0  0  0  0  0  0  0
   47.5925   57.3095   26.2755 C   0  0  0  0  0  0  0  0  0  0  0  0
   49.3939   57.4225   28.4209 C   0  0  0  0  0  0  0  0  0  0  0  0
   48.8234   58.5877   29.2480 C   0  0  1  0  0  0  0  0  0  0  0  0
   47.4434   58.8289   28.8426 O   0  0  0  0  0  0  0  0  0  0  0  0
   48.7527   58.0059   30.6364 C   0  0  1  0  0  0  0  0  0  0  0  0
   49.9109   58.3854   31.3802 O   0  0  0  0  0  0  0  0  0  0  0  0
   47.5040   58.6384   31.2385 C   0  0  1  0  0  0  0  0  0  0  0  0
   47.8104   59.7769   32.0350 O   0  0  0  0  0  0  0  0  0  0  0  0
   46.5869   59.0407   30.0264 C   0  0  2  0  0  0  0  0  0  0  0  0
   50.3639   52.0307   27.4075 O   0  0  0  0  0  0  0  0  0  0  0  0
   43.1038   55.6985   32.0950 N   0  0  0  0  0  0  0  0  0  0  0  0
   44.0985   56.3363   32.7217 C   0  0  0  0  0  0  0  0  0  0  0  0
   44.8956   57.1718   32.0745 N   0  0  0  0  0  0  0  0  0  0  0  0
   44.7596   57.3891   30.7560 C   0  0  0  0  0  0  0  0  0  0  0  0
   43.7280   56.7247   30.0443 C   0  0  0  0  0  0  0  0  0  0  0  0
   42.8843   55.8538   30.7790 C   0  0  0  0  0  0  0  0  0  0  0  0
   41.8596   55.1770   30.1562 N   0  0  0  0  0  0  0  0  0  0  0  0
   43.8133   57.1107   28.7556 N   0  0  0  0  0  0  0  0  0  0  0  0
   44.8073   57.9396   28.6243 C   0  0  0  0  0  0  0  0  0  0  0  0
   45.4233   58.1519   29.8262 N   0  0  0  0  0  0  0  0  0  0  0  0
  2  1  1  6  0  0  0
  2  3  1  0  0  0  0
  2  5  1  0  0  0  0
  3  4  1  0  0  0  0
  3 17  1  0  0  0  0
  5  6  1  0  0  0  0
  7  6  1  6  0  0  0
  7  8  1  0  0  0  0
  7  9  1  0  0  0  0
 10  9  1  6  0  0  0
 10 11  1  0  0  0  0
 10 12  1  0  0  0  0
 11 16  1  0  0  0  0
 12 13  1  1  0  0  0
 12 14  1  0  0  0  0
 14 15  1  6  0  0  0
 14 16  1  0  0  0  0
 16 27  1  6  0  0  0
 18 19  2  0  0  0  0
 18 23  1  0  0  0  0
 19 20  1  0  0  0  0
 20 21  2  0  0  0  0
 21 22  1  0  0  0  0
 21 27  1  0  0  0  0
 22 23  2  0  0  0  0
 22 25  1  0  0  0  0
 23 24  1  0  0  0  0
 25 26  2  0  0  0  0
 26 27  1  0  0  0  0
M  END
>  <CHROM.1>
-26.38306549,-154.04927485,-179.03403150,-55.41937994,-174.93536825,-21.80950142
140.21012544,47.11693290,56.30076262,28.93101245,0.92075130,-0.35497976,-2.54355783

>  <Name>
ligand

>  <RI>
0

>  <Rbt.Current_Directory>
/home/itssahil/PROJECTS/Mol_Feturizer/New_Systems/rnas/2GIS

>  <Rbt.Executable>
rbdock ($Id: //depot/dev/client3/rdock/2013.1/src/exe/rbdock.cxx#4 $)

>  <Rbt.Library>
libRbt.so (2013.1, Build901 2013/11/27)

>  <Rbt.Parameter_File>
/export/apps/rDock/src/rDock_2013.1_src/data/scripts/dock_solv.prm

>  <Rbt.Receptor>
prm/pocket_docking_8.prm

>  <SCORE>
-11.2054

>  <SCORE.INTER>
-9.19564

>  <SCORE.INTER.CONST>
1

>  <SCORE.INTER.POLAR>
0

>  <SCORE.INTER.ROT>
7

>  <SCORE.INTER.SOLV>
10.5581

>  <SCORE.INTER.VDW>
-17.9165

>  <SCORE.INTER.norm>
-0.340579

>  <SCORE.INTRA>
-2.00972

>  <SCORE.INTRA.DIHEDRAL>
0.472977

>  <SCORE.INTRA.DIHEDRAL.0>
9.40024

>  <SCORE.INTRA.POLAR>
0

>  <SCORE.INTRA.POLAR.0>
0

>  <SCORE.INTRA.REPUL>
0

>  <SCORE.INTRA.REPUL.0>
0

>  <SCORE.INTRA.SOLV>
-2.85808

>  <SCORE.INTRA.SOLV.lig_0>
-47.1049

>  <SCORE.INTRA.VDW>
-0.817164

>  <SCORE.INTRA.VDW.0>
-1.50278

>  <SCORE.INTRA.norm>
-0.0744339

>  <SCORE.RESTR>
0

>  <SCORE.RESTR.CAVITY>
0

>  <SCORE.RESTR.norm>
0

>  <SCORE.SYSTEM>
0

>  <SCORE.SYSTEM.CONST>
0

>  <SCORE.SYSTEM.DIHEDRAL>
0

>  <SCORE.SYSTEM.SOLV>
0

>  <SCORE.SYSTEM.norm>
0

>  <SCORE.heavy>
27

>  <SCORE.norm>
-0.415013

>  <RMSD>
5.448

$$$$
ligand
 OpenBabel11021811433D
libRbt.so/2013.1/901 2013/11/27
 27 29  0  0  0  0  0  0  0  0999 V2000
   48.6772   52.5971   27.2737 N   0  0  0  0  0  0  0  0  0  0  0  0
   49.1751   53.3108   28.4538 C   0  0  2  0  0  0  0  0  0  0  0  0
   49.4786   52.3139   29.5579 C   0  0  0  0  0  0  0  0  0  0  0  0
   49.0703   51.1592   29.4710 O   0  0  0  0  0  0  0  0  0  0  0  0
   48.1393   54.3401   28.9484 C   0  0  0  0  0  0  0  0  0  0  0  0
   48.0993   55.5188   27.9770 C   0  0  0  0  0  0  0  0  0  0  0  0
   47.3682   57.0662   28.6518 S   0  0  2  0  0  0  0  0  0  0  0  0
   47.6402   58.2948   27.3369 C   0  0  0  0  0  0  0  0  0  0  0  0
   48.7291   57.4434   29.7762 C   0  0  0  0  0  0  0  0  0  0  0  0
   48.3612   58.4497   30.8803 C   0  0  1  0  0  0  0  0  0  0  0  0
   47.1482   57.9978   31.5521 O   0  0  0  0  0  0  0  0  0  0  0  0
   49.4781   58.2725   31.8766 C   0  0  1  0  0  0  0  0  0  0  0  0
   50.4799   59.2672   31.6630 O   0  0  0  0  0  0  0  0  0  0  0  0
   48.8040   58.4792   33.2274 C   0  0  1  0  0  0  0  0  0  0  0  0
   48.9634   59.8087   33.7085 O   0  0  0  0  0  0  0  0  0  0  0  0
   47.2823   58.1456   33.0149 C   0  0  2  0  0  0  0  0  0  0  0  0
   50.0785   52.6740   30.5710 O   0  0  0  0  0  0  0  0  0  0  0  0
   48.4605   53.9536   35.9511 N   0  0  0  0  0  0  0  0  0  0  0  0
   49.2353   55.0110   35.6854 C   0  0  0  0  0  0  0  0  0  0  0  0
   48.7990   56.0133   34.9389 N   0  0  0  0  0  0  0  0  0  0  0  0
   47.5729   55.9956   34.3906 C   0  0  0  0  0  0  0  0  0  0  0  0
   46.7190   54.8888   34.6318 C   0  0  0  0  0  0  0  0  0  0  0  0
   47.2179   53.8461   35.4528 C   0  0  0  0  0  0  0  0  0  0  0  0
   46.4449   52.7417   35.7334 N   0  0  0  0  0  0  0  0  0  0  0  0
   45.5657   55.1174   33.9724 N   0  0  0  0  0  0  0  0  0  0  0  0
   45.6503   56.2560   33.3489 C   0  0  0  0  0  0  0  0  0  0  0  0
   46.8637   56.8437   33.5754 N   0  0  0  0  0  0  0  0  0  0  0  0
  2  1  1  6  0  0  0
  2  3  1  0  0  0  0
  2  5  1  0  0  0  0
  3  4  1  0  0  0  0
  3 17  1  0  0  0  0
  5  6  1  0  0  0  0
  7  6  1  6  0  0  0
  7  8  1  0  0  0  0
  7  9  1  0  0  0  0
 10  9  1  6  0  0  0
 10 11  1  0  0  0  0
 10 12  1  0  0  0  0
 11 16  1  0  0  0  0
 12 13  1  6  0  0  0
 12 14  1  0  0  0  0
 14 15  1  6  0  0  0
 14 16  1  0  0  0  0
 16 27  1  1  0  0  0
 18 19  2  0  0  0  0
 18 23  1  0  0  0  0
 19 20  1  0  0  0  0
 20 21  2  0  0  0  0
 21 22  1  0  0  0  0
 21 27  1  0  0  0  0
 22 23  2  0  0  0  0
 22 25  1  0  0  0  0
 23 24  1  0  0  0  0
 25 26  2  0  0  0  0
 26 27  1  0  0  0  0
M  END
>  <CHROM.1>
-13.44523778,-72.75476333,-160.65760507,173.86988203,-162.15976939,51.64228719
122.88760031,48.12787727,55.86017793,31.68141900,0.09351169,-1.43647240,3.06318294

>  <Name>
ligand

>  <RI>
0

>  <Rbt.Current_Directory>
/home/itssahil/PROJECTS/Mol_Feturizer/New_Systems/rnas/2GIS

>  <Rbt.Executable>
rbdock ($Id: //depot/dev/client3/rdock/2013.1/src/exe/rbdock.cxx#4 $)

>  <Rbt.Library>
libRbt.so (2013.1, Build901 2013/11/27)

>  <Rbt.Parameter_File>
/export/apps/rDock/src/rDock_2013.1_src/data/scripts/dock_solv.prm

>  <Rbt.Receptor>
prm/pocket_docking_3.prm

>  <SCORE>
-11.9666

>  <SCORE.INTER>
-8.72656

>  <SCORE.INTER.CONST>
1

>  <SCORE.INTER.POLAR>
0

>  <SCORE.INTER.ROT>
7

>  <SCORE.INTER.SOLV>
14.4995

>  <SCORE.INTER.VDW>
-18.9175

>  <SCORE.INTER.norm>
-0.323206

>  <SCORE.INTRA>
-3.27303

>  <SCORE.INTRA.DIHEDRAL>
-2.46978

>  <SCORE.INTRA.DIHEDRAL.0>
9.40024

>  <SCORE.INTRA.POLAR>
0

>  <SCORE.INTRA.POLAR.0>
0

>  <SCORE.INTRA.REPUL>
0

>  <SCORE.INTRA.REPUL.0>
0

>  <SCORE.INTRA.SOLV>
-2.4987

>  <SCORE.INTRA.SOLV.lig_0>
-47.1049

>  <SCORE.INTRA.VDW>
-0.788787

>  <SCORE.INTRA.VDW.0>
-1.50278

>  <SCORE.INTRA.norm>
-0.121223

>  <SCORE.RESTR>
0.0329803

>  <SCORE.RESTR.CAVITY>
0.0329803

>  <SCORE.RESTR.norm>
0.00122149

>  <SCORE.SYSTEM>
0

>  <SCORE.SYSTEM.CONST>
0

>  <SCORE.SYSTEM.DIHEDRAL>
0

>  <SCORE.SYSTEM.SOLV>
0

>  <SCORE.SYSTEM.norm>
0

>  <SCORE.heavy>
27

>  <SCORE.norm>
-0.443208

>  <RMSD>
5.465

$$$$
ligand
 OpenBabel11021811433D
libRbt.so/2013.1/901 2013/11/27
 27 29  0  0  0  0  0  0  0  0999 V2000
   48.8662   58.7659   32.6316 N   0  0  0  0  0  0  0  0  0  0  0  0
   47.5780   59.2233   32.1011 C   0  0  2  0  0  0  0  0  0  0  0  0
   46.5099   58.1868   32.4011 C   0  0  0  0  0  0  0  0  0  0  0  0
   45.3629   58.5438   32.6548 O   0  0  0  0  0  0  0  0  0  0  0  0
   47.6652   59.4597   30.5801 C   0  0  0  0  0  0  0  0  0  0  0  0
   48.1041   58.1662   29.8953 C   0  0  0  0  0  0  0  0  0  0  0  0
   48.5707   58.3364   28.1240 S   0  0  2  0  0  0  0  0  0  0  0  0
   46.9855   58.6094   27.2726 C   0  0  0  0  0  0  0  0  0  0  0  0
   48.8332   56.5751   27.8278 C   0  0  0  0  0  0  0  0  0  0  0  0
   50.1225   56.0245   28.4617 C   0  0  1  0  0  0  0  0  0  0  0  0
   49.9875   56.0486   29.9136 O   0  0  0  0  0  0  0  0  0  0  0  0
   50.0924   54.5706   28.0660 C   0  0  1  0  0  0  0  0  0  0  0  0
   50.8886   54.3700   26.8980 O   0  0  0  0  0  0  0  0  0  0  0  0
   50.7087   53.8505   29.2590 C   0  0  1  0  0  0  0  0  0  0  0  0
   52.0931   53.5838   29.0678 O   0  0  0  0  0  0  0  0  0  0  0  0
   50.4919   54.7911   30.5002 C   0  0  2  0  0  0  0  0  0  0  0  0
   46.8026   56.9920   32.4538 O   0  0  0  0  0  0  0  0  0  0  0  0
   48.1662   55.2134   35.1900 N   0  0  0  0  0  0  0  0  0  0  0  0
   49.2216   55.8976   34.7349 C   0  0  0  0  0  0  0  0  0  0  0  0
   49.6951   55.7004   33.5146 N   0  0  0  0  0  0  0  0  0  0  0  0
   49.1565   54.7828   32.6947 C   0  0  0  0  0  0  0  0  0  0  0  0
   48.0442   54.0218   33.1374 C   0  0  0  0  0  0  0  0  0  0  0  0
   47.5561   54.2782   34.4436 C   0  0  0  0  0  0  0  0  0  0  0  0
   46.4778   53.5808   34.9403 N   0  0  0  0  0  0  0  0  0  0  0  0
   47.7054   53.1830   32.1380 N   0  0  0  0  0  0  0  0  0  0  0  0
   48.5173   53.3629   31.1376 C   0  0  0  0  0  0  0  0  0  0  0  0
   49.4290   54.3408   31.4230 N   0  0  0  0  0  0  0  0  0  0  0  0
  2  1  1  6  0  0  0
  2  3  1  0  0  0  0
  2  5  1  0  0  0  0
  3  4  1  0  0  0  0
  3 17  1  0  0  0  0
  5  6  1  0  0  0  0
  7  6  1  1  0  0  0
  7  8  1  0  0  0  0
  7  9  1  0  0  0  0
 10  9  1  6  0  0  0
 10 11  1  0  0  0  0
 10 12  1  0  0  0  0
 11 16  1  0  0  0  0
 12 13  1  6  0  0  0
 12 14  1  0  0  0  0
 14 15  1  6  0  0  0
 14 16  1  0  0  0  0
 16 27  1  1  0  0  0
 18 19  2  0  0  0  0
 18 23  1  0  0  0  0
 19 20  1  0  0  0  0
 20 21  2  0  0  0  0
 21 22  1  0  0  0  0
 21 27  1  0  0  0  0
 22 23  2  0  0  0  0
 22 25  1  0  0  0  0
 23 24  1  0  0  0  0
 25 26  2  0  0  0  0
 26 27  1  0  0  0  0
M  END
>  <CHROM.1>
145.13132210,57.76491793,-168.89092398,-71.99591398,-73.43112535,67.94524968
-79.53780162,48.65471644,56.08947048,30.94913249,2.19243131,-0.96192181,2.21087965

>  <Name>
ligand

>  <RI>
0

>  <Rbt.Current_Directory>
/home/itssahil/PROJECTS/Mol_Feturizer/New_Systems/rnas/2GIS

>  <Rbt.Executable>
rbdock ($Id: //depot/dev/client3/rdock/2013.1/src/exe/rbdock.cxx#4 $)

>  <Rbt.Library>
libRbt.so (2013.1, Build901 2013/11/27)

>  <Rbt.Parameter_File>
/export/apps/rDock/src/rDock_2013.1_src/data/scripts/dock_solv.prm

>  <Rbt.Receptor>
prm/pocket_docking_3.prm

>  <SCORE>
-17.0029

>  <SCORE.INTER>
-12.1342

>  <SCORE.INTER.CONST>
1

>  <SCORE.INTER.POLAR>
0

>  <SCORE.INTER.ROT>
7

>  <SCORE.INTER.SOLV>
10.9101

>  <SCORE.INTER.VDW>
-19.9928

>  <SCORE.INTER.norm>
-0.449415

>  <SCORE.INTRA>
-4.86871

>  <SCORE.INTRA.DIHEDRAL>
-5.21024

>  <SCORE.INTRA.DIHEDRAL.0>
9.40024

>  <SCORE.INTRA.POLAR>
0

>  <SCORE.INTRA.POLAR.0>
0

>  <SCORE.INTRA.REPUL>
0

>  <SCORE.INTRA.REPUL.0>
0

>  <SCORE.INTRA.SOLV>
-1.39496

>  <SCORE.INTRA.SOLV.lig_0>
-47.1049

>  <SCORE.INTRA.VDW>
-1.56611

>  <SCORE.INTRA.VDW.0>
-1.50278

>  <SCORE.INTRA.norm>
-0.180322

>  <SCORE.RESTR>
0

>  <SCORE.RESTR.CAVITY>
0

>  <SCORE.RESTR.norm>
0

>  <SCORE.SYSTEM>
0

>  <SCORE.SYSTEM.CONST>
0

>  <SCORE.SYSTEM.DIHEDRAL>
0

>  <SCORE.SYSTEM.SOLV>
0

>  <SCORE.SYSTEM.norm>
0

>  <SCORE.heavy>
27

>  <SCORE.norm>
-0.629738

>  <RMSD>
5.475

$$$$
ligand
 OpenBabel11021811433D
libRbt.so/2013.1/901 2013/11/27
 27 29  0  0  0  0  0  0  0  0999 V2000
   45.9107   59.5128   30.0817 N   0  0  0  0  0  0  0  0  0  0  0  0
   46.8381   59.4241   31.2140 C   0  0  2  0  0  0  0  0  0  0  0  0
   47.2448   60.8216   31.6462 C   0  0  0  0  0  0  0  0  0  0  0  0
   46.3883   61.6296   31.9941 O   0  0  0  0  0  0  0  0  0  0  0  0
   48.0901   58.6089   30.8335 C   0  0  0  0  0  0  0  0  0  0  0  0
   48.4000   57.6136   31.9506 C   0  0  0  0  0  0  0  0  0  0  0  0
   48.8626   58.3658   33.5645 S   0  0  2  0  0  0  0  0  0  0  0  0
   50.3729   59.3118   33.1956 C   0  0  0  0  0  0  0  0  0  0  0  0
   49.5537   56.8608   34.2830 C   0  0  0  0  0  0  0  0  0  0  0  0
   48.4940   55.9007   34.8506 C   0  0  1  0  0  0  0  0  0  0  0  0
   47.4968   55.6294   33.8216 O   0  0  0  0  0  0  0  0  0  0  0  0
   49.2675   54.6193   35.0272 C   0  0  1  0  0  0  0  0  0  0  0  0
   49.7178   54.5076   36.3776 O   0  0  0  0  0  0  0  0  0  0  0  0
   48.2509   53.5283   34.7144 C   0  0  1  0  0  0  0  0  0  0  0  0
   47.6520   52.9999   35.8919 O   0  0  0  0  0  0  0  0  0  0  0  0
   47.1653   54.1910   33.7901 C   0  0  2  0  0  0  0  0  0  0  0  0
   48.4243   61.1698   31.5891 O   0  0  0  0  0  0  0  0  0  0  0  0
   50.2040   53.1621   29.6321 N   0  0  0  0  0  0  0  0  0  0  0  0
   50.5919   53.5203   30.8610 C   0  0  0  0  0  0  0  0  0  0  0  0
   49.7110   53.7316   31.8262 N   0  0  0  0  0  0  0  0  0  0  0  0
   48.3904   53.6270   31.6037 C   0  0  0  0  0  0  0  0  0  0  0  0
   47.9292   53.2633   30.3125 C   0  0  0  0  0  0  0  0  0  0  0  0
   48.9064   53.0268   29.3128 C   0  0  0  0  0  0  0  0  0  0  0  0
   48.5339   52.6671   28.0371 N   0  0  0  0  0  0  0  0  0  0  0  0
   46.5823   53.2336   30.3584 N   0  0  0  0  0  0  0  0  0  0  0  0
   46.1900   53.5548   31.5564 C   0  0  0  0  0  0  0  0  0  0  0  0
   47.2623   53.8026   32.3675 N   0  0  0  0  0  0  0  0  0  0  0  0
  2  1  1  6  0  0  0
  2  3  1  0  0  0  0
  2  5  1  0  0  0  0
  3  4  1  0  0  0  0
  3 17  1  0  0  0  0
  5  6  1  0  0  0  0
  7  6  1  6  0  0  0
  7  8  1  0  0  0  0
  7  9  1  0  0  0  0
 10  9  1  6  0  0  0
 10 11  1  0  0  0  0
 10 12  1  0  0  0  0
 11 16  1  0  0  0  0
 12 13  1  1  0  0  0
 12 14  1  0  0  0  0
 14 15  1  1  0  0  0
 14 16  1  0  0  0  0
 16 27  1  6  0  0  0
 18 19  2  0  0  0  0
 18 23  1  0  0  0  0
 19 20  1  0  0  0  0
 20 21  2  0  0  0  0
 21 22  1  0  0  0  0
 21 27  1  0  0  0  0
 22 23  2  0  0  0  0
 22 25  1  0  0  0  0
 23 24  1  0  0  0  0
 25 26  2  0  0  0  0
 26 27  1  0  0  0  0
M  END
>  <CHROM.1>
58.32510400,-134.20325004,-64.45334032,-61.23680485,-80.70967335,53.09101975
73.76425178,48.26892551,56.06314126,32.37509933,2.16651071,-1.38073563,0.59144535

>  <Name>
ligand

>  <RI>
0

>  <Rbt.Current_Directory>
/home/itssahil/PROJECTS/Mol_Feturizer/New_Systems/rnas/2GIS

>  <Rbt.Executable>
rbdock ($Id: //depot/dev/client3/rdock/2013.1/src/exe/rbdock.cxx#4 $)

>  <Rbt.Library>
libRbt.so (2013.1, Build901 2013/11/27)

>  <Rbt.Parameter_File>
/export/apps/rDock/src/rDock_2013.1_src/data/scripts/dock_solv.prm

>  <Rbt.Receptor>
prm/pocket_docking_3.prm

>  <SCORE>
-22.4444

>  <SCORE.INTER>
-19.498

>  <SCORE.INTER.CONST>
1

>  <SCORE.INTER.POLAR>
0

>  <SCORE.INTER.ROT>
7

>  <SCORE.INTER.SOLV>
13.7404

>  <SCORE.INTER.VDW>
-25.8455

>  <SCORE.INTER.norm>
-0.722148

>  <SCORE.INTRA>
-2.94637

>  <SCORE.INTRA.DIHEDRAL>
-0.221975

>  <SCORE.INTRA.DIHEDRAL.0>
9.40024

>  <SCORE.INTRA.POLAR>
0

>  <SCORE.INTRA.POLAR.0>
0

>  <SCORE.INTRA.REPUL>
0

>  <SCORE.INTRA.REPUL.0>
0

>  <SCORE.INTRA.SOLV>
-2.74037

>  <SCORE.INTRA.SOLV.lig_0>
-47.1049

>  <SCORE.INTRA.VDW>
-1.4652

>  <SCORE.INTRA.VDW.0>
-1.50278

>  <SCORE.INTRA.norm>
-0.109125

>  <SCORE.RESTR>
0

>  <SCORE.RESTR.CAVITY>
0

>  <SCORE.RESTR.norm>
0

>  <SCORE.SYSTEM>
0

>  <SCORE.SYSTEM.CONST>
0

>  <SCORE.SYSTEM.DIHEDRAL>
0

>  <SCORE.SYSTEM.SOLV>
0

>  <SCORE.SYSTEM.norm>
0

>  <SCORE.heavy>
27

>  <SCORE.norm>
-0.831273

>  <RMSD>
5.481

$$$$
ligand
 OpenBabel11021811433D
libRbt.so/2013.1/901 2013/11/27
 27 29  0  0  0  0  0  0  0  0999 V2000
   44.9856   57.2354   30.7555 N   0  0  0  0  0  0  0  0  0  0  0  0
   46.0845   58.1287   31.1355 C   0  0  2  0  0  0  0  0  0  0  0  0
   45.9485   59.4443   30.3899 C   0  0  0  0  0  0  0  0  0  0  0  0
   45.6284   59.4473   29.2045 O   0  0  0  0  0  0  0  0  0  0  0  0
   47.4485   57.4850   30.8164 C   0  0  0  0  0  0  0  0  0  0  0  0
   48.5625   58.3554   31.3961 C   0  0  0  0  0  0  0  0  0  0  0  0
   48.6062   58.4521   33.2327 S   0  0  2  0  0  0  0  0  0  0  0  0
   49.9777   59.5957   33.5835 C   0  0  0  0  0  0  0  0  0  0  0  0
   49.4041   56.8530   33.4872 C   0  0  0  0  0  0  0  0  0  0  0  0
   48.4533   55.7605   34.0063 C   0  0  1  0  0  0  0  0  0  0  0  0
   47.5242   55.3932   32.9438 O   0  0  0  0  0  0  0  0  0  0  0  0
   49.3710   54.5780   34.1825 C   0  0  1  0  0  0  0  0  0  0  0  0
   49.7949   54.4925   35.5432 O   0  0  0  0  0  0  0  0  0  0  0  0
   48.5024   53.3796   33.8206 C   0  0  1  0  0  0  0  0  0  0  0  0
   47.9402   52.7580   34.9704 O   0  0  0  0  0  0  0  0  0  0  0  0
   47.3699   53.9264   32.8769 C   0  0  2  0  0  0  0  0  0  0  0  0
   46.2196   60.5062   30.9510 O   0  0  0  0  0  0  0  0  0  0  0  0
   50.6440   53.1589   28.8430 N   0  0  0  0  0  0  0  0  0  0  0  0
   50.9568   53.5007   30.0977 C   0  0  0  0  0  0  0  0  0  0  0  0
   50.0230   53.6430   31.0251 N   0  0  0  0  0  0  0  0  0  0  0  0
   48.7207   53.4823   30.7375 C   0  0  0  0  0  0  0  0  0  0  0  0
   48.3380   53.1334   29.4168 C   0  0  0  0  0  0  0  0  0  0  0  0
   49.3707   52.9713   28.4590 C   0  0  0  0  0  0  0  0  0  0  0  0
   49.0755   52.6302   27.1582 N   0  0  0  0  0  0  0  0  0  0  0  0
   46.9934   53.0386   29.3979 N   0  0  0  0  0  0  0  0  0  0  0  0
   46.5310   53.3073   30.5838 C   0  0  0  0  0  0  0  0  0  0  0  0
   47.5514   53.5828   31.4510 N   0  0  0  0  0  0  0  0  0  0  0  0
  2  1  1  6  0  0  0
  2  3  1  0  0  0  0
  2  5  1  0  0  0  0
  3  4  1  0  0  0  0
  3 17  1  0  0  0  0
  5  6  1  0  0  0  0
  7  6  1  6  0  0  0
  7  8  1  0  0  0  0
  7  9  1  0  0  0  0
 10  9  1  6  0  0  0
 10 11  1  0  0  0  0
 10 12  1  0  0  0  0
 11 16  1  0  0  0  0
 12 13  1  1  0  0  0
 12 14  1  0  0  0  0
 14 15  1  1  0  0  0
 14 16  1  0  0  0  0
 16 27  1  6  0  0  0
 18 19  2  0  0  0  0
 18 23  1  0  0  0  0
 19 20  1  0  0  0  0
 20 21  2  0  0  0  0
 21 22  1  0  0  0  0
 21 27  1  0  0  0  0
 22 23  2  0  0  0  0
 22 25  1  0  0  0  0
 23 24  1  0  0  0  0
 25 26  2  0  0  0  0
 26 27  1  0  0  0  0
M  END
>  <CHROM.1>
-41.59812539,-172.36352405,65.99354318,-177.82329187,-105.46159187,70.19529543
78.09323785,48.15401843,55.70529654,31.64172642,2.31609292,-1.14656211,0.87629683

>  <Name>
ligand

>  <RI>
0

>  <Rbt.Current_Directory>
/home/itssahil/PROJECTS/Mol_Feturizer/New_Systems/rnas/2GIS

>  <Rbt.Executable>
rbdock ($Id: //depot/dev/client3/rdock/2013.1/src/exe/rbdock.cxx#4 $)

>  <Rbt.Library>
libRbt.so (2013.1, Build901 2013/11/27)

>  <Rbt.Parameter_File>
/export/apps/rDock/src/rDock_2013.1_src/data/scripts/dock_solv.prm

>  <Rbt.Receptor>
prm/pocket_docking_3.prm

>  <SCORE>
-19.2954

>  <SCORE.INTER>
-14.4213

>  <SCORE.INTER.CONST>
1

>  <SCORE.INTER.POLAR>
0

>  <SCORE.INTER.ROT>
7

>  <SCORE.INTER.SOLV>
9.61338

>  <SCORE.INTER.VDW>
-21.0853

>  <SCORE.INTER.norm>
-0.534121

>  <SCORE.INTRA>
-4.87417

>  <SCORE.INTRA.DIHEDRAL>
-2.10499

>  <SCORE.INTRA.DIHEDRAL.0>
9.40024

>  <SCORE.INTRA.POLAR>
0

>  <SCORE.INTRA.POLAR.0>
0

>  <SCORE.INTRA.REPUL>
0

>  <SCORE.INTRA.REPUL.0>
0

>  <SCORE.INTRA.SOLV>
-2.39083

>  <SCORE.INTRA.SOLV.lig_0>
-47.1049

>  <SCORE.INTRA.VDW>
-2.62625

>  <SCORE.INTRA.VDW.0>
-1.50278

>  <SCORE.INTRA.norm>
-0.180525

>  <SCORE.RESTR>
0

>  <SCORE.RESTR.CAVITY>
0

>  <SCORE.RESTR.norm>
0

>  <SCORE.SYSTEM>
0

>  <SCORE.SYSTEM.CONST>
0

>  <SCORE.SYSTEM.DIHEDRAL>
0

>  <SCORE.SYSTEM.SOLV>
0

>  <SCORE.SYSTEM.norm>
0

>  <SCORE.heavy>
27

>  <SCORE.norm>
-0.714645

>  <RMSD>
5.486

$$$$
ligand
 OpenBabel11021811433D
libRbt.so/2013.1/901 2013/11/27
 27 29  0  0  0  0  0  0  0  0999 V2000
   47.1170   56.6237   27.6330 N   0  0  0  0  0  0  0  0  0  0  0  0
   47.0754   57.5950   28.7306 C   0  0  2  0  0  0  0  0  0  0  0  0
   45.7236   58.2863   28.7441 C   0  0  0  0  0  0  0  0  0  0  0  0
   45.5774   59.3352   29.3653 O   0  0  0  0  0  0  0  0  0  0  0  0
   48.1969   58.6418   28.5780 C   0  0  0  0  0  0  0  0  0  0  0  0
   48.9982   58.7122   29.8771 C   0  0  0  0  0  0  0  0  0  0  0  0
   48.0428   59.2339   31.3601 S   0  0  2  0  0  0  0  0  0  0  0  0
   49.2815   60.0352   32.4257 C   0  0  0  0  0  0  0  0  0  0  0  0
   47.9415   57.5932   32.1062 C   0  0  0  0  0  0  0  0  0  0  0  0
   46.6332   56.8476   31.7907 C   0  0  1  0  0  0  0  0  0  0  0  0
   46.7482   55.4682   32.2501 O   0  0  0  0  0  0  0  0  0  0  0  0
   45.6424   57.5109   32.7124 C   0  0  1  0  0  0  0  0  0  0  0  0
   44.9300   58.5275   32.0069 O   0  0  0  0  0  0  0  0  0  0  0  0
   44.6997   56.3833   33.1142 C   0  0  1  0  0  0  0  0  0  0  0  0
   43.5199   56.3617   32.3191 O   0  0  0  0  0  0  0  0  0  0  0  0
   45.5112   55.0482   32.9380 C   0  0  2  0  0  0  0  0  0  0  0  0
   44.7559   57.7673   28.1873 O   0  0  0  0  0  0  0  0  0  0  0  0
   49.0951   54.8379   36.7711 N   0  0  0  0  0  0  0  0  0  0  0  0
   49.0962   55.6276   35.6916 C   0  0  0  0  0  0  0  0  0  0  0  0
   48.1105   55.5878   34.8091 N   0  0  0  0  0  0  0  0  0  0  0  0
   47.0851   54.7306   34.9433 C   0  0  0  0  0  0  0  0  0  0  0  0
   47.0464   53.8624   36.0645 C   0  0  0  0  0  0  0  0  0  0  0  0
   48.1117   53.9512   36.9960 C   0  0  0  0  0  0  0  0  0  0  0  0
   48.1402   53.1425   38.1100 N   0  0  0  0  0  0  0  0  0  0  0  0
   45.9303   53.1142   35.9574 N   0  0  0  0  0  0  0  0  0  0  0  0
   45.2981   53.4458   34.8700 C   0  0  0  0  0  0  0  0  0  0  0  0
   45.9616   54.4411   34.2080 N   0  0  0  0  0  0  0  0  0  0  0  0
  2  1  1  6  0  0  0
  2  3  1  0  0  0  0
  2  5  1  0  0  0  0
  3  4  1  0  0  0  0
  3 17  1  0  0  0  0
  5  6  1  0  0  0  0
  7  6  1  6  0  0  0
  7  8  1  0  0  0  0
  7  9  1  0  0  0  0
 10  9  1  1  0  0  0
 10 11  1  0  0  0  0
 10 12  1  0  0  0  0
 11 16  1  0  0  0  0
 12 13  1  6  0  0  0
 12 14  1  0  0  0  0
 14 15  1  6  0  0  0
 14 16  1  0  0  0  0
 16 27  1  1  0  0  0
 18 19  2  0  0  0  0
 18 23  1  0  0  0  0
 19 20  1  0  0  0  0
 20 21  2  0  0  0  0
 21 22  1  0  0  0  0
 21 27  1  0  0  0  0
 22 23  2  0  0  0  0
 22 25  1  0  0  0  0
 23 24  1  0  0  0  0
 25 26  2  0  0  0  0
 26 27  1  0  0  0  0
M  END
>  <CHROM.1>
-163.10453485,-127.32870009,-61.69909110,-151.53134242,-96.09762978,170.75911458
29.23690505,46.84830592,56.60558438,32.53072700,1.65001459,-0.48196068,-0.95806553

>  <Name>
ligand

>  <RI>
0

>  <Rbt.Current_Directory>
/home/itssahil/PROJECTS/Mol_Feturizer/New_Systems/rnas/2GIS

>  <Rbt.Executable>
rbdock ($Id: //depot/dev/client3/rdock/2013.1/src/exe/rbdock.cxx#4 $)

>  <Rbt.Library>
libRbt.so (2013.1, Build901 2013/11/27)

>  <Rbt.Parameter_File>
/export/apps/rDock/src/rDock_2013.1_src/data/scripts/dock_solv.prm

>  <Rbt.Receptor>
prm/pocket_docking_4.prm

>  <SCORE>
-16.6688

>  <SCORE.INTER>
-14.9427

>  <SCORE.INTER.CONST>
1

>  <SCORE.INTER.POLAR>
0

>  <SCORE.INTER.ROT>
7

>  <SCORE.INTER.SOLV>
15.9138

>  <SCORE.INTER.VDW>
-23.533

>  <SCORE.INTER.norm>
-0.553433

>  <SCORE.INTRA>
-1.73603

>  <SCORE.INTRA.DIHEDRAL>
4.66706

>  <SCORE.INTRA.DIHEDRAL.0>
9.40024

>  <SCORE.INTRA.POLAR>
0

>  <SCORE.INTRA.POLAR.0>
0

>  <SCORE.INTRA.REPUL>
0

>  <SCORE.INTRA.REPUL.0>
0

>  <SCORE.INTRA.SOLV>
-1.91762

>  <SCORE.INTRA.SOLV.lig_0>
-47.1049

>  <SCORE.INTRA.VDW>
-3.11075

>  <SCORE.INTRA.VDW.0>
-1.50278

>  <SCORE.INTRA.norm>
-0.0642973

>  <SCORE.RESTR>
0.00995164

>  <SCORE.RESTR.CAVITY>
0.00995164

>  <SCORE.RESTR.norm>
0.000368579

>  <SCORE.SYSTEM>
0

>  <SCORE.SYSTEM.CONST>
0

>  <SCORE.SYSTEM.DIHEDRAL>
0

>  <SCORE.SYSTEM.SOLV>
0

>  <SCORE.SYSTEM.norm>
0

>  <SCORE.heavy>
27

>  <SCORE.norm>
-0.617361

>  <RMSD>
5.487

$$$$
ligand
 OpenBabel11021811433D
libRbt.so/2013.1/901 2013/11/27
 27 29  0  0  0  0  0  0  0  0999 V2000
   52.4927   53.6817   28.6527 N   0  0  0  0  0  0  0  0  0  0  0  0
   51.3821   53.3203   27.7662 C   0  0  2  0  0  0  0  0  0  0  0  0
   50.8327   54.5725   27.1064 C   0  0  0  0  0  0  0  0  0  0  0  0
   51.0112   55.6695   27.6282 O   0  0  0  0  0  0  0  0  0  0  0  0
   50.2629   52.6093   28.5527 C   0  0  0  0  0  0  0  0  0  0  0  0
   49.7838   53.5222   29.6805 C   0  0  0  0  0  0  0  0  0  0  0  0
   48.2061   53.0175   30.4808 S   0  0  2  0  0  0  0  0  0  0  0  0
   46.9819   53.0980   29.1365 C   0  0  0  0  0  0  0  0  0  0  0  0
   47.9112   54.5867   31.3230 C   0  0  0  0  0  0  0  0  0  0  0  0
   46.4358   54.8286   31.6861 C   0  0  1  0  0  0  0  0  0  0  0  0
   46.0629   53.9408   32.7814 O   0  0  0  0  0  0  0  0  0  0  0  0
   46.4607   56.2184   32.2684 C   0  0  1  0  0  0  0  0  0  0  0  0
   46.1012   57.1699   31.2663 O   0  0  0  0  0  0  0  0  0  0  0  0
   45.4042   56.1780   33.3656 C   0  0  1  0  0  0  0  0  0  0  0  0
   44.1520   56.6891   32.9236 O   0  0  0  0  0  0  0  0  0  0  0  0
   45.2686   54.6701   33.7898 C   0  0  2  0  0  0  0  0  0  0  0  0
   50.1538   54.4874   26.0828 O   0  0  0  0  0  0  0  0  0  0  0  0
   49.4497   55.0407   36.9462 N   0  0  0  0  0  0  0  0  0  0  0  0
   49.3067   55.5420   35.7144 C   0  0  0  0  0  0  0  0  0  0  0  0
   48.1812   55.3873   35.0350 N   0  0  0  0  0  0  0  0  0  0  0  0
   47.1482   54.6932   35.5407 C   0  0  0  0  0  0  0  0  0  0  0  0
   47.2572   54.1301   36.8381 C   0  0  0  0  0  0  0  0  0  0  0  0
   48.4721   54.3361   37.5393 C   0  0  0  0  0  0  0  0  0  0  0  0
   48.6492   53.8220   38.8043 N   0  0  0  0  0  0  0  0  0  0  0  0
   46.0990   53.4919   37.0997 N   0  0  0  0  0  0  0  0  0  0  0  0
   45.3062   53.6114   36.0753 C   0  0  0  0  0  0  0  0  0  0  0  0
   45.8990   54.3468   35.0868 N   0  0  0  0  0  0  0  0  0  0  0  0
  2  1  1  1  0  0  0
  2  3  1  0  0  0  0
  2  5  1  0  0  0  0
  3  4  1  0  0  0  0
  3 17  1  0  0  0  0
  5  6  1  0  0  0  0
  7  6  1  6  0  0  0
  7  8  1  0  0  0  0
  7  9  1  0  0  0  0
 10  9  1  1  0  0  0
 10 11  1  0  0  0  0
 10 12  1  0  0  0  0
 11 16  1  0  0  0  0
 12 13  1  6  0  0  0
 12 14  1  0  0  0  0
 14 15  1  6  0  0  0
 14 16  1  0  0  0  0
 16 27  1  1  0  0  0
 18 19  2  0  0  0  0
 18 23  1  0  0  0  0
 19 20  1  0  0  0  0
 20 21  2  0  0  0  0
 21 22  1  0  0  0  0
 21 27  1  0  0  0  0
 22 23  2  0  0  0  0
 22 25  1  0  0  0  0
 23 24  1  0  0  0  0
 25 26  2  0  0  0  0
 26 27  1  0  0  0  0
M  END
>  <CHROM.1>
-22.60908995,57.62987841,166.55679011,-62.02806446,157.34099298,71.89106999
66.41288667,47.95767237,54.49085526,32.33549924,-1.16949454,-0.30998010,1.62729329

>  <Name>
ligand

>  <RI>
0

>  <Rbt.Current_Directory>
/home/itssahil/PROJECTS/Mol_Feturizer/New_Systems/rnas/2GIS

>  <Rbt.Executable>
rbdock ($Id: //depot/dev/client3/rdock/2013.1/src/exe/rbdock.cxx#4 $)

>  <Rbt.Library>
libRbt.so (2013.1, Build901 2013/11/27)

>  <Rbt.Parameter_File>
/export/apps/rDock/src/rDock_2013.1_src/data/scripts/dock_solv.prm

>  <Rbt.Receptor>
prm/pocket_docking_8.prm

>  <SCORE>
-12.7878

>  <SCORE.INTER>
-8.81294

>  <SCORE.INTER.CONST>
1

>  <SCORE.INTER.POLAR>
0

>  <SCORE.INTER.ROT>
7

>  <SCORE.INTER.SOLV>
17.8905

>  <SCORE.INTER.VDW>
-20.1054

>  <SCORE.INTER.norm>
-0.326405

>  <SCORE.INTRA>
-3.97489

>  <SCORE.INTRA.DIHEDRAL>
-4.34461

>  <SCORE.INTRA.DIHEDRAL.0>
9.40024

>  <SCORE.INTRA.POLAR>
0

>  <SCORE.INTRA.POLAR.0>
0

>  <SCORE.INTRA.REPUL>
0

>  <SCORE.INTRA.REPUL.0>
0

>  <SCORE.INTRA.SOLV>
-2.36922

>  <SCORE.INTRA.SOLV.lig_0>
-47.1049

>  <SCORE.INTRA.VDW>
-0.617984

>  <SCORE.INTRA.VDW.0>
-1.50278

>  <SCORE.INTRA.norm>
-0.147218

>  <SCORE.RESTR>
0

>  <SCORE.RESTR.CAVITY>
0

>  <SCORE.RESTR.norm>
0

>  <SCORE.SYSTEM>
0

>  <SCORE.SYSTEM.CONST>
0

>  <SCORE.SYSTEM.DIHEDRAL>
0

>  <SCORE.SYSTEM.SOLV>
0

>  <SCORE.SYSTEM.norm>
0

>  <SCORE.heavy>
27

>  <SCORE.norm>
-0.473624

>  <RMSD>
5.487

$$$$
ligand
 OpenBabel11021811433D
libRbt.so/2013.1/901 2013/11/27
 27 29  0  0  0  0  0  0  0  0999 V2000
   48.1402   56.3323   28.2851 N   0  0  0  0  0  0  0  0  0  0  0  0
   47.7117   57.6401   28.7911 C   0  0  2  0  0  0  0  0  0  0  0  0
   46.9408   58.3742   27.7084 C   0  0  0  0  0  0  0  0  0  0  0  0
   47.4413   58.5308   26.5982 O   0  0  0  0  0  0  0  0  0  0  0  0
   48.9263   58.4818   29.2307 C   0  0  0  0  0  0  0  0  0  0  0  0
   49.3544   58.0514   30.6329 C   0  0  0  0  0  0  0  0  0  0  0  0
   48.2238   58.5656   31.9900 S   0  0  2  0  0  0  0  0  0  0  0  0
   48.8342   60.2097   32.4761 C   0  0  0  0  0  0  0  0  0  0  0  0
   48.9673   57.5214   33.2611 C   0  0  0  0  0  0  0  0  0  0  0  0
   48.7817   56.0144   33.0132 C   0  0  1  0  0  0  0  0  0  0  0  0
   49.4154   55.2716   34.0965 O   0  0  0  0  0  0  0  0  0  0  0  0
   47.2972   55.8284   33.1951 C   0  0  1  0  0  0  0  0  0  0  0  0
   46.6465   55.8544   31.9245 O   0  0  0  0  0  0  0  0  0  0  0  0
   47.1730   54.4475   33.8273 C   0  0  1  0  0  0  0  0  0  0  0  0
   46.8970   53.4389   32.8624 O   0  0  0  0  0  0  0  0  0  0  0  0
   48.5437   54.1676   34.5448 C   0  0  2  0  0  0  0  0  0  0  0  0
   45.8413   58.8693   27.9571 O   0  0  0  0  0  0  0  0  0  0  0  0
   45.8212   53.5387   38.9917 N   0  0  0  0  0  0  0  0  0  0  0  0
   45.4235   53.2701   37.7432 C   0  0  0  0  0  0  0  0  0  0  0  0
   46.2274   53.4609   36.7090 N   0  0  0  0  0  0  0  0  0  0  0  0
   47.4635   53.9624   36.8665 C   0  0  0  0  0  0  0  0  0  0  0  0
   47.9258   54.2763   38.1703 C   0  0  0  0  0  0  0  0  0  0  0  0
   47.0405   54.0383   39.2519 C   0  0  0  0  0  0  0  0  0  0  0  0
   47.4211   54.3159   40.5457 N   0  0  0  0  0  0  0  0  0  0  0  0
   49.1784   54.7595   38.0491 N   0  0  0  0  0  0  0  0  0  0  0  0
   49.5093   54.7737   36.7911 C   0  0  0  0  0  0  0  0  0  0  0  0
   48.4924   54.2883   36.0169 N   0  0  0  0  0  0  0  0  0  0  0  0
  2  1  1  6  0  0  0
  2  3  1  0  0  0  0
  2  5  1  0  0  0  0
  3  4  1  0  0  0  0
  3 17  1  0  0  0  0
  5  6  1  0  0  0  0
  7  6  1  6  0  0  0
  7  8  1  0  0  0  0
  7  9  1  0  0  0  0
 10  9  1  1  0  0  0
 10 11  1  0  0  0  0
 10 12  1  0  0  0  0
 11 16  1  0  0  0  0
 12 13  1  6  0  0  0
 12 14  1  0  0  0  0
 14 15  1  6  0  0  0
 14 16  1  0  0  0  0
 16 27  1  1  0  0  0
 18 19  2  0  0  0  0
 18 23  1  0  0  0  0
 19 20  1  0  0  0  0
 20 21  2  0  0  0  0
 21 22  1  0  0  0  0
 21 27  1  0  0  0  0
 22 23  2  0  0  0  0
 22 25  1  0  0  0  0
 23 24  1  0  0  0  0
 25 26  2  0  0  0  0
 26 27  1  0  0  0  0
M  END
>  <CHROM.1>
-53.65726714,-81.32847220,-72.19523141,-88.75439515,-66.64855687,-179.87528872
148.58716019,47.78543095,56.04888182,33.46682590,1.51352539,-0.90099005,-1.17629193

>  <Name>
ligand

>  <RI>
0

>  <Rbt.Current_Directory>
/home/itssahil/PROJECTS/Mol_Feturizer/New_Systems/rnas/2GIS

>  <Rbt.Executable>
rbdock ($Id: //depot/dev/client3/rdock/2013.1/src/exe/rbdock.cxx#4 $)

>  <Rbt.Library>
libRbt.so (2013.1, Build901 2013/11/27)

>  <Rbt.Parameter_File>
/export/apps/rDock/src/rDock_2013.1_src/data/scripts/dock_solv.prm

>  <Rbt.Receptor>
prm/pocket_docking_6.prm

>  <SCORE>
-20.8525

>  <SCORE.INTER>
-17.3382

>  <SCORE.INTER.CONST>
1

>  <SCORE.INTER.POLAR>
0

>  <SCORE.INTER.ROT>
7

>  <SCORE.INTER.SOLV>
8.63515

>  <SCORE.INTER.VDW>
-22.7039

>  <SCORE.INTER.norm>
-0.642156

>  <SCORE.INTRA>
-3.5143

>  <SCORE.INTRA.DIHEDRAL>
-2.92398

>  <SCORE.INTRA.DIHEDRAL.0>
9.40024

>  <SCORE.INTRA.POLAR>
0

>  <SCORE.INTRA.POLAR.0>
0

>  <SCORE.INTRA.REPUL>
0

>  <SCORE.INTRA.REPUL.0>
0

>  <SCORE.INTRA.SOLV>
-1.68161

>  <SCORE.INTRA.SOLV.lig_0>
-47.1049

>  <SCORE.INTRA.VDW>
-1.21151

>  <SCORE.INTRA.VDW.0>
-1.50278

>  <SCORE.INTRA.norm>
-0.130159

>  <SCORE.RESTR>
0

>  <SCORE.RESTR.CAVITY>
0

>  <SCORE.RESTR.norm>
0

>  <SCORE.SYSTEM>
0

>  <SCORE.SYSTEM.CONST>
0

>  <SCORE.SYSTEM.DIHEDRAL>
0

>  <SCORE.SYSTEM.SOLV>
0

>  <SCORE.SYSTEM.norm>
0

>  <SCORE.heavy>
27

>  <SCORE.norm>
-0.772316

>  <RMSD>
5.498

$$$$
ligand
 OpenBabel11021811433D
libRbt.so/2013.1/901 2013/11/27
 27 29  0  0  0  0  0  0  0  0999 V2000
   45.7481   59.4658   30.5452 N   0  0  0  0  0  0  0  0  0  0  0  0
   46.8757   59.4692   31.4825 C   0  0  2  0  0  0  0  0  0  0  0  0
   47.3699   60.8919   31.6748 C   0  0  0  0  0  0  0  0  0  0  0  0
   48.3340   61.1132   32.4022 O   0  0  0  0  0  0  0  0  0  0  0  0
   48.0239   58.5825   30.9608 C   0  0  0  0  0  0  0  0  0  0  0  0
   48.4058   57.5696   32.0391 C   0  0  0  0  0  0  0  0  0  0  0  0
   48.9396   58.2958   33.6429 S   0  0  2  0  0  0  0  0  0  0  0  0
   50.4790   59.1785   33.2389 C   0  0  0  0  0  0  0  0  0  0  0  0
   49.5839   56.7605   34.3403 C   0  0  0  0  0  0  0  0  0  0  0  0
   48.4946   55.8233   34.8900 C   0  0  1  0  0  0  0  0  0  0  0  0
   47.4952   55.5944   33.8528 O   0  0  0  0  0  0  0  0  0  0  0  0
   49.2306   54.5182   35.0526 C   0  0  1  0  0  0  0  0  0  0  0  0
   49.6708   54.3755   36.4033 O   0  0  0  0  0  0  0  0  0  0  0  0
   48.1850   53.4608   34.7202 C   0  0  1  0  0  0  0  0  0  0  0  0
   47.5655   52.9337   35.8876 O   0  0  0  0  0  0  0  0  0  0  0  0
   47.1232   54.1666   33.8001 C   0  0  2  0  0  0  0  0  0  0  0  0
   46.7695   61.8327   31.1551 O   0  0  0  0  0  0  0  0  0  0  0  0
   50.1501   53.1904   29.6208 N   0  0  0  0  0  0  0  0  0  0  0  0
   50.5413   53.5349   30.8526 C   0  0  0  0  0  0  0  0  0  0  0  0
   49.6632   53.7337   31.8229 N   0  0  0  0  0  0  0  0  0  0  0  0
   48.3421   53.6297   31.6034 C   0  0  0  0  0  0  0  0  0  0  0  0
   47.8773   53.2804   30.3095 C   0  0  0  0  0  0  0  0  0  0  0  0
   48.8517   53.0569   29.3041 C   0  0  0  0  0  0  0  0  0  0  0  0
   48.4755   52.7115   28.0255 N   0  0  0  0  0  0  0  0  0  0  0  0
   46.5306   53.2482   30.3594 N   0  0  0  0  0  0  0  0  0  0  0  0
   46.1417   53.5549   31.5623 C   0  0  0  0  0  0  0  0  0  0  0  0
   47.2162   53.7948   32.3728 N   0  0  0  0  0  0  0  0  0  0  0  0
  2  1  1  6  0  0  0
  2  3  1  0  0  0  0
  2  5  1  0  0  0  0
  3  4  1  0  0  0  0
  3 17  1  0  0  0  0
  5  6  1  0  0  0  0
  7  6  1  6  0  0  0
  7  8  1  0  0  0  0
  7  9  1  0  0  0  0
 10  9  1  6  0  0  0
 10 11  1  0  0  0  0
 10 12  1  0  0  0  0
 11 16  1  0  0  0  0
 12 13  1  1  0  0  0
 12 14  1  0  0  0  0
 14 15  1  1  0  0  0
 14 16  1  0  0  0  0
 16 27  1  6  0  0  0
 18 19  2  0  0  0  0
 18 23  1  0  0  0  0
 19 20  1  0  0  0  0
 20 21  2  0  0  0  0
 21 22  1  0  0  0  0
 21 27  1  0  0  0  0
 22 23  2  0  0  0  0
 22 25  1  0  0  0  0
 23 24  1  0  0  0  0
 25 26  2  0  0  0  0
 26 27  1  0  0  0  0
M  END
>  <CHROM.1>
-178.33834215,-126.49296653,-58.53450711,-65.03127787,-78.80315441,53.23079072
71.99147190,48.26201173,56.04043709,32.42211668,2.04614685,-1.37927022,0.47596847

>  <Name>
ligand

>  <RI>
0

>  <Rbt.Current_Directory>
/home/itssahil/PROJECTS/Mol_Feturizer/New_Systems/rnas/2GIS

>  <Rbt.Executable>
rbdock ($Id: //depot/dev/client3/rdock/2013.1/src/exe/rbdock.cxx#4 $)

>  <Rbt.Library>
libRbt.so (2013.1, Build901 2013/11/27)

>  <Rbt.Parameter_File>
/export/apps/rDock/src/rDock_2013.1_src/data/scripts/dock_solv.prm

>  <Rbt.Receptor>
prm/pocket_docking_3.prm

>  <SCORE>
-22.2119

>  <SCORE.INTER>
-19.0335

>  <SCORE.INTER.CONST>
1

>  <SCORE.INTER.POLAR>
0

>  <SCORE.INTER.ROT>
7

>  <SCORE.INTER.SOLV>
13.3974

>  <SCORE.INTER.VDW>
-25.4215

>  <SCORE.INTER.norm>
-0.704945

>  <SCORE.INTRA>
-3.17839

>  <SCORE.INTRA.DIHEDRAL>
0.0413606

>  <SCORE.INTRA.DIHEDRAL.0>
9.40024

>  <SCORE.INTRA.POLAR>
0

>  <SCORE.INTRA.POLAR.0>
0

>  <SCORE.INTRA.REPUL>
0

>  <SCORE.INTRA.REPUL.0>
0

>  <SCORE.INTRA.SOLV>
-2.66617

>  <SCORE.INTRA.SOLV.lig_0>
-47.1049

>  <SCORE.INTRA.VDW>
-1.86599

>  <SCORE.INTRA.VDW.0>
-1.50278

>  <SCORE.INTRA.norm>
-0.117718

>  <SCORE.RESTR>
0

>  <SCORE.RESTR.CAVITY>
0

>  <SCORE.RESTR.norm>
0

>  <SCORE.SYSTEM>
0

>  <SCORE.SYSTEM.CONST>
0

>  <SCORE.SYSTEM.DIHEDRAL>
0

>  <SCORE.SYSTEM.SOLV>
0

>  <SCORE.SYSTEM.norm>
0

>  <SCORE.heavy>
27

>  <SCORE.norm>
-0.822663

>  <RMSD>
5.499

$$$$
ligand
 OpenBabel11021811433D
libRbt.so/2013.1/901 2013/11/27
 27 29  0  0  0  0  0  0  0  0999 V2000
   51.7584   54.7984   25.5130 N   0  0  0  0  0  0  0  0  0  0  0  0
   51.3850   55.4300   26.7824 C   0  0  2  0  0  0  0  0  0  0  0  0
   51.6628   54.4709   27.9263 C   0  0  0  0  0  0  0  0  0  0  0  0
   51.5666   54.8573   29.0877 O   0  0  0  0  0  0  0  0  0  0  0  0
   49.8944   55.8239   26.7803 C   0  0  0  0  0  0  0  0  0  0  0  0
   49.6262   56.7806   27.9411 C   0  0  0  0  0  0  0  0  0  0  0  0
   47.8565   57.1998   28.2184 S   0  0  2  0  0  0  0  0  0  0  0  0
   47.4489   58.3281   26.8499 C   0  0  0  0  0  0  0  0  0  0  0  0
   48.1476   58.3664   29.5649 C   0  0  0  0  0  0  0  0  0  0  0  0
   46.8919   59.1452   29.9936 C   0  0  1  0  0  0  0  0  0  0  0  0
   45.8682   58.1995   30.4233 O   0  0  0  0  0  0  0  0  0  0  0  0
   47.3513   59.8550   31.2412 C   0  0  1  0  0  0  0  0  0  0  0  0
   47.7523   61.1873   30.9207 O   0  0  0  0  0  0  0  0  0  0  0  0
   46.1155   59.8722   32.1324 C   0  0  1  0  0  0  0  0  0  0  0  0
   45.4015   61.0991   32.0354 O   0  0  0  0  0  0  0  0  0  0  0  0
   45.2177   58.6700   31.6623 C   0  0  2  0  0  0  0  0  0  0  0  0
   52.0461   53.3240   27.6948 O   0  0  0  0  0  0  0  0  0  0  0  0
   42.8896   54.2787   33.3586 N   0  0  0  0  0  0  0  0  0  0  0  0
   42.4635   55.1160   32.4066 C   0  0  0  0  0  0  0  0  0  0  0  0
   43.1668   56.1841   32.0647 N   0  0  0  0  0  0  0  0  0  0  0  0
   44.3203   56.4894   32.6814 C   0  0  0  0  0  0  0  0  0  0  0  0
   44.8065   55.6393   33.7078 C   0  0  0  0  0  0  0  0  0  0  0  0
   44.0328   54.4956   34.0293 C   0  0  0  0  0  0  0  0  0  0  0  0
   44.4433   53.6233   35.0124 N   0  0  0  0  0  0  0  0  0  0  0  0
   45.9626   56.1682   34.1561 N   0  0  0  0  0  0  0  0  0  0  0  0
   46.2124   57.2634   33.5001 C   0  0  0  0  0  0  0  0  0  0  0  0
   45.2362   57.5075   32.5746 N   0  0  0  0  0  0  0  0  0  0  0  0
  2  1  1  6  0  0  0
  2  3  1  0  0  0  0
  2  5  1  0  0  0  0
  3  4  1  0  0  0  0
  3 17  1  0  0  0  0
  5  6  1  0  0  0  0
  7  6  1  6  0  0  0
  7  8  1  0  0  0  0
  7  9  1  0  0  0  0
 10  9  1  1  0  0  0
 10 11  1  0  0  0  0
 10 12  1  0  0  0  0
 11 16  1  0  0  0  0
 12 13  1  6  0  0  0
 12 14  1  0  0  0  0
 14 15  1  6  0  0  0
 14 16  1  0  0  0  0
 16 27  1  1  0  0  0
 18 19  2  0  0  0  0
 18 23  1  0  0  0  0
 19 20  1  0  0  0  0
 20 21  2  0  0  0  0
 21 22  1  0  0  0  0
 21 27  1  0  0  0  0
 22 23  2  0  0  0  0
 22 25  1  0  0  0  0
 23 24  1  0  0  0  0
 25 26  2  0  0  0  0
 26 27  1  0  0  0  0
M  END
>  <CHROM.1>
171.57964728,-165.67768099,-172.96524757,-73.61831824,171.60885581,59.08564403
-86.94043397,47.13744592,56.88168660,30.48754583,-0.01165262,-0.75181715
2.95386070

>  <Name>
ligand

>  <RI>
0

>  <Rbt.Current_Directory>
/home/itssahil/PROJECTS/Mol_Feturizer/New_Systems/rnas/2GIS

>  <Rbt.Executable>
rbdock ($Id: //depot/dev/client3/rdock/2013.1/src/exe/rbdock.cxx#4 $)

>  <Rbt.Library>
libRbt.so (2013.1, Build901 2013/11/27)

>  <Rbt.Parameter_File>
/export/apps/rDock/src/rDock_2013.1_src/data/scripts/dock_solv.prm

>  <Rbt.Receptor>
prm/pocket_docking_7.prm

>  <SCORE>
-16.8972

>  <SCORE.INTER>
-12.5213

>  <SCORE.INTER.CONST>
1

>  <SCORE.INTER.POLAR>
0

>  <SCORE.INTER.ROT>
7

>  <SCORE.INTER.SOLV>
13.3257

>  <SCORE.INTER.VDW>
-21.0561

>  <SCORE.INTER.norm>
-0.463751

>  <SCORE.INTRA>
-4.37591

>  <SCORE.INTRA.DIHEDRAL>
-5.10256

>  <SCORE.INTRA.DIHEDRAL.0>
9.40024

>  <SCORE.INTRA.POLAR>
0

>  <SCORE.INTRA.POLAR.0>
0

>  <SCORE.INTRA.REPUL>
0

>  <SCORE.INTRA.REPUL.0>
0

>  <SCORE.INTRA.SOLV>
-3.11722

>  <SCORE.INTRA.SOLV.lig_0>
-47.1049

>  <SCORE.INTRA.VDW>
-0.266023

>  <SCORE.INTRA.VDW.0>
-1.50278

>  <SCORE.INTRA.norm>
-0.162071

>  <SCORE.RESTR>
0

>  <SCORE.RESTR.CAVITY>
0

>  <SCORE.RESTR.norm>
0

>  <SCORE.SYSTEM>
0

>  <SCORE.SYSTEM.CONST>
0

>  <SCORE.SYSTEM.DIHEDRAL>
0

>  <SCORE.SYSTEM.SOLV>
0

>  <SCORE.SYSTEM.norm>
0

>  <SCORE.heavy>
27

>  <SCORE.norm>
-0.625822

>  <RMSD>
5.501

$$$$
ligand
 OpenBabel11021811433D
libRbt.so/2013.1/901 2013/11/27
 27 29  0  0  0  0  0  0  0  0999 V2000
   46.5122   58.5735   32.3308 N   0  0  0  0  0  0  0  0  0  0  0  0
   47.0488   59.3331   31.1972 C   0  0  2  0  0  0  0  0  0  0  0  0
   47.3130   60.7652   31.6268 C   0  0  0  0  0  0  0  0  0  0  0  0
   46.3767   61.4922   31.9467 O   0  0  0  0  0  0  0  0  0  0  0  0
   46.0638   59.3159   30.0113 C   0  0  0  0  0  0  0  0  0  0  0  0
   46.0063   57.9053   29.4267 C   0  0  0  0  0  0  0  0  0  0  0  0
   47.5871   57.2851   28.7190 S   0  0  2  0  0  0  0  0  0  0  0  0
   47.5500   57.8500   26.9894 C   0  0  0  0  0  0  0  0  0  0  0  0
   47.0548   55.5692   28.5429 C   0  0  0  0  0  0  0  0  0  0  0  0
   48.2109   54.5545   28.5732 C   0  0  1  0  0  0  0  0  0  0  0  0
   48.9009   54.6564   29.8539 O   0  0  0  0  0  0  0  0  0  0  0  0
   47.4905   53.2309   28.5940 C   0  0  1  0  0  0  0  0  0  0  0  0
   47.4062   52.7045   27.2694 O   0  0  0  0  0  0  0  0  0  0  0  0
   48.3733   52.3437   29.4629 C   0  0  1  0  0  0  0  0  0  0  0  0
   49.2504   51.5355   28.6870 O   0  0  0  0  0  0  0  0  0  0  0  0
   49.1905   53.3128   30.3931 C   0  0  2  0  0  0  0  0  0  0  0  0
   48.4561   61.2213   31.5954 O   0  0  0  0  0  0  0  0  0  0  0  0
   45.1669   53.6414   33.7522 N   0  0  0  0  0  0  0  0  0  0  0  0
   45.1206   53.6538   32.4155 C   0  0  0  0  0  0  0  0  0  0  0  0
   46.2209   53.5433   31.6880 N   0  0  0  0  0  0  0  0  0  0  0  0
   47.4320   53.4468   32.2610 C   0  0  0  0  0  0  0  0  0  0  0  0
   47.5339   53.4435   33.6758 C   0  0  0  0  0  0  0  0  0  0  0  0
   46.3296   53.5440   34.4174 C   0  0  0  0  0  0  0  0  0  0  0  0
   46.3501   53.5441   35.7941 N   0  0  0  0  0  0  0  0  0  0  0  0
   48.8417   53.3416   33.9862 N   0  0  0  0  0  0  0  0  0  0  0  0
   49.5373   53.2923   32.8880 C   0  0  0  0  0  0  0  0  0  0  0  0
   48.7199   53.3480   31.7936 N   0  0  0  0  0  0  0  0  0  0  0  0
  2  1  1  1  0  0  0
  2  3  1  0  0  0  0
  2  5  1  0  0  0  0
  3  4  1  0  0  0  0
  3 17  1  0  0  0  0
  5  6  1  0  0  0  0
  7  6  1  1  0  0  0
  7  8  1  0  0  0  0
  7  9  1  0  0  0  0
 10  9  1  1  0  0  0
 10 11  1  0  0  0  0
 10 12  1  0  0  0  0
 11 16  1  0  0  0  0
 12 13  1  6  0  0  0
 12 14  1  0  0  0  0
 14 15  1  6  0  0  0
 14 16  1  0  0  0  0
 16 27  1  1  0  0  0
 18 19  2  0  0  0  0
 18 23  1  0  0  0  0
 19 20  1  0  0  0  0
 20 21  2  0  0  0  0
 21 22  1  0  0  0  0
 21 27  1  0  0  0  0
 22 23  2  0  0  0  0
 22 25  1  0  0  0  0
 23 24  1  0  0  0  0
 25 26  2  0  0  0  0
 26 27  1  0  0  0  0
M  END
>  <CHROM.1>
-65.36928298,-69.24206655,-62.89133020,-88.30951022,-154.04979106,60.68184549
67.56385764,47.43238301,55.57318960,30.84630597,2.07514334,1.34209744,-0.61239673

>  <Name>
ligand

>  <RI>
0

>  <Rbt.Current_Directory>
/home/itssahil/PROJECTS/Mol_Feturizer/New_Systems/rnas/2GIS

>  <Rbt.Executable>
rbdock ($Id: //depot/dev/client3/rdock/2013.1/src/exe/rbdock.cxx#4 $)

>  <Rbt.Library>
libRbt.so (2013.1, Build901 2013/11/27)

>  <Rbt.Parameter_File>
/export/apps/rDock/src/rDock_2013.1_src/data/scripts/dock_solv.prm

>  <Rbt.Receptor>
prm/pocket_docking_3.prm

>  <SCORE>
-15.3149

>  <SCORE.INTER>
-11.4966

>  <SCORE.INTER.CONST>
1

>  <SCORE.INTER.POLAR>
0

>  <SCORE.INTER.ROT>
7

>  <SCORE.INTER.SOLV>
12.7324

>  <SCORE.INTER.VDW>
-20.1752

>  <SCORE.INTER.norm>
-0.425799

>  <SCORE.INTRA>
-3.81835

>  <SCORE.INTRA.DIHEDRAL>
-2.13848

>  <SCORE.INTRA.DIHEDRAL.0>
9.40024

>  <SCORE.INTRA.POLAR>
0

>  <SCORE.INTRA.POLAR.0>
0

>  <SCORE.INTRA.REPUL>
0

>  <SCORE.INTRA.REPUL.0>
0

>  <SCORE.INTRA.SOLV>
-1.98037

>  <SCORE.INTRA.SOLV.lig_0>
-47.1049

>  <SCORE.INTRA.VDW>
-1.75893

>  <SCORE.INTRA.VDW.0>
-1.50278

>  <SCORE.INTRA.norm>
-0.14142

>  <SCORE.RESTR>
0

>  <SCORE.RESTR.CAVITY>
0

>  <SCORE.RESTR.norm>
0

>  <SCORE.SYSTEM>
0

>  <SCORE.SYSTEM.CONST>
0

>  <SCORE.SYSTEM.DIHEDRAL>
0

>  <SCORE.SYSTEM.SOLV>
0

>  <SCORE.SYSTEM.norm>
0

>  <SCORE.heavy>
27

>  <SCORE.norm>
-0.56722

>  <RMSD>
5.509

$$$$
ligand
 OpenBabel11021811433D
libRbt.so/2013.1/901 2013/11/27
 27 29  0  0  0  0  0  0  0  0999 V2000
   50.0057   55.5922   34.5656 N   0  0  0  0  0  0  0  0  0  0  0  0
   48.7193   54.9325   34.8106 C   0  0  2  0  0  0  0  0  0  0  0  0
   48.4776   54.8336   36.3063 C   0  0  0  0  0  0  0  0  0  0  0  0
   49.3852   55.0898   37.0925 O   0  0  0  0  0  0  0  0  0  0  0  0
   48.6977   53.5246   34.1829 C   0  0  0  0  0  0  0  0  0  0  0  0
   49.0347   53.6323   32.6964 C   0  0  0  0  0  0  0  0  0  0  0  0
   47.8259   54.5814   31.6854 S   0  0  2  0  0  0  0  0  0  0  0  0
   46.2063   53.9459   32.2192 C   0  0  0  0  0  0  0  0  0  0  0  0
   48.0856   53.6526   30.1594 C   0  0  0  0  0  0  0  0  0  0  0  0
   49.0697   54.3226   29.1848 C   0  0  1  0  0  0  0  0  0  0  0  0
   48.4720   55.5506   28.6732 O   0  0  0  0  0  0  0  0  0  0  0  0
   50.1931   54.7544   30.0920 C   0  0  1  0  0  0  0  0  0  0  0  0
   51.2363   53.7798   30.0685 O   0  0  0  0  0  0  0  0  0  0  0  0
   50.6766   56.0647   29.4829 C   0  0  1  0  0  0  0  0  0  0  0  0
   51.8060   55.8787   28.6377 O   0  0  0  0  0  0  0  0  0  0  0  0
   49.4637   56.6443   28.6674 C   0  0  2  0  0  0  0  0  0  0  0  0
   47.3939   54.4360   36.7345 O   0  0  0  0  0  0  0  0  0  0  0  0
   49.3588   60.1413   32.5842 N   0  0  0  0  0  0  0  0  0  0  0  0
   50.2639   59.1804   32.3685 C   0  0  0  0  0  0  0  0  0  0  0  0
   50.1762   58.3752   31.3216 N   0  0  0  0  0  0  0  0  0  0  0  0
   49.1578   58.4680   30.4506 C   0  0  0  0  0  0  0  0  0  0  0  0
   48.1650   59.4624   30.6447 C   0  0  0  0  0  0  0  0  0  0  0  0
   48.3072   60.3167   31.7673 C   0  0  0  0  0  0  0  0  0  0  0  0
   47.3841   61.3069   32.0182 N   0  0  0  0  0  0  0  0  0  0  0  0
   47.2683   59.3380   29.6459 N   0  0  0  0  0  0  0  0  0  0  0  0
   47.6254   58.3541   28.8733 C   0  0  0  0  0  0  0  0  0  0  0  0
   48.7859   57.7849   29.3185 N   0  0  0  0  0  0  0  0  0  0  0  0
  2  1  1  1  0  0  0
  2  3  1  0  0  0  0
  2  5  1  0  0  0  0
  3  4  1  0  0  0  0
  3 17  1  0  0  0  0
  5  6  1  0  0  0  0
  7  6  1  1  0  0  0
  7  8  1  0  0  0  0
  7  9  1  0  0  0  0
 10  9  1  1  0  0  0
 10 11  1  0  0  0  0
 10 12  1  0  0  0  0
 11 16  1  0  0  0  0
 12 13  1  6  0  0  0
 12 14  1  0  0  0  0
 14 15  1  6  0  0  0
 14 16  1  0  0  0  0
 16 27  1  1  0  0  0
 18 19  2  0  0  0  0
 18 23  1  0  0  0  0
 19 20  1  0  0  0  0
 20 21  2  0  0  0  0
 21 22  1  0  0  0  0
 21 27  1  0  0  0  0
 22 23  2  0  0  0  0
 22 25  1  0  0  0  0
 23 24  1  0  0  0  0
 25 26  2  0  0  0  0
 26 27  1  0  0  0  0
M  END
>  <CHROM.1>
-10.86647208,-55.15389250,-63.72763327,-45.95876208,-96.96129600,-67.75210533
120.56160371,48.89436937,56.26386805,31.67025525,1.99350618,-1.37455072,2.60269415

>  <Name>
ligand

>  <RI>
0

>  <Rbt.Current_Directory>
/home/itssahil/PROJECTS/Mol_Feturizer/New_Systems/rnas/2GIS

>  <Rbt.Executable>
rbdock ($Id: //depot/dev/client3/rdock/2013.1/src/exe/rbdock.cxx#4 $)

>  <Rbt.Library>
libRbt.so (2013.1, Build901 2013/11/27)

>  <Rbt.Parameter_File>
/export/apps/rDock/src/rDock_2013.1_src/data/scripts/dock_solv.prm

>  <Rbt.Receptor>
prm/pocket_docking_4.prm

>  <SCORE>
-12.2552

>  <SCORE.INTER>
-11.0296

>  <SCORE.INTER.CONST>
1

>  <SCORE.INTER.POLAR>
0

>  <SCORE.INTER.ROT>
7

>  <SCORE.INTER.SOLV>
20.8693

>  <SCORE.INTER.VDW>
-22.5761

>  <SCORE.INTER.norm>
-0.408503

>  <SCORE.INTRA>
-1.22709

>  <SCORE.INTRA.DIHEDRAL>
-2.40534

>  <SCORE.INTRA.DIHEDRAL.0>
9.40024

>  <SCORE.INTRA.POLAR>
0

>  <SCORE.INTRA.POLAR.0>
0

>  <SCORE.INTRA.REPUL>
0

>  <SCORE.INTRA.REPUL.0>
0

>  <SCORE.INTRA.SOLV>
-1.20248

>  <SCORE.INTRA.SOLV.lig_0>
-47.1049

>  <SCORE.INTRA.VDW>
0.576822

>  <SCORE.INTRA.VDW.0>
-1.50278

>  <SCORE.INTRA.norm>
-0.0454477

>  <SCORE.RESTR>
0.00141284

>  <SCORE.RESTR.CAVITY>
0.00141284

>  <SCORE.RESTR.norm>
5.23274e-05

>  <SCORE.SYSTEM>
0

>  <SCORE.SYSTEM.CONST>
0

>  <SCORE.SYSTEM.DIHEDRAL>
0

>  <SCORE.SYSTEM.SOLV>
0

>  <SCORE.SYSTEM.norm>
0

>  <SCORE.heavy>
27

>  <SCORE.norm>
-0.453898

>  <RMSD>
5.516

$$$$
ligand
 OpenBabel11021811433D
libRbt.so/2013.1/901 2013/11/27
 27 29  0  0  0  0  0  0  0  0999 V2000
   48.1648   54.8168   36.0928 N   0  0  0  0  0  0  0  0  0  0  0  0
   48.9763   54.6860   34.8785 C   0  0  2  0  0  0  0  0  0  0  0  0
   49.4289   56.0613   34.4213 C   0  0  0  0  0  0  0  0  0  0  0  0
   48.6523   57.0110   34.4724 O   0  0  0  0  0  0  0  0  0  0  0  0
   48.1740   53.9990   33.7554 C   0  0  0  0  0  0  0  0  0  0  0  0
   49.1278   53.5946   32.6322 C   0  0  0  0  0  0  0  0  0  0  0  0
   48.9069   54.5067   31.0499 S   0  0  2  0  0  0  0  0  0  0  0  0
   47.1710   54.1975   30.5990 C   0  0  0  0  0  0  0  0  0  0  0  0
   49.7622   53.2998   30.0153 C   0  0  0  0  0  0  0  0  0  0  0  0
   50.1047   53.8203   28.6085 C   0  0  1  0  0  0  0  0  0  0  0  0
   49.0686   54.7529   28.1801 O   0  0  0  0  0  0  0  0  0  0  0  0
   51.3370   54.6526   28.8533 C   0  0  1  0  0  0  0  0  0  0  0  0
   52.5057   53.8824   28.5710 O   0  0  0  0  0  0  0  0  0  0  0  0
   51.2076   55.8037   27.8634 C   0  0  1  0  0  0  0  0  0  0  0  0
   51.9452   55.5697   26.6694 O   0  0  0  0  0  0  0  0  0  0  0  0
   49.6734   55.9425   27.5487 C   0  0  2  0  0  0  0  0  0  0  0  0
   50.5513   56.2165   33.9396 O   0  0  0  0  0  0  0  0  0  0  0  0
   49.0912   58.9124   31.8409 N   0  0  0  0  0  0  0  0  0  0  0  0
   49.8753   57.8396   31.6877 C   0  0  0  0  0  0  0  0  0  0  0  0
   49.9385   57.1927   30.5345 N   0  0  0  0  0  0  0  0  0  0  0  0
   49.1941   57.5664   29.4807 C   0  0  0  0  0  0  0  0  0  0  0  0
   48.3361   58.6899   29.5985 C   0  0  0  0  0  0  0  0  0  0  0  0
   48.3133   59.3661   30.8445 C   0  0  0  0  0  0  0  0  0  0  0  0
   47.5073   60.4666   31.0320 N   0  0  0  0  0  0  0  0  0  0  0  0
   47.7094   58.8451   28.4152 N   0  0  0  0  0  0  0  0  0  0  0  0
   48.1046   57.9127   27.5986 C   0  0  0  0  0  0  0  0  0  0  0  0
   49.0238   57.0990   28.2004 N   0  0  0  0  0  0  0  0  0  0  0  0
  2  1  1  1  0  0  0
  2  3  1  0  0  0  0
  2  5  1  0  0  0  0
  3  4  1  0  0  0  0
  3 17  1  0  0  0  0
  5  6  1  0  0  0  0
  7  6  1  1  0  0  0
  7  8  1  0  0  0  0
  7  9  1  0  0  0  0
 10  9  1  1  0  0  0
 10 11  1  0  0  0  0
 10 12  1  0  0  0  0
 11 16  1  0  0  0  0
 12 13  1  6  0  0  0
 12 14  1  0  0  0  0
 14 15  1  6  0  0  0
 14 16  1  0  0  0  0
 16 27  1  1  0  0  0
 18 19  2  0  0  0  0
 18 23  1  0  0  0  0
 19 20  1  0  0  0  0
 20 21  2  0  0  0  0
 21 22  1  0  0  0  0
 21 27  1  0  0  0  0
 22 23  2  0  0  0  0
 22 25  1  0  0  0  0
 23 24  1  0  0  0  0
 25 26  2  0  0  0  0
 26 27  1  0  0  0  0
M  END
>  <CHROM.1>
-40.60058122,-167.23216923,-112.58013613,-57.46283168,-166.59361611,-32.71432503
71.73024699,49.33578144,56.03593806,30.67068386,-2.14679583,1.16710923,-0.97327730

>  <Name>
ligand

>  <RI>
0

>  <Rbt.Current_Directory>
/home/itssahil/PROJECTS/Mol_Feturizer/New_Systems/rnas/2GIS

>  <Rbt.Executable>
rbdock ($Id: //depot/dev/client3/rdock/2013.1/src/exe/rbdock.cxx#4 $)

>  <Rbt.Library>
libRbt.so (2013.1, Build901 2013/11/27)

>  <Rbt.Parameter_File>
/export/apps/rDock/src/rDock_2013.1_src/data/scripts/dock_solv.prm

>  <Rbt.Receptor>
prm/pocket_docking_6.prm

>  <SCORE>
-13.1173

>  <SCORE.INTER>
-9.94624

>  <SCORE.INTER.CONST>
1

>  <SCORE.INTER.POLAR>
0

>  <SCORE.INTER.ROT>
7

>  <SCORE.INTER.SOLV>
16.006

>  <SCORE.INTER.VDW>
-20.2328

>  <SCORE.INTER.norm>
-0.368379

>  <SCORE.INTRA>
-3.1711

>  <SCORE.INTRA.DIHEDRAL>
3.30556

>  <SCORE.INTRA.DIHEDRAL.0>
9.40024

>  <SCORE.INTRA.POLAR>
0

>  <SCORE.INTRA.POLAR.0>
0

>  <SCORE.INTRA.REPUL>
0

>  <SCORE.INTRA.REPUL.0>
0

>  <SCORE.INTRA.SOLV>
-2.73978

>  <SCORE.INTRA.SOLV.lig_0>
-47.1049

>  <SCORE.INTRA.VDW>
-3.45399

>  <SCORE.INTRA.VDW.0>
-1.50278

>  <SCORE.INTRA.norm>
-0.117448

>  <SCORE.RESTR>
0

>  <SCORE.RESTR.CAVITY>
0

>  <SCORE.RESTR.norm>
0

>  <SCORE.SYSTEM>
0

>  <SCORE.SYSTEM.CONST>
0

>  <SCORE.SYSTEM.DIHEDRAL>
0

>  <SCORE.SYSTEM.SOLV>
0

>  <SCORE.SYSTEM.norm>
0

>  <SCORE.heavy>
27

>  <SCORE.norm>
-0.485828

>  <RMSD>
5.522

$$$$
ligand
 OpenBabel11021811433D
libRbt.so/2013.1/901 2013/11/27
 27 29  0  0  0  0  0  0  0  0999 V2000
   47.1219   60.4134   31.8057 N   0  0  0  0  0  0  0  0  0  0  0  0
   47.2962   58.9577   31.7840 C   0  0  2  0  0  0  0  0  0  0  0  0
   47.8073   58.4887   33.1346 C   0  0  0  0  0  0  0  0  0  0  0  0
   47.1828   57.6410   33.7661 O   0  0  0  0  0  0  0  0  0  0  0  0
   48.2850   58.5411   30.6770 C   0  0  0  0  0  0  0  0  0  0  0  0
   47.7032   58.9191   29.3157 C   0  0  0  0  0  0  0  0  0  0  0  0
   48.4578   58.0599   27.8747 S   0  0  2  0  0  0  0  0  0  0  0  0
   47.2649   58.3252   26.5262 C   0  0  0  0  0  0  0  0  0  0  0  0
   48.0275   56.3887   28.4047 C   0  0  0  0  0  0  0  0  0  0  0  0
   49.2468   55.4942   28.6880 C   0  0  1  0  0  0  0  0  0  0  0  0
   49.5295   55.5129   30.1186 O   0  0  0  0  0  0  0  0  0  0  0  0
   48.7230   54.1136   28.3864 C   0  0  1  0  0  0  0  0  0  0  0  0
   49.0825   53.7391   27.0563 O   0  0  0  0  0  0  0  0  0  0  0  0
   49.4300   53.2211   29.3989 C   0  0  1  0  0  0  0  0  0  0  0  0
   50.5849   52.5974   28.8496 O   0  0  0  0  0  0  0  0  0  0  0  0
   49.8228   54.1501   30.6050 C   0  0  2  0  0  0  0  0  0  0  0  0
   48.8119   59.0005   33.6294 O   0  0  0  0  0  0  0  0  0  0  0  0
   48.7344   55.5405   35.5511 N   0  0  0  0  0  0  0  0  0  0  0  0
   49.7065   56.0126   34.7629 C   0  0  0  0  0  0  0  0  0  0  0  0
   49.8547   55.5817   33.5201 N   0  0  0  0  0  0  0  0  0  0  0  0
   49.0564   54.6297   33.0095 C   0  0  0  0  0  0  0  0  0  0  0  0
   48.0195   54.0876   33.8116 C   0  0  0  0  0  0  0  0  0  0  0  0
   47.8829   54.5910   35.1300 C   0  0  0  0  0  0  0  0  0  0  0  0
   46.8976   54.1147   35.9654 N   0  0  0  0  0  0  0  0  0  0  0  0
   47.3783   53.1617   33.0709 N   0  0  0  0  0  0  0  0  0  0  0  0
   47.9397   53.0902   31.8995 C   0  0  0  0  0  0  0  0  0  0  0  0
   48.9762   53.9765   31.8039 N   0  0  0  0  0  0  0  0  0  0  0  0
  2  1  1  1  0  0  0
  2  3  1  0  0  0  0
  2  5  1  0  0  0  0
  3  4  1  0  0  0  0
  3 17  1  0  0  0  0
  5  6  1  0  0  0  0
  7  6  1  1  0  0  0
  7  8  1  0  0  0  0
  7  9  1  0  0  0  0
 10  9  1  1  0  0  0
 10 11  1  0  0  0  0
 10 12  1  0  0  0  0
 11 16  1  0  0  0  0
 12 13  1  6  0  0  0
 12 14  1  0  0  0  0
 14 15  1  6  0  0  0
 14 16  1  0  0  0  0
 16 27  1  1  0  0  0
 18 19  2  0  0  0  0
 18 23  1  0  0  0  0
 19 20  1  0  0  0  0
 20 21  2  0  0  0  0
 21 22  1  0  0  0  0
 21 27  1  0  0  0  0
 22 23  2  0  0  0  0
 22 25  1  0  0  0  0
 23 24  1  0  0  0  0
 25 26  2  0  0  0  0
 26 27  1  0  0  0  0
M  END
>  <CHROM.1>
123.50268888,-63.46540778,-161.81259889,163.69149622,-116.79695539,96.51558943
-66.48566318,48.48211424,55.99937769,31.18466445,1.34540347,1.32319419,-1.19027241

>  <Name>
ligand

>  <RI>
0

>  <Rbt.Current_Directory>
/home/itssahil/PROJECTS/Mol_Feturizer/New_Systems/rnas/2GIS

>  <Rbt.Executable>
rbdock ($Id: //depot/dev/client3/rdock/2013.1/src/exe/rbdock.cxx#4 $)

>  <Rbt.Library>
libRbt.so (2013.1, Build901 2013/11/27)

>  <Rbt.Parameter_File>
/export/apps/rDock/src/rDock_2013.1_src/data/scripts/dock_solv.prm

>  <Rbt.Receptor>
prm/pocket_docking_2.prm

>  <SCORE>
-10.0686

>  <SCORE.INTER>
-8.21546

>  <SCORE.INTER.CONST>
1

>  <SCORE.INTER.POLAR>
0

>  <SCORE.INTER.ROT>
7

>  <SCORE.INTER.SOLV>
12.7938

>  <SCORE.INTER.VDW>
-18.0082

>  <SCORE.INTER.norm>
-0.304276

>  <SCORE.INTRA>
-1.99337

>  <SCORE.INTRA.DIHEDRAL>
2.7337

>  <SCORE.INTRA.DIHEDRAL.0>
9.40024

>  <SCORE.INTRA.POLAR>
0

>  <SCORE.INTRA.POLAR.0>
0

>  <SCORE.INTRA.REPUL>
0

>  <SCORE.INTRA.REPUL.0>
0

>  <SCORE.INTRA.SOLV>
-2.36427

>  <SCORE.INTRA.SOLV.lig_0>
-47.1049

>  <SCORE.INTRA.VDW>
-2.17808

>  <SCORE.INTRA.VDW.0>
-1.50278

>  <SCORE.INTRA.norm>
-0.0738284

>  <SCORE.RESTR>
0.140174

>  <SCORE.RESTR.CAVITY>
0.140174

>  <SCORE.RESTR.norm>
0.00519163

>  <SCORE.SYSTEM>
0

>  <SCORE.SYSTEM.CONST>
0

>  <SCORE.SYSTEM.DIHEDRAL>
0

>  <SCORE.SYSTEM.SOLV>
0

>  <SCORE.SYSTEM.norm>
0

>  <SCORE.heavy>
27

>  <SCORE.norm>
-0.372913

>  <RMSD>
5.530

$$$$
ligand
 OpenBabel11021811433D
libRbt.so/2013.1/901 2013/11/27
 27 29  0  0  0  0  0  0  0  0999 V2000
   47.2541   56.3680   28.8162 N   0  0  0  0  0  0  0  0  0  0  0  0
   46.5291   57.4592   28.1577 C   0  0  2  0  0  0  0  0  0  0  0  0
   47.4153   58.0890   27.0978 C   0  0  0  0  0  0  0  0  0  0  0  0
   46.9998   59.0342   26.4335 O   0  0  0  0  0  0  0  0  0  0  0  0
   46.0991   58.5276   29.1826 C   0  0  0  0  0  0  0  0  0  0  0  0
   47.3401   59.0816   29.8810 C   0  0  0  0  0  0  0  0  0  0  0  0
   47.1992   59.2575   31.7068 S   0  0  2  0  0  0  0  0  0  0  0  0
   48.5904   60.3414   32.1561 C   0  0  0  0  0  0  0  0  0  0  0  0
   47.8738   57.6313   32.1058 C   0  0  0  0  0  0  0  0  0  0  0  0
   47.6101   57.1887   33.5555 C   0  0  1  0  0  0  0  0  0  0  0  0
   46.1843   56.9327   33.7238 O   0  0  0  0  0  0  0  0  0  0  0  0
   48.2840   55.8421   33.6193 C   0  0  1  0  0  0  0  0  0  0  0  0
   49.5926   55.9811   34.1733 O   0  0  0  0  0  0  0  0  0  0  0  0
   47.3958   55.0287   34.5526 C   0  0  1  0  0  0  0  0  0  0  0  0
   47.8848   55.0234   35.8888 O   0  0  0  0  0  0  0  0  0  0  0  0
   45.9696   55.6874   34.4872 C   0  0  2  0  0  0  0  0  0  0  0  0
   48.5261   57.6158   26.8570 O   0  0  0  0  0  0  0  0  0  0  0  0
   42.4087   51.8304   34.3286 N   0  0  0  0  0  0  0  0  0  0  0  0
   43.1496   52.2183   35.3725 C   0  0  0  0  0  0  0  0  0  0  0  0
   44.0015   53.2267   35.2746 N   0  0  0  0  0  0  0  0  0  0  0  0
   44.1813   53.8810   34.1154 C   0  0  0  0  0  0  0  0  0  0  0  0
   43.4286   53.4971   32.9759 C   0  0  0  0  0  0  0  0  0  0  0  0
   42.5131   52.4253   33.1290 C   0  0  0  0  0  0  0  0  0  0  0  0
   41.7460   51.9994   32.0679 N   0  0  0  0  0  0  0  0  0  0  0  0
   43.7981   54.3005   31.9585 N   0  0  0  0  0  0  0  0  0  0  0  0
   44.7108   55.1269   32.3785 C   0  0  0  0  0  0  0  0  0  0  0  0
   44.9824   54.9173   33.7019 N   0  0  0  0  0  0  0  0  0  0  0  0
  2  1  1  1  0  0  0
  2  3  1  0  0  0  0
  2  5  1  0  0  0  0
  3  4  1  0  0  0  0
  3 17  1  0  0  0  0
  5  6  1  0  0  0  0
  7  6  1  6  0  0  0
  7  8  1  0  0  0  0
  7  9  1  0  0  0  0
 10  9  1  6  0  0  0
 10 11  1  0  0  0  0
 10 12  1  0  0  0  0
 11 16  1  0  0  0  0
 12 13  1  1  0  0  0
 12 14  1  0  0  0  0
 14 15  1  1  0  0  0
 14 16  1  0  0  0  0
 16 27  1  6  0  0  0
 18 19  2  0  0  0  0
 18 23  1  0  0  0  0
 19 20  1  0  0  0  0
 20 21  2  0  0  0  0
 21 22  1  0  0  0  0
 21 27  1  0  0  0  0
 22 23  2  0  0  0  0
 22 25  1  0  0  0  0
 23 24  1  0  0  0  0
 25 26  2  0  0  0  0
 26 27  1  0  0  0  0
M  END
>  <CHROM.1>
-179.38295745,59.07583037,-135.30527436,-164.58512947,-164.90178889,68.74114625
-160.94889401,46.13701868,56.11271162,32.07759630,0.92336231,-0.72679809
-1.22835255

>  <Name>
ligand

>  <RI>
0

>  <Rbt.Current_Directory>
/home/itssahil/PROJECTS/Mol_Feturizer/New_Systems/rnas/2GIS

>  <Rbt.Executable>
rbdock ($Id: //depot/dev/client3/rdock/2013.1/src/exe/rbdock.cxx#4 $)

>  <Rbt.Library>
libRbt.so (2013.1, Build901 2013/11/27)

>  <Rbt.Parameter_File>
/export/apps/rDock/src/rDock_2013.1_src/data/scripts/dock_solv.prm

>  <Rbt.Receptor>
prm/pocket_docking_7.prm

>  <SCORE>
-13.6383

>  <SCORE.INTER>
-13.3755

>  <SCORE.INTER.CONST>
1

>  <SCORE.INTER.POLAR>
0

>  <SCORE.INTER.ROT>
7

>  <SCORE.INTER.SOLV>
7.6616

>  <SCORE.INTER.VDW>
-19.7375

>  <SCORE.INTER.norm>
-0.49539

>  <SCORE.INTRA>
-0.26279

>  <SCORE.INTRA.DIHEDRAL>
1.55185

>  <SCORE.INTRA.DIHEDRAL.0>
9.40024

>  <SCORE.INTRA.POLAR>
0

>  <SCORE.INTRA.POLAR.0>
0

>  <SCORE.INTRA.REPUL>
0

>  <SCORE.INTRA.REPUL.0>
0

>  <SCORE.INTRA.SOLV>
-1.28514

>  <SCORE.INTRA.SOLV.lig_0>
-47.1049

>  <SCORE.INTRA.VDW>
-0.396145

>  <SCORE.INTRA.VDW.0>
-1.50278

>  <SCORE.INTRA.norm>
-0.00973298

>  <SCORE.RESTR>
0

>  <SCORE.RESTR.CAVITY>
0

>  <SCORE.RESTR.norm>
0

>  <SCORE.SYSTEM>
0

>  <SCORE.SYSTEM.CONST>
0

>  <SCORE.SYSTEM.DIHEDRAL>
0

>  <SCORE.SYSTEM.SOLV>
0

>  <SCORE.SYSTEM.norm>
0

>  <SCORE.heavy>
27

>  <SCORE.norm>
-0.505123

>  <RMSD>
5.532

$$$$
ligand
 OpenBabel11021811433D
libRbt.so/2013.1/901 2013/11/27
 27 29  0  0  0  0  0  0  0  0999 V2000
   48.2978   60.8941   32.0257 N   0  0  0  0  0  0  0  0  0  0  0  0
   48.3120   59.6176   32.7470 C   0  0  2  0  0  0  0  0  0  0  0  0
   49.7233   59.3193   33.2209 C   0  0  0  0  0  0  0  0  0  0  0  0
   49.9275   59.0321   34.3970 O   0  0  0  0  0  0  0  0  0  0  0  0
   47.8104   58.4730   31.8441 C   0  0  0  0  0  0  0  0  0  0  0  0
   47.4763   57.2596   32.7105 C   0  0  0  0  0  0  0  0  0  0  0  0
   48.9289   56.3325   33.3545 S   0  0  2  0  0  0  0  0  0  0  0  0
   49.9118   55.9612   31.8686 C   0  0  0  0  0  0  0  0  0  0  0  0
   48.0601   54.7700   33.6043 C   0  0  0  0  0  0  0  0  0  0  0  0
   47.1584   54.7535   34.8509 C   0  0  1  0  0  0  0  0  0  0  0  0
   45.8869   55.3904   34.5277 O   0  0  0  0  0  0  0  0  0  0  0  0
   46.8564   53.2871   35.0228 C   0  0  1  0  0  0  0  0  0  0  0  0
   47.7499   52.7175   35.9798 O   0  0  0  0  0  0  0  0  0  0  0  0
   45.4273   53.2640   35.5511 C   0  0  1  0  0  0  0  0  0  0  0  0
   45.3814   53.1521   36.9688 O   0  0  0  0  0  0  0  0  0  0  0  0
   44.7626   54.6086   35.0796 C   0  0  2  0  0  0  0  0  0  0  0  0
   50.6735   59.4260   32.4453 O   0  0  0  0  0  0  0  0  0  0  0  0
   42.8798   56.4300   30.5277 N   0  0  0  0  0  0  0  0  0  0  0  0
   43.8525   56.9557   31.2804 C   0  0  0  0  0  0  0  0  0  0  0  0
   44.2421   56.3756   32.4047 N   0  0  0  0  0  0  0  0  0  0  0  0
   43.6554   55.2536   32.8531 C   0  0  0  0  0  0  0  0  0  0  0  0
   42.6090   54.6657   32.0968 C   0  0  0  0  0  0  0  0  0  0  0  0
   42.2360   55.3080   30.8891 C   0  0  0  0  0  0  0  0  0  0  0  0
   41.2309   54.7936   30.1011 N   0  0  0  0  0  0  0  0  0  0  0  0
   42.1982   53.5674   32.7617 N   0  0  0  0  0  0  0  0  0  0  0  0
   42.8951   53.4450   33.8533 C   0  0  0  0  0  0  0  0  0  0  0  0
   43.8119   54.4537   33.9588 N   0  0  0  0  0  0  0  0  0  0  0  0
  2  1  1  6  0  0  0
  2  3  1  0  0  0  0
  2  5  1  0  0  0  0
  3  4  1  0  0  0  0
  3 17  1  0  0  0  0
  5  6  1  0  0  0  0
  7  6  1  6  0  0  0
  7  8  1  0  0  0  0
  7  9  1  0  0  0  0
 10  9  1  6  0  0  0
 10 11  1  0  0  0  0
 10 12  1  0  0  0  0
 11 16  1  0  0  0  0
 12 13  1  1  0  0  0
 12 14  1  0  0  0  0
 14 15  1  1  0  0  0
 14 16  1  0  0  0  0
 16 27  1  6  0  0  0
 18 19  2  0  0  0  0
 18 23  1  0  0  0  0
 19 20  1  0  0  0  0
 20 21  2  0  0  0  0
 21 22  1  0  0  0  0
 21 27  1  0  0  0  0
 22 23  2  0  0  0  0
 22 25  1  0  0  0  0
 23 24  1  0  0  0  0
 25 26  2  0  0  0  0
 26 27  1  0  0  0  0
M  END
>  <CHROM.1>
128.63118571,-164.67102070,-74.53499800,-53.43464876,-76.27613978,81.96802797
-24.78412526,46.24355799,55.94119350,33.27212599,0.44742201,-0.40923596,-0.70102760

>  <Name>
ligand

>  <RI>
0

>  <Rbt.Current_Directory>
/home/itssahil/PROJECTS/Mol_Feturizer/New_Systems/rnas/2GIS

>  <Rbt.Executable>
rbdock ($Id: //depot/dev/client3/rdock/2013.1/src/exe/rbdock.cxx#4 $)

>  <Rbt.Library>
libRbt.so (2013.1, Build901 2013/11/27)

>  <Rbt.Parameter_File>
/export/apps/rDock/src/rDock_2013.1_src/data/scripts/dock_solv.prm

>  <Rbt.Receptor>
prm/pocket_docking_8.prm

>  <SCORE>
-17.5035

>  <SCORE.INTER>
-13.2223

>  <SCORE.INTER.CONST>
1

>  <SCORE.INTER.POLAR>
0

>  <SCORE.INTER.ROT>
7

>  <SCORE.INTER.SOLV>
14.8071

>  <SCORE.INTER.VDW>
-22.0172

>  <SCORE.INTER.norm>
-0.489714

>  <SCORE.INTRA>
-4.28121

>  <SCORE.INTRA.DIHEDRAL>
-2.11312

>  <SCORE.INTRA.DIHEDRAL.0>
9.40024

>  <SCORE.INTRA.POLAR>
0

>  <SCORE.INTRA.POLAR.0>
0

>  <SCORE.INTRA.REPUL>
0

>  <SCORE.INTRA.REPUL.0>
0

>  <SCORE.INTRA.SOLV>
-2.91894

>  <SCORE.INTRA.SOLV.lig_0>
-47.1049

>  <SCORE.INTRA.VDW>
-1.76517

>  <SCORE.INTRA.VDW.0>
-1.50278

>  <SCORE.INTRA.norm>
-0.158563

>  <SCORE.RESTR>
0

>  <SCORE.RESTR.CAVITY>
0

>  <SCORE.RESTR.norm>
0

>  <SCORE.SYSTEM>
0

>  <SCORE.SYSTEM.CONST>
0

>  <SCORE.SYSTEM.DIHEDRAL>
0

>  <SCORE.SYSTEM.SOLV>
0

>  <SCORE.SYSTEM.norm>
0

>  <SCORE.heavy>
27

>  <SCORE.norm>
-0.648277

>  <RMSD>
5.575

$$$$
ligand
 OpenBabel11021811433D
libRbt.so/2013.1/901 2013/11/27
 27 29  0  0  0  0  0  0  0  0999 V2000
   45.9829   59.6079   30.8465 N   0  0  0  0  0  0  0  0  0  0  0  0
   46.4571   58.2207   30.8179 C   0  0  2  0  0  0  0  0  0  0  0  0
   45.4559   57.3284   31.5297 C   0  0  0  0  0  0  0  0  0  0  0  0
   45.3800   56.1380   31.2388 O   0  0  0  0  0  0  0  0  0  0  0  0
   47.8379   58.1002   31.4929 C   0  0  0  0  0  0  0  0  0  0  0  0
   47.7146   58.4978   32.9631 C   0  0  0  0  0  0  0  0  0  0  0  0
   49.2991   58.5518   33.8961 S   0  0  2  0  0  0  0  0  0  0  0  0
   50.4583   59.3662   32.7537 C   0  0  0  0  0  0  0  0  0  0  0  0
   49.7220   56.8140   33.6509 C   0  0  0  0  0  0  0  0  0  0  0  0
   48.6971   55.8353   34.2499 C   0  0  1  0  0  0  0  0  0  0  0  0
   47.6989   55.5117   33.2371 O   0  0  0  0  0  0  0  0  0  0  0  0
   49.5105   54.5819   34.4466 C   0  0  1  0  0  0  0  0  0  0  0  0
   49.9766   54.5135   35.7944 O   0  0  0  0  0  0  0  0  0  0  0  0
   48.5243   53.4543   34.1678 C   0  0  1  0  0  0  0  0  0  0  0  0
   47.9526   52.9343   35.3625 O   0  0  0  0  0  0  0  0  0  0  0  0
   47.4106   54.0637   33.2402 C   0  0  2  0  0  0  0  0  0  0  0  0
   44.6751   57.8060   32.3531 O   0  0  0  0  0  0  0  0  0  0  0  0
   50.4353   53.0881   29.0592 N   0  0  0  0  0  0  0  0  0  0  0  0
   50.8229   53.4940   30.2734 C   0  0  0  0  0  0  0  0  0  0  0  0
   49.9468   53.6842   31.2473 N   0  0  0  0  0  0  0  0  0  0  0  0
   48.6299   53.5094   31.0482 C   0  0  0  0  0  0  0  0  0  0  0  0
   48.1685   53.0931   29.7731 C   0  0  0  0  0  0  0  0  0  0  0  0
   49.1415   52.8815   28.7637 C   0  0  0  0  0  0  0  0  0  0  0  0
   48.7686   52.4739   27.5026 N   0  0  0  0  0  0  0  0  0  0  0  0
   46.8256   52.9980   29.8410 N   0  0  0  0  0  0  0  0  0  0  0  0
   46.4354   53.3276   31.0374 C   0  0  0  0  0  0  0  0  0  0  0  0
   47.5059   53.6471   31.8255 N   0  0  0  0  0  0  0  0  0  0  0  0
  2  1  1  1  0  0  0
  2  3  1  0  0  0  0
  2  5  1  0  0  0  0
  3  4  1  0  0  0  0
  3 17  1  0  0  0  0
  5  6  1  0  0  0  0
  7  6  1  6  0  0  0
  7  8  1  0  0  0  0
  7  9  1  0  0  0  0
 10  9  1  6  0  0  0
 10 11  1  0  0  0  0
 10 12  1  0  0  0  0
 11 16  1  0  0  0  0
 12 13  1  1  0  0  0
 12 14  1  0  0  0  0
 14 15  1  1  0  0  0
 14 16  1  0  0  0  0
 16 27  1  6  0  0  0
 18 19  2  0  0  0  0
 18 23  1  0  0  0  0
 19 20  1  0  0  0  0
 20 21  2  0  0  0  0
 21 22  1  0  0  0  0
 21 27  1  0  0  0  0
 22 23  2  0  0  0  0
 22 25  1  0  0  0  0
 23 24  1  0  0  0  0
 25 26  2  0  0  0  0
 26 27  1  0  0  0  0
M  END
>  <CHROM.1>
154.19932299,62.49162051,-175.01325774,42.91138078,-61.28384885,91.04725301
72.59889271,48.16292331,55.52132383,32.10503373,1.82708770,-0.97305090,0.71899160

>  <Name>
ligand

>  <RI>
0

>  <Rbt.Current_Directory>
/home/itssahil/PROJECTS/Mol_Feturizer/New_Systems/rnas/2GIS

>  <Rbt.Executable>
rbdock ($Id: //depot/dev/client3/rdock/2013.1/src/exe/rbdock.cxx#4 $)

>  <Rbt.Library>
libRbt.so (2013.1, Build901 2013/11/27)

>  <Rbt.Parameter_File>
/export/apps/rDock/src/rDock_2013.1_src/data/scripts/dock_solv.prm

>  <Rbt.Receptor>
prm/pocket_docking_3.prm

>  <SCORE>
-17.9679

>  <SCORE.INTER>
-14.318

>  <SCORE.INTER.CONST>
1

>  <SCORE.INTER.POLAR>
0

>  <SCORE.INTER.ROT>
7

>  <SCORE.INTER.SOLV>
12.8409

>  <SCORE.INTER.VDW>
-22.0923

>  <SCORE.INTER.norm>
-0.530297

>  <SCORE.INTRA>
-3.73024

>  <SCORE.INTRA.DIHEDRAL>
-2.97866

>  <SCORE.INTRA.DIHEDRAL.0>
9.40024

>  <SCORE.INTRA.POLAR>
0

>  <SCORE.INTRA.POLAR.0>
0

>  <SCORE.INTRA.REPUL>
0

>  <SCORE.INTRA.REPUL.0>
0

>  <SCORE.INTRA.SOLV>
-2.12279

>  <SCORE.INTRA.SOLV.lig_0>
-47.1049

>  <SCORE.INTRA.VDW>
-1.17951

>  <SCORE.INTRA.VDW.0>
-1.50278

>  <SCORE.INTRA.norm>
-0.138157

>  <SCORE.RESTR>
0.0803401

>  <SCORE.RESTR.CAVITY>
0.0803401

>  <SCORE.RESTR.norm>
0.00297556

>  <SCORE.SYSTEM>
0

>  <SCORE.SYSTEM.CONST>
0

>  <SCORE.SYSTEM.DIHEDRAL>
0

>  <SCORE.SYSTEM.SOLV>
0

>  <SCORE.SYSTEM.norm>
0

>  <SCORE.heavy>
27

>  <SCORE.norm>
-0.665479

>  <RMSD>
5.585

$$$$
ligand
 OpenBabel11021811433D
libRbt.so/2013.1/901 2013/11/27
 27 29  0  0  0  0  0  0  0  0999 V2000
   47.8353   59.0288   32.3588 N   0  0  0  0  0  0  0  0  0  0  0  0
   46.5692   59.1967   31.6386 C   0  0  2  0  0  0  0  0  0  0  0  0
   46.4019   60.6524   31.2410 C   0  0  0  0  0  0  0  0  0  0  0  0
   46.9291   61.5358   31.9113 O   0  0  0  0  0  0  0  0  0  0  0  0
   45.3792   58.7530   32.5127 C   0  0  0  0  0  0  0  0  0  0  0  0
   45.4397   57.2393   32.7124 C   0  0  0  0  0  0  0  0  0  0  0  0
   44.9717   56.2355   31.2435 S   0  0  2  0  0  0  0  0  0  0  0  0
   43.2475   55.7522   31.5684 C   0  0  0  0  0  0  0  0  0  0  0  0
   45.8580   54.7445   31.7435 C   0  0  0  0  0  0  0  0  0  0  0  0
   47.3705   54.7992   31.4668 C   0  0  1  0  0  0  0  0  0  0  0  0
   48.0145   55.6062   32.4968 O   0  0  0  0  0  0  0  0  0  0  0  0
   47.8059   53.3787   31.7196 C   0  0  1  0  0  0  0  0  0  0  0  0
   47.8680   52.6642   30.4850 O   0  0  0  0  0  0  0  0  0  0  0  0
   49.1984   53.5211   32.3215 C   0  0  1  0  0  0  0  0  0  0  0  0
   50.2227   53.3645   31.3464 O   0  0  0  0  0  0  0  0  0  0  0  0
   49.2565   54.9565   32.9606 C   0  0  2  0  0  0  0  0  0  0  0  0
   45.6871   60.9563   30.2857 O   0  0  0  0  0  0  0  0  0  0  0  0
   47.4331   52.7226   37.3499 N   0  0  0  0  0  0  0  0  0  0  0  0
   47.2342   52.3287   36.0872 C   0  0  0  0  0  0  0  0  0  0  0  0
   47.7744   52.9810   35.0700 N   0  0  0  0  0  0  0  0  0  0  0  0
   48.5174   54.0837   35.2608 C   0  0  0  0  0  0  0  0  0  0  0  0
   48.7451   54.5490   36.5814 C   0  0  0  0  0  0  0  0  0  0  0  0
   48.1648   53.8100   37.6432 C   0  0  0  0  0  0  0  0  0  0  0  0
   48.3452   54.1997   38.9514 N   0  0  0  0  0  0  0  0  0  0  0  0
   49.5073   55.6573   36.4931 N   0  0  0  0  0  0  0  0  0  0  0  0
   49.7519   55.9071   35.2401 C   0  0  0  0  0  0  0  0  0  0  0  0
   49.1708   54.9665   34.4359 N   0  0  0  0  0  0  0  0  0  0  0  0
  2  1  1  1  0  0  0
  2  3  1  0  0  0  0
  2  5  1  0  0  0  0
  3  4  1  0  0  0  0
  3 17  1  0  0  0  0
  5  6  1  0  0  0  0
  7  6  1  1  0  0  0
  7  8  1  0  0  0  0
  7  9  1  0  0  0  0
 10  9  1  1  0  0  0
 10 11  1  0  0  0  0
 10 12  1  0  0  0  0
 11 16  1  0  0  0  0
 12 13  1  6  0  0  0
 12 14  1  0  0  0  0
 14 15  1  6  0  0  0
 14 16  1  0  0  0  0
 16 27  1  1  0  0  0
 18 19  2  0  0  0  0
 18 23  1  0  0  0  0
 19 20  1  0  0  0  0
 20 21  2  0  0  0  0
 21 22  1  0  0  0  0
 21 27  1  0  0  0  0
 22 23  2  0  0  0  0
 22 25  1  0  0  0  0
 23 24  1  0  0  0  0
 25 26  2  0  0  0  0
 26 27  1  0  0  0  0
M  END
>  <CHROM.1>
-27.68708003,-68.15375206,-73.73596615,-99.52454448,-79.35704198,78.22961840
83.01980860,47.35863701,55.76407758,33.24723968,-2.83675368,1.20248013,-2.58718837

>  <Name>
ligand

>  <RI>
0

>  <Rbt.Current_Directory>
/home/itssahil/PROJECTS/Mol_Feturizer/New_Systems/rnas/2GIS

>  <Rbt.Executable>
rbdock ($Id: //depot/dev/client3/rdock/2013.1/src/exe/rbdock.cxx#4 $)

>  <Rbt.Library>
libRbt.so (2013.1, Build901 2013/11/27)

>  <Rbt.Parameter_File>
/export/apps/rDock/src/rDock_2013.1_src/data/scripts/dock_solv.prm

>  <Rbt.Receptor>
prm/pocket_docking_7.prm

>  <SCORE>
-19.7567

>  <SCORE.INTER>
-16.3967

>  <SCORE.INTER.CONST>
1

>  <SCORE.INTER.POLAR>
0

>  <SCORE.INTER.ROT>
7

>  <SCORE.INTER.SOLV>
14.2725

>  <SCORE.INTER.VDW>
-23.9553

>  <SCORE.INTER.norm>
-0.607286

>  <SCORE.INTRA>
-3.35998

>  <SCORE.INTRA.DIHEDRAL>
-1.56373

>  <SCORE.INTRA.DIHEDRAL.0>
9.40024

>  <SCORE.INTRA.POLAR>
0

>  <SCORE.INTRA.POLAR.0>
0

>  <SCORE.INTRA.REPUL>
0

>  <SCORE.INTRA.REPUL.0>
0

>  <SCORE.INTRA.SOLV>
-1.00079

>  <SCORE.INTRA.SOLV.lig_0>
-47.1049

>  <SCORE.INTRA.VDW>
-2.07772

>  <SCORE.INTRA.VDW.0>
-1.50278

>  <SCORE.INTRA.norm>
-0.124444

>  <SCORE.RESTR>
0

>  <SCORE.RESTR.CAVITY>
0

>  <SCORE.RESTR.norm>
0

>  <SCORE.SYSTEM>
0

>  <SCORE.SYSTEM.CONST>
0

>  <SCORE.SYSTEM.DIHEDRAL>
0

>  <SCORE.SYSTEM.SOLV>
0

>  <SCORE.SYSTEM.norm>
0

>  <SCORE.heavy>
27

>  <SCORE.norm>
-0.731729

>  <RMSD>
5.615

$$$$
ligand
 OpenBabel11021811433D
libRbt.so/2013.1/901 2013/11/27
 27 29  0  0  0  0  0  0  0  0999 V2000
   44.6669   57.6477   28.0300 N   0  0  0  0  0  0  0  0  0  0  0  0
   45.7930   58.4682   28.4868 C   0  0  2  0  0  0  0  0  0  0  0  0
   47.0436   58.0866   27.7150 C   0  0  0  0  0  0  0  0  0  0  0  0
   47.9440   58.9071   27.5617 O   0  0  0  0  0  0  0  0  0  0  0  0
   46.0321   58.2772   29.9978 C   0  0  0  0  0  0  0  0  0  0  0  0
   47.1147   59.2505   30.4619 C   0  0  0  0  0  0  0  0  0  0  0  0
   47.4519   59.2436   32.2704 S   0  0  2  0  0  0  0  0  0  0  0  0
   49.0180   60.1563   32.4324 C   0  0  0  0  0  0  0  0  0  0  0  0
   48.0280   57.5346   32.3486 C   0  0  0  0  0  0  0  0  0  0  0  0
   47.9509   56.9174   33.7558 C   0  0  1  0  0  0  0  0  0  0  0  0
   46.5650   56.5705   34.0487 O   0  0  0  0  0  0  0  0  0  0  0  0
   48.6790   55.6090   33.5848 C   0  0  1  0  0  0  0  0  0  0  0  0
   50.0365   55.7519   34.0038 O   0  0  0  0  0  0  0  0  0  0  0  0
   47.9367   54.6501   34.5074 C   0  0  1  0  0  0  0  0  0  0  0  0
   48.5766   54.5187   35.7714 O   0  0  0  0  0  0  0  0  0  0  0  0
   46.4881   55.2372   34.6780 C   0  0  2  0  0  0  0  0  0  0  0  0
   47.1324   56.9779   27.1870 O   0  0  0  0  0  0  0  0  0  0  0  0
   42.4812   51.8424   34.7120 N   0  0  0  0  0  0  0  0  0  0  0  0
   43.2186   52.2490   35.7512 C   0  0  0  0  0  0  0  0  0  0  0  0
   44.1939   53.1310   35.5994 N   0  0  0  0  0  0  0  0  0  0  0  0
   44.5050   53.6296   34.3916 C   0  0  0  0  0  0  0  0  0  0  0  0
   43.7606   53.2179   33.2564 C   0  0  0  0  0  0  0  0  0  0  0  0
   42.7119   52.2870   33.4658 C   0  0  0  0  0  0  0  0  0  0  0  0
   41.9445   51.8442   32.4119 N   0  0  0  0  0  0  0  0  0  0  0  0
   44.2723   53.8561   32.1849 N   0  0  0  0  0  0  0  0  0  0  0  0
   45.2623   54.6072   32.5695 C   0  0  0  0  0  0  0  0  0  0  0  0
   45.4473   54.5111   33.9207 N   0  0  0  0  0  0  0  0  0  0  0  0
  2  1  1  6  0  0  0
  2  3  1  0  0  0  0
  2  5  1  0  0  0  0
  3  4  1  0  0  0  0
  3 17  1  0  0  0  0
  5  6  1  0  0  0  0
  7  6  1  6  0  0  0
  7  8  1  0  0  0  0
  7  9  1  0  0  0  0
 10  9  1  6  0  0  0
 10 11  1  0  0  0  0
 10 12  1  0  0  0  0
 11 16  1  0  0  0  0
 12 13  1  1  0  0  0
 12 14  1  0  0  0  0
 14 15  1  1  0  0  0
 14 16  1  0  0  0  0
 16 27  1  6  0  0  0
 18 19  2  0  0  0  0
 18 23  1  0  0  0  0
 19 20  1  0  0  0  0
 20 21  2  0  0  0  0
 21 22  1  0  0  0  0
 21 27  1  0  0  0  0
 22 23  2  0  0  0  0
 22 25  1  0  0  0  0
 23 24  1  0  0  0  0
 25 26  2  0  0  0  0
 26 27  1  0  0  0  0
M  END
>  <CHROM.1>
153.62666073,-174.27993748,175.99730030,166.30063019,-158.94310380,76.54516690
-142.40402001,46.23974905,55.98205972,32.36562776,1.03332649,-0.65404460
-1.04517128

>  <Name>
ligand

>  <RI>
0

>  <Rbt.Current_Directory>
/home/itssahil/PROJECTS/Mol_Feturizer/New_Systems/rnas/2GIS

>  <Rbt.Executable>
rbdock ($Id: //depot/dev/client3/rdock/2013.1/src/exe/rbdock.cxx#4 $)

>  <Rbt.Library>
libRbt.so (2013.1, Build901 2013/11/27)

>  <Rbt.Parameter_File>
/export/apps/rDock/src/rDock_2013.1_src/data/scripts/dock_solv.prm

>  <Rbt.Receptor>
prm/pocket_docking_7.prm

>  <SCORE>
-15.0372

>  <SCORE.INTER>
-11.4831

>  <SCORE.INTER.CONST>
1

>  <SCORE.INTER.POLAR>
0

>  <SCORE.INTER.ROT>
7

>  <SCORE.INTER.SOLV>
15.6184

>  <SCORE.INTER.VDW>
-21.1282

>  <SCORE.INTER.norm>
-0.425301

>  <SCORE.INTRA>
-3.55404

>  <SCORE.INTRA.DIHEDRAL>
-2.88966

>  <SCORE.INTRA.DIHEDRAL.0>
9.40024

>  <SCORE.INTRA.POLAR>
0

>  <SCORE.INTRA.POLAR.0>
0

>  <SCORE.INTRA.REPUL>
0

>  <SCORE.INTRA.REPUL.0>
0

>  <SCORE.INTRA.SOLV>
-3.17952

>  <SCORE.INTRA.SOLV.lig_0>
-47.1049

>  <SCORE.INTRA.VDW>
-0.519454

>  <SCORE.INTRA.VDW.0>
-1.50278

>  <SCORE.INTRA.norm>
-0.131631

>  <SCORE.RESTR>
0

>  <SCORE.RESTR.CAVITY>
0

>  <SCORE.RESTR.norm>
0

>  <SCORE.SYSTEM>
0

>  <SCORE.SYSTEM.CONST>
0

>  <SCORE.SYSTEM.DIHEDRAL>
0

>  <SCORE.SYSTEM.SOLV>
0

>  <SCORE.SYSTEM.norm>
0

>  <SCORE.heavy>
27

>  <SCORE.norm>
-0.556932

>  <RMSD>
5.619

$$$$
ligand
 OpenBabel11021811433D
libRbt.so/2013.1/901 2013/11/27
 27 29  0  0  0  0  0  0  0  0999 V2000
   47.9276   58.6523   28.5930 N   0  0  0  0  0  0  0  0  0  0  0  0
   47.3235   58.4139   29.9076 C   0  0  2  0  0  0  0  0  0  0  0  0
   45.8257   58.2220   29.7495 C   0  0  0  0  0  0  0  0  0  0  0  0
   45.2104   57.5173   30.5446 O   0  0  0  0  0  0  0  0  0  0  0  0
   47.6022   59.5937   30.8602 C   0  0  0  0  0  0  0  0  0  0  0  0
   47.2976   59.1638   32.2944 C   0  0  0  0  0  0  0  0  0  0  0  0
   48.7303   58.4914   33.2323 S   0  0  2  0  0  0  0  0  0  0  0  0
   50.1018   59.6099   32.8078 C   0  0  0  0  0  0  0  0  0  0  0  0
   49.0482   57.1038   32.1223 C   0  0  0  0  0  0  0  0  0  0  0  0
   48.2745   55.8256   32.4892 C   0  0  1  0  0  0  0  0  0  0  0  0
   47.9692   55.0866   31.2695 O   0  0  0  0  0  0  0  0  0  0  0  0
   49.3091   55.0098   33.2209 C   0  0  1  0  0  0  0  0  0  0  0  0
   49.1625   55.1925   34.6294 O   0  0  0  0  0  0  0  0  0  0  0  0
   48.9853   53.5716   32.8355 C   0  0  1  0  0  0  0  0  0  0  0  0
   48.1860   52.9205   33.8162 O   0  0  0  0  0  0  0  0  0  0  0  0
   48.2253   53.6453   31.4611 C   0  0  2  0  0  0  0  0  0  0  0  0
   45.2347   58.7184   28.7903 O   0  0  0  0  0  0  0  0  0  0  0  0
   51.8975   54.8878   27.9181 N   0  0  0  0  0  0  0  0  0  0  0  0
   51.4123   55.6572   28.8987 C   0  0  0  0  0  0  0  0  0  0  0  0
   50.4942   55.2046   29.7380 N   0  0  0  0  0  0  0  0  0  0  0  0
   49.9882   53.9659   29.6202 C   0  0  0  0  0  0  0  0  0  0  0  0
   50.4609   53.1167   28.5869 C   0  0  0  0  0  0  0  0  0  0  0  0
   51.4585   53.6337   27.7222 C   0  0  0  0  0  0  0  0  0  0  0  0
   51.9674   52.8664   26.6985 N   0  0  0  0  0  0  0  0  0  0  0  0
   49.7960   51.9485   28.6886 N   0  0  0  0  0  0  0  0  0  0  0  0
   48.9600   52.0196   29.6827 C   0  0  0  0  0  0  0  0  0  0  0  0
   49.0392   53.2386   30.2965 N   0  0  0  0  0  0  0  0  0  0  0  0
  2  1  1  6  0  0  0
  2  3  1  0  0  0  0
  2  5  1  0  0  0  0
  3  4  1  0  0  0  0
  3 17  1  0  0  0  0
  5  6  1  0  0  0  0
  7  6  1  6  0  0  0
  7  8  1  0  0  0  0
  7  9  1  0  0  0  0
 10  9  1  6  0  0  0
 10 11  1  0  0  0  0
 10 12  1  0  0  0  0
 11 16  1  0  0  0  0
 12 13  1  1  0  0  0
 12 14  1  0  0  0  0
 14 15  1  1  0  0  0
 14 16  1  0  0  0  0
 16 27  1  6  0  0  0
 18 19  2  0  0  0  0
 18 23  1  0  0  0  0
 19 20  1  0  0  0  0
 20 21  2  0  0  0  0
 21 22  1  0  0  0  0
 21 27  1  0  0  0  0
 22 23  2  0  0  0  0
 22 25  1  0  0  0  0
 23 24  1  0  0  0  0
 25 26  2  0  0  0  0
 26 27  1  0  0  0  0
M  END
>  <CHROM.1>
150.92928976,-164.98735164,92.41801622,42.61274374,-89.45405768,148.21144688
34.26963000,48.81776908,55.86619881,30.79869957,3.00593777,-1.09861417,1.87665945

>  <Name>
ligand

>  <RI>
0

>  <Rbt.Current_Directory>
/home/itssahil/PROJECTS/Mol_Feturizer/New_Systems/rnas/2GIS

>  <Rbt.Executable>
rbdock ($Id: //depot/dev/client3/rdock/2013.1/src/exe/rbdock.cxx#4 $)

>  <Rbt.Library>
libRbt.so (2013.1, Build901 2013/11/27)

>  <Rbt.Parameter_File>
/export/apps/rDock/src/rDock_2013.1_src/data/scripts/dock_solv.prm

>  <Rbt.Receptor>
prm/pocket_docking_6.prm

>  <SCORE>
-14.9294

>  <SCORE.INTER>
-13.4933

>  <SCORE.INTER.CONST>
1

>  <SCORE.INTER.POLAR>
0

>  <SCORE.INTER.ROT>
7

>  <SCORE.INTER.SOLV>
12.8955

>  <SCORE.INTER.VDW>
-21.5607

>  <SCORE.INTER.norm>
-0.499752

>  <SCORE.INTRA>
-1.43611

>  <SCORE.INTRA.DIHEDRAL>
2.16052

>  <SCORE.INTRA.DIHEDRAL.0>
9.40024

>  <SCORE.INTRA.POLAR>
0

>  <SCORE.INTRA.POLAR.0>
0

>  <SCORE.INTRA.REPUL>
0

>  <SCORE.INTRA.REPUL.0>
0

>  <SCORE.INTRA.SOLV>
-2.26755

>  <SCORE.INTRA.SOLV.lig_0>
-47.1049

>  <SCORE.INTRA.VDW>
-1.3826

>  <SCORE.INTRA.VDW.0>
-1.50278

>  <SCORE.INTRA.norm>
-0.0531893

>  <SCORE.RESTR>
0

>  <SCORE.RESTR.CAVITY>
0

>  <SCORE.RESTR.norm>
0

>  <SCORE.SYSTEM>
0

>  <SCORE.SYSTEM.CONST>
0

>  <SCORE.SYSTEM.DIHEDRAL>
0

>  <SCORE.SYSTEM.SOLV>
0

>  <SCORE.SYSTEM.norm>
0

>  <SCORE.heavy>
27

>  <SCORE.norm>
-0.552941

>  <RMSD>
5.623

$$$$
ligand
 OpenBabel11021811433D
libRbt.so/2013.1/901 2013/11/27
 27 29  0  0  0  0  0  0  0  0999 V2000
   48.9136   58.0161   28.9387 N   0  0  0  0  0  0  0  0  0  0  0  0
   49.6004   56.8755   29.5528 C   0  0  2  0  0  0  0  0  0  0  0  0
   50.4605   56.1817   28.5116 C   0  0  0  0  0  0  0  0  0  0  0  0
   50.0848   56.1261   27.3440 O   0  0  0  0  0  0  0  0  0  0  0  0
   48.5840   55.8768   30.1415 C   0  0  0  0  0  0  0  0  0  0  0  0
   49.3088   54.9230   31.0900 C   0  0  0  0  0  0  0  0  0  0  0  0
   48.2764   53.5623   31.7733 S   0  0  2  0  0  0  0  0  0  0  0  0
   47.4937   52.8210   30.3070 C   0  0  0  0  0  0  0  0  0  0  0  0
   46.9493   54.6215   32.3861 C   0  0  0  0  0  0  0  0  0  0  0  0
   45.7310   53.8459   32.9165 C   0  0  1  0  0  0  0  0  0  0  0  0
   46.1378   53.0497   34.0686 O   0  0  0  0  0  0  0  0  0  0  0  0
   44.8504   54.9419   33.4594 C   0  0  1  0  0  0  0  0  0  0  0  0
   43.8708   55.3032   32.4855 O   0  0  0  0  0  0  0  0  0  0  0  0
   44.1830   54.3110   34.6752 C   0  0  1  0  0  0  0  0  0  0  0  0
   42.8879   53.8047   34.3737 O   0  0  0  0  0  0  0  0  0  0  0  0
   45.1349   53.1521   35.1473 C   0  0  2  0  0  0  0  0  0  0  0  0
   51.5037   55.6186   28.8441 O   0  0  0  0  0  0  0  0  0  0  0  0
   49.4802   55.1774   37.2917 N   0  0  0  0  0  0  0  0  0  0  0  0
   49.1695   55.0956   35.9933 C   0  0  0  0  0  0  0  0  0  0  0  0
   48.0213   54.5730   35.5923 N   0  0  0  0  0  0  0  0  0  0  0  0
   47.1352   54.0738   36.4697 C   0  0  0  0  0  0  0  0  0  0  0  0
   47.4259   54.1247   37.8572 C   0  0  0  0  0  0  0  0  0  0  0  0
   48.6575   54.7103   38.2451 C   0  0  0  0  0  0  0  0  0  0  0  0
   49.0064   54.7975   39.5742 N   0  0  0  0  0  0  0  0  0  0  0  0
   46.3883   53.5618   38.5080 N   0  0  0  0  0  0  0  0  0  0  0  0
   45.5036   53.1686   37.6391 C   0  0  0  0  0  0  0  0  0  0  0  0
   45.9090   53.4633   36.3672 N   0  0  0  0  0  0  0  0  0  0  0  0
  2  1  1  6  0  0  0
  2  3  1  0  0  0  0
  2  5  1  0  0  0  0
  3  4  1  0  0  0  0
  3 17  1  0  0  0  0
  5  6  1  0  0  0  0
  7  6  1  6  0  0  0
  7  8  1  0  0  0  0
  7  9  1  0  0  0  0
 10  9  1  1  0  0  0
 10 11  1  0  0  0  0
 10 12  1  0  0  0  0
 11 16  1  0  0  0  0
 12 13  1  6  0  0  0
 12 14  1  0  0  0  0
 14 15  1  6  0  0  0
 14 16  1  0  0  0  0
 16 27  1  1  0  0  0
 18 19  2  0  0  0  0
 18 23  1  0  0  0  0
 19 20  1  0  0  0  0
 20 21  2  0  0  0  0
 21 22  1  0  0  0  0
 21 27  1  0  0  0  0
 22 23  2  0  0  0  0
 22 25  1  0  0  0  0
 23 24  1  0  0  0  0
 25 26  2  0  0  0  0
 26 27  1  0  0  0  0
M  END
>  <CHROM.1>
-34.50658223,-164.56982964,-174.77260560,50.88237296,172.92980984,63.26599385
25.04912972,47.45798871,54.60953756,33.47397167,-1.21258118,0.26622034,1.69618094

>  <Name>
ligand

>  <RI>
0

>  <Rbt.Current_Directory>
/home/itssahil/PROJECTS/Mol_Feturizer/New_Systems/rnas/2GIS

>  <Rbt.Executable>
rbdock ($Id: //depot/dev/client3/rdock/2013.1/src/exe/rbdock.cxx#4 $)

>  <Rbt.Library>
libRbt.so (2013.1, Build901 2013/11/27)

>  <Rbt.Parameter_File>
/export/apps/rDock/src/rDock_2013.1_src/data/scripts/dock_solv.prm

>  <Rbt.Receptor>
prm/pocket_docking_6.prm

>  <SCORE>
-15.5801

>  <SCORE.INTER>
-10.7437

>  <SCORE.INTER.CONST>
1

>  <SCORE.INTER.POLAR>
0

>  <SCORE.INTER.ROT>
7

>  <SCORE.INTER.SOLV>
15.3615

>  <SCORE.INTER.VDW>
-20.5496

>  <SCORE.INTER.norm>
-0.397915

>  <SCORE.INTRA>
-4.83643

>  <SCORE.INTRA.DIHEDRAL>
-5.28167

>  <SCORE.INTRA.DIHEDRAL.0>
9.40024

>  <SCORE.INTRA.POLAR>
0

>  <SCORE.INTRA.POLAR.0>
0

>  <SCORE.INTRA.REPUL>
0

>  <SCORE.INTRA.REPUL.0>
0

>  <SCORE.INTRA.SOLV>
-3.07091

>  <SCORE.INTRA.SOLV.lig_0>
-47.1049

>  <SCORE.INTRA.VDW>
-0.660146

>  <SCORE.INTRA.VDW.0>
-1.50278

>  <SCORE.INTRA.norm>
-0.179127

>  <SCORE.RESTR>
0

>  <SCORE.RESTR.CAVITY>
0

>  <SCORE.RESTR.norm>
0

>  <SCORE.SYSTEM>
0

>  <SCORE.SYSTEM.CONST>
0

>  <SCORE.SYSTEM.DIHEDRAL>
0

>  <SCORE.SYSTEM.SOLV>
0

>  <SCORE.SYSTEM.norm>
0

>  <SCORE.heavy>
27

>  <SCORE.norm>
-0.577042

>  <RMSD>
5.640

$$$$
ligand
 OpenBabel11021811433D
libRbt.so/2013.1/901 2013/11/27
 27 29  0  0  0  0  0  0  0  0999 V2000
   51.1946   52.8086   26.4040 N   0  0  0  0  0  0  0  0  0  0  0  0
   49.8719   52.2614   26.7222 C   0  0  2  0  0  0  0  0  0  0  0  0
   49.3104   51.5524   25.5027 C   0  0  0  0  0  0  0  0  0  0  0  0
   48.8201   52.2050   24.5855 O   0  0  0  0  0  0  0  0  0  0  0  0
   48.9090   53.3805   27.1664 C   0  0  0  0  0  0  0  0  0  0  0  0
   49.3508   53.9115   28.5293 C   0  0  0  0  0  0  0  0  0  0  0  0
   49.2406   52.7051   29.9138 S   0  0  2  0  0  0  0  0  0  0  0  0
   47.4526   52.4501   30.1378 C   0  0  0  0  0  0  0  0  0  0  0  0
   49.5965   53.8916   31.2269 C   0  0  0  0  0  0  0  0  0  0  0  0
   48.6151   55.0754   31.2766 C   0  0  1  0  0  0  0  0  0  0  0  0
   47.4349   54.6843   32.0389 O   0  0  0  0  0  0  0  0  0  0  0  0
   49.3474   56.0782   32.1307 C   0  0  1  0  0  0  0  0  0  0  0  0
   50.0315   57.0153   31.2984 O   0  0  0  0  0  0  0  0  0  0  0  0
   48.2411   56.7731   32.9148 C   0  0  1  0  0  0  0  0  0  0  0  0
   47.8438   57.9984   32.3106 O   0  0  0  0  0  0  0  0  0  0  0  0
   47.0367   55.7636   32.9643 C   0  0  2  0  0  0  0  0  0  0  0  0
   49.2865   50.3223   25.4566 O   0  0  0  0  0  0  0  0  0  0  0  0
   49.1217   54.2503   37.5408 N   0  0  0  0  0  0  0  0  0  0  0  0
   49.7299   54.8893   36.5354 C   0  0  0  0  0  0  0  0  0  0  0  0
   49.0721   55.2289   35.4380 N   0  0  0  0  0  0  0  0  0  0  0  0
   47.7757   54.9175   35.2745 C   0  0  0  0  0  0  0  0  0  0  0  0
   47.0905   54.2273   36.3072 C   0  0  0  0  0  0  0  0  0  0  0  0
   47.8268   53.9000   37.4738 C   0  0  0  0  0  0  0  0  0  0  0  0
   47.2276   53.2332   38.5188 N   0  0  0  0  0  0  0  0  0  0  0  0
   45.8217   54.0380   35.8933 N   0  0  0  0  0  0  0  0  0  0  0  0
   45.6825   54.5429   34.7025 C   0  0  0  0  0  0  0  0  0  0  0  0
   46.8536   55.1029   34.2735 N   0  0  0  0  0  0  0  0  0  0  0  0
  2  1  1  6  0  0  0
  2  3  1  0  0  0  0
  2  5  1  0  0  0  0
  3  4  1  0  0  0  0
  3 17  1  0  0  0  0
  5  6  1  0  0  0  0
  7  6  1  6  0  0  0
  7  8  1  0  0  0  0
  7  9  1  0  0  0  0
 10  9  1  1  0  0  0
 10 11  1  0  0  0  0
 10 12  1  0  0  0  0
 11 16  1  0  0  0  0
 12 13  1  6  0  0  0
 12 14  1  0  0  0  0
 14 15  1  6  0  0  0
 14 16  1  0  0  0  0
 16 27  1  1  0  0  0
 18 19  2  0  0  0  0
 18 23  1  0  0  0  0
 19 20  1  0  0  0  0
 20 21  2  0  0  0  0
 21 22  1  0  0  0  0
 21 27  1  0  0  0  0
 22 23  2  0  0  0  0
 22 25  1  0  0  0  0
 23 24  1  0  0  0  0
 25 26  2  0  0  0  0
 26 27  1  0  0  0  0
M  END
>  <CHROM.1>
-78.21254025,-69.19516082,-64.94947633,-68.14263815,57.84884002,84.19748168
91.05545734,48.49155536,54.11897876,31.71217474,-0.87879717,1.29660011,0.64419374

>  <Name>
ligand

>  <RI>
0

>  <Rbt.Current_Directory>
/home/itssahil/PROJECTS/Mol_Feturizer/New_Systems/rnas/2GIS

>  <Rbt.Executable>
rbdock ($Id: //depot/dev/client3/rdock/2013.1/src/exe/rbdock.cxx#4 $)

>  <Rbt.Library>
libRbt.so (2013.1, Build901 2013/11/27)

>  <Rbt.Parameter_File>
/export/apps/rDock/src/rDock_2013.1_src/data/scripts/dock_solv.prm

>  <Rbt.Receptor>
prm/pocket_docking_7.prm

>  <SCORE>
-15.1893

>  <SCORE.INTER>
-12.3857

>  <SCORE.INTER.CONST>
1

>  <SCORE.INTER.POLAR>
0

>  <SCORE.INTER.ROT>
7

>  <SCORE.INTER.SOLV>
9.38031

>  <SCORE.INTER.VDW>
-19.6506

>  <SCORE.INTER.norm>
-0.458729

>  <SCORE.INTRA>
-2.80358

>  <SCORE.INTRA.DIHEDRAL>
-3.82913

>  <SCORE.INTRA.DIHEDRAL.0>
9.40024

>  <SCORE.INTRA.POLAR>
0

>  <SCORE.INTRA.POLAR.0>
0

>  <SCORE.INTRA.REPUL>
0

>  <SCORE.INTRA.REPUL.0>
0

>  <SCORE.INTRA.SOLV>
-1.86023

>  <SCORE.INTRA.SOLV.lig_0>
-47.1049

>  <SCORE.INTRA.VDW>
0.0411007

>  <SCORE.INTRA.VDW.0>
-1.50278

>  <SCORE.INTRA.norm>
-0.103836

>  <SCORE.RESTR>
0

>  <SCORE.RESTR.CAVITY>
0

>  <SCORE.RESTR.norm>
0

>  <SCORE.SYSTEM>
0

>  <SCORE.SYSTEM.CONST>
0

>  <SCORE.SYSTEM.DIHEDRAL>
0

>  <SCORE.SYSTEM.SOLV>
0

>  <SCORE.SYSTEM.norm>
0

>  <SCORE.heavy>
27

>  <SCORE.norm>
-0.562565

>  <RMSD>
5.643

$$$$
ligand
 OpenBabel11021811433D
libRbt.so/2013.1/901 2013/11/27
 27 29  0  0  0  0  0  0  0  0999 V2000
   48.7405   57.4313   27.6529 N   0  0  0  0  0  0  0  0  0  0  0  0
   49.6889   56.7187   28.5147 C   0  0  2  0  0  0  0  0  0  0  0  0
   50.8604   56.2290   27.6823 C   0  0  0  0  0  0  0  0  0  0  0  0
   52.0028   56.3075   28.1253 O   0  0  0  0  0  0  0  0  0  0  0  0
   49.0057   55.5243   29.2103 C   0  0  0  0  0  0  0  0  0  0  0  0
   49.9424   54.9627   30.2788 C   0  0  0  0  0  0  0  0  0  0  0  0
   49.5401   53.2640   30.8594 S   0  0  2  0  0  0  0  0  0  0  0  0
   49.3380   52.3075   29.3243 C   0  0  0  0  0  0  0  0  0  0  0  0
   47.8216   53.6130   31.2883 C   0  0  0  0  0  0  0  0  0  0  0  0
   47.6540   54.3530   32.6267 C   0  0  1  0  0  0  0  0  0  0  0  0
   46.2365   54.6080   32.8559 O   0  0  0  0  0  0  0  0  0  0  0  0
   48.0563   53.3086   33.6361 C   0  0  1  0  0  0  0  0  0  0  0  0
   49.4241   53.4911   34.0028 O   0  0  0  0  0  0  0  0  0  0  0  0
   47.1464   53.5776   34.8283 C   0  0  1  0  0  0  0  0  0  0  0  0
   47.7826   54.3764   35.8190 O   0  0  0  0  0  0  0  0  0  0  0  0
   45.8779   54.3099   34.2567 C   0  0  2  0  0  0  0  0  0  0  0  0
   50.6771   55.8115   26.5386 O   0  0  0  0  0  0  0  0  0  0  0  0
   42.2430   51.9792   31.2672 N   0  0  0  0  0  0  0  0  0  0  0  0
   43.2634   52.7458   30.8672 C   0  0  0  0  0  0  0  0  0  0  0  0
   44.1215   53.2573   31.7357 N   0  0  0  0  0  0  0  0  0  0  0  0
   43.9847   53.0550   33.0566 C   0  0  0  0  0  0  0  0  0  0  0  0
   42.9096   52.2604   33.5310 C   0  0  0  0  0  0  0  0  0  0  0  0
   42.0252   51.7154   32.5660 C   0  0  0  0  0  0  0  0  0  0  0  0
   40.9609   50.9317   32.9517 N   0  0  0  0  0  0  0  0  0  0  0  0
   42.9999   52.2201   34.8753 N   0  0  0  0  0  0  0  0  0  0  0  0
   44.0254   52.9249   35.2545 C   0  0  0  0  0  0  0  0  0  0  0  0
   44.6726   53.4586   34.1749 N   0  0  0  0  0  0  0  0  0  0  0  0
  2  1  1  6  0  0  0
  2  3  1  0  0  0  0
  2  5  1  0  0  0  0
  3  4  1  0  0  0  0
  3 17  1  0  0  0  0
  5  6  1  0  0  0  0
  7  6  1  6  0  0  0
  7  8  1  0  0  0  0
  7  9  1  0  0  0  0
 10  9  1  6  0  0  0
 10 11  1  0  0  0  0
 10 12  1  0  0  0  0
 11 16  1  0  0  0  0
 12 13  1  1  0  0  0
 12 14  1  0  0  0  0
 14 15  1  1  0  0  0
 14 16  1  0  0  0  0
 16 27  1  6  0  0  0
 18 19  2  0  0  0  0
 18 23  1  0  0  0  0
 19 20  1  0  0  0  0
 20 21  2  0  0  0  0
 21 22  1  0  0  0  0
 21 27  1  0  0  0  0
 22 23  2  0  0  0  0
 22 25  1  0  0  0  0
 23 24  1  0  0  0  0
 25 26  2  0  0  0  0
 26 27  1  0  0  0  0
M  END
>  <CHROM.1>
138.97751805,-170.00331420,-162.42468162,49.62419530,-78.08339966,178.72322696
-2.11608573,46.96138760,53.88836374,31.68853346,0.63992910,-0.31589960,-1.40862600

>  <Name>
ligand

>  <RI>
0

>  <Rbt.Current_Directory>
/home/itssahil/PROJECTS/Mol_Feturizer/New_Systems/rnas/2GIS

>  <Rbt.Executable>
rbdock ($Id: //depot/dev/client3/rdock/2013.1/src/exe/rbdock.cxx#4 $)

>  <Rbt.Library>
libRbt.so (2013.1, Build901 2013/11/27)

>  <Rbt.Parameter_File>
/export/apps/rDock/src/rDock_2013.1_src/data/scripts/dock_solv.prm

>  <Rbt.Receptor>
prm/pocket_docking_8.prm

>  <SCORE>
-13.7837

>  <SCORE.INTER>
-10.1855

>  <SCORE.INTER.CONST>
1

>  <SCORE.INTER.POLAR>
0

>  <SCORE.INTER.ROT>
7

>  <SCORE.INTER.SOLV>
9.05627

>  <SCORE.INTER.VDW>
-18.0758

>  <SCORE.INTER.norm>
-0.377242

>  <SCORE.INTRA>
-3.59818

>  <SCORE.INTRA.DIHEDRAL>
-4.25463

>  <SCORE.INTRA.DIHEDRAL.0>
9.40024

>  <SCORE.INTRA.POLAR>
0

>  <SCORE.INTRA.POLAR.0>
0

>  <SCORE.INTRA.REPUL>
0

>  <SCORE.INTRA.REPUL.0>
0

>  <SCORE.INTRA.SOLV>
-2.83952

>  <SCORE.INTRA.SOLV.lig_0>
-47.1049

>  <SCORE.INTRA.VDW>
-0.0511081

>  <SCORE.INTRA.VDW.0>
-1.50278

>  <SCORE.INTRA.norm>
-0.133266

>  <SCORE.RESTR>
0

>  <SCORE.RESTR.CAVITY>
0

>  <SCORE.RESTR.norm>
0

>  <SCORE.SYSTEM>
0

>  <SCORE.SYSTEM.CONST>
0

>  <SCORE.SYSTEM.DIHEDRAL>
0

>  <SCORE.SYSTEM.SOLV>
0

>  <SCORE.SYSTEM.norm>
0

>  <SCORE.heavy>
27

>  <SCORE.norm>
-0.510508

>  <RMSD>
5.654

$$$$
ligand
 OpenBabel11021811433D
libRbt.so/2013.1/901 2013/11/27
 27 29  0  0  0  0  0  0  0  0999 V2000
   49.8045   58.7375   31.8245 N   0  0  0  0  0  0  0  0  0  0  0  0
   48.3497   58.7548   31.6420 C   0  0  2  0  0  0  0  0  0  0  0  0
   47.9077   60.1471   31.2279 C   0  0  0  0  0  0  0  0  0  0  0  0
   46.9317   60.2886   30.4966 O   0  0  0  0  0  0  0  0  0  0  0  0
   47.6300   58.3422   32.9415 C   0  0  0  0  0  0  0  0  0  0  0  0
   46.1577   58.0712   32.6358 C   0  0  0  0  0  0  0  0  0  0  0  0
   45.7856   56.3831   32.0064 S   0  0  2  0  0  0  0  0  0  0  0  0
   44.0894   56.5152   31.3602 C   0  0  0  0  0  0  0  0  0  0  0  0
   45.4914   55.6388   33.6244 C   0  0  0  0  0  0  0  0  0  0  0  0
   46.5763   54.6353   34.0524 C   0  0  1  0  0  0  0  0  0  0  0  0
   46.6028   53.5285   33.1032 O   0  0  0  0  0  0  0  0  0  0  0  0
   47.8507   55.4073   33.8256 C   0  0  1  0  0  0  0  0  0  0  0  0
   48.2819   56.0007   35.0506 O   0  0  0  0  0  0  0  0  0  0  0  0
   48.8470   54.3489   33.3686 C   0  0  1  0  0  0  0  0  0  0  0  0
   49.6554   53.8754   34.4395 O   0  0  0  0  0  0  0  0  0  0  0  0
   47.9946   53.1774   32.7578 C   0  0  2  0  0  0  0  0  0  0  0  0
   48.5613   61.1327   31.5703 O   0  0  0  0  0  0  0  0  0  0  0  0
   50.7919   53.4566   28.3218 N   0  0  0  0  0  0  0  0  0  0  0  0
   51.2318   53.5956   29.5773 C   0  0  0  0  0  0  0  0  0  0  0  0
   50.4120   53.4810   30.6102 N   0  0  0  0  0  0  0  0  0  0  0  0
   49.0992   53.2529   30.4398 C   0  0  0  0  0  0  0  0  0  0  0  0
   48.5824   53.1122   29.1263 C   0  0  0  0  0  0  0  0  0  0  0  0
   49.4978   53.2223   28.0492 C   0  0  0  0  0  0  0  0  0  0  0  0
   49.0695   53.0938   26.7470 N   0  0  0  0  0  0  0  0  0  0  0  0
   47.2562   52.8967   29.2352 N   0  0  0  0  0  0  0  0  0  0  0  0
   46.9257   52.9037   30.4934 C   0  0  0  0  0  0  0  0  0  0  0  0
   48.0228   53.1137   31.2816 N   0  0  0  0  0  0  0  0  0  0  0  0
  2  1  1  1  0  0  0
  2  3  1  0  0  0  0
  2  5  1  0  0  0  0
  3  4  1  0  0  0  0
  3 17  1  0  0  0  0
  5  6  1  0  0  0  0
  7  6  1  1  0  0  0
  7  8  1  0  0  0  0
  7  9  1  0  0  0  0
 10  9  1  6  0  0  0
 10 11  1  0  0  0  0
 10 12  1  0  0  0  0
 11 16  1  0  0  0  0
 12 13  1  1  0  0  0
 12 14  1  0  0  0  0
 14 15  1  1  0  0  0
 14 16  1  0  0  0  0
 16 27  1  6  0  0  0
 18 19  2  0  0  0  0
 18 23  1  0  0  0  0
 19 20  1  0  0  0  0
 20 21  2  0  0  0  0
 21 22  1  0  0  0  0
 21 27  1  0  0  0  0
 22 23  2  0  0  0  0
 22 25  1  0  0  0  0
 23 24  1  0  0  0  0
 25 26  2  0  0  0  0
 26 27  1  0  0  0  0
M  END
>  <CHROM.1>
148.66770747,-167.55357155,84.05749651,-166.31165587,-110.48670513,-62.05637776
156.97207200,47.91185338,55.56900507,31.56600289,-2.24363840,-1.07151138
2.96653742

>  <Name>
ligand

>  <RI>
0

>  <Rbt.Current_Directory>
/home/itssahil/PROJECTS/Mol_Feturizer/New_Systems/rnas/2GIS

>  <Rbt.Executable>
rbdock ($Id: //depot/dev/client3/rdock/2013.1/src/exe/rbdock.cxx#4 $)

>  <Rbt.Library>
libRbt.so (2013.1, Build901 2013/11/27)

>  <Rbt.Parameter_File>
/export/apps/rDock/src/rDock_2013.1_src/data/scripts/dock_solv.prm

>  <Rbt.Receptor>
prm/pocket_docking_6.prm

>  <SCORE>
-12.0667

>  <SCORE.INTER>
-10.6791

>  <SCORE.INTER.CONST>
1

>  <SCORE.INTER.POLAR>
0

>  <SCORE.INTER.ROT>
7

>  <SCORE.INTER.SOLV>
8.79077

>  <SCORE.INTER.VDW>
-18.3163

>  <SCORE.INTER.norm>
-0.395522

>  <SCORE.INTRA>
-1.39009

>  <SCORE.INTRA.DIHEDRAL>
1.41103

>  <SCORE.INTRA.DIHEDRAL.0>
9.40024

>  <SCORE.INTRA.POLAR>
0

>  <SCORE.INTRA.POLAR.0>
0

>  <SCORE.INTRA.REPUL>
0

>  <SCORE.INTRA.REPUL.0>
0

>  <SCORE.INTRA.SOLV>
-2.25129

>  <SCORE.INTRA.SOLV.lig_0>
-47.1049

>  <SCORE.INTRA.VDW>
-0.969965

>  <SCORE.INTRA.VDW.0>
-1.50278

>  <SCORE.INTRA.norm>
-0.051485

>  <SCORE.RESTR>
0.00253892

>  <SCORE.RESTR.CAVITY>
0.00253892

>  <SCORE.RESTR.norm>
9.4034e-05

>  <SCORE.SYSTEM>
0

>  <SCORE.SYSTEM.CONST>
0

>  <SCORE.SYSTEM.DIHEDRAL>
0

>  <SCORE.SYSTEM.SOLV>
0

>  <SCORE.SYSTEM.norm>
0

>  <SCORE.heavy>
27

>  <SCORE.norm>
-0.446913

>  <RMSD>
5.695

$$$$
ligand
 OpenBabel11021811433D
libRbt.so/2013.1/901 2013/11/27
 27 29  0  0  0  0  0  0  0  0999 V2000
   47.5611   59.3939   32.3384 N   0  0  0  0  0  0  0  0  0  0  0  0
   48.6743   58.4708   32.5803 C   0  0  2  0  0  0  0  0  0  0  0  0
   49.4923   58.9623   33.7612 C   0  0  0  0  0  0  0  0  0  0  0  0
   49.7695   58.1936   34.6777 O   0  0  0  0  0  0  0  0  0  0  0  0
   49.5726   58.3576   31.3325 C   0  0  0  0  0  0  0  0  0  0  0  0
   48.8534   57.5285   30.2695 C   0  0  0  0  0  0  0  0  0  0  0  0
   48.6867   55.7369   30.6529 S   0  0  2  0  0  0  0  0  0  0  0  0
   50.2102   54.9977   29.9862 C   0  0  0  0  0  0  0  0  0  0  0  0
   47.5088   55.3705   29.3350 C   0  0  0  0  0  0  0  0  0  0  0  0
   46.0440   55.3336   29.8043 C   0  0  1  0  0  0  0  0  0  0  0  0
   45.9381   54.4598   30.9671 O   0  0  0  0  0  0  0  0  0  0  0  0
   45.8240   56.7340   30.3159 C   0  0  1  0  0  0  0  0  0  0  0  0
   45.2084   57.5289   29.3020 O   0  0  0  0  0  0  0  0  0  0  0  0
   44.8771   56.5515   31.4957 C   0  0  1  0  0  0  0  0  0  0  0  0
   43.5192   56.7720   31.1325 O   0  0  0  0  0  0  0  0  0  0  0  0
   45.0832   55.0769   32.0007 C   0  0  2  0  0  0  0  0  0  0  0  0
   49.8256   60.1452   33.8355 O   0  0  0  0  0  0  0  0  0  0  0  0
   45.5430   53.0036   36.8040 N   0  0  0  0  0  0  0  0  0  0  0  0
   44.5658   52.7989   35.9139 C   0  0  0  0  0  0  0  0  0  0  0  0
   44.5874   53.3771   34.7234 N   0  0  0  0  0  0  0  0  0  0  0  0
   45.5737   54.2183   34.3716 C   0  0  0  0  0  0  0  0  0  0  0  0
   46.6257   54.4784   35.2871 C   0  0  0  0  0  0  0  0  0  0  0  0
   46.5745   53.8234   36.5436 C   0  0  0  0  0  0  0  0  0  0  0  0
   47.5620   54.0248   37.4816 N   0  0  0  0  0  0  0  0  0  0  0  0
   47.4704   55.3464   34.6955 N   0  0  0  0  0  0  0  0  0  0  0  0
   47.0188   55.6398   33.5112 C   0  0  0  0  0  0  0  0  0  0  0  0
   45.8551   54.9691   33.2563 N   0  0  0  0  0  0  0  0  0  0  0  0
  2  1  1  6  0  0  0
  2  3  1  0  0  0  0
  2  5  1  0  0  0  0
  3  4  1  0  0  0  0
  3 17  1  0  0  0  0
  5  6  1  0  0  0  0
  7  6  1  6  0  0  0
  7  8  1  0  0  0  0
  7  9  1  0  0  0  0
 10  9  1  1  0  0  0
 10 11  1  0  0  0  0
 10 12  1  0  0  0  0
 11 16  1  0  0  0  0
 12 13  1  6  0  0  0
 12 14  1  0  0  0  0
 14 15  1  6  0  0  0
 14 16  1  0  0  0  0
 16 27  1  1  0  0  0
 18 19  2  0  0  0  0
 18 23  1  0  0  0  0
 19 20  1  0  0  0  0
 20 21  2  0  0  0  0
 21 22  1  0  0  0  0
 21 27  1  0  0  0  0
 22 23  2  0  0  0  0
 22 25  1  0  0  0  0
 23 24  1  0  0  0  0
 25 26  2  0  0  0  0
 26 27  1  0  0  0  0
M  END
>  <CHROM.1>
129.73691072,-73.74014144,-70.16043183,-88.53284163,-98.27373570,-50.94265431
-113.03840037,47.07032085,56.02184974,32.65527302,-1.03535534,0.71282494
1.87678669

>  <Name>
ligand

>  <RI>
0

>  <Rbt.Current_Directory>
/home/itssahil/PROJECTS/Mol_Feturizer/New_Systems/rnas/2GIS

>  <Rbt.Executable>
rbdock ($Id: //depot/dev/client3/rdock/2013.1/src/exe/rbdock.cxx#4 $)

>  <Rbt.Library>
libRbt.so (2013.1, Build901 2013/11/27)

>  <Rbt.Parameter_File>
/export/apps/rDock/src/rDock_2013.1_src/data/scripts/dock_solv.prm

>  <Rbt.Receptor>
prm/pocket_docking_5.prm

>  <SCORE>
-11.1702

>  <SCORE.INTER>
-7.60683

>  <SCORE.INTER.CONST>
1

>  <SCORE.INTER.POLAR>
0

>  <SCORE.INTER.ROT>
7

>  <SCORE.INTER.SOLV>
11.8378

>  <SCORE.INTER.VDW>
-17.2838

>  <SCORE.INTER.norm>
-0.281734

>  <SCORE.INTRA>
-3.56339

>  <SCORE.INTRA.DIHEDRAL>
-1.2556

>  <SCORE.INTRA.DIHEDRAL.0>
9.40024

>  <SCORE.INTRA.POLAR>
0

>  <SCORE.INTRA.POLAR.0>
0

>  <SCORE.INTRA.REPUL>
0

>  <SCORE.INTRA.REPUL.0>
0

>  <SCORE.INTRA.SOLV>
-0.67005

>  <SCORE.INTRA.SOLV.lig_0>
-47.1049

>  <SCORE.INTRA.VDW>
-2.60057

>  <SCORE.INTRA.VDW.0>
-1.50278

>  <SCORE.INTRA.norm>
-0.131977

>  <SCORE.RESTR>
0

>  <SCORE.RESTR.CAVITY>
0

>  <SCORE.RESTR.norm>
0

>  <SCORE.SYSTEM>
0

>  <SCORE.SYSTEM.CONST>
0

>  <SCORE.SYSTEM.DIHEDRAL>
0

>  <SCORE.SYSTEM.SOLV>
0

>  <SCORE.SYSTEM.norm>
0

>  <SCORE.heavy>
27

>  <SCORE.norm>
-0.413712

>  <RMSD>
5.697

$$$$
ligand
 OpenBabel11021811433D
libRbt.so/2013.1/901 2013/11/27
 27 29  0  0  0  0  0  0  0  0999 V2000
   51.3049   54.0784   22.9785 N   0  0  0  0  0  0  0  0  0  0  0  0
   50.1736   54.5861   23.7609 C   0  0  2  0  0  0  0  0  0  0  0  0
   49.3963   55.5934   22.9323 C   0  0  0  0  0  0  0  0  0  0  0  0
   48.2387   55.8715   23.2326 O   0  0  0  0  0  0  0  0  0  0  0  0
   50.6627   55.2474   25.0649 C   0  0  0  0  0  0  0  0  0  0  0  0
   49.4670   55.4868   25.9856 C   0  0  0  0  0  0  0  0  0  0  0  0
   49.8418   56.4073   27.5337 S   0  0  2  0  0  0  0  0  0  0  0  0
   51.1304   55.4083   28.3421 C   0  0  0  0  0  0  0  0  0  0  0  0
   48.3675   55.8768   28.4304 C   0  0  0  0  0  0  0  0  0  0  0  0
   47.1234   56.7346   28.1418 C   0  0  1  0  0  0  0  0  0  0  0  0
   45.9634   56.1208   28.7779 O   0  0  0  0  0  0  0  0  0  0  0  0
   47.4029   57.9964   28.9172 C   0  0  1  0  0  0  0  0  0  0  0  0
   47.9650   58.9826   28.0511 O   0  0  0  0  0  0  0  0  0  0  0  0
   46.0301   58.4402   29.4072 C   0  0  1  0  0  0  0  0  0  0  0  0
   45.4502   59.4243   28.5589 O   0  0  0  0  0  0  0  0  0  0  0  0
   45.1376   57.1464   29.4458 C   0  0  2  0  0  0  0  0  0  0  0  0
   49.8995   56.0859   21.9224 O   0  0  0  0  0  0  0  0  0  0  0  0
   43.6110   53.1442   32.4844 N   0  0  0  0  0  0  0  0  0  0  0  0
   43.6812   53.1780   31.1491 C   0  0  0  0  0  0  0  0  0  0  0  0
   44.1053   54.2566   30.5096 N   0  0  0  0  0  0  0  0  0  0  0  0
   44.4517   55.3724   31.1725 C   0  0  0  0  0  0  0  0  0  0  0  0
   44.3806   55.3902   32.5891 C   0  0  0  0  0  0  0  0  0  0  0  0
   43.9401   54.2078   33.2357 C   0  0  0  0  0  0  0  0  0  0  0  0
   43.8487   54.1498   34.6083 N   0  0  0  0  0  0  0  0  0  0  0  0
   44.7741   56.6130   32.9977 N   0  0  0  0  0  0  0  0  0  0  0  0
   45.0670   57.3360   31.9566 C   0  0  0  0  0  0  0  0  0  0  0  0
   44.8917   56.6206   30.8049 N   0  0  0  0  0  0  0  0  0  0  0  0
  2  1  1  6  0  0  0
  2  3  1  0  0  0  0
  2  5  1  0  0  0  0
  3  4  1  0  0  0  0
  3 17  1  0  0  0  0
  5  6  1  0  0  0  0
  7  6  1  6  0  0  0
  7  8  1  0  0  0  0
  7  9  1  0  0  0  0
 10  9  1  1  0  0  0
 10 11  1  0  0  0  0
 10 12  1  0  0  0  0
 11 16  1  0  0  0  0
 12 13  1  6  0  0  0
 12 14  1  0  0  0  0
 14 15  1  6  0  0  0
 14 16  1  0  0  0  0
 16 27  1  1  0  0  0
 18 19  2  0  0  0  0
 18 23  1  0  0  0  0
 19 20  1  0  0  0  0
 20 21  2  0  0  0  0
 21 22  1  0  0  0  0
 21 27  1  0  0  0  0
 22 23  2  0  0  0  0
 22 25  1  0  0  0  0
 23 24  1  0  0  0  0
 25 26  2  0  0  0  0
 26 27  1  0  0  0  0
M  END
>  <CHROM.1>
160.48892139,-167.77835025,-174.84049458,-57.13765077,-84.58800201,172.84532065
-49.13110420,47.11335470,55.98253898,28.46441958,-0.04422130,-0.94956353
3.12865030

>  <Name>
ligand

>  <RI>
0

>  <Rbt.Current_Directory>
/home/itssahil/PROJECTS/Mol_Feturizer/New_Systems/rnas/2GIS

>  <Rbt.Executable>
rbdock ($Id: //depot/dev/client3/rdock/2013.1/src/exe/rbdock.cxx#4 $)

>  <Rbt.Library>
libRbt.so (2013.1, Build901 2013/11/27)

>  <Rbt.Parameter_File>
/export/apps/rDock/src/rDock_2013.1_src/data/scripts/dock_solv.prm

>  <Rbt.Receptor>
prm/pocket_docking_8.prm

>  <SCORE>
-10.6199

>  <SCORE.INTER>
-6.83406

>  <SCORE.INTER.CONST>
1

>  <SCORE.INTER.POLAR>
0

>  <SCORE.INTER.ROT>
7

>  <SCORE.INTER.SOLV>
9.98645

>  <SCORE.INTER.VDW>
-16.1515

>  <SCORE.INTER.norm>
-0.253113

>  <SCORE.INTRA>
-3.78584

>  <SCORE.INTRA.DIHEDRAL>
-4.05301

>  <SCORE.INTRA.DIHEDRAL.0>
9.40024

>  <SCORE.INTRA.POLAR>
0

>  <SCORE.INTRA.POLAR.0>
0

>  <SCORE.INTRA.REPUL>
0

>  <SCORE.INTRA.REPUL.0>
0

>  <SCORE.INTRA.SOLV>
-2.93665

>  <SCORE.INTRA.SOLV.lig_0>
-47.1049

>  <SCORE.INTRA.VDW>
-0.291005

>  <SCORE.INTRA.VDW.0>
-1.50278

>  <SCORE.INTRA.norm>
-0.140216

>  <SCORE.RESTR>
0

>  <SCORE.RESTR.CAVITY>
0

>  <SCORE.RESTR.norm>
0

>  <SCORE.SYSTEM>
0

>  <SCORE.SYSTEM.CONST>
0

>  <SCORE.SYSTEM.DIHEDRAL>
0

>  <SCORE.SYSTEM.SOLV>
0

>  <SCORE.SYSTEM.norm>
0

>  <SCORE.heavy>
27

>  <SCORE.norm>
-0.39333

>  <RMSD>
5.717

$$$$
ligand
 OpenBabel11021811433D
libRbt.so/2013.1/901 2013/11/27
 27 29  0  0  0  0  0  0  0  0999 V2000
   47.9922   58.5001   31.0016 N   0  0  0  0  0  0  0  0  0  0  0  0
   46.9856   59.5656   31.0400 C   0  0  2  0  0  0  0  0  0  0  0  0
   47.6579   60.8858   31.3720 C   0  0  0  0  0  0  0  0  0  0  0  0
   47.0147   61.9306   31.3249 O   0  0  0  0  0  0  0  0  0  0  0  0
   45.8985   59.2540   32.0879 C   0  0  0  0  0  0  0  0  0  0  0  0
   45.1367   57.9994   31.6634 C   0  0  0  0  0  0  0  0  0  0  0  0
   46.0648   56.4210   31.8418 S   0  0  2  0  0  0  0  0  0  0  0  0
   44.8378   55.1380   31.4412 C   0  0  0  0  0  0  0  0  0  0  0  0
   46.0361   56.3879   33.6464 C   0  0  0  0  0  0  0  0  0  0  0  0
   46.9591   55.3222   34.2624 C   0  0  1  0  0  0  0  0  0  0  0  0
   46.8369   54.0864   33.4977 O   0  0  0  0  0  0  0  0  0  0  0  0
   48.3344   55.8612   33.9633 C   0  0  1  0  0  0  0  0  0  0  0  0
   48.8318   56.5745   35.0958 O   0  0  0  0  0  0  0  0  0  0  0  0
   49.1728   54.6142   33.7109 C   0  0  1  0  0  0  0  0  0  0  0  0
   49.8910   54.2072   34.8698 O   0  0  0  0  0  0  0  0  0  0  0  0
   48.1675   53.4926   33.2597 C   0  0  2  0  0  0  0  0  0  0  0  0
   48.8619   60.9219   31.6268 O   0  0  0  0  0  0  0  0  0  0  0  0
   50.9531   53.2353   28.8149 N   0  0  0  0  0  0  0  0  0  0  0  0
   51.3790   53.6049   30.0278 C   0  0  0  0  0  0  0  0  0  0  0  0
   50.5655   53.6047   31.0721 N   0  0  0  0  0  0  0  0  0  0  0  0
   49.2716   53.2650   30.9513 C   0  0  0  0  0  0  0  0  0  0  0  0
   48.7693   52.8792   29.6820 C   0  0  0  0  0  0  0  0  0  0  0  0
   49.6785   52.8741   28.5941 C   0  0  0  0  0  0  0  0  0  0  0  0
   49.2636   52.5080   27.3334 N   0  0  0  0  0  0  0  0  0  0  0  0
   47.4602   52.5961   29.8349 N   0  0  0  0  0  0  0  0  0  0  0  0
   47.1262   52.7848   31.0780 C   0  0  0  0  0  0  0  0  0  0  0  0
   48.2044   53.1925   31.8131 N   0  0  0  0  0  0  0  0  0  0  0  0
  2  1  1  1  0  0  0
  2  3  1  0  0  0  0
  2  5  1  0  0  0  0
  3  4  1  0  0  0  0
  3 17  1  0  0  0  0
  5  6  1  0  0  0  0
  7  6  1  1  0  0  0
  7  8  1  0  0  0  0
  7  9  1  0  0  0  0
 10  9  1  6  0  0  0
 10 11  1  0  0  0  0
 10 12  1  0  0  0  0
 11 16  1  0  0  0  0
 12 13  1  1  0  0  0
 12 14  1  0  0  0  0
 14 15  1  1  0  0  0
 14 16  1  0  0  0  0
 16 27  1  6  0  0  0
 18 19  2  0  0  0  0
 18 23  1  0  0  0  0
 19 20  1  0  0  0  0
 20 21  2  0  0  0  0
 21 22  1  0  0  0  0
 21 27  1  0  0  0  0
 22 23  2  0  0  0  0
 22 25  1  0  0  0  0
 23 24  1  0  0  0  0
 25 26  2  0  0  0  0
 26 27  1  0  0  0  0
M  END
>  <CHROM.1>
172.85671098,-64.62350333,72.52906018,173.86392556,-169.08678689,-42.35049907
144.79550690,47.92853337,55.74011680,31.73463524,-2.54603438,-1.16979694
2.44747899

>  <Name>
ligand

>  <RI>
0

>  <Rbt.Current_Directory>
/home/itssahil/PROJECTS/Mol_Feturizer/New_Systems/rnas/2GIS

>  <Rbt.Executable>
rbdock ($Id: //depot/dev/client3/rdock/2013.1/src/exe/rbdock.cxx#4 $)

>  <Rbt.Library>
libRbt.so (2013.1, Build901 2013/11/27)

>  <Rbt.Parameter_File>
/export/apps/rDock/src/rDock_2013.1_src/data/scripts/dock_solv.prm

>  <Rbt.Receptor>
prm/pocket_docking_6.prm

>  <SCORE>
-16.2292

>  <SCORE.INTER>
-13.2578

>  <SCORE.INTER.CONST>
1

>  <SCORE.INTER.POLAR>
0

>  <SCORE.INTER.ROT>
7

>  <SCORE.INTER.SOLV>
8.75908

>  <SCORE.INTER.VDW>
-20.0249

>  <SCORE.INTER.norm>
-0.491031

>  <SCORE.INTRA>
-2.97322

>  <SCORE.INTRA.DIHEDRAL>
-3.5341

>  <SCORE.INTRA.DIHEDRAL.0>
9.40024

>  <SCORE.INTRA.POLAR>
0

>  <SCORE.INTRA.POLAR.0>
0

>  <SCORE.INTRA.REPUL>
0

>  <SCORE.INTRA.REPUL.0>
0

>  <SCORE.INTRA.SOLV>
0.122277

>  <SCORE.INTRA.SOLV.lig_0>
-47.1049

>  <SCORE.INTRA.VDW>
-1.26731

>  <SCORE.INTRA.VDW.0>
-1.50278

>  <SCORE.INTRA.norm>
-0.110119

>  <SCORE.RESTR>
0.00184104

>  <SCORE.RESTR.CAVITY>
0.00184104

>  <SCORE.RESTR.norm>
6.81866e-05

>  <SCORE.SYSTEM>
0

>  <SCORE.SYSTEM.CONST>
0

>  <SCORE.SYSTEM.DIHEDRAL>
0

>  <SCORE.SYSTEM.SOLV>
0

>  <SCORE.SYSTEM.norm>
0

>  <SCORE.heavy>
27

>  <SCORE.norm>
-0.601082

>  <RMSD>
5.726

$$$$
ligand
 OpenBabel11021811433D
libRbt.so/2013.1/901 2013/11/27
 27 29  0  0  0  0  0  0  0  0999 V2000
   48.7948   56.5122   28.7133 N   0  0  0  0  0  0  0  0  0  0  0  0
   48.0616   57.6777   29.2171 C   0  0  2  0  0  0  0  0  0  0  0  0
   47.2420   58.2853   28.0926 C   0  0  0  0  0  0  0  0  0  0  0  0
   47.7560   58.4791   26.9946 O   0  0  0  0  0  0  0  0  0  0  0  0
   49.0327   58.7317   29.7853 C   0  0  0  0  0  0  0  0  0  0  0  0
   49.5978   58.2298   31.1131 C   0  0  0  0  0  0  0  0  0  0  0  0
   48.6484   58.7287   32.6078 S   0  0  2  0  0  0  0  0  0  0  0  0
   49.8924   59.5094   33.6826 C   0  0  0  0  0  0  0  0  0  0  0  0
   48.5459   57.0761   33.3268 C   0  0  0  0  0  0  0  0  0  0  0  0
   47.2975   56.2875   32.8945 C   0  0  1  0  0  0  0  0  0  0  0  0
   47.3122   54.9803   33.5408 O   0  0  0  0  0  0  0  0  0  0  0  0
   46.1767   57.0587   33.5430 C   0  0  1  0  0  0  0  0  0  0  0  0
   45.6087   57.9706   32.6025 O   0  0  0  0  0  0  0  0  0  0  0  0
   45.1624   55.9868   33.9226 C   0  0  1  0  0  0  0  0  0  0  0  0
   44.1324   55.8547   32.9499 O   0  0  0  0  0  0  0  0  0  0  0  0
   45.9709   54.6453   34.0592 C   0  0  2  0  0  0  0  0  0  0  0  0
   46.0816   58.6437   28.2946 O   0  0  0  0  0  0  0  0  0  0  0  0
   49.1089   54.5522   38.2694 N   0  0  0  0  0  0  0  0  0  0  0  0
   49.3457   55.1254   37.0843 C   0  0  0  0  0  0  0  0  0  0  0  0
   48.4500   55.0869   36.1103 N   0  0  0  0  0  0  0  0  0  0  0  0
   47.2805   54.4434   36.2599 C   0  0  0  0  0  0  0  0  0  0  0  0
   46.9893   53.8076   37.4942 C   0  0  0  0  0  0  0  0  0  0  0  0
   47.9673   53.8896   38.5175 C   0  0  0  0  0  0  0  0  0  0  0  0
   47.7532   53.2995   39.7429 N   0  0  0  0  0  0  0  0  0  0  0  0
   45.7715   53.2412   37.3791 N   0  0  0  0  0  0  0  0  0  0  0  0
   45.3067   53.4700   36.1858 C   0  0  0  0  0  0  0  0  0  0  0  0
   46.1925   54.2111   35.4544 N   0  0  0  0  0  0  0  0  0  0  0  0
  2  1  1  6  0  0  0
  2  3  1  0  0  0  0
  2  5  1  0  0  0  0
  3  4  1  0  0  0  0
  3 17  1  0  0  0  0
  5  6  1  0  0  0  0
  7  6  1  6  0  0  0
  7  8  1  0  0  0  0
  7  9  1  0  0  0  0
 10  9  1  1  0  0  0
 10 11  1  0  0  0  0
 10 12  1  0  0  0  0
 11 16  1  0  0  0  0
 12 13  1  6  0  0  0
 12 14  1  0  0  0  0
 14 15  1  6  0  0  0
 14 16  1  0  0  0  0
 16 27  1  1  0  0  0
 18 19  2  0  0  0  0
 18 23  1  0  0  0  0
 19 20  1  0  0  0  0
 20 21  2  0  0  0  0
 21 22  1  0  0  0  0
 21 27  1  0  0  0  0
 22 23  2  0  0  0  0
 22 25  1  0  0  0  0
 23 24  1  0  0  0  0
 25 26  2  0  0  0  0
 26 27  1  0  0  0  0
M  END
>  <CHROM.1>
-46.92258025,-72.58896991,-91.32491278,-126.45739411,-90.58264082,-179.49339318
18.72444206,47.43420162,56.33328474,33.45688505,-1.49995724,0.48803042,2.02017014

>  <Name>
ligand

>  <RI>
0

>  <Rbt.Current_Directory>
/home/itssahil/PROJECTS/Mol_Feturizer/New_Systems/rnas/2GIS

>  <Rbt.Executable>
rbdock ($Id: //depot/dev/client3/rdock/2013.1/src/exe/rbdock.cxx#4 $)

>  <Rbt.Library>
libRbt.so (2013.1, Build901 2013/11/27)

>  <Rbt.Parameter_File>
/export/apps/rDock/src/rDock_2013.1_src/data/scripts/dock_solv.prm

>  <Rbt.Receptor>
prm/pocket_docking_7.prm

>  <SCORE>
-20.8825

>  <SCORE.INTER>
-19.6039

>  <SCORE.INTER.CONST>
1

>  <SCORE.INTER.POLAR>
0

>  <SCORE.INTER.ROT>
7

>  <SCORE.INTER.SOLV>
10.4619

>  <SCORE.INTER.VDW>
-24.8232

>  <SCORE.INTER.norm>
-0.726069

>  <SCORE.INTRA>
-1.27868

>  <SCORE.INTRA.DIHEDRAL>
3.09979

>  <SCORE.INTRA.DIHEDRAL.0>
9.40024

>  <SCORE.INTRA.POLAR>
0

>  <SCORE.INTRA.POLAR.0>
0

>  <SCORE.INTRA.REPUL>
0

>  <SCORE.INTRA.REPUL.0>
0

>  <SCORE.INTRA.SOLV>
-1.91109

>  <SCORE.INTRA.SOLV.lig_0>
-47.1049

>  <SCORE.INTRA.VDW>
-1.87302

>  <SCORE.INTRA.VDW.0>
-1.50278

>  <SCORE.INTRA.norm>
-0.0473583

>  <SCORE.RESTR>
0

>  <SCORE.RESTR.CAVITY>
0

>  <SCORE.RESTR.norm>
0

>  <SCORE.SYSTEM>
0

>  <SCORE.SYSTEM.CONST>
0

>  <SCORE.SYSTEM.DIHEDRAL>
0

>  <SCORE.SYSTEM.SOLV>
0

>  <SCORE.SYSTEM.norm>
0

>  <SCORE.heavy>
27

>  <SCORE.norm>
-0.773428

>  <RMSD>
5.742

$$$$
ligand
 OpenBabel11021811433D
libRbt.so/2013.1/901 2013/11/27
 27 29  0  0  0  0  0  0  0  0999 V2000
   48.0055   58.4737   28.9855 N   0  0  0  0  0  0  0  0  0  0  0  0
   46.9550   58.5185   30.0074 C   0  0  2  0  0  0  0  0  0  0  0  0
   45.5943   58.4358   29.3389 C   0  0  0  0  0  0  0  0  0  0  0  0
   44.8762   57.4581   29.5285 O   0  0  0  0  0  0  0  0  0  0  0  0
   47.0527   59.8147   30.8365 C   0  0  0  0  0  0  0  0  0  0  0  0
   48.3286   59.7786   31.6764 C   0  0  0  0  0  0  0  0  0  0  0  0
   48.2830   58.6428   33.1228 S   0  0  2  0  0  0  0  0  0  0  0  0
   49.9371   58.8034   33.8645 C   0  0  0  0  0  0  0  0  0  0  0  0
   48.4673   57.1191   32.1723 C   0  0  0  0  0  0  0  0  0  0  0  0
   48.0354   55.8552   32.9360 C   0  0  1  0  0  0  0  0  0  0  0  0
   47.3588   54.9497   32.0146 O   0  0  0  0  0  0  0  0  0  0  0  0
   49.3523   55.2018   33.2681 C   0  0  1  0  0  0  0  0  0  0  0  0
   49.7471   55.5544   34.5942 O   0  0  0  0  0  0  0  0  0  0  0  0
   49.0564   53.7097   33.1810 C   0  0  1  0  0  0  0  0  0  0  0  0
   48.7744   53.1436   34.4556 O   0  0  0  0  0  0  0  0  0  0  0  0
   47.8183   53.5622   32.2231 C   0  0  2  0  0  0  0  0  0  0  0  0
   45.2331   59.3152   28.5565 O   0  0  0  0  0  0  0  0  0  0  0  0
   51.3721   53.0651   28.3884 N   0  0  0  0  0  0  0  0  0  0  0  0
   51.5231   53.6715   29.5710 C   0  0  0  0  0  0  0  0  0  0  0  0
   50.5404   53.7052   30.4572 N   0  0  0  0  0  0  0  0  0  0  0  0
   49.3411   53.1608   30.1935 C   0  0  0  0  0  0  0  0  0  0  0  0
   49.1277   52.5186   28.9468 C   0  0  0  0  0  0  0  0  0  0  0  0
   50.2124   52.4876   28.0342 C   0  0  0  0  0  0  0  0  0  0  0  0
   50.0804   51.8792   26.8062 N   0  0  0  0  0  0  0  0  0  0  0  0
   47.8572   52.0682   28.9369 N   0  0  0  0  0  0  0  0  0  0  0  0
   47.2833   52.3881   30.0596 C   0  0  0  0  0  0  0  0  0  0  0  0
   48.1526   53.0584   30.8746 N   0  0  0  0  0  0  0  0  0  0  0  0
  2  1  1  6  0  0  0
  2  3  1  0  0  0  0
  2  5  1  0  0  0  0
  3  4  1  0  0  0  0
  3 17  1  0  0  0  0
  5  6  1  0  0  0  0
  7  6  1  6  0  0  0
  7  8  1  0  0  0  0
  7  9  1  0  0  0  0
 10  9  1  6  0  0  0
 10 11  1  0  0  0  0
 10 12  1  0  0  0  0
 11 16  1  0  0  0  0
 12 13  1  1  0  0  0
 12 14  1  0  0  0  0
 14 15  1  1  0  0  0
 14 16  1  0  0  0  0
 16 27  1  6  0  0  0
 18 19  2  0  0  0  0
 18 23  1  0  0  0  0
 19 20  1  0  0  0  0
 20 21  2  0  0  0  0
 21 22  1  0  0  0  0
 21 27  1  0  0  0  0
 22 23  2  0  0  0  0
 22 25  1  0  0  0  0
 23 24  1  0  0  0  0
 25 26  2  0  0  0  0
 26 27  1  0  0  0  0
M  END
>  <CHROM.1>
114.26832889,-67.87145886,-73.83512546,178.55903662,-161.34729907,141.57949981
87.42781734,48.41233864,55.64645058,31.01818530,2.31694332,-1.06804355,0.96755698

>  <Name>
ligand

>  <RI>
0

>  <Rbt.Current_Directory>
/home/itssahil/PROJECTS/Mol_Feturizer/New_Systems/rnas/2GIS

>  <Rbt.Executable>
rbdock ($Id: //depot/dev/client3/rdock/2013.1/src/exe/rbdock.cxx#4 $)

>  <Rbt.Library>
libRbt.so (2013.1, Build901 2013/11/27)

>  <Rbt.Parameter_File>
/export/apps/rDock/src/rDock_2013.1_src/data/scripts/dock_solv.prm

>  <Rbt.Receptor>
prm/pocket_docking_5.prm

>  <SCORE>
-16.5127

>  <SCORE.INTER>
-14.7472

>  <SCORE.INTER.CONST>
1

>  <SCORE.INTER.POLAR>
0

>  <SCORE.INTER.ROT>
7

>  <SCORE.INTER.SOLV>
12.424

>  <SCORE.INTER.VDW>
-22.2395

>  <SCORE.INTER.norm>
-0.546193

>  <SCORE.INTRA>
-1.76553

>  <SCORE.INTRA.DIHEDRAL>
0.0836507

>  <SCORE.INTRA.DIHEDRAL.0>
9.40024

>  <SCORE.INTRA.POLAR>
0

>  <SCORE.INTRA.POLAR.0>
0

>  <SCORE.INTRA.REPUL>
0

>  <SCORE.INTRA.REPUL.0>
0

>  <SCORE.INTRA.SOLV>
-0.929134

>  <SCORE.INTRA.SOLV.lig_0>
-47.1049

>  <SCORE.INTRA.VDW>
-1.34279

>  <SCORE.INTRA.VDW.0>
-1.50278

>  <SCORE.INTRA.norm>
-0.0653899

>  <SCORE.RESTR>
0

>  <SCORE.RESTR.CAVITY>
0

>  <SCORE.RESTR.norm>
0

>  <SCORE.SYSTEM>
0

>  <SCORE.SYSTEM.CONST>
0

>  <SCORE.SYSTEM.DIHEDRAL>
0

>  <SCORE.SYSTEM.SOLV>
0

>  <SCORE.SYSTEM.norm>
0

>  <SCORE.heavy>
27

>  <SCORE.norm>
-0.611583

>  <RMSD>
5.756

$$$$
ligand
 OpenBabel11021811433D
libRbt.so/2013.1/901 2013/11/27
 27 29  0  0  0  0  0  0  0  0999 V2000
   48.1464   58.6238   28.1325 N   0  0  0  0  0  0  0  0  0  0  0  0
   47.3144   57.6393   28.8313 C   0  0  2  0  0  0  0  0  0  0  0  0
   46.1276   58.3401   29.4682 C   0  0  0  0  0  0  0  0  0  0  0  0
   46.2238   59.5127   29.8193 O   0  0  0  0  0  0  0  0  0  0  0  0
   48.1295   56.9030   29.9131 C   0  0  0  0  0  0  0  0  0  0  0  0
   48.9214   57.9248   30.7276 C   0  0  0  0  0  0  0  0  0  0  0  0
   47.9778   58.7596   32.0682 S   0  0  2  0  0  0  0  0  0  0  0  0
   49.2211   59.7867   32.9115 C   0  0  0  0  0  0  0  0  0  0  0  0
   47.8992   57.3271   33.1639 C   0  0  0  0  0  0  0  0  0  0  0  0
   46.8439   56.2867   32.7506 C   0  0  1  0  0  0  0  0  0  0  0  0
   47.1138   55.0326   33.4443 O   0  0  0  0  0  0  0  0  0  0  0  0
   45.5799   56.8352   33.3612 C   0  0  1  0  0  0  0  0  0  0  0  0
   44.8531   57.5797   32.3834 O   0  0  0  0  0  0  0  0  0  0  0  0
   44.7988   55.5928   33.7714 C   0  0  1  0  0  0  0  0  0  0  0  0
   43.8323   55.2207   32.7958 O   0  0  0  0  0  0  0  0  0  0  0  0
   45.8608   54.4494   33.9635 C   0  0  2  0  0  0  0  0  0  0  0  0
   45.0882   57.7196   29.6927 O   0  0  0  0  0  0  0  0  0  0  0  0
   49.1602   54.7018   38.0417 N   0  0  0  0  0  0  0  0  0  0  0  0
   49.3400   55.1948   36.8114 C   0  0  0  0  0  0  0  0  0  0  0  0
   48.4083   55.0738   35.8789 N   0  0  0  0  0  0  0  0  0  0  0  0
   47.2581   54.4231   36.1190 C   0  0  0  0  0  0  0  0  0  0  0  0
   47.0270   53.8702   37.4048 C   0  0  0  0  0  0  0  0  0  0  0  0
   48.0420   54.0394   38.3802 C   0  0  0  0  0  0  0  0  0  0  0  0
   47.8868   53.5327   39.6510 N   0  0  0  0  0  0  0  0  0  0  0  0
   45.8168   53.2772   37.3777 N   0  0  0  0  0  0  0  0  0  0  0  0
   45.3019   53.4145   36.1910 C   0  0  0  0  0  0  0  0  0  0  0  0
   46.1444   54.1173   35.3754 N   0  0  0  0  0  0  0  0  0  0  0  0
  2  1  1  1  0  0  0
  2  3  1  0  0  0  0
  2  5  1  0  0  0  0
  3  4  1  0  0  0  0
  3 17  1  0  0  0  0
  5  6  1  0  0  0  0
  7  6  1  6  0  0  0
  7  8  1  0  0  0  0
  7  9  1  0  0  0  0
 10  9  1  1  0  0  0
 10 11  1  0  0  0  0
 10 12  1  0  0  0  0
 11 16  1  0  0  0  0
 12 13  1  6  0  0  0
 12 14  1  0  0  0  0
 14 15  1  6  0  0  0
 14 16  1  0  0  0  0
 16 27  1  1  0  0  0
 18 19  2  0  0  0  0
 18 23  1  0  0  0  0
 19 20  1  0  0  0  0
 20 21  2  0  0  0  0
 21 22  1  0  0  0  0
 21 27  1  0  0  0  0
 22 23  2  0  0  0  0
 22 25  1  0  0  0  0
 23 24  1  0  0  0  0
 25 26  2  0  0  0  0
 26 27  1  0  0  0  0
M  END
>  <CHROM.1>
-28.74394076,46.67579397,82.15705588,175.54454742,-77.75240084,163.97997258
7.45142044,46.99254226,56.31002754,33.46891459,-1.60046200,0.45404069,2.11896590

>  <Name>
ligand

>  <RI>
0

>  <Rbt.Current_Directory>
/home/itssahil/PROJECTS/Mol_Feturizer/New_Systems/rnas/2GIS

>  <Rbt.Executable>
rbdock ($Id: //depot/dev/client3/rdock/2013.1/src/exe/rbdock.cxx#4 $)

>  <Rbt.Library>
libRbt.so (2013.1, Build901 2013/11/27)

>  <Rbt.Parameter_File>
/export/apps/rDock/src/rDock_2013.1_src/data/scripts/dock_solv.prm

>  <Rbt.Receptor>
prm/pocket_docking_7.prm

>  <SCORE>
-19.1919

>  <SCORE.INTER>
-15.4086

>  <SCORE.INTER.CONST>
1

>  <SCORE.INTER.POLAR>
0

>  <SCORE.INTER.ROT>
7

>  <SCORE.INTER.SOLV>
12.5349

>  <SCORE.INTER.VDW>
-22.7174

>  <SCORE.INTER.norm>
-0.57069

>  <SCORE.INTRA>
-3.7833

>  <SCORE.INTRA.DIHEDRAL>
-2.81658

>  <SCORE.INTRA.DIHEDRAL.0>
9.40024

>  <SCORE.INTRA.POLAR>
0

>  <SCORE.INTRA.POLAR.0>
0

>  <SCORE.INTRA.REPUL>
0

>  <SCORE.INTRA.REPUL.0>
0

>  <SCORE.INTRA.SOLV>
-1.13431

>  <SCORE.INTRA.SOLV.lig_0>
-47.1049

>  <SCORE.INTRA.VDW>
-1.80785

>  <SCORE.INTRA.VDW.0>
-1.50278

>  <SCORE.INTRA.norm>
-0.140122

>  <SCORE.RESTR>
0

>  <SCORE.RESTR.CAVITY>
0

>  <SCORE.RESTR.norm>
0

>  <SCORE.SYSTEM>
0

>  <SCORE.SYSTEM.CONST>
0

>  <SCORE.SYSTEM.DIHEDRAL>
0

>  <SCORE.SYSTEM.SOLV>
0

>  <SCORE.SYSTEM.norm>
0

>  <SCORE.heavy>
27

>  <SCORE.norm>
-0.710812

>  <RMSD>
5.782

$$$$
ligand
 OpenBabel11021811433D
libRbt.so/2013.1/901 2013/11/27
 27 29  0  0  0  0  0  0  0  0999 V2000
   44.9550   57.8065   33.3860 N   0  0  0  0  0  0  0  0  0  0  0  0
   46.0625   57.9686   32.4389 C   0  0  2  0  0  0  0  0  0  0  0  0
   47.3829   57.8169   33.1729 C   0  0  0  0  0  0  0  0  0  0  0  0
   47.6623   56.7534   33.7192 O   0  0  0  0  0  0  0  0  0  0  0  0
   45.9999   59.3487   31.7545 C   0  0  0  0  0  0  0  0  0  0  0  0
   46.5052   59.2204   30.3183 C   0  0  0  0  0  0  0  0  0  0  0  0
   48.1412   58.3995   30.1333 S   0  0  2  0  0  0  0  0  0  0  0  0
   48.5639   58.6443   28.3801 C   0  0  0  0  0  0  0  0  0  0  0  0
   47.5038   56.7107   30.1117 C   0  0  0  0  0  0  0  0  0  0  0  0
   48.5977   55.6332   30.2083 C   0  0  1  0  0  0  0  0  0  0  0  0
   48.9724   55.4586   31.6069 O   0  0  0  0  0  0  0  0  0  0  0  0
   47.8625   54.3775   29.8156 C   0  0  1  0  0  0  0  0  0  0  0  0
   48.0773   54.1035   28.4310 O   0  0  0  0  0  0  0  0  0  0  0  0
   48.4982   53.2930   30.6766 C   0  0  1  0  0  0  0  0  0  0  0  0
   49.5134   52.5808   29.9789 O   0  0  0  0  0  0  0  0  0  0  0  0
   49.0978   54.0241   31.9328 C   0  0  2  0  0  0  0  0  0  0  0  0
   48.1481   58.7757   33.2776 O   0  0  0  0  0  0  0  0  0  0  0  0
   48.8017   54.5227   37.1525 N   0  0  0  0  0  0  0  0  0  0  0  0
   49.8218   54.8570   36.3546 C   0  0  0  0  0  0  0  0  0  0  0  0
   49.7521   54.6922   35.0431 N   0  0  0  0  0  0  0  0  0  0  0  0
   48.6678   54.1527   34.4622 C   0  0  0  0  0  0  0  0  0  0  0  0
   47.5653   53.7689   35.2681 C   0  0  0  0  0  0  0  0  0  0  0  0
   47.6732   53.9808   36.6658 C   0  0  0  0  0  0  0  0  0  0  0  0
   46.6421   53.6359   37.5105 N   0  0  0  0  0  0  0  0  0  0  0  0
   46.6240   53.2597   34.4485 N   0  0  0  0  0  0  0  0  0  0  0  0
   47.0622   53.2934   33.2241 C   0  0  0  0  0  0  0  0  0  0  0  0
   48.3147   53.8389   33.1724 N   0  0  0  0  0  0  0  0  0  0  0  0
  2  1  1  1  0  0  0
  2  3  1  0  0  0  0
  2  5  1  0  0  0  0
  3  4  1  0  0  0  0
  3 17  1  0  0  0  0
  5  6  1  0  0  0  0
  7  6  1  6  0  0  0
  7  8  1  0  0  0  0
  7  9  1  0  0  0  0
 10  9  1  1  0  0  0
 10 11  1  0  0  0  0
 10 12  1  0  0  0  0
 11 16  1  0  0  0  0
 12 13  1  6  0  0  0
 12 14  1  0  0  0  0
 14 15  1  6  0  0  0
 14 16  1  0  0  0  0
 16 27  1  1  0  0  0
 18 19  2  0  0  0  0
 18 23  1  0  0  0  0
 19 20  1  0  0  0  0
 20 21  2  0  0  0  0
 21 22  1  0  0  0  0
 21 27  1  0  0  0  0
 22 23  2  0  0  0  0
 22 25  1  0  0  0  0
 23 24  1  0  0  0  0
 25 26  2  0  0  0  0
 26 27  1  0  0  0  0
M  END
>  <CHROM.1>
62.43504576,-145.88565507,-51.58571983,-171.26672550,-170.03018281,81.89074890
-78.08260689,47.89204295,55.76224445,32.48246487,1.73052927,1.23169452,-1.16375542

>  <Name>
ligand

>  <RI>
0

>  <Rbt.Current_Directory>
/home/itssahil/PROJECTS/Mol_Feturizer/New_Systems/rnas/2GIS

>  <Rbt.Executable>
rbdock ($Id: //depot/dev/client3/rdock/2013.1/src/exe/rbdock.cxx#4 $)

>  <Rbt.Library>
libRbt.so (2013.1, Build901 2013/11/27)

>  <Rbt.Parameter_File>
/export/apps/rDock/src/rDock_2013.1_src/data/scripts/dock_solv.prm

>  <Rbt.Receptor>
prm/pocket_docking_6.prm

>  <SCORE>
-13.5581

>  <SCORE.INTER>
-11.0659

>  <SCORE.INTER.CONST>
1

>  <SCORE.INTER.POLAR>
0

>  <SCORE.INTER.ROT>
7

>  <SCORE.INTER.SOLV>
16.3355

>  <SCORE.INTER.VDW>
-21.0891

>  <SCORE.INTER.norm>
-0.409849

>  <SCORE.INTRA>
-2.49223

>  <SCORE.INTRA.DIHEDRAL>
0.747511

>  <SCORE.INTRA.DIHEDRAL.0>
9.40024

>  <SCORE.INTRA.POLAR>
0

>  <SCORE.INTRA.POLAR.0>
0

>  <SCORE.INTRA.REPUL>
0

>  <SCORE.INTRA.REPUL.0>
0

>  <SCORE.INTRA.SOLV>
-2.42788

>  <SCORE.INTRA.SOLV.lig_0>
-47.1049

>  <SCORE.INTRA.VDW>
-1.65205

>  <SCORE.INTRA.VDW.0>
-1.50278

>  <SCORE.INTRA.norm>
-0.0923049

>  <SCORE.RESTR>
0

>  <SCORE.RESTR.CAVITY>
0

>  <SCORE.RESTR.norm>
0

>  <SCORE.SYSTEM>
0

>  <SCORE.SYSTEM.CONST>
0

>  <SCORE.SYSTEM.DIHEDRAL>
0

>  <SCORE.SYSTEM.SOLV>
0

>  <SCORE.SYSTEM.norm>
0

>  <SCORE.heavy>
27

>  <SCORE.norm>
-0.502154

>  <RMSD>
5.821

$$$$
ligand
 OpenBabel11021811433D
libRbt.so/2013.1/901 2013/11/27
 27 29  0  0  0  0  0  0  0  0999 V2000
   45.9345   59.0436   30.9082 N   0  0  0  0  0  0  0  0  0  0  0  0
   47.1055   59.2895   31.7556 C   0  0  2  0  0  0  0  0  0  0  0  0
   47.5690   60.7241   31.5751 C   0  0  0  0  0  0  0  0  0  0  0  0
   46.8427   61.5367   31.0097 O   0  0  0  0  0  0  0  0  0  0  0  0
   48.2512   58.3209   31.4007 C   0  0  0  0  0  0  0  0  0  0  0  0
   47.9175   56.9300   31.9380 C   0  0  0  0  0  0  0  0  0  0  0  0
   47.6826   56.8291   33.7598 S   0  0  2  0  0  0  0  0  0  0  0  0
   49.3751   56.7160   34.4191 C   0  0  0  0  0  0  0  0  0  0  0  0
   47.1743   55.0971   33.7890 C   0  0  0  0  0  0  0  0  0  0  0  0
   46.3232   54.7206   35.0142 C   0  0  1  0  0  0  0  0  0  0  0  0
   44.9823   55.2698   34.8498 O   0  0  0  0  0  0  0  0  0  0  0  0
   46.1803   53.2270   34.8728 C   0  0  1  0  0  0  0  0  0  0  0  0
   47.1607   52.5686   35.6753 O   0  0  0  0  0  0  0  0  0  0  0  0
   44.7806   52.9384   35.4012 C   0  0  1  0  0  0  0  0  0  0  0  0
   44.7959   52.5257   36.7628 O   0  0  0  0  0  0  0  0  0  0  0  0
   43.9646   54.2722   35.2357 C   0  0  2  0  0  0  0  0  0  0  0  0
   48.6965   61.0617   31.9365 O   0  0  0  0  0  0  0  0  0  0  0  0
   42.4788   56.1826   30.5747 N   0  0  0  0  0  0  0  0  0  0  0  0
   43.5438   56.5360   31.3026 C   0  0  0  0  0  0  0  0  0  0  0  0
   43.8098   55.9528   32.4608 N   0  0  0  0  0  0  0  0  0  0  0  0
   43.0043   55.0054   32.9687 C   0  0  0  0  0  0  0  0  0  0  0  0
   41.8543   54.6065   32.2402 C   0  0  0  0  0  0  0  0  0  0  0  0
   41.6170   55.2422   30.9953 C   0  0  0  0  0  0  0  0  0  0  0  0
   40.5224   54.9046   30.2313 N   0  0  0  0  0  0  0  0  0  0  0  0
   41.2269   53.6580   32.9640 N   0  0  0  0  0  0  0  0  0  0  0  0
   41.8888   53.4557   34.0655 C   0  0  0  0  0  0  0  0  0  0  0  0
   42.9964   54.2552   34.1192 N   0  0  0  0  0  0  0  0  0  0  0  0
  2  1  1  6  0  0  0
  2  3  1  0  0  0  0
  2  5  1  0  0  0  0
  3  4  1  0  0  0  0
  3 17  1  0  0  0  0
  5  6  1  0  0  0  0
  7  6  1  6  0  0  0
  7  8  1  0  0  0  0
  7  9  1  0  0  0  0
 10  9  1  6  0  0  0
 10 11  1  0  0  0  0
 10 12  1  0  0  0  0
 11 16  1  0  0  0  0
 12 13  1  1  0  0  0
 12 14  1  0  0  0  0
 14 15  1  1  0  0  0
 14 16  1  0  0  0  0
 16 27  1  6  0  0  0
 18 19  2  0  0  0  0
 18 23  1  0  0  0  0
 19 20  1  0  0  0  0
 20 21  2  0  0  0  0
 21 22  1  0  0  0  0
 21 27  1  0  0  0  0
 22 23  2  0  0  0  0
 22 25  1  0  0  0  0
 23 24  1  0  0  0  0
 25 26  2  0  0  0  0
 26 27  1  0  0  0  0
M  END
>  <CHROM.1>
13.49241511,-74.18955214,-59.90721897,-81.95069499,-155.86202521,74.15850802
-0.81903139,45.31561744,56.03118878,33.11587802,0.85375428,-0.41062234,-0.67242007

>  <Name>
ligand

>  <RI>
0

>  <Rbt.Current_Directory>
/home/itssahil/PROJECTS/Mol_Feturizer/New_Systems/rnas/2GIS

>  <Rbt.Executable>
rbdock ($Id: //depot/dev/client3/rdock/2013.1/src/exe/rbdock.cxx#4 $)

>  <Rbt.Library>
libRbt.so (2013.1, Build901 2013/11/27)

>  <Rbt.Parameter_File>
/export/apps/rDock/src/rDock_2013.1_src/data/scripts/dock_solv.prm

>  <Rbt.Receptor>
prm/pocket_docking_8.prm

>  <SCORE>
-17.1313

>  <SCORE.INTER>
-14.1068

>  <SCORE.INTER.CONST>
1

>  <SCORE.INTER.POLAR>
0

>  <SCORE.INTER.ROT>
7

>  <SCORE.INTER.SOLV>
10.6314

>  <SCORE.INTER.VDW>
-21.215

>  <SCORE.INTER.norm>
-0.522475

>  <SCORE.INTRA>
-3.02449

>  <SCORE.INTRA.DIHEDRAL>
-1.7446

>  <SCORE.INTRA.DIHEDRAL.0>
9.40024

>  <SCORE.INTRA.POLAR>
0

>  <SCORE.INTRA.POLAR.0>
0

>  <SCORE.INTRA.REPUL>
0

>  <SCORE.INTRA.REPUL.0>
0

>  <SCORE.INTRA.SOLV>
-1.74239

>  <SCORE.INTRA.SOLV.lig_0>
-47.1049

>  <SCORE.INTRA.VDW>
-1.28099

>  <SCORE.INTRA.VDW.0>
-1.50278

>  <SCORE.INTRA.norm>
-0.112018

>  <SCORE.RESTR>
0

>  <SCORE.RESTR.CAVITY>
0

>  <SCORE.RESTR.norm>
0

>  <SCORE.SYSTEM>
0

>  <SCORE.SYSTEM.CONST>
0

>  <SCORE.SYSTEM.DIHEDRAL>
0

>  <SCORE.SYSTEM.SOLV>
0

>  <SCORE.SYSTEM.norm>
0

>  <SCORE.heavy>
27

>  <SCORE.norm>
-0.634493

>  <RMSD>
5.827

$$$$
ligand
 OpenBabel11021811433D
libRbt.so/2013.1/901 2013/11/27
 27 29  0  0  0  0  0  0  0  0999 V2000
   47.8858   54.8238   31.1665 N   0  0  0  0  0  0  0  0  0  0  0  0
   49.2553   55.3475   31.1647 C   0  0  2  0  0  0  0  0  0  0  0  0
   50.2179   54.2469   30.7554 C   0  0  0  0  0  0  0  0  0  0  0  0
   50.2873   53.2154   31.4177 O   0  0  0  0  0  0  0  0  0  0  0  0
   49.6376   55.8855   32.5580 C   0  0  0  0  0  0  0  0  0  0  0  0
   48.7508   57.0834   32.8944 C   0  0  0  0  0  0  0  0  0  0  0  0
   49.0391   58.5842   31.8703 S   0  0  2  0  0  0  0  0  0  0  0  0
   50.3363   59.4911   32.7686 C   0  0  0  0  0  0  0  0  0  0  0  0
   47.5565   59.4649   32.4042 C   0  0  0  0  0  0  0  0  0  0  0  0
   46.3245   59.1976   31.5222 C   0  0  1  0  0  0  0  0  0  0  0  0
   46.6998   59.3484   30.1210 O   0  0  0  0  0  0  0  0  0  0  0  0
   46.0802   57.7251   31.7304 C   0  0  1  0  0  0  0  0  0  0  0  0
   45.0813   57.5370   32.7332 O   0  0  0  0  0  0  0  0  0  0  0  0
   45.5730   57.2402   30.3779 C   0  0  1  0  0  0  0  0  0  0  0  0
   44.1522   57.1823   30.3273 O   0  0  0  0  0  0  0  0  0  0  0  0
   46.1245   58.2557   29.3118 C   0  0  2  0  0  0  0  0  0  0  0  0
   50.9755   54.4096   29.7987 O   0  0  0  0  0  0  0  0  0  0  0  0
   47.8921   54.7238   25.8501 N   0  0  0  0  0  0  0  0  0  0  0  0
   46.6596   54.8248   26.3599 C   0  0  0  0  0  0  0  0  0  0  0  0
   46.3459   55.7841   27.2164 N   0  0  0  0  0  0  0  0  0  0  0  0
   47.2596   56.6757   27.6342 C   0  0  0  0  0  0  0  0  0  0  0  0
   48.5844   56.6010   27.1326 C   0  0  0  0  0  0  0  0  0  0  0  0
   48.8732   55.5708   26.2023 C   0  0  0  0  0  0  0  0  0  0  0  0
   50.1362   55.4381   25.6703 N   0  0  0  0  0  0  0  0  0  0  0  0
   49.2902   57.5954   27.7071 N   0  0  0  0  0  0  0  0  0  0  0  0
   48.5142   58.2564   28.5153 C   0  0  0  0  0  0  0  0  0  0  0  0
   47.2498   57.7367   28.5064 N   0  0  0  0  0  0  0  0  0  0  0  0
  2  1  1  1  0  0  0
  2  3  1  0  0  0  0
  2  5  1  0  0  0  0
  3  4  1  0  0  0  0
  3 17  1  0  0  0  0
  5  6  1  0  0  0  0
  7  6  1  1  0  0  0
  7  8  1  0  0  0  0
  7  9  1  0  0  0  0
 10  9  1  1  0  0  0
 10 11  1  0  0  0  0
 10 12  1  0  0  0  0
 11 16  1  0  0  0  0
 12 13  1  1  0  0  0
 12 14  1  0  0  0  0
 14 15  1  1  0  0  0
 14 16  1  0  0  0  0
 16 27  1  1  0  0  0
 18 19  2  0  0  0  0
 18 23  1  0  0  0  0
 19 20  1  0  0  0  0
 20 21  2  0  0  0  0
 21 22  1  0  0  0  0
 21 27  1  0  0  0  0
 22 23  2  0  0  0  0
 22 25  1  0  0  0  0
 23 24  1  0  0  0  0
 25 26  2  0  0  0  0
 26 27  1  0  0  0  0
M  END
>  <CHROM.1>
-59.49911477,-64.57628429,-68.03216220,-88.82276205,-90.61380772,-48.15747118
176.72355631,48.00234073,56.84343436,29.94932157,-1.79102157,0.60360831,-1.96711513

>  <Name>
ligand

>  <RI>
0

>  <Rbt.Current_Directory>
/home/itssahil/PROJECTS/Mol_Feturizer/New_Systems/rnas/2GIS

>  <Rbt.Executable>
rbdock ($Id: //depot/dev/client3/rdock/2013.1/src/exe/rbdock.cxx#4 $)

>  <Rbt.Library>
libRbt.so (2013.1, Build901 2013/11/27)

>  <Rbt.Parameter_File>
/export/apps/rDock/src/rDock_2013.1_src/data/scripts/dock_solv.prm

>  <Rbt.Receptor>
prm/pocket_docking_4.prm

>  <SCORE>
-14.6049

>  <SCORE.INTER>
-11.1644

>  <SCORE.INTER.CONST>
1

>  <SCORE.INTER.POLAR>
0

>  <SCORE.INTER.ROT>
7

>  <SCORE.INTER.SOLV>
9.29692

>  <SCORE.INTER.VDW>
-18.8086

>  <SCORE.INTER.norm>
-0.413498

>  <SCORE.INTRA>
-3.44051

>  <SCORE.INTRA.DIHEDRAL>
-2.78928

>  <SCORE.INTRA.DIHEDRAL.0>
9.40024

>  <SCORE.INTRA.POLAR>
0

>  <SCORE.INTRA.POLAR.0>
0

>  <SCORE.INTRA.REPUL>
0

>  <SCORE.INTRA.REPUL.0>
0

>  <SCORE.INTRA.SOLV>
0.343397

>  <SCORE.INTRA.SOLV.lig_0>
-47.1049

>  <SCORE.INTRA.VDW>
-2.21757

>  <SCORE.INTRA.VDW.0>
-1.50278

>  <SCORE.INTRA.norm>
-0.127426

>  <SCORE.RESTR>
0

>  <SCORE.RESTR.CAVITY>
0

>  <SCORE.RESTR.norm>
0

>  <SCORE.SYSTEM>
0

>  <SCORE.SYSTEM.CONST>
0

>  <SCORE.SYSTEM.DIHEDRAL>
0

>  <SCORE.SYSTEM.SOLV>
0

>  <SCORE.SYSTEM.norm>
0

>  <SCORE.heavy>
27

>  <SCORE.norm>
-0.540924

>  <RMSD>
5.839

$$$$
ligand
 OpenBabel11021811433D
libRbt.so/2013.1/901 2013/11/27
 27 29  0  0  0  0  0  0  0  0999 V2000
   45.6481   60.9194   30.2462 N   0  0  0  0  0  0  0  0  0  0  0  0
   46.5786   59.9550   30.8412 C   0  0  2  0  0  0  0  0  0  0  0  0
   45.7954   58.8906   31.5887 C   0  0  0  0  0  0  0  0  0  0  0  0
   45.3636   59.1238   32.7142 O   0  0  0  0  0  0  0  0  0  0  0  0
   47.5551   60.6591   31.8043 C   0  0  0  0  0  0  0  0  0  0  0  0
   48.7101   59.7129   32.1288 C   0  0  0  0  0  0  0  0  0  0  0  0
   48.3126   58.3716   33.3234 S   0  0  2  0  0  0  0  0  0  0  0  0
   49.9110   57.9845   34.1028 C   0  0  0  0  0  0  0  0  0  0  0  0
   48.1893   57.0548   32.0947 C   0  0  0  0  0  0  0  0  0  0  0  0
   47.5143   55.7763   32.6208 C   0  0  1  0  0  0  0  0  0  0  0  0
   47.1583   54.9258   31.4908 O   0  0  0  0  0  0  0  0  0  0  0  0
   48.6428   55.0730   33.3304 C   0  0  1  0  0  0  0  0  0  0  0  0
   48.5926   55.3641   34.7273 O   0  0  0  0  0  0  0  0  0  0  0  0
   48.3681   53.5944   33.0858 C   0  0  1  0  0  0  0  0  0  0  0  0
   47.6803   52.9895   34.1746 O   0  0  0  0  0  0  0  0  0  0  0  0
   47.5044   53.5188   31.7741 C   0  0  2  0  0  0  0  0  0  0  0  0
   45.6452   57.7716   31.0977 O   0  0  0  0  0  0  0  0  0  0  0  0
   51.3200   54.3845   28.2707 N   0  0  0  0  0  0  0  0  0  0  0  0
   50.9538   55.1662   29.2924 C   0  0  0  0  0  0  0  0  0  0  0  0
   49.9789   54.8118   30.1148 N   0  0  0  0  0  0  0  0  0  0  0  0
   49.2953   53.6690   29.9386 C   0  0  0  0  0  0  0  0  0  0  0  0
   49.6374   52.8131   28.8603 C   0  0  0  0  0  0  0  0  0  0  0  0
   50.7004   53.2205   28.0152 C   0  0  0  0  0  0  0  0  0  0  0  0
   51.0903   52.4397   26.9503 N   0  0  0  0  0  0  0  0  0  0  0  0
   48.8071   51.7522   28.9079 N   0  0  0  0  0  0  0  0  0  0  0  0
   47.9907   51.8952   29.9106 C   0  0  0  0  0  0  0  0  0  0  0  0
   48.2493   53.0563   30.5844 N   0  0  0  0  0  0  0  0  0  0  0  0
  2  1  1  1  0  0  0
  2  3  1  0  0  0  0
  2  5  1  0  0  0  0
  3  4  1  0  0  0  0
  3 17  1  0  0  0  0
  5  6  1  0  0  0  0
  7  6  1  6  0  0  0
  7  8  1  0  0  0  0
  7  9  1  0  0  0  0
 10  9  1  6  0  0  0
 10 11  1  0  0  0  0
 10 12  1  0  0  0  0
 11 16  1  0  0  0  0
 12 13  1  1  0  0  0
 12 14  1  0  0  0  0
 14 15  1  1  0  0  0
 14 16  1  0  0  0  0
 16 27  1  6  0  0  0
 18 19  2  0  0  0  0
 18 23  1  0  0  0  0
 19 20  1  0  0  0  0
 20 21  2  0  0  0  0
 21 22  1  0  0  0  0
 21 27  1  0  0  0  0
 22 23  2  0  0  0  0
 22 25  1  0  0  0  0
 23 24  1  0  0  0  0
 25 26  2  0  0  0  0
 26 27  1  0  0  0  0
M  END
>  <CHROM.1>
-79.93080547,-165.95101971,-76.17061426,-153.14857861,-165.38920721,165.59409958
48.54474400,48.29191779,55.91946029,31.36792899,-2.75950360,-1.17745309,2.41908955

>  <Name>
ligand

>  <RI>
0

>  <Rbt.Current_Directory>
/home/itssahil/PROJECTS/Mol_Feturizer/New_Systems/rnas/2GIS

>  <Rbt.Executable>
rbdock ($Id: //depot/dev/client3/rdock/2013.1/src/exe/rbdock.cxx#4 $)

>  <Rbt.Library>
libRbt.so (2013.1, Build901 2013/11/27)

>  <Rbt.Parameter_File>
/export/apps/rDock/src/rDock_2013.1_src/data/scripts/dock_solv.prm

>  <Rbt.Receptor>
prm/pocket_docking_3.prm

>  <SCORE>
-14.306

>  <SCORE.INTER>
-11.564

>  <SCORE.INTER.CONST>
1

>  <SCORE.INTER.POLAR>
0

>  <SCORE.INTER.ROT>
7

>  <SCORE.INTER.SOLV>
16.2689

>  <SCORE.INTER.VDW>
-21.399

>  <SCORE.INTER.norm>
-0.428296

>  <SCORE.INTRA>
-2.74198

>  <SCORE.INTRA.DIHEDRAL>
0.28473

>  <SCORE.INTRA.DIHEDRAL.0>
9.40024

>  <SCORE.INTRA.POLAR>
0

>  <SCORE.INTRA.POLAR.0>
0

>  <SCORE.INTRA.REPUL>
0

>  <SCORE.INTRA.REPUL.0>
0

>  <SCORE.INTRA.SOLV>
-2.56434

>  <SCORE.INTRA.SOLV.lig_0>
-47.1049

>  <SCORE.INTRA.VDW>
-1.60217

>  <SCORE.INTRA.VDW.0>
-1.50278

>  <SCORE.INTRA.norm>
-0.101555

>  <SCORE.RESTR>
0

>  <SCORE.RESTR.CAVITY>
0

>  <SCORE.RESTR.norm>
0

>  <SCORE.SYSTEM>
0

>  <SCORE.SYSTEM.CONST>
0

>  <SCORE.SYSTEM.DIHEDRAL>
0

>  <SCORE.SYSTEM.SOLV>
0

>  <SCORE.SYSTEM.norm>
0

>  <SCORE.heavy>
27

>  <SCORE.norm>
-0.529851

>  <RMSD>
5.849

$$$$
ligand
 OpenBabel11021811433D
libRbt.so/2013.1/901 2013/11/27
 27 29  0  0  0  0  0  0  0  0999 V2000
   48.0841   59.3654   31.3645 N   0  0  0  0  0  0  0  0  0  0  0  0
   46.7180   59.6450   30.9110 C   0  0  2  0  0  0  0  0  0  0  0  0
   46.2373   60.9477   31.5251 C   0  0  0  0  0  0  0  0  0  0  0  0
   47.0513   61.7609   31.9535 O   0  0  0  0  0  0  0  0  0  0  0  0
   45.7653   58.4984   31.3039 C   0  0  0  0  0  0  0  0  0  0  0  0
   46.2618   57.1960   30.6778 C   0  0  0  0  0  0  0  0  0  0  0  0
   45.2121   55.7204   31.0017 S   0  0  2  0  0  0  0  0  0  0  0  0
   43.5347   56.2620   30.5488 C   0  0  0  0  0  0  0  0  0  0  0  0
   45.1723   55.9073   32.7968 C   0  0  0  0  0  0  0  0  0  0  0  0
   46.3438   55.2191   33.5186 C   0  0  1  0  0  0  0  0  0  0  0  0
   46.5797   53.9156   32.9087 O   0  0  0  0  0  0  0  0  0  0  0  0
   47.5214   56.0771   33.1330 C   0  0  1  0  0  0  0  0  0  0  0  0
   47.7846   57.0297   34.1635 O   0  0  0  0  0  0  0  0  0  0  0  0
   48.6753   55.0890   33.0158 C   0  0  1  0  0  0  0  0  0  0  0  0
   49.4596   55.0372   34.2019 O   0  0  0  0  0  0  0  0  0  0  0  0
   48.0261   53.6880   32.7193 C   0  0  2  0  0  0  0  0  0  0  0  0
   45.0323   61.1653   31.6535 O   0  0  0  0  0  0  0  0  0  0  0  0
   51.0729   53.1762   28.4724 N   0  0  0  0  0  0  0  0  0  0  0  0
   51.4009   53.7048   29.6564 C   0  0  0  0  0  0  0  0  0  0  0  0
   50.5311   53.7526   30.6532 N   0  0  0  0  0  0  0  0  0  0  0  0
   49.2739   53.3025   30.5072 C   0  0  0  0  0  0  0  0  0  0  0  0
   48.8742   52.7458   29.2652 C   0  0  0  0  0  0  0  0  0  0  0  0
   49.8422   52.6956   28.2305 C   0  0  0  0  0  0  0  0  0  0  0  0
   49.5276   52.1663   26.9990 N   0  0  0  0  0  0  0  0  0  0  0  0
   47.5823   52.3798   29.3840 N   0  0  0  0  0  0  0  0  0  0  0  0
   47.1649   52.6733   30.5806 C   0  0  0  0  0  0  0  0  0  0  0  0
   48.1671   53.2395   31.3182 N   0  0  0  0  0  0  0  0  0  0  0  0
  2  1  1  1  0  0  0
  2  3  1  0  0  0  0
  2  5  1  0  0  0  0
  3  4  1  0  0  0  0
  3 17  1  0  0  0  0
  5  6  1  0  0  0  0
  7  6  1  6  0  0  0
  7  8  1  0  0  0  0
  7  9  1  0  0  0  0
 10  9  1  6  0  0  0
 10 11  1  0  0  0  0
 10 12  1  0  0  0  0
 11 16  1  0  0  0  0
 12 13  1  1  0  0  0
 12 14  1  0  0  0  0
 14 15  1  1  0  0  0
 14 16  1  0  0  0  0
 16 27  1  6  0  0  0
 18 19  2  0  0  0  0
 18 23  1  0  0  0  0
 19 20  1  0  0  0  0
 20 21  2  0  0  0  0
 21 22  1  0  0  0  0
 21 27  1  0  0  0  0
 22 23  2  0  0  0  0
 22 25  1  0  0  0  0
 23 24  1  0  0  0  0
 25 26  2  0  0  0  0
 26 27  1  0  0  0  0
M  END
>  <CHROM.1>
20.31971620,-58.95884214,-178.26553273,50.77357413,-87.77738994,-41.88789275
156.97675745,47.49381190,55.73904107,31.25636685,-2.30007461,-0.85574508
2.87235062

>  <Name>
ligand

>  <RI>
0

>  <Rbt.Current_Directory>
/home/itssahil/PROJECTS/Mol_Feturizer/New_Systems/rnas/2GIS

>  <Rbt.Executable>
rbdock ($Id: //depot/dev/client3/rdock/2013.1/src/exe/rbdock.cxx#4 $)

>  <Rbt.Library>
libRbt.so (2013.1, Build901 2013/11/27)

>  <Rbt.Parameter_File>
/export/apps/rDock/src/rDock_2013.1_src/data/scripts/dock_solv.prm

>  <Rbt.Receptor>
prm/pocket_docking_4.prm

>  <SCORE>
-14.2378

>  <SCORE.INTER>
-12.4092

>  <SCORE.INTER.CONST>
1

>  <SCORE.INTER.POLAR>
0

>  <SCORE.INTER.ROT>
7

>  <SCORE.INTER.SOLV>
9.4932

>  <SCORE.INTER.VDW>
-19.7038

>  <SCORE.INTER.norm>
-0.459599

>  <SCORE.INTRA>
-1.82862

>  <SCORE.INTRA.DIHEDRAL>
-3.80936

>  <SCORE.INTRA.DIHEDRAL.0>
9.40024

>  <SCORE.INTRA.POLAR>
0

>  <SCORE.INTRA.POLAR.0>
0

>  <SCORE.INTRA.REPUL>
0

>  <SCORE.INTRA.REPUL.0>
0

>  <SCORE.INTRA.SOLV>
-0.77112

>  <SCORE.INTRA.SOLV.lig_0>
-47.1049

>  <SCORE.INTRA.VDW>
0.461616

>  <SCORE.INTRA.VDW.0>
-1.50278

>  <SCORE.INTRA.norm>
-0.0677268

>  <SCORE.RESTR>
0

>  <SCORE.RESTR.CAVITY>
0

>  <SCORE.RESTR.norm>
0

>  <SCORE.SYSTEM>
0

>  <SCORE.SYSTEM.CONST>
0

>  <SCORE.SYSTEM.DIHEDRAL>
0

>  <SCORE.SYSTEM.SOLV>
0

>  <SCORE.SYSTEM.norm>
0

>  <SCORE.heavy>
27

>  <SCORE.norm>
-0.527326

>  <RMSD>
5.870

$$$$
ligand
 OpenBabel11021811433D
libRbt.so/2013.1/901 2013/11/27
 27 29  0  0  0  0  0  0  0  0999 V2000
   45.9464   57.8079   29.9864 N   0  0  0  0  0  0  0  0  0  0  0  0
   45.8675   57.7016   31.4467 C   0  0  2  0  0  0  0  0  0  0  0  0
   44.5427   57.0712   31.8377 C   0  0  0  0  0  0  0  0  0  0  0  0
   44.3761   56.6526   32.9798 O   0  0  0  0  0  0  0  0  0  0  0  0
   46.0009   59.0895   32.1046 C   0  0  0  0  0  0  0  0  0  0  0  0
   47.4601   59.5380   32.0393 C   0  0  0  0  0  0  0  0  0  0  0  0
   48.6461   58.4852   32.9717 S   0  0  2  0  0  0  0  0  0  0  0  0
   50.1928   59.4444   32.9611 C   0  0  0  0  0  0  0  0  0  0  0  0
   48.9482   57.3110   31.6342 C   0  0  0  0  0  0  0  0  0  0  0  0
   49.6958   56.0422   32.0794 C   0  0  1  0  0  0  0  0  0  0  0  0
   49.0283   55.4811   33.2483 O   0  0  0  0  0  0  0  0  0  0  0  0
   49.4266   55.0839   30.9477 C   0  0  1  0  0  0  0  0  0  0  0  0
   50.5221   55.0957   30.0321 O   0  0  0  0  0  0  0  0  0  0  0  0
   49.3201   53.7262   31.6311 C   0  0  1  0  0  0  0  0  0  0  0  0
   50.5441   53.0026   31.5798 O   0  0  0  0  0  0  0  0  0  0  0  0
   48.9092   54.0150   33.1210 C   0  0  2  0  0  0  0  0  0  0  0  0
   43.6559   56.9198   30.9972 O   0  0  0  0  0  0  0  0  0  0  0  0
   45.2457   52.9536   36.7312 N   0  0  0  0  0  0  0  0  0  0  0  0
   46.5491   53.1794   36.9292 C   0  0  0  0  0  0  0  0  0  0  0  0
   47.3604   53.4558   35.9204 N   0  0  0  0  0  0  0  0  0  0  0  0
   46.9157   53.4889   34.6534 C   0  0  0  0  0  0  0  0  0  0  0  0
   45.5436   53.2419   34.3912 C   0  0  0  0  0  0  0  0  0  0  0  0
   44.7054   52.9695   35.5017 C   0  0  0  0  0  0  0  0  0  0  0  0
   43.3623   52.7233   35.3247 N   0  0  0  0  0  0  0  0  0  0  0  0
   45.3650   53.3308   33.0580 N   0  0  0  0  0  0  0  0  0  0  0  0
   46.5054   53.5997   32.4927 C   0  0  0  0  0  0  0  0  0  0  0  0
   47.4955   53.7134   33.4286 N   0  0  0  0  0  0  0  0  0  0  0  0
  2  1  1  6  0  0  0
  2  3  1  0  0  0  0
  2  5  1  0  0  0  0
  3  4  1  0  0  0  0
  3 17  1  0  0  0  0
  5  6  1  0  0  0  0
  7  6  1  6  0  0  0
  7  8  1  0  0  0  0
  7  9  1  0  0  0  0
 10  9  1  6  0  0  0
 10 11  1  0  0  0  0
 10 12  1  0  0  0  0
 11 16  1  0  0  0  0
 12 13  1  6  0  0  0
 12 14  1  0  0  0  0
 14 15  1  1  0  0  0
 14 16  1  0  0  0  0
 16 27  1  6  0  0  0
 18 19  2  0  0  0  0
 18 23  1  0  0  0  0
 19 20  1  0  0  0  0
 20 21  2  0  0  0  0
 21 22  1  0  0  0  0
 21 27  1  0  0  0  0
 22 23  2  0  0  0  0
 22 25  1  0  0  0  0
 23 24  1  0  0  0  0
 25 26  2  0  0  0  0
 26 27  1  0  0  0  0
M  END
>  <CHROM.1>
165.83121360,-74.77043116,-63.35893405,-169.51564973,-167.86715673,50.33625615
-86.68987772,47.22911299,55.57668433,32.90683366,1.08438294,0.27906087,-0.49029336

>  <Name>
ligand

>  <RI>
0

>  <Rbt.Current_Directory>
/home/itssahil/PROJECTS/Mol_Feturizer/New_Systems/rnas/2GIS

>  <Rbt.Executable>
rbdock ($Id: //depot/dev/client3/rdock/2013.1/src/exe/rbdock.cxx#4 $)

>  <Rbt.Library>
libRbt.so (2013.1, Build901 2013/11/27)

>  <Rbt.Parameter_File>
/export/apps/rDock/src/rDock_2013.1_src/data/scripts/dock_solv.prm

>  <Rbt.Receptor>
prm/pocket_docking_7.prm

>  <SCORE>
-20.0076

>  <SCORE.INTER>
-16.3996

>  <SCORE.INTER.CONST>
1

>  <SCORE.INTER.POLAR>
0

>  <SCORE.INTER.ROT>
7

>  <SCORE.INTER.SOLV>
9.17431

>  <SCORE.INTER.VDW>
-22.2578

>  <SCORE.INTER.norm>
-0.607392

>  <SCORE.INTRA>
-3.60807

>  <SCORE.INTRA.DIHEDRAL>
-2.92882

>  <SCORE.INTRA.DIHEDRAL.0>
9.40024

>  <SCORE.INTRA.POLAR>
0

>  <SCORE.INTRA.POLAR.0>
0

>  <SCORE.INTRA.REPUL>
0

>  <SCORE.INTRA.REPUL.0>
0

>  <SCORE.INTRA.SOLV>
-1.06439

>  <SCORE.INTRA.SOLV.lig_0>
-47.1049

>  <SCORE.INTRA.VDW>
-1.61146

>  <SCORE.INTRA.VDW.0>
-1.50278

>  <SCORE.INTRA.norm>
-0.133632

>  <SCORE.RESTR>
0

>  <SCORE.RESTR.CAVITY>
0

>  <SCORE.RESTR.norm>
0

>  <SCORE.SYSTEM>
0

>  <SCORE.SYSTEM.CONST>
0

>  <SCORE.SYSTEM.DIHEDRAL>
0

>  <SCORE.SYSTEM.SOLV>
0

>  <SCORE.SYSTEM.norm>
0

>  <SCORE.heavy>
27

>  <SCORE.norm>
-0.741024

>  <RMSD>
5.874

$$$$
ligand
 OpenBabel11021811433D
libRbt.so/2013.1/901 2013/11/27
 27 29  0  0  0  0  0  0  0  0999 V2000
   48.0953   58.7573   27.9154 N   0  0  0  0  0  0  0  0  0  0  0  0
   47.3764   58.0623   28.9877 C   0  0  2  0  0  0  0  0  0  0  0  0
   46.7431   56.7975   28.4359 C   0  0  0  0  0  0  0  0  0  0  0  0
   46.8564   55.7382   29.0462 O   0  0  0  0  0  0  0  0  0  0  0  0
   46.2883   58.9701   29.5952 C   0  0  0  0  0  0  0  0  0  0  0  0
   45.6739   58.2744   30.8089 C   0  0  0  0  0  0  0  0  0  0  0  0
   46.6131   58.4635   32.3794 S   0  0  2  0  0  0  0  0  0  0  0  0
   48.0886   57.4253   32.1409 C   0  0  0  0  0  0  0  0  0  0  0  0
   45.5643   57.3689   33.3596 C   0  0  0  0  0  0  0  0  0  0  0  0
   45.5373   55.9167   32.8521 C   0  0  1  0  0  0  0  0  0  0  0  0
   46.5193   55.1343   33.5939 O   0  0  0  0  0  0  0  0  0  0  0  0
   44.1866   55.4299   33.3105 C   0  0  1  0  0  0  0  0  0  0  0  0
   43.2427   55.5465   32.2456 O   0  0  0  0  0  0  0  0  0  0  0  0
   44.4200   53.9641   33.6552 C   0  0  1  0  0  0  0  0  0  0  0  0
   44.0573   53.0976   32.5865 O   0  0  0  0  0  0  0  0  0  0  0  0
   45.9517   53.8282   33.9833 C   0  0  2  0  0  0  0  0  0  0  0  0
   46.1699   56.8153   27.3464 O   0  0  0  0  0  0  0  0  0  0  0  0
   49.1803   54.8519   37.9969 N   0  0  0  0  0  0  0  0  0  0  0  0
   49.3247   55.2133   36.7173 C   0  0  0  0  0  0  0  0  0  0  0  0
   48.4158   54.9004   35.8072 N   0  0  0  0  0  0  0  0  0  0  0  0
   47.3275   54.1796   36.1240 C   0  0  0  0  0  0  0  0  0  0  0  0
   47.1369   53.7608   37.4659 C   0  0  0  0  0  0  0  0  0  0  0  0
   48.1241   54.1339   38.4127 C   0  0  0  0  0  0  0  0  0  0  0  0
   48.0050   53.7659   39.7341 N   0  0  0  0  0  0  0  0  0  0  0  0
   45.9859   53.0606   37.5107 N   0  0  0  0  0  0  0  0  0  0  0  0
   45.4706   53.0118   36.3172 C   0  0  0  0  0  0  0  0  0  0  0  0
   46.2525   53.6893   35.4235 N   0  0  0  0  0  0  0  0  0  0  0  0
  2  1  1  6  0  0  0
  2  3  1  0  0  0  0
  2  5  1  0  0  0  0
  3  4  1  0  0  0  0
  3 17  1  0  0  0  0
  5  6  1  0  0  0  0
  7  6  1  6  0  0  0
  7  8  1  0  0  0  0
  7  9  1  0  0  0  0
 10  9  1  1  0  0  0
 10 11  1  0  0  0  0
 10 12  1  0  0  0  0
 11 16  1  0  0  0  0
 12 13  1  6  0  0  0
 12 14  1  0  0  0  0
 14 15  1  6  0  0  0
 14 16  1  0  0  0  0
 16 27  1  1  0  0  0
 18 19  2  0  0  0  0
 18 23  1  0  0  0  0
 19 20  1  0  0  0  0
 20 21  2  0  0  0  0
 21 22  1  0  0  0  0
 21 27  1  0  0  0  0
 22 23  2  0  0  0  0
 22 25  1  0  0  0  0
 23 24  1  0  0  0  0
 25 26  2  0  0  0  0
 26 27  1  0  0  0  0
M  END
>  <CHROM.1>
133.35133688,-173.51065264,83.04671386,-71.79769482,61.81748769,95.20387344
-31.28902425,46.50669706,55.72697728,33.30082541,-1.67953758,0.62769424,2.06754639

>  <Name>
ligand

>  <RI>
0

>  <Rbt.Current_Directory>
/home/itssahil/PROJECTS/Mol_Feturizer/New_Systems/rnas/2GIS

>  <Rbt.Executable>
rbdock ($Id: //depot/dev/client3/rdock/2013.1/src/exe/rbdock.cxx#4 $)

>  <Rbt.Library>
libRbt.so (2013.1, Build901 2013/11/27)

>  <Rbt.Parameter_File>
/export/apps/rDock/src/rDock_2013.1_src/data/scripts/dock_solv.prm

>  <Rbt.Receptor>
prm/pocket_docking_8.prm

>  <SCORE>
-14.8344

>  <SCORE.INTER>
-12.7105

>  <SCORE.INTER.CONST>
1

>  <SCORE.INTER.POLAR>
0

>  <SCORE.INTER.ROT>
7

>  <SCORE.INTER.SOLV>
13.6615

>  <SCORE.INTER.VDW>
-21.2942

>  <SCORE.INTER.norm>
-0.470761

>  <SCORE.INTRA>
-2.12382

>  <SCORE.INTRA.DIHEDRAL>
-0.71149

>  <SCORE.INTRA.DIHEDRAL.0>
9.40024

>  <SCORE.INTRA.POLAR>
0

>  <SCORE.INTRA.POLAR.0>
0

>  <SCORE.INTRA.REPUL>
0

>  <SCORE.INTRA.REPUL.0>
0

>  <SCORE.INTRA.SOLV>
-2.58581

>  <SCORE.INTRA.SOLV.lig_0>
-47.1049

>  <SCORE.INTRA.VDW>
-0.475175

>  <SCORE.INTRA.VDW.0>
-1.50278

>  <SCORE.INTRA.norm>
-0.0786602

>  <SCORE.RESTR>
0

>  <SCORE.RESTR.CAVITY>
0

>  <SCORE.RESTR.norm>
0

>  <SCORE.SYSTEM>
0

>  <SCORE.SYSTEM.CONST>
0

>  <SCORE.SYSTEM.DIHEDRAL>
0

>  <SCORE.SYSTEM.SOLV>
0

>  <SCORE.SYSTEM.norm>
0

>  <SCORE.heavy>
27

>  <SCORE.norm>
-0.549421

>  <RMSD>
5.898

$$$$
ligand
 OpenBabel11021811433D
libRbt.so/2013.1/901 2013/11/27
 27 29  0  0  0  0  0  0  0  0999 V2000
   46.7511   60.2209   31.9992 N   0  0  0  0  0  0  0  0  0  0  0  0
   47.1199   59.9361   30.6089 C   0  0  2  0  0  0  0  0  0  0  0  0
   46.0849   59.0142   29.9891 C   0  0  0  0  0  0  0  0  0  0  0  0
   45.4575   58.2320   30.6977 O   0  0  0  0  0  0  0  0  0  0  0  0
   48.5141   59.2821   30.5354 C   0  0  0  0  0  0  0  0  0  0  0  0
   48.4551   57.8998   31.1838 C   0  0  0  0  0  0  0  0  0  0  0  0
   48.0772   57.8940   32.9842 S   0  0  2  0  0  0  0  0  0  0  0  0
   49.5919   58.5427   33.7569 C   0  0  0  0  0  0  0  0  0  0  0  0
   48.2937   56.1170   33.2169 C   0  0  0  0  0  0  0  0  0  0  0  0
   48.0492   55.6458   34.6610 C   0  0  1  0  0  0  0  0  0  0  0  0
   46.6127   55.5609   34.8978 O   0  0  0  0  0  0  0  0  0  0  0  0
   48.5506   54.2247   34.6359 C   0  0  1  0  0  0  0  0  0  0  0  0
   49.8923   54.1759   35.1217 O   0  0  0  0  0  0  0  0  0  0  0  0
   47.6148   53.4864   35.5851 C   0  0  1  0  0  0  0  0  0  0  0  0
   48.1654   53.3608   36.8911 O   0  0  0  0  0  0  0  0  0  0  0  0
   46.2814   54.3186   35.6236 C   0  0  2  0  0  0  0  0  0  0  0  0
   45.9163   59.0019   28.7696 O   0  0  0  0  0  0  0  0  0  0  0  0
   41.1659   53.1623   35.3483 N   0  0  0  0  0  0  0  0  0  0  0  0
   41.8118   53.7879   36.3385 C   0  0  0  0  0  0  0  0  0  0  0  0
   43.1107   54.0322   36.2662 N   0  0  0  0  0  0  0  0  0  0  0  0
   43.8402   53.6337   35.2110 C   0  0  0  0  0  0  0  0  0  0  0  0
   43.2027   52.9537   34.1417 C   0  0  0  0  0  0  0  0  0  0  0  0
   41.8069   52.7298   34.2501 C   0  0  0  0  0  0  0  0  0  0  0  0
   41.1198   52.0791   33.2499 N   0  0  0  0  0  0  0  0  0  0  0  0
   44.1484   52.6663   33.2251 N   0  0  0  0  0  0  0  0  0  0  0  0
   45.2983   53.1030   33.6486 C   0  0  0  0  0  0  0  0  0  0  0  0
   45.1671   53.7126   34.8652 N   0  0  0  0  0  0  0  0  0  0  0  0
  2  1  1  1  0  0  0
  2  3  1  0  0  0  0
  2  5  1  0  0  0  0
  3  4  1  0  0  0  0
  3 17  1  0  0  0  0
  5  6  1  0  0  0  0
  7  6  1  6  0  0  0
  7  8  1  0  0  0  0
  7  9  1  0  0  0  0
 10  9  1  6  0  0  0
 10 11  1  0  0  0  0
 10 12  1  0  0  0  0
 11 16  1  0  0  0  0
 12 13  1  1  0  0  0
 12 14  1  0  0  0  0
 14 15  1  1  0  0  0
 14 16  1  0  0  0  0
 16 27  1  6  0  0  0
 18 19  2  0  0  0  0
 18 23  1  0  0  0  0
 19 20  1  0  0  0  0
 20 21  2  0  0  0  0
 21 22  1  0  0  0  0
 21 27  1  0  0  0  0
 22 23  2  0  0  0  0
 22 25  1  0  0  0  0
 23 24  1  0  0  0  0
 25 26  2  0  0  0  0
 26 27  1  0  0  0  0
M  END
>  <CHROM.1>
-28.36755350,66.43043165,-64.25492674,-71.52026865,-179.56551897,78.54794443
-107.40411390,46.12065105,55.68284368,33.56338149,0.98166227,-0.28928561
-0.76506538

>  <Name>
ligand

>  <RI>
0

>  <Rbt.Current_Directory>
/home/itssahil/PROJECTS/Mol_Feturizer/New_Systems/rnas/2GIS

>  <Rbt.Executable>
rbdock ($Id: //depot/dev/client3/rdock/2013.1/src/exe/rbdock.cxx#4 $)

>  <Rbt.Library>
libRbt.so (2013.1, Build901 2013/11/27)

>  <Rbt.Parameter_File>
/export/apps/rDock/src/rDock_2013.1_src/data/scripts/dock_solv.prm

>  <Rbt.Receptor>
prm/pocket_docking_8.prm

>  <SCORE>
-15.1674

>  <SCORE.INTER>
-12.3626

>  <SCORE.INTER.CONST>
1

>  <SCORE.INTER.POLAR>
0

>  <SCORE.INTER.ROT>
7

>  <SCORE.INTER.SOLV>
10.3571

>  <SCORE.INTER.VDW>
-19.9607

>  <SCORE.INTER.norm>
-0.457873

>  <SCORE.INTRA>
-2.80483

>  <SCORE.INTRA.DIHEDRAL>
-4.77737

>  <SCORE.INTRA.DIHEDRAL.0>
9.40024

>  <SCORE.INTRA.POLAR>
0

>  <SCORE.INTRA.POLAR.0>
0

>  <SCORE.INTRA.REPUL>
0

>  <SCORE.INTRA.REPUL.0>
0

>  <SCORE.INTRA.SOLV>
-0.341518

>  <SCORE.INTRA.SOLV.lig_0>
-47.1049

>  <SCORE.INTRA.VDW>
-0.245388

>  <SCORE.INTRA.VDW.0>
-1.50278

>  <SCORE.INTRA.norm>
-0.103883

>  <SCORE.RESTR>
0

>  <SCORE.RESTR.CAVITY>
0

>  <SCORE.RESTR.norm>
0

>  <SCORE.SYSTEM>
0

>  <SCORE.SYSTEM.CONST>
0

>  <SCORE.SYSTEM.DIHEDRAL>
0

>  <SCORE.SYSTEM.SOLV>
0

>  <SCORE.SYSTEM.norm>
0

>  <SCORE.heavy>
27

>  <SCORE.norm>
-0.561755

>  <RMSD>
5.901

$$$$
ligand
 OpenBabel11021811433D
libRbt.so/2013.1/901 2013/11/27
 27 29  0  0  0  0  0  0  0  0999 V2000
   45.7553   61.2293   32.0363 N   0  0  0  0  0  0  0  0  0  0  0  0
   45.8332   60.1076   31.0953 C   0  0  2  0  0  0  0  0  0  0  0  0
   45.4518   58.8219   31.8072 C   0  0  0  0  0  0  0  0  0  0  0  0
   45.2985   58.8176   33.0254 O   0  0  0  0  0  0  0  0  0  0  0  0
   47.2545   59.9805   30.5114 C   0  0  0  0  0  0  0  0  0  0  0  0
   48.2757   60.3020   31.6015 C   0  0  0  0  0  0  0  0  0  0  0  0
   48.2922   59.1399   33.0275 S   0  0  2  0  0  0  0  0  0  0  0  0
   49.9584   59.3299   33.7346 C   0  0  0  0  0  0  0  0  0  0  0  0
   48.4932   57.6386   32.0454 C   0  0  0  0  0  0  0  0  0  0  0  0
   48.0156   56.3618   32.7587 C   0  0  1  0  0  0  0  0  0  0  0  0
   47.6891   55.3513   31.7591 O   0  0  0  0  0  0  0  0  0  0  0  0
   49.2666   55.8774   33.4454 C   0  0  1  0  0  0  0  0  0  0  0  0
   49.2769   56.3211   34.8025 O   0  0  0  0  0  0  0  0  0  0  0  0
   49.1572   54.3589   33.3839 C   0  0  1  0  0  0  0  0  0  0  0  0
   48.6235   53.8107   34.5836 O   0  0  0  0  0  0  0  0  0  0  0  0
   48.2217   54.0347   32.1625 C   0  0  2  0  0  0  0  0  0  0  0  0
   45.3572   57.7685   31.1769 O   0  0  0  0  0  0  0  0  0  0  0  0
   47.9716   52.1334   27.2733 N   0  0  0  0  0  0  0  0  0  0  0  0
   46.9556   52.5006   28.0619 C   0  0  0  0  0  0  0  0  0  0  0  0
   47.1670   52.9849   29.2756 N   0  0  0  0  0  0  0  0  0  0  0  0
   48.4077   53.0973   29.7780 C   0  0  0  0  0  0  0  0  0  0  0  0
   49.5173   52.7075   28.9848 C   0  0  0  0  0  0  0  0  0  0  0  0
   49.2480   52.2127   27.6837 C   0  0  0  0  0  0  0  0  0  0  0  0
   50.2747   51.8180   26.8555 N   0  0  0  0  0  0  0  0  0  0  0  0
   50.6299   52.9158   29.7167 N   0  0  0  0  0  0  0  0  0  0  0  0
   50.2914   53.3869   30.8811 C   0  0  0  0  0  0  0  0  0  0  0  0
   48.9343   53.5243   30.9726 N   0  0  0  0  0  0  0  0  0  0  0  0
  2  1  1  1  0  0  0
  2  3  1  0  0  0  0
  2  5  1  0  0  0  0
  3  4  1  0  0  0  0
  3 17  1  0  0  0  0
  5  6  1  0  0  0  0
  7  6  1  6  0  0  0
  7  8  1  0  0  0  0
  7  9  1  0  0  0  0
 10  9  1  6  0  0  0
 10 11  1  0  0  0  0
 10 12  1  0  0  0  0
 11 16  1  0  0  0  0
 12 13  1  1  0  0  0
 12 14  1  0  0  0  0
 14 15  1  1  0  0  0
 14 16  1  0  0  0  0
 16 27  1  6  0  0  0
 18 19  2  0  0  0  0
 18 23  1  0  0  0  0
 19 20  1  0  0  0  0
 20 21  2  0  0  0  0
 21 22  1  0  0  0  0
 21 27  1  0  0  0  0
 22 23  2  0  0  0  0
 22 25  1  0  0  0  0
 23 24  1  0  0  0  0
 25 26  2  0  0  0  0
 26 27  1  0  0  0  0
M  END
>  <CHROM.1>
-8.67508243,37.54423052,64.09911602,156.93889303,-157.15400371,156.39025232
-69.71321032,48.11849335,56.03488260,31.37420208,1.98470102,-0.96111442,0.82363987

>  <Name>
ligand

>  <RI>
0

>  <Rbt.Current_Directory>
/home/itssahil/PROJECTS/Mol_Feturizer/New_Systems/rnas/2GIS

>  <Rbt.Executable>
rbdock ($Id: //depot/dev/client3/rdock/2013.1/src/exe/rbdock.cxx#4 $)

>  <Rbt.Library>
libRbt.so (2013.1, Build901 2013/11/27)

>  <Rbt.Parameter_File>
/export/apps/rDock/src/rDock_2013.1_src/data/scripts/dock_solv.prm

>  <Rbt.Receptor>
prm/pocket_docking_3.prm

>  <SCORE>
-14.4705

>  <SCORE.INTER>
-13.6468

>  <SCORE.INTER.CONST>
1

>  <SCORE.INTER.POLAR>
0

>  <SCORE.INTER.ROT>
7

>  <SCORE.INTER.SOLV>
16.8288

>  <SCORE.INTER.VDW>
-22.9741

>  <SCORE.INTER.norm>
-0.505436

>  <SCORE.INTRA>
-0.830413

>  <SCORE.INTRA.DIHEDRAL>
0.095918

>  <SCORE.INTRA.DIHEDRAL.0>
9.40024

>  <SCORE.INTRA.POLAR>
0

>  <SCORE.INTRA.POLAR.0>
0

>  <SCORE.INTRA.REPUL>
0

>  <SCORE.INTRA.REPUL.0>
0

>  <SCORE.INTRA.SOLV>
-0.809193

>  <SCORE.INTRA.SOLV.lig_0>
-47.1049

>  <SCORE.INTRA.VDW>
-0.473775

>  <SCORE.INTRA.VDW.0>
-1.50278

>  <SCORE.INTRA.norm>
-0.030756

>  <SCORE.RESTR>
0.00667289

>  <SCORE.RESTR.CAVITY>
0.00667289

>  <SCORE.RESTR.norm>
0.000247144

>  <SCORE.SYSTEM>
0

>  <SCORE.SYSTEM.CONST>
0

>  <SCORE.SYSTEM.DIHEDRAL>
0

>  <SCORE.SYSTEM.SOLV>
0

>  <SCORE.SYSTEM.norm>
0

>  <SCORE.heavy>
27

>  <SCORE.norm>
-0.535945

>  <RMSD>
5.909

$$$$
ligand
 OpenBabel11021811433D
libRbt.so/2013.1/901 2013/11/27
 27 29  0  0  0  0  0  0  0  0999 V2000
   47.7265   58.2612   30.2080 N   0  0  0  0  0  0  0  0  0  0  0  0
   47.3974   59.6422   30.5747 C   0  0  2  0  0  0  0  0  0  0  0  0
   48.2926   60.0902   31.7162 C   0  0  0  0  0  0  0  0  0  0  0  0
   48.8189   61.1990   31.6841 O   0  0  0  0  0  0  0  0  0  0  0  0
   45.9181   59.7599   30.9927 C   0  0  0  0  0  0  0  0  0  0  0  0
   45.6658   58.8634   32.2041 C   0  0  0  0  0  0  0  0  0  0  0  0
   45.7389   57.0558   31.8703 S   0  0  2  0  0  0  0  0  0  0  0  0
   44.0701   56.6484   31.2695 C   0  0  0  0  0  0  0  0  0  0  0  0
   45.6296   56.5403   33.5969 C   0  0  0  0  0  0  0  0  0  0  0  0
   46.1782   55.1270   33.8586 C   0  0  1  0  0  0  0  0  0  0  0  0
   45.6921   54.2271   32.8190 O   0  0  0  0  0  0  0  0  0  0  0  0
   47.6550   55.2923   33.6074 C   0  0  1  0  0  0  0  0  0  0  0  0
   48.3359   55.5050   34.8443 O   0  0  0  0  0  0  0  0  0  0  0  0
   48.0757   53.9637   32.9912 C   0  0  1  0  0  0  0  0  0  0  0  0
   48.6250   53.0748   33.9569 O   0  0  0  0  0  0  0  0  0  0  0  0
   46.7805   53.3489   32.3457 C   0  0  2  0  0  0  0  0  0  0  0  0
   48.5449   59.3220   32.6447 O   0  0  0  0  0  0  0  0  0  0  0  0
   48.9023   52.0482   27.7210 N   0  0  0  0  0  0  0  0  0  0  0  0
   49.3271   51.7054   28.9421 C   0  0  0  0  0  0  0  0  0  0  0  0
   48.6788   52.0917   30.0297 N   0  0  0  0  0  0  0  0  0  0  0  0
   47.5869   52.8703   29.9541 C   0  0  0  0  0  0  0  0  0  0  0  0
   47.1056   53.2718   28.6815 C   0  0  0  0  0  0  0  0  0  0  0  0
   47.8178   52.8200   27.5418 C   0  0  0  0  0  0  0  0  0  0  0  0
   47.4080   53.1669   26.2740 N   0  0  0  0  0  0  0  0  0  0  0  0
   46.0164   54.0394   28.8856 N   0  0  0  0  0  0  0  0  0  0  0  0
   45.8030   54.1441   30.1646 C   0  0  0  0  0  0  0  0  0  0  0  0
   46.7373   53.4393   30.8712 N   0  0  0  0  0  0  0  0  0  0  0  0
  2  1  1  1  0  0  0
  2  3  1  0  0  0  0
  2  5  1  0  0  0  0
  3  4  1  0  0  0  0
  3 17  1  0  0  0  0
  5  6  1  0  0  0  0
  7  6  1  1  0  0  0
  7  8  1  0  0  0  0
  7  9  1  0  0  0  0
 10  9  1  6  0  0  0
 10 11  1  0  0  0  0
 10 12  1  0  0  0  0
 11 16  1  0  0  0  0
 12 13  1  1  0  0  0
 12 14  1  0  0  0  0
 14 15  1  1  0  0  0
 14 16  1  0  0  0  0
 16 27  1  6  0  0  0
 18 19  2  0  0  0  0
 18 23  1  0  0  0  0
 19 20  1  0  0  0  0
 20 21  2  0  0  0  0
 21 22  1  0  0  0  0
 21 27  1  0  0  0  0
 22 23  2  0  0  0  0
 22 25  1  0  0  0  0
 23 24  1  0  0  0  0
 25 26  2  0  0  0  0
 26 27  1  0  0  0  0
M  END
>  <CHROM.1>
135.37144116,60.56102295,-69.27412182,-84.59272212,-158.00667976,-44.45948569
176.03999832,47.13489354,55.61166207,31.23847242,-2.80371824,-1.46735843
2.34315744

>  <Name>
ligand

>  <RI>
0

>  <Rbt.Current_Directory>
/home/itssahil/PROJECTS/Mol_Feturizer/New_Systems/rnas/2GIS

>  <Rbt.Executable>
rbdock ($Id: //depot/dev/client3/rdock/2013.1/src/exe/rbdock.cxx#4 $)

>  <Rbt.Library>
libRbt.so (2013.1, Build901 2013/11/27)

>  <Rbt.Parameter_File>
/export/apps/rDock/src/rDock_2013.1_src/data/scripts/dock_solv.prm

>  <Rbt.Receptor>
prm/pocket_docking_5.prm

>  <SCORE>
-15.8399

>  <SCORE.INTER>
-13.8774

>  <SCORE.INTER.CONST>
1

>  <SCORE.INTER.POLAR>
0

>  <SCORE.INTER.ROT>
7

>  <SCORE.INTER.SOLV>
7.58052

>  <SCORE.INTER.VDW>
-20.0451

>  <SCORE.INTER.norm>
-0.513978

>  <SCORE.INTRA>
-1.96248

>  <SCORE.INTRA.DIHEDRAL>
-2.10431

>  <SCORE.INTRA.DIHEDRAL.0>
9.40024

>  <SCORE.INTRA.POLAR>
0

>  <SCORE.INTRA.POLAR.0>
0

>  <SCORE.INTRA.REPUL>
0

>  <SCORE.INTRA.REPUL.0>
0

>  <SCORE.INTRA.SOLV>
-0.0764329

>  <SCORE.INTRA.SOLV.lig_0>
-47.1049

>  <SCORE.INTRA.VDW>
-0.872111

>  <SCORE.INTRA.VDW.0>
-1.50278

>  <SCORE.INTRA.norm>
-0.0726845

>  <SCORE.RESTR>
0

>  <SCORE.RESTR.CAVITY>
0

>  <SCORE.RESTR.norm>
0

>  <SCORE.SYSTEM>
0

>  <SCORE.SYSTEM.CONST>
0

>  <SCORE.SYSTEM.DIHEDRAL>
0

>  <SCORE.SYSTEM.SOLV>
0

>  <SCORE.SYSTEM.norm>
0

>  <SCORE.heavy>
27

>  <SCORE.norm>
-0.586662

>  <RMSD>
5.912

$$$$
ligand
 OpenBabel11021811433D
libRbt.so/2013.1/901 2013/11/27
 27 29  0  0  0  0  0  0  0  0999 V2000
   48.2903   56.3998   27.9167 N   0  0  0  0  0  0  0  0  0  0  0  0
   49.1768   56.9905   28.9243 C   0  0  2  0  0  0  0  0  0  0  0  0
   50.1665   55.9439   29.4042 C   0  0  0  0  0  0  0  0  0  0  0  0
   49.7673   54.9576   30.0168 O   0  0  0  0  0  0  0  0  0  0  0  0
   48.3650   57.5297   30.1189 C   0  0  0  0  0  0  0  0  0  0  0  0
   49.3011   58.2826   31.0632 C   0  0  0  0  0  0  0  0  0  0  0  0
   48.5163   58.9232   32.5988 S   0  0  2  0  0  0  0  0  0  0  0  0
   49.8897   59.6960   33.5090 C   0  0  0  0  0  0  0  0  0  0  0  0
   48.3950   57.3253   33.4298 C   0  0  0  0  0  0  0  0  0  0  0  0
   47.2325   56.4513   32.9279 C   0  0  1  0  0  0  0  0  0  0  0  0
   47.3308   55.1308   33.5390 O   0  0  0  0  0  0  0  0  0  0  0  0
   46.0290   57.1092   33.5524 C   0  0  1  0  0  0  0  0  0  0  0  0
   45.4230   57.9997   32.6152 O   0  0  0  0  0  0  0  0  0  0  0  0
   45.0930   55.9477   33.8630 C   0  0  1  0  0  0  0  0  0  0  0  0
   44.1139   55.7616   32.8475 O   0  0  0  0  0  0  0  0  0  0  0  0
   46.0035   54.6727   33.9952 C   0  0  2  0  0  0  0  0  0  0  0  0
   51.3749   56.1106   29.2376 O   0  0  0  0  0  0  0  0  0  0  0  0
   49.0438   54.6018   38.2769 N   0  0  0  0  0  0  0  0  0  0  0  0
   49.2867   55.2092   37.1102 C   0  0  0  0  0  0  0  0  0  0  0  0
   48.4160   55.1595   36.1143 N   0  0  0  0  0  0  0  0  0  0  0  0
   47.2680   54.4705   36.2221 C   0  0  0  0  0  0  0  0  0  0  0  0
   46.9719   53.7975   37.4353 C   0  0  0  0  0  0  0  0  0  0  0  0
   47.9220   53.8927   38.4833 C   0  0  0  0  0  0  0  0  0  0  0  0
   47.7014   53.2683   39.6905 N   0  0  0  0  0  0  0  0  0  0  0  0
   45.7789   53.1897   37.2789 N   0  0  0  0  0  0  0  0  0  0  0  0
   45.3338   53.4274   36.0799 C   0  0  0  0  0  0  0  0  0  0  0  0
   46.2084   54.2163   35.3858 N   0  0  0  0  0  0  0  0  0  0  0  0
  2  1  1  6  0  0  0
  2  3  1  0  0  0  0
  2  5  1  0  0  0  0
  3  4  1  0  0  0  0
  3 17  1  0  0  0  0
  5  6  1  0  0  0  0
  7  6  1  6  0  0  0
  7  8  1  0  0  0  0
  7  9  1  0  0  0  0
 10  9  1  1  0  0  0
 10 11  1  0  0  0  0
 10 12  1  0  0  0  0
 11 16  1  0  0  0  0
 12 13  1  6  0  0  0
 12 14  1  0  0  0  0
 14 15  1  6  0  0  0
 14 16  1  0  0  0  0
 16 27  1  1  0  0  0
 18 19  2  0  0  0  0
 18 23  1  0  0  0  0
 19 20  1  0  0  0  0
 20 21  2  0  0  0  0
 21 22  1  0  0  0  0
 21 27  1  0  0  0  0
 22 23  2  0  0  0  0
 22 25  1  0  0  0  0
 23 24  1  0  0  0  0
 25 26  2  0  0  0  0
 26 27  1  0  0  0  0
M  END
>  <CHROM.1>
-65.09197350,-173.28215629,-176.91032657,177.99487402,-77.95075432,172.85179647
15.98944634,47.76782505,55.99076376,33.60741723,1.31329899,-0.18994449,-1.21331971

>  <Name>
ligand

>  <RI>
0

>  <Rbt.Current_Directory>
/home/itssahil/PROJECTS/Mol_Feturizer/New_Systems/rnas/2GIS

>  <Rbt.Executable>
rbdock ($Id: //depot/dev/client3/rdock/2013.1/src/exe/rbdock.cxx#4 $)

>  <Rbt.Library>
libRbt.so (2013.1, Build901 2013/11/27)

>  <Rbt.Parameter_File>
/export/apps/rDock/src/rDock_2013.1_src/data/scripts/dock_solv.prm

>  <Rbt.Receptor>
prm/pocket_docking_8.prm

>  <SCORE>
-23.9199

>  <SCORE.INTER>
-18.5371

>  <SCORE.INTER.CONST>
1

>  <SCORE.INTER.POLAR>
0

>  <SCORE.INTER.ROT>
7

>  <SCORE.INTER.SOLV>
9.54004

>  <SCORE.INTER.VDW>
-23.8048

>  <SCORE.INTER.norm>
-0.68656

>  <SCORE.INTRA>
-5.3828

>  <SCORE.INTRA.DIHEDRAL>
-5.34638

>  <SCORE.INTRA.DIHEDRAL.0>
9.40024

>  <SCORE.INTRA.POLAR>
0

>  <SCORE.INTRA.POLAR.0>
0

>  <SCORE.INTRA.REPUL>
0

>  <SCORE.INTRA.REPUL.0>
0

>  <SCORE.INTRA.SOLV>
-2.76754

>  <SCORE.INTRA.SOLV.lig_0>
-47.1049

>  <SCORE.INTRA.VDW>
-1.32584

>  <SCORE.INTRA.VDW.0>
-1.50278

>  <SCORE.INTRA.norm>
-0.199363

>  <SCORE.RESTR>
0

>  <SCORE.RESTR.CAVITY>
0

>  <SCORE.RESTR.norm>
0

>  <SCORE.SYSTEM>
0

>  <SCORE.SYSTEM.CONST>
0

>  <SCORE.SYSTEM.DIHEDRAL>
0

>  <SCORE.SYSTEM.SOLV>
0

>  <SCORE.SYSTEM.norm>
0

>  <SCORE.heavy>
27

>  <SCORE.norm>
-0.885923

>  <RMSD>
5.962

$$$$
ligand
 OpenBabel11021811433D
libRbt.so/2013.1/901 2013/11/27
 27 29  0  0  0  0  0  0  0  0999 V2000
   49.8934   54.8789   29.6856 N   0  0  0  0  0  0  0  0  0  0  0  0
   49.5474   55.9979   30.5676 C   0  0  2  0  0  0  0  0  0  0  0  0
   49.7754   55.5927   32.0130 C   0  0  0  0  0  0  0  0  0  0  0  0
   50.2911   56.3838   32.7977 O   0  0  0  0  0  0  0  0  0  0  0  0
   48.0777   56.4184   30.3677 C   0  0  0  0  0  0  0  0  0  0  0  0
   47.8248   57.7292   31.1110 C   0  0  0  0  0  0  0  0  0  0  0  0
   46.0870   58.3313   31.0693 S   0  0  2  0  0  0  0  0  0  0  0  0
   46.1740   59.9878   31.8180 C   0  0  0  0  0  0  0  0  0  0  0  0
   45.5107   57.3416   32.4647 C   0  0  0  0  0  0  0  0  0  0  0  0
   45.2421   55.8684   32.1118 C   0  0  1  0  0  0  0  0  0  0  0  0
   46.2513   55.0332   32.7527 O   0  0  0  0  0  0  0  0  0  0  0  0
   43.9495   55.5846   32.8330 C   0  0  1  0  0  0  0  0  0  0  0  0
   42.8506   55.7314   31.9332 O   0  0  0  0  0  0  0  0  0  0  0  0
   44.0841   54.1325   33.2744 C   0  0  1  0  0  0  0  0  0  0  0  0
   43.4500   53.2359   32.3698 O   0  0  0  0  0  0  0  0  0  0  0  0
   45.6267   53.8389   33.3554 C   0  0  2  0  0  0  0  0  0  0  0  0
   49.5037   54.4517   32.3875 O   0  0  0  0  0  0  0  0  0  0  0  0
   49.3295   55.2852   36.7875 N   0  0  0  0  0  0  0  0  0  0  0  0
   49.2382   55.6146   35.4944 C   0  0  0  0  0  0  0  0  0  0  0  0
   48.2323   55.1903   34.7458 N   0  0  0  0  0  0  0  0  0  0  0  0
   47.2796   54.3854   35.2445 C   0  0  0  0  0  0  0  0  0  0  0  0
   47.3407   53.9968   36.6074 C   0  0  0  0  0  0  0  0  0  0  0  0
   48.4235   54.4893   37.3789 C   0  0  0  0  0  0  0  0  0  0  0  0
   48.5468   54.1570   38.7093 N   0  0  0  0  0  0  0  0  0  0  0  0
   46.2820   53.1975   36.8472 N   0  0  0  0  0  0  0  0  0  0  0  0
   45.5941   53.0620   35.7514 C   0  0  0  0  0  0  0  0  0  0  0  0
   46.1598   53.7766   34.7324 N   0  0  0  0  0  0  0  0  0  0  0  0
  2  1  1  6  0  0  0
  2  3  1  0  0  0  0
  2  5  1  0  0  0  0
  3  4  1  0  0  0  0
  3 17  1  0  0  0  0
  5  6  1  0  0  0  0
  7  6  1  1  0  0  0
  7  8  1  0  0  0  0
  7  9  1  0  0  0  0
 10  9  1  1  0  0  0
 10 11  1  0  0  0  0
 10 12  1  0  0  0  0
 11 16  1  0  0  0  0
 12 13  1  6  0  0  0
 12 14  1  0  0  0  0
 14 15  1  6  0  0  0
 14 16  1  0  0  0  0
 16 27  1  1  0  0  0
 18 19  2  0  0  0  0
 18 23  1  0  0  0  0
 19 20  1  0  0  0  0
 20 21  2  0  0  0  0
 21 22  1  0  0  0  0
 21 27  1  0  0  0  0
 22 23  2  0  0  0  0
 22 25  1  0  0  0  0
 23 24  1  0  0  0  0
 25 26  2  0  0  0  0
 26 27  1  0  0  0  0
M  END
>  <CHROM.1>
138.37095503,-170.07979083,-176.36781568,-172.19818459,-78.24086639,110.36320122
-18.92695151,46.98593754,55.49214192,33.33631408,-1.71870934,0.14655776,2.11205713

>  <Name>
ligand

>  <RI>
0

>  <Rbt.Current_Directory>
/home/itssahil/PROJECTS/Mol_Feturizer/New_Systems/rnas/2GIS

>  <Rbt.Executable>
rbdock ($Id: //depot/dev/client3/rdock/2013.1/src/exe/rbdock.cxx#4 $)

>  <Rbt.Library>
libRbt.so (2013.1, Build901 2013/11/27)

>  <Rbt.Parameter_File>
/export/apps/rDock/src/rDock_2013.1_src/data/scripts/dock_solv.prm

>  <Rbt.Receptor>
prm/pocket_docking_7.prm

>  <SCORE>
-15.7484

>  <SCORE.INTER>
-11.6755

>  <SCORE.INTER.CONST>
1

>  <SCORE.INTER.POLAR>
0

>  <SCORE.INTER.ROT>
7

>  <SCORE.INTER.SOLV>
11.0928

>  <SCORE.INTER.VDW>
-19.7479

>  <SCORE.INTER.norm>
-0.432426

>  <SCORE.INTRA>
-4.08099

>  <SCORE.INTRA.DIHEDRAL>
0.110218

>  <SCORE.INTRA.DIHEDRAL.0>
9.40024

>  <SCORE.INTRA.POLAR>
0

>  <SCORE.INTRA.POLAR.0>
0

>  <SCORE.INTRA.REPUL>
0

>  <SCORE.INTRA.REPUL.0>
0

>  <SCORE.INTRA.SOLV>
-2.87741

>  <SCORE.INTRA.SOLV.lig_0>
-47.1049

>  <SCORE.INTRA.VDW>
-2.69739

>  <SCORE.INTRA.VDW.0>
-1.50278

>  <SCORE.INTRA.norm>
-0.151148

>  <SCORE.RESTR>
0.00806875

>  <SCORE.RESTR.CAVITY>
0.00806875

>  <SCORE.RESTR.norm>
0.000298842

>  <SCORE.SYSTEM>
0

>  <SCORE.SYSTEM.CONST>
0

>  <SCORE.SYSTEM.DIHEDRAL>
0

>  <SCORE.SYSTEM.SOLV>
0

>  <SCORE.SYSTEM.norm>
0

>  <SCORE.heavy>
27

>  <SCORE.norm>
-0.583275

>  <RMSD>
6.040

$$$$
ligand
 OpenBabel11021811433D
libRbt.so/2013.1/901 2013/11/27
 27 29  0  0  0  0  0  0  0  0999 V2000
   48.6648   57.3094   28.8339 N   0  0  0  0  0  0  0  0  0  0  0  0
   47.3549   57.0973   28.2100 C   0  0  2  0  0  0  0  0  0  0  0  0
   47.3314   57.7596   26.8440 C   0  0  0  0  0  0  0  0  0  0  0  0
   47.4864   57.0827   25.8315 O   0  0  0  0  0  0  0  0  0  0  0  0
   46.2291   57.6748   29.0909 C   0  0  0  0  0  0  0  0  0  0  0  0
   46.1703   56.8968   30.4047 C   0  0  0  0  0  0  0  0  0  0  0  0
   45.0034   57.5653   31.6600 S   0  0  2  0  0  0  0  0  0  0  0  0
   45.6777   59.2072   32.0617 C   0  0  0  0  0  0  0  0  0  0  0  0
   45.6247   56.5799   33.0391 C   0  0  0  0  0  0  0  0  0  0  0  0
   45.3890   55.0682   32.8775 C   0  0  1  0  0  0  0  0  0  0  0  0
   46.2912   54.3474   33.7682 O   0  0  0  0  0  0  0  0  0  0  0  0
   44.0068   54.8847   33.4495 C   0  0  1  0  0  0  0  0  0  0  0  0
   43.0428   54.8852   32.3962 O   0  0  0  0  0  0  0  0  0  0  0  0
   44.0624   53.5165   34.1178 C   0  0  1  0  0  0  0  0  0  0  0  0
   43.5468   52.4889   33.2796 O   0  0  0  0  0  0  0  0  0  0  0  0
   45.5758   53.2518   34.4521 C   0  0  2  0  0  0  0  0  0  0  0  0
   47.2210   58.9822   26.7493 O   0  0  0  0  0  0  0  0  0  0  0  0
   49.1295   54.5540   38.0930 N   0  0  0  0  0  0  0  0  0  0  0  0
   49.2762   54.5687   36.7636 C   0  0  0  0  0  0  0  0  0  0  0  0
   48.2818   54.2304   35.9580 N   0  0  0  0  0  0  0  0  0  0  0  0
   47.0953   53.8274   36.4418 C   0  0  0  0  0  0  0  0  0  0  0  0
   46.8957   53.7816   37.8454 C   0  0  0  0  0  0  0  0  0  0  0  0
   47.9798   54.1709   38.6721 C   0  0  0  0  0  0  0  0  0  0  0  0
   47.8588   54.1549   40.0435 N   0  0  0  0  0  0  0  0  0  0  0  0
   45.6382   53.3461   38.0604 N   0  0  0  0  0  0  0  0  0  0  0  0
   45.0654   53.1170   36.9151 C   0  0  0  0  0  0  0  0  0  0  0  0
   45.9152   53.4015   35.8826 N   0  0  0  0  0  0  0  0  0  0  0  0
  2  1  1  1  0  0  0
  2  3  1  0  0  0  0
  2  5  1  0  0  0  0
  3  4  1  0  0  0  0
  3 17  1  0  0  0  0
  5  6  1  0  0  0  0
  7  6  1  6  0  0  0
  7  8  1  0  0  0  0
  7  9  1  0  0  0  0
 10  9  1  1  0  0  0
 10 11  1  0  0  0  0
 10 12  1  0  0  0  0
 11 16  1  0  0  0  0
 12 13  1  6  0  0  0
 12 14  1  0  0  0  0
 14 15  1  6  0  0  0
 14 16  1  0  0  0  0
 16 27  1  1  0  0  0
 18 19  2  0  0  0  0
 18 23  1  0  0  0  0
 19 20  1  0  0  0  0
 20 21  2  0  0  0  0
 21 22  1  0  0  0  0
 21 27  1  0  0  0  0
 22 23  2  0  0  0  0
 22 25  1  0  0  0  0
 23 24  1  0  0  0  0
 25 26  2  0  0  0  0
 26 27  1  0  0  0  0
M  END
>  <CHROM.1>
100.67306021,-64.90098289,173.62464217,-63.78920880,-65.75467009,160.95510218
-34.67288658,46.26295901,55.47540236,33.18002778,-1.58437776,0.39140988,1.98015826

>  <Name>
ligand

>  <RI>
0

>  <Rbt.Current_Directory>
/home/itssahil/PROJECTS/Mol_Feturizer/New_Systems/rnas/2GIS

>  <Rbt.Executable>
rbdock ($Id: //depot/dev/client3/rdock/2013.1/src/exe/rbdock.cxx#4 $)

>  <Rbt.Library>
libRbt.so (2013.1, Build901 2013/11/27)

>  <Rbt.Parameter_File>
/export/apps/rDock/src/rDock_2013.1_src/data/scripts/dock_solv.prm

>  <Rbt.Receptor>
prm/pocket_docking_8.prm

>  <SCORE>
-20.312

>  <SCORE.INTER>
-16.3093

>  <SCORE.INTER.CONST>
1

>  <SCORE.INTER.POLAR>
0

>  <SCORE.INTER.ROT>
7

>  <SCORE.INTER.SOLV>
10.068

>  <SCORE.INTER.VDW>
-22.4955

>  <SCORE.INTER.norm>
-0.604047

>  <SCORE.INTRA>
-4.00273

>  <SCORE.INTRA.DIHEDRAL>
-4.91386

>  <SCORE.INTRA.DIHEDRAL.0>
9.40024

>  <SCORE.INTRA.POLAR>
0

>  <SCORE.INTRA.POLAR.0>
0

>  <SCORE.INTRA.REPUL>
0

>  <SCORE.INTRA.REPUL.0>
0

>  <SCORE.INTRA.SOLV>
-2.26824

>  <SCORE.INTRA.SOLV.lig_0>
-47.1049

>  <SCORE.INTRA.VDW>
-0.411678

>  <SCORE.INTRA.VDW.0>
-1.50278

>  <SCORE.INTRA.norm>
-0.148249

>  <SCORE.RESTR>
0

>  <SCORE.RESTR.CAVITY>
0

>  <SCORE.RESTR.norm>
0

>  <SCORE.SYSTEM>
0

>  <SCORE.SYSTEM.CONST>
0

>  <SCORE.SYSTEM.DIHEDRAL>
0

>  <SCORE.SYSTEM.SOLV>
0

>  <SCORE.SYSTEM.norm>
0

>  <SCORE.heavy>
27

>  <SCORE.norm>
-0.752296

>  <RMSD>
6.059

$$$$
ligand
 OpenBabel11021811433D
libRbt.so/2013.1/901 2013/11/27
 27 29  0  0  0  0  0  0  0  0999 V2000
   43.9100   53.1313   32.6070 N   0  0  0  0  0  0  0  0  0  0  0  0
   44.7778   53.2635   33.7814 C   0  0  2  0  0  0  0  0  0  0  0  0
   44.3389   54.4626   34.6030 C   0  0  0  0  0  0  0  0  0  0  0  0
   44.7657   55.5814   34.3316 O   0  0  0  0  0  0  0  0  0  0  0  0
   46.2508   53.4305   33.3578 C   0  0  0  0  0  0  0  0  0  0  0  0
   47.1237   53.5371   34.6073 C   0  0  0  0  0  0  0  0  0  0  0  0
   48.7648   54.3282   34.3518 S   0  0  2  0  0  0  0  0  0  0  0  0
   49.3024   54.7848   36.0294 C   0  0  0  0  0  0  0  0  0  0  0  0
   48.1231   55.9024   33.7445 C   0  0  0  0  0  0  0  0  0  0  0  0
   49.2163   56.8816   33.2826 C   0  0  1  0  0  0  0  0  0  0  0  0
   49.9103   56.3131   32.1329 O   0  0  0  0  0  0  0  0  0  0  0  0
   48.4178   58.0445   32.7521 C   0  0  1  0  0  0  0  0  0  0  0  0
   48.3030   59.0519   33.7574 O   0  0  0  0  0  0  0  0  0  0  0  0
   49.2453   58.5562   31.5795 C   0  0  1  0  0  0  0  0  0  0  0  0
   50.0728   59.6542   31.9458 O   0  0  0  0  0  0  0  0  0  0  0  0
   50.1185   57.3419   31.0946 C   0  0  2  0  0  0  0  0  0  0  0  0
   43.6062   54.3100   35.5805 O   0  0  0  0  0  0  0  0  0  0  0  0
   47.6530   57.8862   26.4895 N   0  0  0  0  0  0  0  0  0  0  0  0
   47.8668   58.8234   27.4196 C   0  0  0  0  0  0  0  0  0  0  0  0
   48.5250   58.5485   28.5346 N   0  0  0  0  0  0  0  0  0  0  0  0
   48.9770   57.3103   28.7935 C   0  0  0  0  0  0  0  0  0  0  0  0
   48.7622   56.2788   27.8437 C   0  0  0  0  0  0  0  0  0  0  0  0
   48.0704   56.6202   26.6542 C   0  0  0  0  0  0  0  0  0  0  0  0
   47.8279   55.6723   25.6855 N   0  0  0  0  0  0  0  0  0  0  0  0
   49.3043   55.1504   28.3437 N   0  0  0  0  0  0  0  0  0  0  0  0
   49.8178   55.4059   29.5113 C   0  0  0  0  0  0  0  0  0  0  0  0
   49.6499   56.7230   29.8370 N   0  0  0  0  0  0  0  0  0  0  0  0
  2  1  1  6  0  0  0
  2  3  1  0  0  0  0
  2  5  1  0  0  0  0
  3  4  1  0  0  0  0
  3 17  1  0  0  0  0
  5  6  1  0  0  0  0
  7  6  1  1  0  0  0
  7  8  1  0  0  0  0
  7  9  1  0  0  0  0
 10  9  1  6  0  0  0
 10 11  1  0  0  0  0
 10 12  1  0  0  0  0
 11 16  1  0  0  0  0
 12 13  1  1  0  0  0
 12 14  1  0  0  0  0
 14 15  1  1  0  0  0
 14 16  1  0  0  0  0
 16 27  1  6  0  0  0
 18 19  2  0  0  0  0
 18 23  1  0  0  0  0
 19 20  1  0  0  0  0
 20 21  2  0  0  0  0
 21 22  1  0  0  0  0
 21 27  1  0  0  0  0
 22 23  2  0  0  0  0
 22 25  1  0  0  0  0
 23 24  1  0  0  0  0
 25 26  2  0  0  0  0
 26 27  1  0  0  0  0
M  END
>  <CHROM.1>
-86.08501774,-178.89677369,-158.86565574,162.40355245,-175.34909849,64.24822939
142.62432375,47.89962147,56.09830119,31.69002265,2.04095731,0.70126162,1.67831276

>  <Name>
ligand

>  <RI>
0

>  <Rbt.Current_Directory>
/home/itssahil/PROJECTS/Mol_Feturizer/New_Systems/rnas/2GIS

>  <Rbt.Executable>
rbdock ($Id: //depot/dev/client3/rdock/2013.1/src/exe/rbdock.cxx#4 $)

>  <Rbt.Library>
libRbt.so (2013.1, Build901 2013/11/27)

>  <Rbt.Parameter_File>
/export/apps/rDock/src/rDock_2013.1_src/data/scripts/dock_solv.prm

>  <Rbt.Receptor>
prm/pocket_docking_5.prm

>  <SCORE>
-14.2883

>  <SCORE.INTER>
-10.736

>  <SCORE.INTER.CONST>
1

>  <SCORE.INTER.POLAR>
0

>  <SCORE.INTER.ROT>
7

>  <SCORE.INTER.SOLV>
13.9281

>  <SCORE.INTER.VDW>
-20.0667

>  <SCORE.INTER.norm>
-0.397631

>  <SCORE.INTRA>
-3.55224

>  <SCORE.INTRA.DIHEDRAL>
-3.81514

>  <SCORE.INTRA.DIHEDRAL.0>
9.40024

>  <SCORE.INTRA.POLAR>
0

>  <SCORE.INTRA.POLAR.0>
0

>  <SCORE.INTRA.REPUL>
0

>  <SCORE.INTRA.REPUL.0>
0

>  <SCORE.INTRA.SOLV>
-3.18579

>  <SCORE.INTRA.SOLV.lig_0>
-47.1049

>  <SCORE.INTRA.VDW>
-0.0517669

>  <SCORE.INTRA.VDW.0>
-1.50278

>  <SCORE.INTRA.norm>
-0.131564

>  <SCORE.RESTR>
0

>  <SCORE.RESTR.CAVITY>
0

>  <SCORE.RESTR.norm>
0

>  <SCORE.SYSTEM>
0

>  <SCORE.SYSTEM.CONST>
0

>  <SCORE.SYSTEM.DIHEDRAL>
0

>  <SCORE.SYSTEM.SOLV>
0

>  <SCORE.SYSTEM.norm>
0

>  <SCORE.heavy>
27

>  <SCORE.norm>
-0.529195

>  <RMSD>
6.064

$$$$
ligand
 OpenBabel11021811433D
libRbt.so/2013.1/901 2013/11/27
 27 29  0  0  0  0  0  0  0  0999 V2000
   47.1351   53.6048   34.8011 N   0  0  0  0  0  0  0  0  0  0  0  0
   47.9104   54.5743   34.0207 C   0  0  2  0  0  0  0  0  0  0  0  0
   48.1003   54.0512   32.6080 C   0  0  0  0  0  0  0  0  0  0  0  0
   48.7366   54.7101   31.7904 O   0  0  0  0  0  0  0  0  0  0  0  0
   49.2838   54.8293   34.6732 C   0  0  0  0  0  0  0  0  0  0  0  0
   49.4702   56.3316   34.8801 C   0  0  0  0  0  0  0  0  0  0  0  0
   49.6362   57.3207   33.3379 S   0  0  2  0  0  0  0  0  0  0  0  0
   50.0953   58.9814   33.9239 C   0  0  0  0  0  0  0  0  0  0  0  0
   47.8653   57.5229   33.0517 C   0  0  0  0  0  0  0  0  0  0  0  0
   47.5011   58.8179   32.3052 C   0  0  1  0  0  0  0  0  0  0  0  0
   48.4296   59.0060   31.1964 O   0  0  0  0  0  0  0  0  0  0  0  0
   46.1721   58.4786   31.6807 C   0  0  1  0  0  0  0  0  0  0  0  0
   45.1118   58.9623   32.5056 O   0  0  0  0  0  0  0  0  0  0  0  0
   46.1897   59.2199   30.3496 C   0  0  1  0  0  0  0  0  0  0  0  0
   45.5177   60.4719   30.4240 O   0  0  0  0  0  0  0  0  0  0  0  0
   47.7043   59.4251   29.9807 C   0  0  2  0  0  0  0  0  0  0  0  0
   47.5654   52.9985   32.2593 O   0  0  0  0  0  0  0  0  0  0  0  0
   50.7775   55.4084   28.5654 N   0  0  0  0  0  0  0  0  0  0  0  0
   50.6392   55.9440   29.7832 C   0  0  0  0  0  0  0  0  0  0  0  0
   49.8074   56.9502   30.0017 N   0  0  0  0  0  0  0  0  0  0  0  0
   49.0922   57.4964   29.0045 C   0  0  0  0  0  0  0  0  0  0  0  0
   49.2153   56.9720   27.6922 C   0  0  0  0  0  0  0  0  0  0  0  0
   50.1021   55.8817   27.5053 C   0  0  0  0  0  0  0  0  0  0  0  0
   50.2709   55.3186   26.2602 N   0  0  0  0  0  0  0  0  0  0  0  0
   48.4043   57.6923   26.8919 N   0  0  0  0  0  0  0  0  0  0  0  0
   47.8111   58.6081   27.6002 C   0  0  0  0  0  0  0  0  0  0  0  0
   48.1934   58.5308   28.9105 N   0  0  0  0  0  0  0  0  0  0  0  0
  2  1  1  1  0  0  0
  2  3  1  0  0  0  0
  2  5  1  0  0  0  0
  3  4  1  0  0  0  0
  3 17  1  0  0  0  0
  5  6  1  0  0  0  0
  7  6  1  1  0  0  0
  7  8  1  0  0  0  0
  7  9  1  0  0  0  0
 10  9  1  1  0  0  0
 10 11  1  0  0  0  0
 10 12  1  0  0  0  0
 11 16  1  0  0  0  0
 12 13  1  1  0  0  0
 12 14  1  0  0  0  0
 14 15  1  1  0  0  0
 14 16  1  0  0  0  0
 16 27  1  6  0  0  0
 18 19  2  0  0  0  0
 18 23  1  0  0  0  0
 19 20  1  0  0  0  0
 20 21  2  0  0  0  0
 21 22  1  0  0  0  0
 21 27  1  0  0  0  0
 22 23  2  0  0  0  0
 22 25  1  0  0  0  0
 23 24  1  0  0  0  0
 25 26  2  0  0  0  0
 26 27  1  0  0  0  0
M  END
>  <CHROM.1>
-179.35765293,-126.55244938,-67.60251707,-171.52850211,150.98213947,44.06489426
2.01412542,48.41877947,56.99544024,31.14868290,-1.69472959,1.02503524,-1.13769239

>  <Name>
ligand

>  <RI>
0

>  <Rbt.Current_Directory>
/home/itssahil/PROJECTS/Mol_Feturizer/New_Systems/rnas/2GIS

>  <Rbt.Executable>
rbdock ($Id: //depot/dev/client3/rdock/2013.1/src/exe/rbdock.cxx#4 $)

>  <Rbt.Library>
libRbt.so (2013.1, Build901 2013/11/27)

>  <Rbt.Parameter_File>
/export/apps/rDock/src/rDock_2013.1_src/data/scripts/dock_solv.prm

>  <Rbt.Receptor>
prm/pocket_docking_4.prm

>  <SCORE>
-17.008

>  <SCORE.INTER>
-15.2464

>  <SCORE.INTER.CONST>
1

>  <SCORE.INTER.POLAR>
0

>  <SCORE.INTER.ROT>
7

>  <SCORE.INTER.SOLV>
11.8607

>  <SCORE.INTER.VDW>
-22.3845

>  <SCORE.INTER.norm>
-0.564681

>  <SCORE.INTRA>
-1.76166

>  <SCORE.INTRA.DIHEDRAL>
2.57118

>  <SCORE.INTRA.DIHEDRAL.0>
9.40024

>  <SCORE.INTRA.POLAR>
0

>  <SCORE.INTRA.POLAR.0>
0

>  <SCORE.INTRA.REPUL>
0

>  <SCORE.INTRA.REPUL.0>
0

>  <SCORE.INTRA.SOLV>
-2.38295

>  <SCORE.INTRA.SOLV.lig_0>
-47.1049

>  <SCORE.INTRA.VDW>
-1.85578

>  <SCORE.INTRA.VDW.0>
-1.50278

>  <SCORE.INTRA.norm>
-0.0652466

>  <SCORE.RESTR>
0

>  <SCORE.RESTR.CAVITY>
0

>  <SCORE.RESTR.norm>
0

>  <SCORE.SYSTEM>
0

>  <SCORE.SYSTEM.CONST>
0

>  <SCORE.SYSTEM.DIHEDRAL>
0

>  <SCORE.SYSTEM.SOLV>
0

>  <SCORE.SYSTEM.norm>
0

>  <SCORE.heavy>
27

>  <SCORE.norm>
-0.629927

>  <RMSD>
6.079

$$$$
ligand
 OpenBabel11021811433D
libRbt.so/2013.1/901 2013/11/27
 27 29  0  0  0  0  0  0  0  0999 V2000
   46.6864   54.0681   35.8925 N   0  0  0  0  0  0  0  0  0  0  0  0
   46.4328   54.5921   34.5468 C   0  0  2  0  0  0  0  0  0  0  0  0
   45.2066   53.9139   33.9620 C   0  0  0  0  0  0  0  0  0  0  0  0
   44.4285   54.5533   33.2597 O   0  0  0  0  0  0  0  0  0  0  0  0
   47.6489   54.3559   33.6291 C   0  0  0  0  0  0  0  0  0  0  0  0
   47.3734   54.9768   32.2605 C   0  0  0  0  0  0  0  0  0  0  0  0
   48.8537   55.2103   31.1934 S   0  0  2  0  0  0  0  0  0  0  0  0
   49.7704   53.6469   31.3594 C   0  0  0  0  0  0  0  0  0  0  0  0
   49.7513   56.2716   32.3451 C   0  0  0  0  0  0  0  0  0  0  0  0
   49.5822   57.7748   32.0645 C   0  0  1  0  0  0  0  0  0  0  0  0
   50.0049   58.0548   30.6971 O   0  0  0  0  0  0  0  0  0  0  0  0
   48.0853   57.9492   32.0802 C   0  0  1  0  0  0  0  0  0  0  0  0
   47.6643   58.4057   33.3659 O   0  0  0  0  0  0  0  0  0  0  0  0
   47.8272   59.0187   31.0261 C   0  0  1  0  0  0  0  0  0  0  0  0
   47.7024   60.3158   31.5976 O   0  0  0  0  0  0  0  0  0  0  0  0
   49.0478   58.9643   30.0365 C   0  0  2  0  0  0  0  0  0  0  0  0
   44.9543   52.7415   34.2405 O   0  0  0  0  0  0  0  0  0  0  0  0
   50.2260   55.2949   26.4688 N   0  0  0  0  0  0  0  0  0  0  0  0
   50.8432   55.5350   27.6309 C   0  0  0  0  0  0  0  0  0  0  0  0
   50.4240   56.4880   28.4484 N   0  0  0  0  0  0  0  0  0  0  0  0
   49.3825   57.2745   28.1308 C   0  0  0  0  0  0  0  0  0  0  0  0
   48.7040   57.0679   26.9023 C   0  0  0  0  0  0  0  0  0  0  0  0
   49.1728   56.0241   26.0651 C   0  0  0  0  0  0  0  0  0  0  0  0
   48.5622   55.7627   24.8590 N   0  0  0  0  0  0  0  0  0  0  0  0
   47.7148   57.9807   26.8289 N   0  0  0  0  0  0  0  0  0  0  0  0
   47.7411   58.7237   27.8964 C   0  0  0  0  0  0  0  0  0  0  0  0
   48.7454   58.3301   28.7363 N   0  0  0  0  0  0  0  0  0  0  0  0
  2  1  1  1  0  0  0
  2  3  1  0  0  0  0
  2  5  1  0  0  0  0
  3  4  1  0  0  0  0
  3 17  1  0  0  0  0
  5  6  1  0  0  0  0
  7  6  1  1  0  0  0
  7  8  1  0  0  0  0
  7  9  1  0  0  0  0
 10  9  1  6  0  0  0
 10 11  1  0  0  0  0
 10 12  1  0  0  0  0
 11 16  1  0  0  0  0
 12 13  1  1  0  0  0
 12 14  1  0  0  0  0
 14 15  1  1  0  0  0
 14 16  1  0  0  0  0
 16 27  1  6  0  0  0
 18 19  2  0  0  0  0
 18 23  1  0  0  0  0
 19 20  1  0  0  0  0
 20 21  2  0  0  0  0
 21 22  1  0  0  0  0
 21 27  1  0  0  0  0
 22 23  2  0  0  0  0
 22 25  1  0  0  0  0
 23 24  1  0  0  0  0
 25 26  2  0  0  0  0
 26 27  1  0  0  0  0
M  END
>  <CHROM.1>
143.21454205,-177.16911562,163.79783318,44.54546547,-96.25558828,-56.84075720
-11.50474644,48.23386806,56.34923781,30.70681024,3.10596020,1.19537304,0.39651012

>  <Name>
ligand

>  <RI>
0

>  <Rbt.Current_Directory>
/home/itssahil/PROJECTS/Mol_Feturizer/New_Systems/rnas/2GIS

>  <Rbt.Executable>
rbdock ($Id: //depot/dev/client3/rdock/2013.1/src/exe/rbdock.cxx#4 $)

>  <Rbt.Library>
libRbt.so (2013.1, Build901 2013/11/27)

>  <Rbt.Parameter_File>
/export/apps/rDock/src/rDock_2013.1_src/data/scripts/dock_solv.prm

>  <Rbt.Receptor>
prm/pocket_docking_7.prm

>  <SCORE>
-11.9586

>  <SCORE.INTER>
-9.03137

>  <SCORE.INTER.CONST>
1

>  <SCORE.INTER.POLAR>
0

>  <SCORE.INTER.ROT>
7

>  <SCORE.INTER.SOLV>
12.6594

>  <SCORE.INTER.VDW>
-18.5074

>  <SCORE.INTER.norm>
-0.334495

>  <SCORE.INTRA>
-2.92723

>  <SCORE.INTRA.DIHEDRAL>
-2.81097

>  <SCORE.INTRA.DIHEDRAL.0>
9.40024

>  <SCORE.INTRA.POLAR>
0

>  <SCORE.INTRA.POLAR.0>
0

>  <SCORE.INTRA.REPUL>
0

>  <SCORE.INTRA.REPUL.0>
0

>  <SCORE.INTRA.SOLV>
-2.50801

>  <SCORE.INTRA.SOLV.lig_0>
-47.1049

>  <SCORE.INTRA.VDW>
-0.267741

>  <SCORE.INTRA.VDW.0>
-1.50278

>  <SCORE.INTRA.norm>
-0.108416

>  <SCORE.RESTR>
0

>  <SCORE.RESTR.CAVITY>
0

>  <SCORE.RESTR.norm>
0

>  <SCORE.SYSTEM>
0

>  <SCORE.SYSTEM.CONST>
0

>  <SCORE.SYSTEM.DIHEDRAL>
0

>  <SCORE.SYSTEM.SOLV>
0

>  <SCORE.SYSTEM.norm>
0

>  <SCORE.heavy>
27

>  <SCORE.norm>
-0.442911

>  <RMSD>
6.080

$$$$
ligand
 OpenBabel11021811433D
libRbt.so/2013.1/901 2013/11/27
 27 29  0  0  0  0  0  0  0  0999 V2000
   49.4269   55.3829   32.0545 N   0  0  0  0  0  0  0  0  0  0  0  0
   49.1496   55.0869   33.4636 C   0  0  2  0  0  0  0  0  0  0  0  0
   47.7404   54.5379   33.5979 C   0  0  0  0  0  0  0  0  0  0  0  0
   46.8664   54.8928   32.8120 O   0  0  0  0  0  0  0  0  0  0  0  0
   49.3025   56.3533   34.3294 C   0  0  0  0  0  0  0  0  0  0  0  0
   48.3708   57.4411   33.7971 C   0  0  0  0  0  0  0  0  0  0  0  0
   49.0164   58.3919   32.3606 S   0  0  2  0  0  0  0  0  0  0  0  0
   50.3841   59.3707   33.0559 C   0  0  0  0  0  0  0  0  0  0  0  0
   47.6870   59.6128   32.3295 C   0  0  0  0  0  0  0  0  0  0  0  0
   46.5584   59.2764   31.3394 C   0  0  1  0  0  0  0  0  0  0  0  0
   47.1149   59.1895   29.9941 O   0  0  0  0  0  0  0  0  0  0  0  0
   46.1861   57.8682   31.7264 C   0  0  1  0  0  0  0  0  0  0  0  0
   45.0593   57.8888   32.6032 O   0  0  0  0  0  0  0  0  0  0  0  0
   45.8179   57.2070   30.4039 C   0  0  1  0  0  0  0  0  0  0  0  0
   44.4140   57.2152   30.1728 O   0  0  0  0  0  0  0  0  0  0  0  0
   46.5685   58.0160   29.2840 C   0  0  2  0  0  0  0  0  0  0  0  0
   47.4537   53.7867   34.5303 O   0  0  0  0  0  0  0  0  0  0  0  0
   49.2384   53.5386   28.6465 N   0  0  0  0  0  0  0  0  0  0  0  0
   48.0910   53.7204   29.3094 C   0  0  0  0  0  0  0  0  0  0  0  0
   47.5148   54.9104   29.3739 N   0  0  0  0  0  0  0  0  0  0  0  0
   48.0743   55.9907   28.8045 C   0  0  0  0  0  0  0  0  0  0  0  0
   49.2988   55.8511   28.1021 C   0  0  0  0  0  0  0  0  0  0  0  0
   49.8721   54.5559   28.0403 C   0  0  0  0  0  0  0  0  0  0  0  0
   51.0577   54.3433   27.3733 N   0  0  0  0  0  0  0  0  0  0  0  0
   49.6390   57.0701   27.6377 N   0  0  0  0  0  0  0  0  0  0  0  0
   48.7363   57.9323   28.0038 C   0  0  0  0  0  0  0  0  0  0  0  0
   47.7455   57.3217   28.7211 N   0  0  0  0  0  0  0  0  0  0  0  0
  2  1  1  6  0  0  0
  2  3  1  0  0  0  0
  2  5  1  0  0  0  0
  3  4  1  0  0  0  0
  3 17  1  0  0  0  0
  5  6  1  0  0  0  0
  7  6  1  1  0  0  0
  7  8  1  0  0  0  0
  7  9  1  0  0  0  0
 10  9  1  1  0  0  0
 10 11  1  0  0  0  0
 10 12  1  0  0  0  0
 11 16  1  0  0  0  0
 12 13  1  1  0  0  0
 12 14  1  0  0  0  0
 14 15  1  6  0  0  0
 14 16  1  0  0  0  0
 16 27  1  1  0  0  0
 18 19  2  0  0  0  0
 18 23  1  0  0  0  0
 19 20  1  0  0  0  0
 20 21  2  0  0  0  0
 21 22  1  0  0  0  0
 21 27  1  0  0  0  0
 22 23  2  0  0  0  0
 22 25  1  0  0  0  0
 23 24  1  0  0  0  0
 25 26  2  0  0  0  0
 26 27  1  0  0  0  0
M  END
>  <CHROM.1>
-30.25142377,57.06937479,-81.98225857,-69.15933524,-95.66687673,-59.63225236
130.38975718,48.01572460,56.66284573,30.95942022,-2.22374146,1.10020604,-1.37111114

>  <Name>
ligand

>  <RI>
0

>  <Rbt.Current_Directory>
/home/itssahil/PROJECTS/Mol_Feturizer/New_Systems/rnas/2GIS

>  <Rbt.Executable>
rbdock ($Id: //depot/dev/client3/rdock/2013.1/src/exe/rbdock.cxx#4 $)

>  <Rbt.Library>
libRbt.so (2013.1, Build901 2013/11/27)

>  <Rbt.Parameter_File>
/export/apps/rDock/src/rDock_2013.1_src/data/scripts/dock_solv.prm

>  <Rbt.Receptor>
prm/pocket_docking_3.prm

>  <SCORE>
-12.0673

>  <SCORE.INTER>
-9.45941

>  <SCORE.INTER.CONST>
1

>  <SCORE.INTER.POLAR>
0

>  <SCORE.INTER.ROT>
7

>  <SCORE.INTER.SOLV>
6.8483

>  <SCORE.INTER.VDW>
-16.8557

>  <SCORE.INTER.norm>
-0.350349

>  <SCORE.INTRA>
-2.6079

>  <SCORE.INTRA.DIHEDRAL>
-2.60231

>  <SCORE.INTRA.DIHEDRAL.0>
9.40024

>  <SCORE.INTRA.POLAR>
0

>  <SCORE.INTRA.POLAR.0>
0

>  <SCORE.INTRA.REPUL>
0

>  <SCORE.INTRA.REPUL.0>
0

>  <SCORE.INTRA.SOLV>
1.04927

>  <SCORE.INTRA.SOLV.lig_0>
-47.1049

>  <SCORE.INTRA.VDW>
-1.83138

>  <SCORE.INTRA.VDW.0>
-1.50278

>  <SCORE.INTRA.norm>
-0.096589

>  <SCORE.RESTR>
0

>  <SCORE.RESTR.CAVITY>
0

>  <SCORE.RESTR.norm>
0

>  <SCORE.SYSTEM>
0

>  <SCORE.SYSTEM.CONST>
0

>  <SCORE.SYSTEM.DIHEDRAL>
0

>  <SCORE.SYSTEM.SOLV>
0

>  <SCORE.SYSTEM.norm>
0

>  <SCORE.heavy>
27

>  <SCORE.norm>
-0.446937

>  <RMSD>
6.085

$$$$
ligand
 OpenBabel11021811433D
libRbt.so/2013.1/901 2013/11/27
 27 29  0  0  0  0  0  0  0  0999 V2000
   43.6675   55.4798   32.3900 N   0  0  0  0  0  0  0  0  0  0  0  0
   44.9403   55.7367   33.0712 C   0  0  2  0  0  0  0  0  0  0  0  0
   44.9786   54.9675   34.3797 C   0  0  0  0  0  0  0  0  0  0  0  0
   43.9420   54.5103   34.8529 O   0  0  0  0  0  0  0  0  0  0  0  0
   45.1207   57.2432   33.3444 C   0  0  0  0  0  0  0  0  0  0  0  0
   45.2508   57.9828   32.0137 C   0  0  0  0  0  0  0  0  0  0  0  0
   46.1838   59.5667   32.0852 S   0  0  2  0  0  0  0  0  0  0  0  0
   45.9565   60.2898   30.4307 C   0  0  0  0  0  0  0  0  0  0  0  0
   47.8231   58.8275   31.9267 C   0  0  0  0  0  0  0  0  0  0  0  0
   48.1005   57.7085   32.9455 C   0  0  1  0  0  0  0  0  0  0  0  0
   48.0261   56.4188   32.2688 O   0  0  0  0  0  0  0  0  0  0  0  0
   49.5548   57.9180   33.2809 C   0  0  1  0  0  0  0  0  0  0  0  0
   49.6697   58.6841   34.4804 O   0  0  0  0  0  0  0  0  0  0  0  0
   50.0904   56.5081   33.4979 C   0  0  1  0  0  0  0  0  0  0  0  0
   50.1145   56.1496   34.8747 O   0  0  0  0  0  0  0  0  0  0  0  0
   49.1410   55.5483   32.6920 C   0  0  2  0  0  0  0  0  0  0  0  0
   46.0349   54.8542   35.0019 O   0  0  0  0  0  0  0  0  0  0  0  0
   50.2503   56.3313   27.6187 N   0  0  0  0  0  0  0  0  0  0  0  0
   49.6377   57.1698   28.4617 C   0  0  0  0  0  0  0  0  0  0  0  0
   49.4387   56.8468   29.7299 N   0  0  0  0  0  0  0  0  0  0  0  0
   49.8139   55.6517   30.2149 C   0  0  0  0  0  0  0  0  0  0  0  0
   50.4549   54.7225   29.3558 C   0  0  0  0  0  0  0  0  0  0  0  0
   50.6665   55.1158   28.0102 C   0  0  0  0  0  0  0  0  0  0  0  0
   51.2851   54.2678   27.1192 N   0  0  0  0  0  0  0  0  0  0  0  0
   50.7196   53.6178   30.0816 N   0  0  0  0  0  0  0  0  0  0  0  0
   50.2888   53.7932   31.2965 C   0  0  0  0  0  0  0  0  0  0  0  0
   49.7261   55.0312   31.4372 N   0  0  0  0  0  0  0  0  0  0  0  0
  2  1  1  1  0  0  0
  2  3  1  0  0  0  0
  2  5  1  0  0  0  0
  3  4  1  0  0  0  0
  3 17  1  0  0  0  0
  5  6  1  0  0  0  0
  7  6  1  6  0  0  0
  7  8  1  0  0  0  0
  7  9  1  0  0  0  0
 10  9  1  6  0  0  0
 10 11  1  0  0  0  0
 10 12  1  0  0  0  0
 11 16  1  0  0  0  0
 12 13  1  1  0  0  0
 12 14  1  0  0  0  0
 14 15  1  1  0  0  0
 14 16  1  0  0  0  0
 16 27  1  6  0  0  0
 18 19  2  0  0  0  0
 18 23  1  0  0  0  0
 19 20  1  0  0  0  0
 20 21  2  0  0  0  0
 21 22  1  0  0  0  0
 21 27  1  0  0  0  0
 22 23  2  0  0  0  0
 22 25  1  0  0  0  0
 23 24  1  0  0  0  0
 25 26  2  0  0  0  0
 26 27  1  0  0  0  0
M  END
>  <CHROM.1>
-15.85327453,-65.75087069,-153.93497201,-172.38419617,-52.71834118,105.06152067
32.59022997,48.02930874,56.51529871,31.84104432,-2.95381699,0.72915811,-0.62000508

>  <Name>
ligand

>  <RI>
0

>  <Rbt.Current_Directory>
/home/itssahil/PROJECTS/Mol_Feturizer/New_Systems/rnas/2GIS

>  <Rbt.Executable>
rbdock ($Id: //depot/dev/client3/rdock/2013.1/src/exe/rbdock.cxx#4 $)

>  <Rbt.Library>
libRbt.so (2013.1, Build901 2013/11/27)

>  <Rbt.Parameter_File>
/export/apps/rDock/src/rDock_2013.1_src/data/scripts/dock_solv.prm

>  <Rbt.Receptor>
prm/pocket_docking_6.prm

>  <SCORE>
-16.9435

>  <SCORE.INTER>
-15.2614

>  <SCORE.INTER.CONST>
1

>  <SCORE.INTER.POLAR>
0

>  <SCORE.INTER.ROT>
7

>  <SCORE.INTER.SOLV>
10.0724

>  <SCORE.INTER.VDW>
-21.7984

>  <SCORE.INTER.norm>
-0.565236

>  <SCORE.INTRA>
-1.68514

>  <SCORE.INTRA.DIHEDRAL>
1.65345

>  <SCORE.INTRA.DIHEDRAL.0>
9.40024

>  <SCORE.INTRA.POLAR>
0

>  <SCORE.INTRA.POLAR.0>
0

>  <SCORE.INTRA.REPUL>
0

>  <SCORE.INTRA.REPUL.0>
0

>  <SCORE.INTRA.SOLV>
-2.04585

>  <SCORE.INTRA.SOLV.lig_0>
-47.1049

>  <SCORE.INTRA.VDW>
-1.48894

>  <SCORE.INTRA.VDW.0>
-1.50278

>  <SCORE.INTRA.norm>
-0.0624125

>  <SCORE.RESTR>
0.00299325

>  <SCORE.RESTR.CAVITY>
0.00299325

>  <SCORE.RESTR.norm>
0.000110861

>  <SCORE.SYSTEM>
0

>  <SCORE.SYSTEM.CONST>
0

>  <SCORE.SYSTEM.DIHEDRAL>
0

>  <SCORE.SYSTEM.SOLV>
0

>  <SCORE.SYSTEM.norm>
0

>  <SCORE.heavy>
27

>  <SCORE.norm>
-0.627537

>  <RMSD>
6.095

$$$$
ligand
 OpenBabel11021811433D
libRbt.so/2013.1/901 2013/11/27
 27 29  0  0  0  0  0  0  0  0999 V2000
   51.1626   53.4567   27.3805 N   0  0  0  0  0  0  0  0  0  0  0  0
   50.5116   54.2438   28.4325 C   0  0  2  0  0  0  0  0  0  0  0  0
   50.8507   55.7124   28.2493 C   0  0  0  0  0  0  0  0  0  0  0  0
   52.0100   56.0513   28.0290 O   0  0  0  0  0  0  0  0  0  0  0  0
   50.9647   53.7724   29.8287 C   0  0  0  0  0  0  0  0  0  0  0  0
   50.0104   54.3329   30.8821 C   0  0  0  0  0  0  0  0  0  0  0  0
   48.4990   53.3284   31.1842 S   0  0  2  0  0  0  0  0  0  0  0  0
   47.5287   53.5176   29.6562 C   0  0  0  0  0  0  0  0  0  0  0  0
   47.6906   54.5247   32.2678 C   0  0  0  0  0  0  0  0  0  0  0  0
   46.3945   54.0024   32.9114 C   0  0  1  0  0  0  0  0  0  0  0  0
   46.7337   53.1883   34.0729 O   0  0  0  0  0  0  0  0  0  0  0  0
   45.7640   55.2588   33.4549 C   0  0  1  0  0  0  0  0  0  0  0  0
   44.7978   55.7555   32.5285 O   0  0  0  0  0  0  0  0  0  0  0  0
   45.0830   54.8040   34.7398 C   0  0  1  0  0  0  0  0  0  0  0  0
   43.7004   54.5298   34.5459 O   0  0  0  0  0  0  0  0  0  0  0  0
   45.8444   53.5100   35.2067 C   0  0  2  0  0  0  0  0  0  0  0  0
   49.9792   56.5716   28.3836 O   0  0  0  0  0  0  0  0  0  0  0  0
   46.5183   53.5246   40.4151 N   0  0  0  0  0  0  0  0  0  0  0  0
   45.4013   53.2441   39.7348 C   0  0  0  0  0  0  0  0  0  0  0  0
   45.3794   53.2607   38.4114 N   0  0  0  0  0  0  0  0  0  0  0  0
   46.4681   53.5914   37.6974 C   0  0  0  0  0  0  0  0  0  0  0  0
   47.6731   53.9108   38.3742 C   0  0  0  0  0  0  0  0  0  0  0  0
   47.6589   53.8617   39.7911 C   0  0  0  0  0  0  0  0  0  0  0  0
   48.7919   54.1561   40.5158 N   0  0  0  0  0  0  0  0  0  0  0  0
   48.5965   54.2052   37.4373 N   0  0  0  0  0  0  0  0  0  0  0  0
   48.0555   54.1010   36.2588 C   0  0  0  0  0  0  0  0  0  0  0  0
   46.7462   53.7203   36.3585 N   0  0  0  0  0  0  0  0  0  0  0  0
  2  1  1  6  0  0  0
  2  3  1  0  0  0  0
  2  5  1  0  0  0  0
  3  4  1  0  0  0  0
  3 17  1  0  0  0  0
  5  6  1  0  0  0  0
  7  6  1  6  0  0  0
  7  8  1  0  0  0  0
  7  9  1  0  0  0  0
 10  9  1  1  0  0  0
 10 11  1  0  0  0  0
 10 12  1  0  0  0  0
 11 16  1  0  0  0  0
 12 13  1  6  0  0  0
 12 14  1  0  0  0  0
 14 15  1  6  0  0  0
 14 16  1  0  0  0  0
 16 27  1  1  0  0  0
 18 19  2  0  0  0  0
 18 23  1  0  0  0  0
 19 20  1  0  0  0  0
 20 21  2  0  0  0  0
 21 22  1  0  0  0  0
 21 27  1  0  0  0  0
 22 23  2  0  0  0  0
 22 25  1  0  0  0  0
 23 24  1  0  0  0  0
 25 26  2  0  0  0  0
 26 27  1  0  0  0  0
M  END
>  <CHROM.1>
-46.09138729,-164.82906397,85.58084260,-69.21329803,-173.39066994,81.49995265
-155.46968965,47.77594967,54.21225924,33.68041114,-1.21000345,-0.02605225
1.67809694

>  <Name>
ligand

>  <RI>
0

>  <Rbt.Current_Directory>
/home/itssahil/PROJECTS/Mol_Feturizer/New_Systems/rnas/2GIS

>  <Rbt.Executable>
rbdock ($Id: //depot/dev/client3/rdock/2013.1/src/exe/rbdock.cxx#4 $)

>  <Rbt.Library>
libRbt.so (2013.1, Build901 2013/11/27)

>  <Rbt.Parameter_File>
/export/apps/rDock/src/rDock_2013.1_src/data/scripts/dock_solv.prm

>  <Rbt.Receptor>
prm/pocket_docking_6.prm

>  <SCORE>
-14.6356

>  <SCORE.INTER>
-11.5102

>  <SCORE.INTER.CONST>
1

>  <SCORE.INTER.POLAR>
0

>  <SCORE.INTER.ROT>
7

>  <SCORE.INTER.SOLV>
9.96623

>  <SCORE.INTER.VDW>
-19.2622

>  <SCORE.INTER.norm>
-0.426303

>  <SCORE.INTRA>
-3.1307

>  <SCORE.INTRA.DIHEDRAL>
-1.30272

>  <SCORE.INTRA.DIHEDRAL.0>
9.40024

>  <SCORE.INTRA.POLAR>
0

>  <SCORE.INTRA.POLAR.0>
0

>  <SCORE.INTRA.REPUL>
0

>  <SCORE.INTRA.REPUL.0>
0

>  <SCORE.INTRA.SOLV>
-2.74005

>  <SCORE.INTRA.SOLV.lig_0>
-47.1049

>  <SCORE.INTRA.VDW>
-1.10932

>  <SCORE.INTRA.VDW.0>
-1.50278

>  <SCORE.INTRA.norm>
-0.115952

>  <SCORE.RESTR>
0.00530255

>  <SCORE.RESTR.CAVITY>
0.00530255

>  <SCORE.RESTR.norm>
0.000196391

>  <SCORE.SYSTEM>
0

>  <SCORE.SYSTEM.CONST>
0

>  <SCORE.SYSTEM.DIHEDRAL>
0

>  <SCORE.SYSTEM.SOLV>
0

>  <SCORE.SYSTEM.norm>
0

>  <SCORE.heavy>
27

>  <SCORE.norm>
-0.542059

>  <RMSD>
6.109

$$$$
ligand
 OpenBabel11021811433D
libRbt.so/2013.1/901 2013/11/27
 27 29  0  0  0  0  0  0  0  0999 V2000
   49.9344   53.1820   23.5528 N   0  0  0  0  0  0  0  0  0  0  0  0
   49.2919   53.2986   24.8656 C   0  0  2  0  0  0  0  0  0  0  0  0
   50.3118   53.7658   25.8888 C   0  0  0  0  0  0  0  0  0  0  0  0
   51.4517   53.3100   25.8709 O   0  0  0  0  0  0  0  0  0  0  0  0
   48.6926   51.9474   25.3037 C   0  0  0  0  0  0  0  0  0  0  0  0
   47.9710   52.1272   26.6385 C   0  0  0  0  0  0  0  0  0  0  0  0
   46.3676   53.0246   26.5480 S   0  0  2  0  0  0  0  0  0  0  0  0
   46.8453   54.7793   26.4784 C   0  0  0  0  0  0  0  0  0  0  0  0
   45.9491   52.8402   28.2943 C   0  0  0  0  0  0  0  0  0  0  0  0
   46.9203   53.5617   29.2448 C   0  0  1  0  0  0  0  0  0  0  0  0
   46.1522   54.3231   30.2231 O   0  0  0  0  0  0  0  0  0  0  0  0
   47.5482   52.4223   30.0056 C   0  0  1  0  0  0  0  0  0  0  0  0
   48.7982   52.0732   29.4106 O   0  0  0  0  0  0  0  0  0  0  0  0
   47.7650   52.9872   31.4040 C   0  0  1  0  0  0  0  0  0  0  0  0
   49.0907   53.4702   31.5876 O   0  0  0  0  0  0  0  0  0  0  0  0
   46.7225   54.1519   31.5741 C   0  0  2  0  0  0  0  0  0  0  0  0
   49.9836   54.5531   26.7768 O   0  0  0  0  0  0  0  0  0  0  0  0
   44.9659   52.6123   36.2779 N   0  0  0  0  0  0  0  0  0  0  0  0
   46.2346   52.8056   35.9008 C   0  0  0  0  0  0  0  0  0  0  0  0
   46.5340   53.2163   34.6785 N   0  0  0  0  0  0  0  0  0  0  0  0
   45.5795   53.4246   33.7567 C   0  0  0  0  0  0  0  0  0  0  0  0
   44.2197   53.2194   34.1048 C   0  0  0  0  0  0  0  0  0  0  0  0
   43.9413   52.7987   35.4298 C   0  0  0  0  0  0  0  0  0  0  0  0
   42.6451   52.5824   35.8407 N   0  0  0  0  0  0  0  0  0  0  0  0
   43.4779   53.4914   33.0126 N   0  0  0  0  0  0  0  0  0  0  0  0
   44.2669   53.8328   32.0363 C   0  0  0  0  0  0  0  0  0  0  0  0
   45.5731   53.8142   32.4395 N   0  0  0  0  0  0  0  0  0  0  0  0
  2  1  1  6  0  0  0
  2  3  1  0  0  0  0
  2  5  1  0  0  0  0
  3  4  1  0  0  0  0
  3 17  1  0  0  0  0
  5  6  1  0  0  0  0
  7  6  1  1  0  0  0
  7  8  1  0  0  0  0
  7  9  1  0  0  0  0
 10  9  1  6  0  0  0
 10 11  1  0  0  0  0
 10 12  1  0  0  0  0
 11 16  1  0  0  0  0
 12 13  1  6  0  0  0
 12 14  1  0  0  0  0
 14 15  1  6  0  0  0
 14 16  1  0  0  0  0
 16 27  1  1  0  0  0
 18 19  2  0  0  0  0
 18 23  1  0  0  0  0
 19 20  1  0  0  0  0
 20 21  2  0  0  0  0
 21 22  1  0  0  0  0
 21 27  1  0  0  0  0
 22 23  2  0  0  0  0
 22 25  1  0  0  0  0
 23 24  1  0  0  0  0
 25 26  2  0  0  0  0
 26 27  1  0  0  0  0
M  END
>  <CHROM.1>
-41.04533800,-177.06900709,73.50023056,-80.31765168,64.34263735,132.65007849
172.72611712,46.99039315,53.24397514,29.97549488,1.11695558,0.01932515,-1.54458743

>  <Name>
ligand

>  <RI>
0

>  <Rbt.Current_Directory>
/home/itssahil/PROJECTS/Mol_Feturizer/New_Systems/rnas/2GIS

>  <Rbt.Executable>
rbdock ($Id: //depot/dev/client3/rdock/2013.1/src/exe/rbdock.cxx#4 $)

>  <Rbt.Library>
libRbt.so (2013.1, Build901 2013/11/27)

>  <Rbt.Parameter_File>
/export/apps/rDock/src/rDock_2013.1_src/data/scripts/dock_solv.prm

>  <Rbt.Receptor>
prm/pocket_docking_8.prm

>  <SCORE>
-10.1859

>  <SCORE.INTER>
-8.76039

>  <SCORE.INTER.CONST>
1

>  <SCORE.INTER.POLAR>
0

>  <SCORE.INTER.ROT>
7

>  <SCORE.INTER.SOLV>
7.90026

>  <SCORE.INTER.VDW>
-16.7403

>  <SCORE.INTER.norm>
-0.324459

>  <SCORE.INTRA>
-1.4255

>  <SCORE.INTRA.DIHEDRAL>
-0.400914

>  <SCORE.INTRA.DIHEDRAL.0>
9.40024

>  <SCORE.INTRA.POLAR>
0

>  <SCORE.INTRA.POLAR.0>
0

>  <SCORE.INTRA.REPUL>
0

>  <SCORE.INTRA.REPUL.0>
0

>  <SCORE.INTRA.SOLV>
-2.46169

>  <SCORE.INTRA.SOLV.lig_0>
-47.1049

>  <SCORE.INTRA.VDW>
0.00579946

>  <SCORE.INTRA.VDW.0>
-1.50278

>  <SCORE.INTRA.norm>
-0.0527965

>  <SCORE.RESTR>
0

>  <SCORE.RESTR.CAVITY>
0

>  <SCORE.RESTR.norm>
0

>  <SCORE.SYSTEM>
0

>  <SCORE.SYSTEM.CONST>
0

>  <SCORE.SYSTEM.DIHEDRAL>
0

>  <SCORE.SYSTEM.SOLV>
0

>  <SCORE.SYSTEM.norm>
0

>  <SCORE.heavy>
27

>  <SCORE.norm>
-0.377255

>  <RMSD>
6.128

$$$$
ligand
 OpenBabel11021811433D
libRbt.so/2013.1/901 2013/11/27
 27 29  0  0  0  0  0  0  0  0999 V2000
   45.7818   58.3745   29.2970 N   0  0  0  0  0  0  0  0  0  0  0  0
   47.2144   58.3138   29.6034 C   0  0  2  0  0  0  0  0  0  0  0  0
   48.0141   58.5785   28.3402 C   0  0  0  0  0  0  0  0  0  0  0  0
   49.2034   58.8732   28.4177 O   0  0  0  0  0  0  0  0  0  0  0  0
   47.5924   56.9360   30.1828 C   0  0  0  0  0  0  0  0  0  0  0  0
   46.7939   56.6934   31.4628 C   0  0  0  0  0  0  0  0  0  0  0  0
   47.0071   55.0285   32.2159 S   0  0  2  0  0  0  0  0  0  0  0  0
   46.3385   53.8878   30.9655 C   0  0  0  0  0  0  0  0  0  0  0  0
   45.6151   55.1582   33.3579 C   0  0  0  0  0  0  0  0  0  0  0  0
   45.0493   53.7986   33.8036 C   0  0  1  0  0  0  0  0  0  0  0  0
   45.9421   53.2136   34.7973 O   0  0  0  0  0  0  0  0  0  0  0  0
   43.7979   54.1877   34.5478 C   0  0  1  0  0  0  0  0  0  0  0  0
   42.6672   54.0827   33.6822 O   0  0  0  0  0  0  0  0  0  0  0  0
   43.7032   53.1633   35.6718 C   0  0  1  0  0  0  0  0  0  0  0  0
   42.8352   52.0849   35.3428 O   0  0  0  0  0  0  0  0  0  0  0  0
   45.1664   52.6421   35.9160 C   0  0  2  0  0  0  0  0  0  0  0  0
   47.4604   58.5613   27.2406 O   0  0  0  0  0  0  0  0  0  0  0  0
   49.2988   54.9905   38.1497 N   0  0  0  0  0  0  0  0  0  0  0  0
   49.1402   54.6629   36.8626 C   0  0  0  0  0  0  0  0  0  0  0  0
   48.0292   54.0868   36.4313 N   0  0  0  0  0  0  0  0  0  0  0  0
   47.0289   53.7776   37.2728 C   0  0  0  0  0  0  0  0  0  0  0  0
   47.1562   54.0923   38.6501 C   0  0  0  0  0  0  0  0  0  0  0  0
   48.3537   54.7268   39.0669 C   0  0  0  0  0  0  0  0  0  0  0  0
   48.5469   55.0650   40.3875 N   0  0  0  0  0  0  0  0  0  0  0  0
   46.0299   53.6787   39.2645 N   0  0  0  0  0  0  0  0  0  0  0  0
   45.2400   53.1357   38.3850 C   0  0  0  0  0  0  0  0  0  0  0  0
   45.8023   53.1739   37.1395 N   0  0  0  0  0  0  0  0  0  0  0  0
  2  1  1  6  0  0  0
  2  3  1  0  0  0  0
  2  5  1  0  0  0  0
  3  4  1  0  0  0  0
  3 17  1  0  0  0  0
  5  6  1  0  0  0  0
  7  6  1  6  0  0  0
  7  8  1  0  0  0  0
  7  9  1  0  0  0  0
 10  9  1  1  0  0  0
 10 11  1  0  0  0  0
 10 12  1  0  0  0  0
 11 16  1  0  0  0  0
 12 13  1  6  0  0  0
 12 14  1  0  0  0  0
 14 15  1  6  0  0  0
 14 16  1  0  0  0  0
 16 27  1  1  0  0  0
 18 19  2  0  0  0  0
 18 23  1  0  0  0  0
 19 20  1  0  0  0  0
 20 21  2  0  0  0  0
 21 22  1  0  0  0  0
 21 27  1  0  0  0  0
 22 23  2  0  0  0  0
 22 25  1  0  0  0  0
 23 24  1  0  0  0  0
 25 26  2  0  0  0  0
 26 27  1  0  0  0  0
M  END
>  <CHROM.1>
163.51222592,-59.68420203,174.85478553,-63.77787191,156.33134583,76.51375444
-15.14493122,46.46464196,55.01929358,34.08544412,1.46453355,-0.52638406,-1.19414787

>  <Name>
ligand

>  <RI>
0

>  <Rbt.Current_Directory>
/home/itssahil/PROJECTS/Mol_Feturizer/New_Systems/rnas/2GIS

>  <Rbt.Executable>
rbdock ($Id: //depot/dev/client3/rdock/2013.1/src/exe/rbdock.cxx#4 $)

>  <Rbt.Library>
libRbt.so (2013.1, Build901 2013/11/27)

>  <Rbt.Parameter_File>
/export/apps/rDock/src/rDock_2013.1_src/data/scripts/dock_solv.prm

>  <Rbt.Receptor>
prm/pocket_docking_7.prm

>  <SCORE>
-14.2006

>  <SCORE.INTER>
-10.6265

>  <SCORE.INTER.CONST>
1

>  <SCORE.INTER.POLAR>
0

>  <SCORE.INTER.ROT>
7

>  <SCORE.INTER.SOLV>
14.0028

>  <SCORE.INTER.VDW>
-20.0186

>  <SCORE.INTER.norm>
-0.393574

>  <SCORE.INTRA>
-3.57405

>  <SCORE.INTRA.DIHEDRAL>
-4.27352

>  <SCORE.INTRA.DIHEDRAL.0>
9.40024

>  <SCORE.INTRA.POLAR>
0

>  <SCORE.INTRA.POLAR.0>
0

>  <SCORE.INTRA.REPUL>
0

>  <SCORE.INTRA.REPUL.0>
0

>  <SCORE.INTRA.SOLV>
-2.37208

>  <SCORE.INTRA.SOLV.lig_0>
-47.1049

>  <SCORE.INTRA.VDW>
-0.251245

>  <SCORE.INTRA.VDW.0>
-1.50278

>  <SCORE.INTRA.norm>
-0.132372

>  <SCORE.RESTR>
0

>  <SCORE.RESTR.CAVITY>
0

>  <SCORE.RESTR.norm>
0

>  <SCORE.SYSTEM>
0

>  <SCORE.SYSTEM.CONST>
0

>  <SCORE.SYSTEM.DIHEDRAL>
0

>  <SCORE.SYSTEM.SOLV>
0

>  <SCORE.SYSTEM.norm>
0

>  <SCORE.heavy>
27

>  <SCORE.norm>
-0.525946

>  <RMSD>
6.132

$$$$
ligand
 OpenBabel11021811433D
libRbt.so/2013.1/901 2013/11/27
 27 29  0  0  0  0  0  0  0  0999 V2000
   47.0368   59.3505   32.2441 N   0  0  0  0  0  0  0  0  0  0  0  0
   48.2907   59.2734   33.0003 C   0  0  2  0  0  0  0  0  0  0  0  0
   49.3738   60.0422   32.2646 C   0  0  0  0  0  0  0  0  0  0  0  0
   50.5567   59.8129   32.5006 O   0  0  0  0  0  0  0  0  0  0  0  0
   48.7267   57.8068   33.1893 C   0  0  0  0  0  0  0  0  0  0  0  0
   48.7017   57.0971   31.8364 C   0  0  0  0  0  0  0  0  0  0  0  0
   48.3586   55.2910   31.9049 S   0  0  2  0  0  0  0  0  0  0  0  0
   48.1433   54.8147   30.1617 C   0  0  0  0  0  0  0  0  0  0  0  0
   46.6429   55.4451   32.4447 C   0  0  0  0  0  0  0  0  0  0  0  0
   46.0697   54.1592   33.0653 C   0  0  1  0  0  0  0  0  0  0  0  0
   47.0902   53.5378   33.9015 O   0  0  0  0  0  0  0  0  0  0  0  0
   45.0217   54.6860   34.0117 C   0  0  1  0  0  0  0  0  0  0  0  0
   43.7394   54.6466   33.3848 O   0  0  0  0  0  0  0  0  0  0  0  0
   45.0675   53.7191   35.1884 C   0  0  1  0  0  0  0  0  0  0  0  0
   44.0701   52.7090   35.0917 O   0  0  0  0  0  0  0  0  0  0  0  0
   46.5047   53.0814   35.1777 C   0  0  2  0  0  0  0  0  0  0  0  0
   49.0717   60.9398   31.4778 O   0  0  0  0  0  0  0  0  0  0  0  0
   47.2544   54.3055   40.2296 N   0  0  0  0  0  0  0  0  0  0  0  0
   46.1501   53.8067   39.6631 C   0  0  0  0  0  0  0  0  0  0  0  0
   46.1070   53.5253   38.3704 N   0  0  0  0  0  0  0  0  0  0  0  0
   47.1585   53.7590   37.5678 C   0  0  0  0  0  0  0  0  0  0  0  0
   48.3478   54.3006   38.1195 C   0  0  0  0  0  0  0  0  0  0  0  0
   48.3585   54.5690   39.5117 C   0  0  0  0  0  0  0  0  0  0  0  0
   49.4786   55.0922   40.1179 N   0  0  0  0  0  0  0  0  0  0  0  0
   49.2337   54.4382   37.1128 N   0  0  0  0  0  0  0  0  0  0  0  0
   48.6837   54.0376   36.0041 C   0  0  0  0  0  0  0  0  0  0  0  0
   47.4065   53.6032   36.2258 N   0  0  0  0  0  0  0  0  0  0  0  0
  2  1  1  6  0  0  0
  2  3  1  0  0  0  0
  2  5  1  0  0  0  0
  3  4  1  0  0  0  0
  3 17  1  0  0  0  0
  5  6  1  0  0  0  0
  7  6  1  6  0  0  0
  7  8  1  0  0  0  0
  7  9  1  0  0  0  0
 10  9  1  1  0  0  0
 10 11  1  0  0  0  0
 10 12  1  0  0  0  0
 11 16  1  0  0  0  0
 12 13  1  6  0  0  0
 12 14  1  0  0  0  0
 14 15  1  6  0  0  0
 14 16  1  0  0  0  0
 16 27  1  1  0  0  0
 18 19  2  0  0  0  0
 18 23  1  0  0  0  0
 19 20  1  0  0  0  0
 20 21  2  0  0  0  0
 21 22  1  0  0  0  0
 21 27  1  0  0  0  0
 22 23  2  0  0  0  0
 22 25  1  0  0  0  0
 23 24  1  0  0  0  0
 25 26  2  0  0  0  0
 26 27  1  0  0  0  0
M  END
>  <CHROM.1>
-159.75452266,50.39392087,-150.78333814,171.53905775,-161.46238411,40.07407332
161.95691428,47.46060906,55.50580253,34.69981297,-1.25208225,0.86021845,1.95785885

>  <Name>
ligand

>  <RI>
0

>  <Rbt.Current_Directory>
/home/itssahil/PROJECTS/Mol_Feturizer/New_Systems/rnas/2GIS

>  <Rbt.Executable>
rbdock ($Id: //depot/dev/client3/rdock/2013.1/src/exe/rbdock.cxx#4 $)

>  <Rbt.Library>
libRbt.so (2013.1, Build901 2013/11/27)

>  <Rbt.Parameter_File>
/export/apps/rDock/src/rDock_2013.1_src/data/scripts/dock_solv.prm

>  <Rbt.Receptor>
prm/pocket_docking_6.prm

>  <SCORE>
-14.4337

>  <SCORE.INTER>
-14.288

>  <SCORE.INTER.CONST>
1

>  <SCORE.INTER.POLAR>
0

>  <SCORE.INTER.ROT>
7

>  <SCORE.INTER.SOLV>
14.9669

>  <SCORE.INTER.VDW>
-22.781

>  <SCORE.INTER.norm>
-0.529186

>  <SCORE.INTRA>
-0.636539

>  <SCORE.INTRA.DIHEDRAL>
-0.378169

>  <SCORE.INTRA.DIHEDRAL.0>
9.40024

>  <SCORE.INTRA.POLAR>
0

>  <SCORE.INTRA.POLAR.0>
0

>  <SCORE.INTRA.REPUL>
0

>  <SCORE.INTRA.REPUL.0>
0

>  <SCORE.INTRA.SOLV>
-1.53172

>  <SCORE.INTRA.SOLV.lig_0>
-47.1049

>  <SCORE.INTRA.VDW>
0.318406

>  <SCORE.INTRA.VDW.0>
-1.50278

>  <SCORE.INTRA.norm>
-0.0235755

>  <SCORE.RESTR>
0.490805

>  <SCORE.RESTR.CAVITY>
0.490805

>  <SCORE.RESTR.norm>
0.018178

>  <SCORE.SYSTEM>
0

>  <SCORE.SYSTEM.CONST>
0

>  <SCORE.SYSTEM.DIHEDRAL>
0

>  <SCORE.SYSTEM.SOLV>
0

>  <SCORE.SYSTEM.norm>
0

>  <SCORE.heavy>
27

>  <SCORE.norm>
-0.534583

>  <RMSD>
6.148

$$$$
ligand
 OpenBabel11021811433D
libRbt.so/2013.1/901 2013/11/27
 27 29  0  0  0  0  0  0  0  0999 V2000
   49.8424   55.1148   35.3858 N   0  0  0  0  0  0  0  0  0  0  0  0
   48.9848   56.0136   34.6069 C   0  0  2  0  0  0  0  0  0  0  0  0
   48.3819   55.2528   33.4394 C   0  0  0  0  0  0  0  0  0  0  0  0
   47.1628   55.2058   33.3020 O   0  0  0  0  0  0  0  0  0  0  0  0
   49.7885   57.2215   34.0853 C   0  0  0  0  0  0  0  0  0  0  0  0
   48.8204   58.2749   33.5489 C   0  0  0  0  0  0  0  0  0  0  0  0
   48.0925   57.9037   31.9007 S   0  0  2  0  0  0  0  0  0  0  0  0
   49.1899   58.7604   30.7286 C   0  0  0  0  0  0  0  0  0  0  0  0
   46.7263   59.0766   32.0292 C   0  0  0  0  0  0  0  0  0  0  0  0
   45.6867   58.9443   30.9027 C   0  0  1  0  0  0  0  0  0  0  0  0
   46.3495   59.1355   29.6178 O   0  0  0  0  0  0  0  0  0  0  0  0
   45.3140   57.4853   30.9645 C   0  0  1  0  0  0  0  0  0  0  0  0
   44.1213   57.3223   31.7323 O   0  0  0  0  0  0  0  0  0  0  0  0
   45.0653   57.1059   29.5100 C   0  0  1  0  0  0  0  0  0  0  0  0
   43.6842   57.1553   29.1715 O   0  0  0  0  0  0  0  0  0  0  0  0
   45.8853   58.1291   28.6424 C   0  0  2  0  0  0  0  0  0  0  0  0
   49.1075   54.6290   32.6647 O   0  0  0  0  0  0  0  0  0  0  0  0
   49.8871   54.7473   29.0037 N   0  0  0  0  0  0  0  0  0  0  0  0
   48.8931   54.9360   29.8785 C   0  0  0  0  0  0  0  0  0  0  0  0
   47.9322   55.8168   29.6485 N   0  0  0  0  0  0  0  0  0  0  0  0
   47.9326   56.5805   28.5434 C   0  0  0  0  0  0  0  0  0  0  0  0
   48.9738   56.4271   27.5923 C   0  0  0  0  0  0  0  0  0  0  0  0
   49.9723   55.4589   27.8678 C   0  0  0  0  0  0  0  0  0  0  0  0
   51.0120   55.2522   26.9891 N   0  0  0  0  0  0  0  0  0  0  0  0
   48.7413   57.3030   26.5944 N   0  0  0  0  0  0  0  0  0  0  0  0
   47.6605   57.9759   26.8618 C   0  0  0  0  0  0  0  0  0  0  0  0
   47.1172   57.5688   28.0484 N   0  0  0  0  0  0  0  0  0  0  0  0
  2  1  1  6  0  0  0
  2  3  1  0  0  0  0
  2  5  1  0  0  0  0
  3  4  1  0  0  0  0
  3 17  1  0  0  0  0
  5  6  1  0  0  0  0
  7  6  1  1  0  0  0
  7  8  1  0  0  0  0
  7  9  1  0  0  0  0
 10  9  1  1  0  0  0
 10 11  1  0  0  0  0
 10 12  1  0  0  0  0
 11 16  1  0  0  0  0
 12 13  1  1  0  0  0
 12 14  1  0  0  0  0
 14 15  1  6  0  0  0
 14 16  1  0  0  0  0
 16 27  1  1  0  0  0
 18 19  2  0  0  0  0
 18 23  1  0  0  0  0
 19 20  1  0  0  0  0
 20 21  2  0  0  0  0
 21 22  1  0  0  0  0
 21 27  1  0  0  0  0
 22 23  2  0  0  0  0
 22 25  1  0  0  0  0
 23 24  1  0  0  0  0
 25 26  2  0  0  0  0
 26 27  1  0  0  0  0
M  END
>  <CHROM.1>
123.44437723,-167.79918006,-76.37460241,-94.24035120,-170.87781714,-58.39062585
82.58786276,47.75841078,56.90856540,30.61726968,-1.35074812,0.51197323,-1.54041413

>  <Name>
ligand

>  <RI>
0

>  <Rbt.Current_Directory>
/home/itssahil/PROJECTS/Mol_Feturizer/New_Systems/rnas/2GIS

>  <Rbt.Executable>
rbdock ($Id: //depot/dev/client3/rdock/2013.1/src/exe/rbdock.cxx#4 $)

>  <Rbt.Library>
libRbt.so (2013.1, Build901 2013/11/27)

>  <Rbt.Parameter_File>
/export/apps/rDock/src/rDock_2013.1_src/data/scripts/dock_solv.prm

>  <Rbt.Receptor>
prm/pocket_docking_6.prm

>  <SCORE>
-13.885

>  <SCORE.INTER>
-7.82081

>  <SCORE.INTER.CONST>
1

>  <SCORE.INTER.POLAR>
0

>  <SCORE.INTER.ROT>
7

>  <SCORE.INTER.SOLV>
14.4659

>  <SCORE.INTER.VDW>
-18.3025

>  <SCORE.INTER.norm>
-0.28966

>  <SCORE.INTRA>
-6.06421

>  <SCORE.INTRA.DIHEDRAL>
-2.1813

>  <SCORE.INTRA.DIHEDRAL.0>
9.40024

>  <SCORE.INTRA.POLAR>
0

>  <SCORE.INTRA.POLAR.0>
0

>  <SCORE.INTRA.REPUL>
0

>  <SCORE.INTRA.REPUL.0>
0

>  <SCORE.INTRA.SOLV>
-2.60129

>  <SCORE.INTRA.SOLV.lig_0>
-47.1049

>  <SCORE.INTRA.VDW>
-3.67291

>  <SCORE.INTRA.VDW.0>
-1.50278

>  <SCORE.INTRA.norm>
-0.2246

>  <SCORE.RESTR>
0

>  <SCORE.RESTR.CAVITY>
0

>  <SCORE.RESTR.norm>
0

>  <SCORE.SYSTEM>
0

>  <SCORE.SYSTEM.CONST>
0

>  <SCORE.SYSTEM.DIHEDRAL>
0

>  <SCORE.SYSTEM.SOLV>
0

>  <SCORE.SYSTEM.norm>
0

>  <SCORE.heavy>
27

>  <SCORE.norm>
-0.51426

>  <RMSD>
6.156

$$$$
ligand
 OpenBabel11021811433D
libRbt.so/2013.1/901 2013/11/27
 27 29  0  0  0  0  0  0  0  0999 V2000
   49.1276   55.3378   28.3767 N   0  0  0  0  0  0  0  0  0  0  0  0
   49.8037   55.9287   29.5358 C   0  0  2  0  0  0  0  0  0  0  0  0
   50.2546   54.8251   30.4760 C   0  0  0  0  0  0  0  0  0  0  0  0
   51.0781   53.9963   30.0986 O   0  0  0  0  0  0  0  0  0  0  0  0
   48.8658   56.8996   30.2804 C   0  0  0  0  0  0  0  0  0  0  0  0
   49.6806   57.7148   31.2836 C   0  0  0  0  0  0  0  0  0  0  0  0
   48.6916   58.6436   32.5260 S   0  0  2  0  0  0  0  0  0  0  0  0
   49.9381   59.5365   33.5064 C   0  0  0  0  0  0  0  0  0  0  0  0
   48.3499   57.2276   33.5923 C   0  0  0  0  0  0  0  0  0  0  0  0
   47.2134   56.3255   33.0807 C   0  0  1  0  0  0  0  0  0  0  0  0
   47.3071   55.0247   33.7334 O   0  0  0  0  0  0  0  0  0  0  0  0
   45.9837   56.9869   33.6478 C   0  0  1  0  0  0  0  0  0  0  0  0
   45.3975   57.8422   32.6662 O   0  0  0  0  0  0  0  0  0  0  0  0
   45.0513   55.8238   33.9635 C   0  0  1  0  0  0  0  0  0  0  0  0
   44.1067   55.5963   32.9241 O   0  0  0  0  0  0  0  0  0  0  0  0
   45.9713   54.5642   34.1616 C   0  0  2  0  0  0  0  0  0  0  0  0
   49.7511   54.7189   31.5945 O   0  0  0  0  0  0  0  0  0  0  0  0
   48.9509   54.5155   38.4861 N   0  0  0  0  0  0  0  0  0  0  0  0
   49.2361   55.0673   37.3014 C   0  0  0  0  0  0  0  0  0  0  0  0
   48.3767   55.0199   36.2957 N   0  0  0  0  0  0  0  0  0  0  0  0
   47.1971   54.3882   36.4123 C   0  0  0  0  0  0  0  0  0  0  0  0
   46.8552   53.7751   37.6450 C   0  0  0  0  0  0  0  0  0  0  0  0
   47.7953   53.8662   38.7024 C   0  0  0  0  0  0  0  0  0  0  0  0
   47.5312   53.2980   39.9284 N   0  0  0  0  0  0  0  0  0  0  0  0
   45.6376   53.2166   37.4941 N   0  0  0  0  0  0  0  0  0  0  0  0
   45.2191   53.4293   36.2809 C   0  0  0  0  0  0  0  0  0  0  0  0
   46.1376   54.1513   35.5709 N   0  0  0  0  0  0  0  0  0  0  0  0
  2  1  1  6  0  0  0
  2  3  1  0  0  0  0
  2  5  1  0  0  0  0
  3  4  1  0  0  0  0
  3 17  1  0  0  0  0
  5  6  1  0  0  0  0
  7  6  1  6  0  0  0
  7  8  1  0  0  0  0
  7  9  1  0  0  0  0
 10  9  1  1  0  0  0
 10 11  1  0  0  0  0
 10 12  1  0  0  0  0
 11 16  1  0  0  0  0
 12 13  1  6  0  0  0
 12 14  1  0  0  0  0
 14 15  1  6  0  0  0
 14 16  1  0  0  0  0
 16 27  1  1  0  0  0
 18 19  2  0  0  0  0
 18 23  1  0  0  0  0
 19 20  1  0  0  0  0
 20 21  2  0  0  0  0
 21 22  1  0  0  0  0
 21 27  1  0  0  0  0
 22 23  2  0  0  0  0
 22 25  1  0  0  0  0
 23 24  1  0  0  0  0
 25 26  2  0  0  0  0
 26 27  1  0  0  0  0
M  END
>  <CHROM.1>
62.87634054,-167.87385967,-166.59866009,-178.00151799,-79.50525203,161.48181068
12.53318688,47.81479171,55.66036399,33.88913273,-1.25577029,-0.24580460,2.00403516

>  <Name>
ligand

>  <RI>
0

>  <Rbt.Current_Directory>
/home/itssahil/PROJECTS/Mol_Feturizer/New_Systems/rnas/2GIS

>  <Rbt.Executable>
rbdock ($Id: //depot/dev/client3/rdock/2013.1/src/exe/rbdock.cxx#4 $)

>  <Rbt.Library>
libRbt.so (2013.1, Build901 2013/11/27)

>  <Rbt.Parameter_File>
/export/apps/rDock/src/rDock_2013.1_src/data/scripts/dock_solv.prm

>  <Rbt.Receptor>
prm/pocket_docking_6.prm

>  <SCORE>
-22.6999

>  <SCORE.INTER>
-18.7635

>  <SCORE.INTER.CONST>
1

>  <SCORE.INTER.POLAR>
0

>  <SCORE.INTER.ROT>
7

>  <SCORE.INTER.SOLV>
8.55948

>  <SCORE.INTER.VDW>
-23.6288

>  <SCORE.INTER.norm>
-0.694944

>  <SCORE.INTRA>
-3.93637

>  <SCORE.INTRA.DIHEDRAL>
-3.21251

>  <SCORE.INTRA.DIHEDRAL.0>
9.40024

>  <SCORE.INTRA.POLAR>
0

>  <SCORE.INTRA.POLAR.0>
0

>  <SCORE.INTRA.REPUL>
0

>  <SCORE.INTRA.REPUL.0>
0

>  <SCORE.INTRA.SOLV>
-2.80466

>  <SCORE.INTRA.SOLV.lig_0>
-47.1049

>  <SCORE.INTRA.VDW>
-0.927785

>  <SCORE.INTRA.VDW.0>
-1.50278

>  <SCORE.INTRA.norm>
-0.145791

>  <SCORE.RESTR>
0

>  <SCORE.RESTR.CAVITY>
0

>  <SCORE.RESTR.norm>
0

>  <SCORE.SYSTEM>
0

>  <SCORE.SYSTEM.CONST>
0

>  <SCORE.SYSTEM.DIHEDRAL>
0

>  <SCORE.SYSTEM.SOLV>
0

>  <SCORE.SYSTEM.norm>
0

>  <SCORE.heavy>
27

>  <SCORE.norm>
-0.840735

>  <RMSD>
6.168

$$$$
ligand
 OpenBabel11021811433D
libRbt.so/2013.1/901 2013/11/27
 27 29  0  0  0  0  0  0  0  0999 V2000
   47.1833   54.5172   35.7069 N   0  0  0  0  0  0  0  0  0  0  0  0
   47.8250   54.8384   34.4283 C   0  0  2  0  0  0  0  0  0  0  0  0
   47.5245   53.7424   33.4214 C   0  0  0  0  0  0  0  0  0  0  0  0
   48.2191   52.7305   33.3908 O   0  0  0  0  0  0  0  0  0  0  0  0
   49.3498   54.9851   34.6026 C   0  0  0  0  0  0  0  0  0  0  0  0
   49.7007   56.4669   34.7278 C   0  0  0  0  0  0  0  0  0  0  0  0
   49.6805   57.4133   33.1504 S   0  0  2  0  0  0  0  0  0  0  0  0
   50.3898   59.0294   33.5943 C   0  0  0  0  0  0  0  0  0  0  0  0
   47.9137   57.7830   33.1745 C   0  0  0  0  0  0  0  0  0  0  0  0
   47.5276   59.0223   32.3485 C   0  0  1  0  0  0  0  0  0  0  0  0
   48.4321   59.1370   31.2103 O   0  0  0  0  0  0  0  0  0  0  0  0
   46.1878   58.6359   31.7768 C   0  0  1  0  0  0  0  0  0  0  0  0
   45.1423   59.1712   32.5885 O   0  0  0  0  0  0  0  0  0  0  0  0
   46.1742   59.2839   30.3978 C   0  0  1  0  0  0  0  0  0  0  0  0
   45.4975   60.5355   30.4000 O   0  0  0  0  0  0  0  0  0  0  0  0
   47.6797   59.4687   29.9841 C   0  0  2  0  0  0  0  0  0  0  0  0
   46.6265   53.8911   32.5923 O   0  0  0  0  0  0  0  0  0  0  0  0
   50.3959   55.1138   28.8711 N   0  0  0  0  0  0  0  0  0  0  0  0
   50.2209   55.6863   30.0672 C   0  0  0  0  0  0  0  0  0  0  0  0
   49.4898   56.7812   30.2055 N   0  0  0  0  0  0  0  0  0  0  0  0
   48.9207   57.3810   29.1469 C   0  0  0  0  0  0  0  0  0  0  0  0
   49.0895   56.8194   27.8553 C   0  0  0  0  0  0  0  0  0  0  0  0
   49.8632   55.6356   27.7541 C   0  0  0  0  0  0  0  0  0  0  0  0
   50.0677   55.0320   26.5336 N   0  0  0  0  0  0  0  0  0  0  0  0
   48.4288   57.6069   26.9832 N   0  0  0  0  0  0  0  0  0  0  0  0
   47.8853   58.5960   27.6300 C   0  0  0  0  0  0  0  0  0  0  0  0
   48.1513   58.5048   28.9679 N   0  0  0  0  0  0  0  0  0  0  0  0
  2  1  1  1  0  0  0
  2  3  1  0  0  0  0
  2  5  1  0  0  0  0
  3  4  1  0  0  0  0
  3 17  1  0  0  0  0
  5  6  1  0  0  0  0
  7  6  1  1  0  0  0
  7  8  1  0  0  0  0
  7  9  1  0  0  0  0
 10  9  1  1  0  0  0
 10 11  1  0  0  0  0
 10 12  1  0  0  0  0
 11 16  1  0  0  0  0
 12 13  1  1  0  0  0
 12 14  1  0  0  0  0
 14 15  1  1  0  0  0
 14 16  1  0  0  0  0
 16 27  1  6  0  0  0
 18 19  2  0  0  0  0
 18 23  1  0  0  0  0
 19 20  1  0  0  0  0
 20 21  2  0  0  0  0
 21 22  1  0  0  0  0
 21 27  1  0  0  0  0
 22 23  2  0  0  0  0
 22 25  1  0  0  0  0
 23 24  1  0  0  0  0
 25 26  2  0  0  0  0
 26 27  1  0  0  0  0
M  END
>  <CHROM.1>
-84.52657233,-98.12458014,-76.54012592,-171.14497129,156.61552028,32.03161535
11.26104193,48.30813756,56.98934915,31.33685673,-1.64866522,1.07816348,-1.09526566

>  <Name>
ligand

>  <RI>
0

>  <Rbt.Current_Directory>
/home/itssahil/PROJECTS/Mol_Feturizer/New_Systems/rnas/2GIS

>  <Rbt.Executable>
rbdock ($Id: //depot/dev/client3/rdock/2013.1/src/exe/rbdock.cxx#4 $)

>  <Rbt.Library>
libRbt.so (2013.1, Build901 2013/11/27)

>  <Rbt.Parameter_File>
/export/apps/rDock/src/rDock_2013.1_src/data/scripts/dock_solv.prm

>  <Rbt.Receptor>
prm/pocket_docking_2.prm

>  <SCORE>
-13.3276

>  <SCORE.INTER>
-13.0858

>  <SCORE.INTER.CONST>
1

>  <SCORE.INTER.POLAR>
0

>  <SCORE.INTER.ROT>
7

>  <SCORE.INTER.SOLV>
11.6232

>  <SCORE.INTER.VDW>
-20.8649

>  <SCORE.INTER.norm>
-0.484658

>  <SCORE.INTRA>
-0.966202

>  <SCORE.INTRA.DIHEDRAL>
2.8055

>  <SCORE.INTRA.DIHEDRAL.0>
9.40024

>  <SCORE.INTRA.POLAR>
0

>  <SCORE.INTRA.POLAR.0>
0

>  <SCORE.INTRA.REPUL>
0

>  <SCORE.INTRA.REPUL.0>
0

>  <SCORE.INTRA.SOLV>
-2.10638

>  <SCORE.INTRA.SOLV.lig_0>
-47.1049

>  <SCORE.INTRA.VDW>
-1.31576

>  <SCORE.INTRA.VDW.0>
-1.50278

>  <SCORE.INTRA.norm>
-0.0357853

>  <SCORE.RESTR>
0.724358

>  <SCORE.RESTR.CAVITY>
0.724358

>  <SCORE.RESTR.norm>
0.0268281

>  <SCORE.SYSTEM>
0

>  <SCORE.SYSTEM.CONST>
0

>  <SCORE.SYSTEM.DIHEDRAL>
0

>  <SCORE.SYSTEM.SOLV>
0

>  <SCORE.SYSTEM.norm>
0

>  <SCORE.heavy>
27

>  <SCORE.norm>
-0.493615

>  <RMSD>
6.191

$$$$
ligand
 OpenBabel11021811433D
libRbt.so/2013.1/901 2013/11/27
 27 29  0  0  0  0  0  0  0  0999 V2000
   44.9147   54.1267   34.4060 N   0  0  0  0  0  0  0  0  0  0  0  0
   46.1797   53.5829   33.9021 C   0  0  2  0  0  0  0  0  0  0  0  0
   47.1001   53.2763   35.0700 C   0  0  0  0  0  0  0  0  0  0  0  0
   46.9545   53.8661   36.1370 O   0  0  0  0  0  0  0  0  0  0  0  0
   46.8625   54.5812   32.9459 C   0  0  0  0  0  0  0  0  0  0  0  0
   48.0661   53.9057   32.2905 C   0  0  0  0  0  0  0  0  0  0  0  0
   49.0085   54.9567   31.1108 S   0  0  2  0  0  0  0  0  0  0  0  0
   50.3922   53.8989   30.5831 C   0  0  0  0  0  0  0  0  0  0  0  0
   49.8045   55.9818   32.3654 C   0  0  0  0  0  0  0  0  0  0  0  0
   49.6563   57.4931   32.1176 C   0  0  1  0  0  0  0  0  0  0  0  0
   50.0878   57.7976   30.7583 O   0  0  0  0  0  0  0  0  0  0  0  0
   48.1618   57.6869   32.1321 C   0  0  1  0  0  0  0  0  0  0  0  0
   47.7421   58.1203   33.4262 O   0  0  0  0  0  0  0  0  0  0  0  0
   47.9217   58.7829   31.1012 C   0  0  1  0  0  0  0  0  0  0  0  0
   47.8120   60.0685   31.7009 O   0  0  0  0  0  0  0  0  0  0  0  0
   49.1451   58.7342   30.1148 C   0  0  2  0  0  0  0  0  0  0  0  0
   48.0330   52.4845   34.9333 O   0  0  0  0  0  0  0  0  0  0  0  0
   50.3911   55.2428   26.3946 N   0  0  0  0  0  0  0  0  0  0  0  0
   51.0246   55.4685   27.5509 C   0  0  0  0  0  0  0  0  0  0  0  0
   50.5854   56.3742   28.4105 N   0  0  0  0  0  0  0  0  0  0  0  0
   49.5052   57.1267   28.1436 C   0  0  0  0  0  0  0  0  0  0  0  0
   48.8076   56.9342   26.9235 C   0  0  0  0  0  0  0  0  0  0  0  0
   49.2996   55.9405   26.0399 C   0  0  0  0  0  0  0  0  0  0  0  0
   48.6726   55.6954   24.8389 N   0  0  0  0  0  0  0  0  0  0  0  0
   47.7801   57.8065   26.9040 N   0  0  0  0  0  0  0  0  0  0  0  0
   47.8004   58.5127   27.9963 C   0  0  0  0  0  0  0  0  0  0  0  0
   48.8393   58.1330   28.7998 N   0  0  0  0  0  0  0  0  0  0  0  0
  2  1  1  1  0  0  0
  2  3  1  0  0  0  0
  2  5  1  0  0  0  0
  3  4  1  0  0  0  0
  3 17  1  0  0  0  0
  5  6  1  0  0  0  0
  7  6  1  1  0  0  0
  7  8  1  0  0  0  0
  7  9  1  0  0  0  0
 10  9  1  6  0  0  0
 10 11  1  0  0  0  0
 10 12  1  0  0  0  0
 11 16  1  0  0  0  0
 12 13  1  1  0  0  0
 12 14  1  0  0  0  0
 14 15  1  1  0  0  0
 14 16  1  0  0  0  0
 16 27  1  6  0  0  0
 18 19  2  0  0  0  0
 18 23  1  0  0  0  0
 19 20  1  0  0  0  0
 20 21  2  0  0  0  0
 21 22  1  0  0  0  0
 21 27  1  0  0  0  0
 22 23  2  0  0  0  0
 22 25  1  0  0  0  0
 23 24  1  0  0  0  0
 25 26  2  0  0  0  0
 26 27  1  0  0  0  0
M  END
>  <CHROM.1>
-24.05506633,-171.99891257,-179.95494074,177.39599303,-129.01334484,-52.15341880
-15.06370470,48.54718192,56.09993287,30.77190363,-2.58299667,1.24544006,-0.22030238

>  <Name>
ligand

>  <RI>
0

>  <Rbt.Current_Directory>
/home/itssahil/PROJECTS/Mol_Feturizer/New_Systems/rnas/2GIS

>  <Rbt.Executable>
rbdock ($Id: //depot/dev/client3/rdock/2013.1/src/exe/rbdock.cxx#4 $)

>  <Rbt.Library>
libRbt.so (2013.1, Build901 2013/11/27)

>  <Rbt.Parameter_File>
/export/apps/rDock/src/rDock_2013.1_src/data/scripts/dock_solv.prm

>  <Rbt.Receptor>
prm/pocket_docking_7.prm

>  <SCORE>
-15.0301

>  <SCORE.INTER>
-11.1128

>  <SCORE.INTER.CONST>
1

>  <SCORE.INTER.POLAR>
0

>  <SCORE.INTER.ROT>
7

>  <SCORE.INTER.SOLV>
11.1605

>  <SCORE.INTER.VDW>
-19.3954

>  <SCORE.INTER.norm>
-0.411585

>  <SCORE.INTRA>
-3.91728

>  <SCORE.INTRA.DIHEDRAL>
-1.31233

>  <SCORE.INTRA.DIHEDRAL.0>
9.40024

>  <SCORE.INTRA.POLAR>
0

>  <SCORE.INTRA.POLAR.0>
0

>  <SCORE.INTRA.REPUL>
0

>  <SCORE.INTRA.REPUL.0>
0

>  <SCORE.INTRA.SOLV>
-2.64473

>  <SCORE.INTRA.SOLV.lig_0>
-47.1049

>  <SCORE.INTRA.VDW>
-1.93875

>  <SCORE.INTRA.VDW.0>
-1.50278

>  <SCORE.INTRA.norm>
-0.145084

>  <SCORE.RESTR>
0

>  <SCORE.RESTR.CAVITY>
0

>  <SCORE.RESTR.norm>
0

>  <SCORE.SYSTEM>
0

>  <SCORE.SYSTEM.CONST>
0

>  <SCORE.SYSTEM.DIHEDRAL>
0

>  <SCORE.SYSTEM.SOLV>
0

>  <SCORE.SYSTEM.norm>
0

>  <SCORE.heavy>
27

>  <SCORE.norm>
-0.55667

>  <RMSD>
6.212

$$$$
ligand
 OpenBabel11021811433D
libRbt.so/2013.1/901 2013/11/27
 27 29  0  0  0  0  0  0  0  0999 V2000
   49.3310   53.6487   33.4054 N   0  0  0  0  0  0  0  0  0  0  0  0
   48.4790   54.8048   33.1098 C   0  0  2  0  0  0  0  0  0  0  0  0
   47.5532   54.4693   31.9541 C   0  0  0  0  0  0  0  0  0  0  0  0
   46.3563   54.7317   32.0310 O   0  0  0  0  0  0  0  0  0  0  0  0
   49.3335   56.0380   32.7547 C   0  0  0  0  0  0  0  0  0  0  0  0
   48.4263   57.2624   32.6437 C   0  0  0  0  0  0  0  0  0  0  0  0
   49.2380   58.7840   32.0032 S   0  0  2  0  0  0  0  0  0  0  0  0
   50.1342   59.4470   33.4416 C   0  0  0  0  0  0  0  0  0  0  0  0
   47.7514   59.8080   32.0090 C   0  0  0  0  0  0  0  0  0  0  0  0
   46.8418   59.5886   30.7877 C   0  0  1  0  0  0  0  0  0  0  0  0
   47.6711   59.4214   29.5998 O   0  0  0  0  0  0  0  0  0  0  0  0
   46.2351   58.2370   31.0641 C   0  0  1  0  0  0  0  0  0  0  0  0
   44.9508   58.3968   31.6671 O   0  0  0  0  0  0  0  0  0  0  0  0
   46.0991   57.6044   29.6846 C   0  0  1  0  0  0  0  0  0  0  0  0
   44.7925   57.7686   29.1457 O   0  0  0  0  0  0  0  0  0  0  0  0
   47.1677   58.3082   28.7709 C   0  0  2  0  0  0  0  0  0  0  0  0
   47.9855   53.8774   30.9648 O   0  0  0  0  0  0  0  0  0  0  0  0
   49.9303   55.5383   25.2670 N   0  0  0  0  0  0  0  0  0  0  0  0
   48.7816   56.1944   25.0698 C   0  0  0  0  0  0  0  0  0  0  0  0
   48.2002   56.8726   26.0467 N   0  0  0  0  0  0  0  0  0  0  0  0
   48.7219   56.9035   27.2841 C   0  0  0  0  0  0  0  0  0  0  0  0
   49.9320   56.2112   27.5463 C   0  0  0  0  0  0  0  0  0  0  0  0
   50.5321   55.5138   26.4675 C   0  0  0  0  0  0  0  0  0  0  0  0
   51.7089   54.8218   26.6460 N   0  0  0  0  0  0  0  0  0  0  0  0
   50.2305   56.3986   28.8474 N   0  0  0  0  0  0  0  0  0  0  0  0
   49.3065   57.1327   29.3947 C   0  0  0  0  0  0  0  0  0  0  0  0
   48.3541   57.4775   28.4765 N   0  0  0  0  0  0  0  0  0  0  0  0
  2  1  1  6  0  0  0
  2  3  1  0  0  0  0
  2  5  1  0  0  0  0
  3  4  1  0  0  0  0
  3 17  1  0  0  0  0
  5  6  1  0  0  0  0
  7  6  1  1  0  0  0
  7  8  1  0  0  0  0
  7  9  1  0  0  0  0
 10  9  1  1  0  0  0
 10 11  1  0  0  0  0
 10 12  1  0  0  0  0
 11 16  1  0  0  0  0
 12 13  1  6  0  0  0
 12 14  1  0  0  0  0
 14 15  1  6  0  0  0
 14 16  1  0  0  0  0
 16 27  1  1  0  0  0
 18 19  2  0  0  0  0
 18 23  1  0  0  0  0
 19 20  1  0  0  0  0
 20 21  2  0  0  0  0
 21 22  1  0  0  0  0
 21 27  1  0  0  0  0
 22 23  2  0  0  0  0
 22 25  1  0  0  0  0
 23 24  1  0  0  0  0
 25 26  2  0  0  0  0
 26 27  1  0  0  0  0
M  END
>  <CHROM.1>
132.87695765,-172.23833621,-172.07413197,-79.39089050,-80.85840548,-39.44299783
-136.53792716,48.28770195,56.97031277,30.03310434,-2.10813073,0.97692056
-1.35909973

>  <Name>
ligand

>  <RI>
0

>  <Rbt.Current_Directory>
/home/itssahil/PROJECTS/Mol_Feturizer/New_Systems/rnas/2GIS

>  <Rbt.Executable>
rbdock ($Id: //depot/dev/client3/rdock/2013.1/src/exe/rbdock.cxx#4 $)

>  <Rbt.Library>
libRbt.so (2013.1, Build901 2013/11/27)

>  <Rbt.Parameter_File>
/export/apps/rDock/src/rDock_2013.1_src/data/scripts/dock_solv.prm

>  <Rbt.Receptor>
prm/pocket_docking_4.prm

>  <SCORE>
-14.9596

>  <SCORE.INTER>
-10.3517

>  <SCORE.INTER.CONST>
1

>  <SCORE.INTER.POLAR>
0

>  <SCORE.INTER.ROT>
7

>  <SCORE.INTER.SOLV>
12.8498

>  <SCORE.INTER.VDW>
-19.451

>  <SCORE.INTER.norm>
-0.383395

>  <SCORE.INTRA>
-4.61397

>  <SCORE.INTRA.DIHEDRAL>
-3.41112

>  <SCORE.INTRA.DIHEDRAL.0>
9.40024

>  <SCORE.INTRA.POLAR>
0

>  <SCORE.INTRA.POLAR.0>
0

>  <SCORE.INTRA.REPUL>
0

>  <SCORE.INTRA.REPUL.0>
0

>  <SCORE.INTRA.SOLV>
-2.6886

>  <SCORE.INTRA.SOLV.lig_0>
-47.1049

>  <SCORE.INTRA.VDW>
-1.56411

>  <SCORE.INTRA.VDW.0>
-1.50278

>  <SCORE.INTRA.norm>
-0.170888

>  <SCORE.RESTR>
0.00600784

>  <SCORE.RESTR.CAVITY>
0.00600784

>  <SCORE.RESTR.norm>
0.000222513

>  <SCORE.SYSTEM>
0

>  <SCORE.SYSTEM.CONST>
0

>  <SCORE.SYSTEM.DIHEDRAL>
0

>  <SCORE.SYSTEM.SOLV>
0

>  <SCORE.SYSTEM.norm>
0

>  <SCORE.heavy>
27

>  <SCORE.norm>
-0.55406

>  <RMSD>
6.226

$$$$
ligand
 OpenBabel11021811433D
libRbt.so/2013.1/901 2013/11/27
 27 29  0  0  0  0  0  0  0  0999 V2000
   49.3185   58.1839   31.1662 N   0  0  0  0  0  0  0  0  0  0  0  0
   49.1044   59.4709   31.8352 C   0  0  2  0  0  0  0  0  0  0  0  0
   49.2924   59.3010   33.3322 C   0  0  0  0  0  0  0  0  0  0  0  0
   49.8076   60.1995   33.9916 O   0  0  0  0  0  0  0  0  0  0  0  0
   47.6902   60.0110   31.5434 C   0  0  0  0  0  0  0  0  0  0  0  0
   46.6568   59.0807   32.1770 C   0  0  0  0  0  0  0  0  0  0  0  0
   46.6104   57.3756   31.4881 S   0  0  2  0  0  0  0  0  0  0  0  0
   45.7064   57.5562   29.9190 C   0  0  0  0  0  0  0  0  0  0  0  0
   45.3078   56.7663   32.5794 C   0  0  0  0  0  0  0  0  0  0  0  0
   45.0136   55.2650   32.4167 C   0  0  1  0  0  0  0  0  0  0  0  0
   46.0637   54.4992   33.0783 O   0  0  0  0  0  0  0  0  0  0  0  0
   43.7736   55.0772   33.2525 C   0  0  1  0  0  0  0  0  0  0  0  0
   42.6153   55.1304   32.4193 O   0  0  0  0  0  0  0  0  0  0  0  0
   43.9367   53.6838   33.8471 C   0  0  1  0  0  0  0  0  0  0  0  0
   43.2403   52.6957   33.0966 O   0  0  0  0  0  0  0  0  0  0  0  0
   45.4807   53.3873   33.8552 C   0  0  2  0  0  0  0  0  0  0  0  0
   48.9885   58.2406   33.8791 O   0  0  0  0  0  0  0  0  0  0  0  0
   49.4102   55.1876   36.8385 N   0  0  0  0  0  0  0  0  0  0  0  0
   49.2294   55.3690   35.5257 C   0  0  0  0  0  0  0  0  0  0  0  0
   48.1747   54.8696   34.9010 N   0  0  0  0  0  0  0  0  0  0  0  0
   47.2595   54.1328   35.5520 C   0  0  0  0  0  0  0  0  0  0  0  0
   47.4150   53.9006   36.9428 C   0  0  0  0  0  0  0  0  0  0  0  0
   48.5480   54.4699   37.5771 C   0  0  0  0  0  0  0  0  0  0  0  0
   48.7632   54.2896   38.9251 N   0  0  0  0  0  0  0  0  0  0  0  0
   46.3762   53.1408   37.3438 N   0  0  0  0  0  0  0  0  0  0  0  0
   45.6144   52.8868   36.3204 C   0  0  0  0  0  0  0  0  0  0  0  0
   46.1077   53.4776   35.1905 N   0  0  0  0  0  0  0  0  0  0  0  0
  2  1  1  6  0  0  0
  2  3  1  0  0  0  0
  2  5  1  0  0  0  0
  3  4  1  0  0  0  0
  3 17  1  0  0  0  0
  5  6  1  0  0  0  0
  7  6  1  1  0  0  0
  7  8  1  0  0  0  0
  7  9  1  0  0  0  0
 10  9  1  1  0  0  0
 10 11  1  0  0  0  0
 10 12  1  0  0  0  0
 11 16  1  0  0  0  0
 12 13  1  6  0  0  0
 12 14  1  0  0  0  0
 14 15  1  6  0  0  0
 14 16  1  0  0  0  0
 16 27  1  1  0  0  0
 18 19  2  0  0  0  0
 18 23  1  0  0  0  0
 19 20  1  0  0  0  0
 20 21  2  0  0  0  0
 21 22  1  0  0  0  0
 21 27  1  0  0  0  0
 22 23  2  0  0  0  0
 22 25  1  0  0  0  0
 23 24  1  0  0  0  0
 25 26  2  0  0  0  0
 26 27  1  0  0  0  0
M  END
>  <CHROM.1>
143.85138783,65.71276343,-64.28831269,-77.78020578,-175.12088974,76.63396402
-18.78134634,46.82330422,55.95414784,33.84502132,-1.23898882,0.60673542,2.31614211

>  <Name>
ligand

>  <RI>
0

>  <Rbt.Current_Directory>
/home/itssahil/PROJECTS/Mol_Feturizer/New_Systems/rnas/2GIS

>  <Rbt.Executable>
rbdock ($Id: //depot/dev/client3/rdock/2013.1/src/exe/rbdock.cxx#4 $)

>  <Rbt.Library>
libRbt.so (2013.1, Build901 2013/11/27)

>  <Rbt.Parameter_File>
/export/apps/rDock/src/rDock_2013.1_src/data/scripts/dock_solv.prm

>  <Rbt.Receptor>
prm/pocket_docking_6.prm

>  <SCORE>
-19.5503

>  <SCORE.INTER>
-16.5625

>  <SCORE.INTER.CONST>
1

>  <SCORE.INTER.POLAR>
0

>  <SCORE.INTER.ROT>
7

>  <SCORE.INTER.SOLV>
13.8447

>  <SCORE.INTER.VDW>
-23.9232

>  <SCORE.INTER.norm>
-0.613425

>  <SCORE.INTRA>
-2.99206

>  <SCORE.INTRA.DIHEDRAL>
-4.2913

>  <SCORE.INTRA.DIHEDRAL.0>
9.40024

>  <SCORE.INTRA.POLAR>
0

>  <SCORE.INTRA.POLAR.0>
0

>  <SCORE.INTRA.REPUL>
0

>  <SCORE.INTRA.REPUL.0>
0

>  <SCORE.INTRA.SOLV>
-0.327095

>  <SCORE.INTRA.SOLV.lig_0>
-47.1049

>  <SCORE.INTRA.VDW>
-0.68286

>  <SCORE.INTRA.VDW.0>
-1.50278

>  <SCORE.INTRA.norm>
-0.110817

>  <SCORE.RESTR>
0.00417454

>  <SCORE.RESTR.CAVITY>
0.00417454

>  <SCORE.RESTR.norm>
0.000154612

>  <SCORE.SYSTEM>
0

>  <SCORE.SYSTEM.CONST>
0

>  <SCORE.SYSTEM.DIHEDRAL>
0

>  <SCORE.SYSTEM.SOLV>
0

>  <SCORE.SYSTEM.norm>
0

>  <SCORE.heavy>
27

>  <SCORE.norm>
-0.724087

>  <RMSD>
6.226

$$$$
ligand
 OpenBabel11021811433D
libRbt.so/2013.1/901 2013/11/27
 27 29  0  0  0  0  0  0  0  0999 V2000
   48.9477   57.2560   29.2240 N   0  0  0  0  0  0  0  0  0  0  0  0
   47.6021   57.7958   29.4427 C   0  0  2  0  0  0  0  0  0  0  0  0
   47.1490   58.5447   28.2021 C   0  0  0  0  0  0  0  0  0  0  0  0
   45.9622   58.8213   28.0519 O   0  0  0  0  0  0  0  0  0  0  0  0
   47.5827   58.7409   30.6606 C   0  0  0  0  0  0  0  0  0  0  0  0
   47.8372   57.9294   31.9300 C   0  0  0  0  0  0  0  0  0  0  0  0
   46.5865   56.6304   32.2939 S   0  0  2  0  0  0  0  0  0  0  0  0
   45.2148   57.5410   33.0695 C   0  0  0  0  0  0  0  0  0  0  0  0
   47.4288   55.9575   33.7419 C   0  0  0  0  0  0  0  0  0  0  0  0
   46.9876   54.5300   34.1089 C   0  0  1  0  0  0  0  0  0  0  0  0
   47.9062   53.9883   35.1037 O   0  0  0  0  0  0  0  0  0  0  0  0
   45.6841   54.7603   34.8295 C   0  0  1  0  0  0  0  0  0  0  0  0
   44.5933   54.5869   33.9246 O   0  0  0  0  0  0  0  0  0  0  0  0
   45.6600   53.6798   35.9035 C   0  0  1  0  0  0  0  0  0  0  0  0
   44.9117   52.5389   35.4998 O   0  0  0  0  0  0  0  0  0  0  0  0
   47.1602   53.2923   36.1708 C   0  0  2  0  0  0  0  0  0  0  0  0
   47.9566   58.8206   27.3147 O   0  0  0  0  0  0  0  0  0  0  0  0
   46.3410   54.6443   41.1791 N   0  0  0  0  0  0  0  0  0  0  0  0
   45.4531   54.1524   40.3081 C   0  0  0  0  0  0  0  0  0  0  0  0
   45.8050   53.8351   39.0721 N   0  0  0  0  0  0  0  0  0  0  0  0
   47.0597   54.0241   38.6312 C   0  0  0  0  0  0  0  0  0  0  0  0
   48.0342   54.5567   39.5137 C   0  0  0  0  0  0  0  0  0  0  0  0
   47.6204   54.8644   40.8345 C   0  0  0  0  0  0  0  0  0  0  0  0
   48.5117   55.3816   41.7476 N   0  0  0  0  0  0  0  0  0  0  0  0
   49.1921   54.6473   38.8294 N   0  0  0  0  0  0  0  0  0  0  0  0
   49.0018   54.2265   37.6133 C   0  0  0  0  0  0  0  0  0  0  0  0
   47.7070   53.8251   37.4362 N   0  0  0  0  0  0  0  0  0  0  0  0
  2  1  1  6  0  0  0
  2  3  1  0  0  0  0
  2  5  1  0  0  0  0
  3  4  1  0  0  0  0
  3 17  1  0  0  0  0
  5  6  1  0  0  0  0
  7  6  1  1  0  0  0
  7  8  1  0  0  0  0
  7  9  1  0  0  0  0
 10  9  1  1  0  0  0
 10 11  1  0  0  0  0
 10 12  1  0  0  0  0
 11 16  1  0  0  0  0
 12 13  1  6  0  0  0
 12 14  1  0  0  0  0
 14 15  1  6  0  0  0
 14 16  1  0  0  0  0
 16 27  1  1  0  0  0
 18 19  2  0  0  0  0
 18 23  1  0  0  0  0
 19 20  1  0  0  0  0
 20 21  2  0  0  0  0
 21 22  1  0  0  0  0
 21 27  1  0  0  0  0
 22 23  2  0  0  0  0
 22 25  1  0  0  0  0
 23 24  1  0  0  0  0
 25 26  2  0  0  0  0
 26 27  1  0  0  0  0
M  END
>  <CHROM.1>
164.01924334,-67.27225179,-61.46984127,-80.75837425,-159.99779612,168.57278291
147.31128472,46.98268114,55.62499034,34.71348048,-1.56530852,0.61722034,1.93190552

>  <Name>
ligand

>  <RI>
0

>  <Rbt.Current_Directory>
/home/itssahil/PROJECTS/Mol_Feturizer/New_Systems/rnas/2GIS

>  <Rbt.Executable>
rbdock ($Id: //depot/dev/client3/rdock/2013.1/src/exe/rbdock.cxx#4 $)

>  <Rbt.Library>
libRbt.so (2013.1, Build901 2013/11/27)

>  <Rbt.Parameter_File>
/export/apps/rDock/src/rDock_2013.1_src/data/scripts/dock_solv.prm

>  <Rbt.Receptor>
prm/pocket_docking_8.prm

>  <SCORE>
-17.8572

>  <SCORE.INTER>
-14.6955

>  <SCORE.INTER.CONST>
1

>  <SCORE.INTER.POLAR>
0

>  <SCORE.INTER.ROT>
7

>  <SCORE.INTER.SOLV>
11.5778

>  <SCORE.INTER.VDW>
-21.9229

>  <SCORE.INTER.norm>
-0.544277

>  <SCORE.INTRA>
-3.16174

>  <SCORE.INTRA.DIHEDRAL>
-3.14039

>  <SCORE.INTRA.DIHEDRAL.0>
9.40024

>  <SCORE.INTRA.POLAR>
0

>  <SCORE.INTRA.POLAR.0>
0

>  <SCORE.INTRA.REPUL>
0

>  <SCORE.INTRA.REPUL.0>
0

>  <SCORE.INTRA.SOLV>
-1.59717

>  <SCORE.INTRA.SOLV.lig_0>
-47.1049

>  <SCORE.INTRA.VDW>
-0.792964

>  <SCORE.INTRA.VDW.0>
-1.50278

>  <SCORE.INTRA.norm>
-0.117102

>  <SCORE.RESTR>
0

>  <SCORE.RESTR.CAVITY>
0

>  <SCORE.RESTR.norm>
0

>  <SCORE.SYSTEM>
0

>  <SCORE.SYSTEM.CONST>
0

>  <SCORE.SYSTEM.DIHEDRAL>
0

>  <SCORE.SYSTEM.SOLV>
0

>  <SCORE.SYSTEM.norm>
0

>  <SCORE.heavy>
27

>  <SCORE.norm>
-0.661379

>  <RMSD>
6.233

$$$$
ligand
 OpenBabel11021811433D
libRbt.so/2013.1/901 2013/11/27
 27 29  0  0  0  0  0  0  0  0999 V2000
   48.9078   53.6296   33.7376 N   0  0  0  0  0  0  0  0  0  0  0  0
   48.8128   54.5242   34.8955 C   0  0  2  0  0  0  0  0  0  0  0  0
   48.1354   53.7968   36.0432 C   0  0  0  0  0  0  0  0  0  0  0  0
   48.3137   54.1730   37.1983 O   0  0  0  0  0  0  0  0  0  0  0  0
   48.0178   55.7966   34.5405 C   0  0  0  0  0  0  0  0  0  0  0  0
   48.9108   56.7377   33.7333 C   0  0  0  0  0  0  0  0  0  0  0  0
   48.7125   56.6325   31.9074 S   0  0  2  0  0  0  0  0  0  0  0  0
   49.7884   55.2465   31.4242 C   0  0  0  0  0  0  0  0  0  0  0  0
   49.7635   58.0485   31.5214 C   0  0  0  0  0  0  0  0  0  0  0  0
   48.9896   59.2728   31.0027 C   0  0  1  0  0  0  0  0  0  0  0  0
   48.0185   58.8357   30.0063 O   0  0  0  0  0  0  0  0  0  0  0  0
   48.1876   59.6933   32.2074 C   0  0  1  0  0  0  0  0  0  0  0  0
   48.8673   60.7405   32.9003 O   0  0  0  0  0  0  0  0  0  0  0  0
   46.8796   60.2077   31.6189 C   0  0  1  0  0  0  0  0  0  0  0  0
   46.8770   61.6231   31.4732 O   0  0  0  0  0  0  0  0  0  0  0  0
   46.7209   59.5065   30.2206 C   0  0  2  0  0  0  0  0  0  0  0  0
   47.4581   52.7916   35.8269 O   0  0  0  0  0  0  0  0  0  0  0  0
   43.9533   55.9154   32.8713 N   0  0  0  0  0  0  0  0  0  0  0  0
   44.8538   56.7771   33.3568 C   0  0  0  0  0  0  0  0  0  0  0  0
   45.4671   57.6472   32.5700 N   0  0  0  0  0  0  0  0  0  0  0  0
   45.2353   57.6794   31.2473 C   0  0  0  0  0  0  0  0  0  0  0  0
   44.2990   56.7754   30.6830 C   0  0  0  0  0  0  0  0  0  0  0  0
   43.6498   55.8736   31.5636 C   0  0  0  0  0  0  0  0  0  0  0  0
   42.7267   54.9693   31.0884 N   0  0  0  0  0  0  0  0  0  0  0  0
   44.2578   57.0125   29.3567 N   0  0  0  0  0  0  0  0  0  0  0  0
   45.0901   57.9701   29.0693 C   0  0  0  0  0  0  0  0  0  0  0  0
   45.7164   58.4227   30.1972 N   0  0  0  0  0  0  0  0  0  0  0  0
  2  1  1  6  0  0  0
  2  3  1  0  0  0  0
  2  5  1  0  0  0  0
  3  4  1  0  0  0  0
  3 17  1  0  0  0  0
  5  6  1  0  0  0  0
  7  6  1  1  0  0  0
  7  8  1  0  0  0  0
  7  9  1  0  0  0  0
 10  9  1  1  0  0  0
 10 11  1  0  0  0  0
 10 12  1  0  0  0  0
 11 16  1  0  0  0  0
 12 13  1  6  0  0  0
 12 14  1  0  0  0  0
 14 15  1  6  0  0  0
 14 16  1  0  0  0  0
 16 27  1  1  0  0  0
 18 19  2  0  0  0  0
 18 23  1  0  0  0  0
 19 20  1  0  0  0  0
 20 21  2  0  0  0  0
 21 22  1  0  0  0  0
 21 27  1  0  0  0  0
 22 23  2  0  0  0  0
 22 25  1  0  0  0  0
 23 24  1  0  0  0  0
 25 26  2  0  0  0  0
 26 27  1  0  0  0  0
M  END
>  <CHROM.1>
157.37276803,-77.18016248,96.50938742,-84.30966955,-109.32167161,-45.28264977
90.75086134,47.06751856,57.03636495,32.32895348,-1.28520500,-0.41048678,-0.62245970

>  <Name>
ligand

>  <RI>
0

>  <Rbt.Current_Directory>
/home/itssahil/PROJECTS/Mol_Feturizer/New_Systems/rnas/2GIS

>  <Rbt.Executable>
rbdock ($Id: //depot/dev/client3/rdock/2013.1/src/exe/rbdock.cxx#4 $)

>  <Rbt.Library>
libRbt.so (2013.1, Build901 2013/11/27)

>  <Rbt.Parameter_File>
/export/apps/rDock/src/rDock_2013.1_src/data/scripts/dock_solv.prm

>  <Rbt.Receptor>
prm/pocket_docking_7.prm

>  <SCORE>
-16.5259

>  <SCORE.INTER>
-15.5333

>  <SCORE.INTER.CONST>
1

>  <SCORE.INTER.POLAR>
0

>  <SCORE.INTER.ROT>
7

>  <SCORE.INTER.SOLV>
12.4226

>  <SCORE.INTER.VDW>
-22.7631

>  <SCORE.INTER.norm>
-0.575308

>  <SCORE.INTRA>
-0.992559

>  <SCORE.INTRA.DIHEDRAL>
3.70599

>  <SCORE.INTRA.DIHEDRAL.0>
9.40024

>  <SCORE.INTRA.POLAR>
0

>  <SCORE.INTRA.POLAR.0>
0

>  <SCORE.INTRA.REPUL>
0

>  <SCORE.INTRA.REPUL.0>
0

>  <SCORE.INTRA.SOLV>
-0.053771

>  <SCORE.INTRA.SOLV.lig_0>
-47.1049

>  <SCORE.INTRA.VDW>
-2.81867

>  <SCORE.INTRA.VDW.0>
-1.50278

>  <SCORE.INTRA.norm>
-0.0367615

>  <SCORE.RESTR>
0

>  <SCORE.RESTR.CAVITY>
0

>  <SCORE.RESTR.norm>
0

>  <SCORE.SYSTEM>
0

>  <SCORE.SYSTEM.CONST>
0

>  <SCORE.SYSTEM.DIHEDRAL>
0

>  <SCORE.SYSTEM.SOLV>
0

>  <SCORE.SYSTEM.norm>
0

>  <SCORE.heavy>
27

>  <SCORE.norm>
-0.612069

>  <RMSD>
6.238

$$$$
ligand
 OpenBabel11021811433D
libRbt.so/2013.1/901 2013/11/27
 27 29  0  0  0  0  0  0  0  0999 V2000
   49.4782   54.6079   35.8490 N   0  0  0  0  0  0  0  0  0  0  0  0
   48.5779   55.2996   34.9211 C   0  0  2  0  0  0  0  0  0  0  0  0
   47.8972   54.2821   34.0230 C   0  0  0  0  0  0  0  0  0  0  0  0
   46.7406   54.4662   33.6542 O   0  0  0  0  0  0  0  0  0  0  0  0
   49.3538   56.3187   34.0630 C   0  0  0  0  0  0  0  0  0  0  0  0
   48.3659   57.2973   33.4298 C   0  0  0  0  0  0  0  0  0  0  0  0
   49.1086   58.5287   32.2825 S   0  0  2  0  0  0  0  0  0  0  0  0
   50.2950   59.4402   33.3186 C   0  0  0  0  0  0  0  0  0  0  0  0
   47.7001   59.6577   32.2795 C   0  0  0  0  0  0  0  0  0  0  0  0
   46.7112   59.4133   31.1264 C   0  0  1  0  0  0  0  0  0  0  0  0
   47.4529   59.3199   29.8743 O   0  0  0  0  0  0  0  0  0  0  0  0
   46.2039   58.0234   31.4132 C   0  0  1  0  0  0  0  0  0  0  0  0
   44.9639   58.0961   32.1173 O   0  0  0  0  0  0  0  0  0  0  0  0
   45.9955   57.4143   30.0321 C   0  0  1  0  0  0  0  0  0  0  0  0
   44.6436   57.5151   29.6000 O   0  0  0  0  0  0  0  0  0  0  0  0
   46.9486   58.1980   29.0577 C   0  0  2  0  0  0  0  0  0  0  0  0
   48.4775   53.2412   33.7138 O   0  0  0  0  0  0  0  0  0  0  0  0
   50.5787   54.5923   30.2422 N   0  0  0  0  0  0  0  0  0  0  0  0
   49.5593   55.0081   31.0018 C   0  0  0  0  0  0  0  0  0  0  0  0
   48.7024   55.9177   30.5653 N   0  0  0  0  0  0  0  0  0  0  0  0
   48.8394   56.4846   29.3552 C   0  0  0  0  0  0  0  0  0  0  0  0
   49.9134   56.0868   28.5183 C   0  0  0  0  0  0  0  0  0  0  0  0
   50.7965   55.0957   29.0162 C   0  0  0  0  0  0  0  0  0  0  0  0
   51.8598   54.6576   28.2590 N   0  0  0  0  0  0  0  0  0  0  0  0
   49.8236   56.8017   27.3790 N   0  0  0  0  0  0  0  0  0  0  0  0
   48.7993   57.5998   27.4569 C   0  0  0  0  0  0  0  0  0  0  0  0
   48.1525   57.4434   28.6511 N   0  0  0  0  0  0  0  0  0  0  0  0
  2  1  1  1  0  0  0
  2  3  1  0  0  0  0
  2  5  1  0  0  0  0
  3  4  1  0  0  0  0
  3 17  1  0  0  0  0
  5  6  1  0  0  0  0
  7  6  1  1  0  0  0
  7  8  1  0  0  0  0
  7  9  1  0  0  0  0
 10  9  1  1  0  0  0
 10 11  1  0  0  0  0
 10 12  1  0  0  0  0
 11 16  1  0  0  0  0
 12 13  1  6  0  0  0
 12 14  1  0  0  0  0
 14 15  1  6  0  0  0
 14 16  1  0  0  0  0
 16 27  1  1  0  0  0
 18 19  2  0  0  0  0
 18 23  1  0  0  0  0
 19 20  1  0  0  0  0
 20 21  2  0  0  0  0
 21 22  1  0  0  0  0
 21 27  1  0  0  0  0
 22 23  2  0  0  0  0
 22 25  1  0  0  0  0
 23 24  1  0  0  0  0
 25 26  2  0  0  0  0
 26 27  1  0  0  0  0
M  END
>  <CHROM.1>
145.43729038,-163.07339446,-176.39148694,-59.88073533,-93.73987562,-49.00464718
83.37941385,48.34875895,56.80080048,31.26664556,-1.52505355,0.79671019,-1.23969728

>  <Name>
ligand

>  <RI>
0

>  <Rbt.Current_Directory>
/home/itssahil/PROJECTS/Mol_Feturizer/New_Systems/rnas/2GIS

>  <Rbt.Executable>
rbdock ($Id: //depot/dev/client3/rdock/2013.1/src/exe/rbdock.cxx#4 $)

>  <Rbt.Library>
libRbt.so (2013.1, Build901 2013/11/27)

>  <Rbt.Parameter_File>
/export/apps/rDock/src/rDock_2013.1_src/data/scripts/dock_solv.prm

>  <Rbt.Receptor>
prm/pocket_docking_3.prm

>  <SCORE>
-17.0247

>  <SCORE.INTER>
-11.3769

>  <SCORE.INTER.CONST>
1

>  <SCORE.INTER.POLAR>
0

>  <SCORE.INTER.ROT>
7

>  <SCORE.INTER.SOLV>
15.5364

>  <SCORE.INTER.VDW>
-21.0301

>  <SCORE.INTER.norm>
-0.421368

>  <SCORE.INTRA>
-5.64776

>  <SCORE.INTRA.DIHEDRAL>
-2.50177

>  <SCORE.INTRA.DIHEDRAL.0>
9.40024

>  <SCORE.INTRA.POLAR>
0

>  <SCORE.INTRA.POLAR.0>
0

>  <SCORE.INTRA.REPUL>
0

>  <SCORE.INTRA.REPUL.0>
0

>  <SCORE.INTRA.SOLV>
-2.65856

>  <SCORE.INTRA.SOLV.lig_0>
-47.1049

>  <SCORE.INTRA.VDW>
-3.06759

>  <SCORE.INTRA.VDW.0>
-1.50278

>  <SCORE.INTRA.norm>
-0.209176

>  <SCORE.RESTR>
0

>  <SCORE.RESTR.CAVITY>
0

>  <SCORE.RESTR.norm>
0

>  <SCORE.SYSTEM>
0

>  <SCORE.SYSTEM.CONST>
0

>  <SCORE.SYSTEM.DIHEDRAL>
0

>  <SCORE.SYSTEM.SOLV>
0

>  <SCORE.SYSTEM.norm>
0

>  <SCORE.heavy>
27

>  <SCORE.norm>
-0.630544

>  <RMSD>
6.253

$$$$
ligand
 OpenBabel11021811433D
libRbt.so/2013.1/901 2013/11/27
 27 29  0  0  0  0  0  0  0  0999 V2000
   43.3806   52.7472   37.3040 N   0  0  0  0  0  0  0  0  0  0  0  0
   43.8757   53.2263   36.0097 C   0  0  2  0  0  0  0  0  0  0  0  0
   43.0930   52.5623   34.8908 C   0  0  0  0  0  0  0  0  0  0  0  0
   42.3733   51.5979   35.1343 O   0  0  0  0  0  0  0  0  0  0  0  0
   45.3782   52.9194   35.8507 C   0  0  0  0  0  0  0  0  0  0  0  0
   46.1550   53.6242   36.9617 C   0  0  0  0  0  0  0  0  0  0  0  0
   47.9833   53.6301   36.7577 S   0  0  2  0  0  0  0  0  0  0  0  0
   48.5882   54.5433   38.2110 C   0  0  0  0  0  0  0  0  0  0  0  0
   48.0275   54.9137   35.4890 C   0  0  0  0  0  0  0  0  0  0  0  0
   47.4992   54.4515   34.1199 C   0  0  1  0  0  0  0  0  0  0  0  0
   46.4022   55.3225   33.7138 O   0  0  0  0  0  0  0  0  0  0  0  0
   48.6466   54.7708   33.1964 C   0  0  1  0  0  0  0  0  0  0  0  0
   49.4437   53.6038   32.9930 O   0  0  0  0  0  0  0  0  0  0  0  0
   47.9693   55.1846   31.8957 C   0  0  1  0  0  0  0  0  0  0  0  0
   47.8887   54.1094   30.9673 O   0  0  0  0  0  0  0  0  0  0  0  0
   46.5319   55.6862   32.2887 C   0  0  2  0  0  0  0  0  0  0  0  0
   43.2253   52.9465   33.7286 O   0  0  0  0  0  0  0  0  0  0  0  0
   48.6813   60.3991   31.4229 N   0  0  0  0  0  0  0  0  0  0  0  0
   49.2708   59.2017   31.3346 C   0  0  0  0  0  0  0  0  0  0  0  0
   48.5979   58.0851   31.5640 N   0  0  0  0  0  0  0  0  0  0  0  0
   47.3047   58.1091   31.9265 C   0  0  0  0  0  0  0  0  0  0  0  0
   46.6393   59.3561   32.0474 C   0  0  0  0  0  0  0  0  0  0  0  0
   47.3911   60.5266   31.7737 C   0  0  0  0  0  0  0  0  0  0  0  0
   46.8115   61.7719   31.8674 N   0  0  0  0  0  0  0  0  0  0  0  0
   45.3695   59.1015   32.4216 N   0  0  0  0  0  0  0  0  0  0  0  0
   45.2119   57.8161   32.5457 C   0  0  0  0  0  0  0  0  0  0  0  0
   46.3707   57.1547   32.2478 N   0  0  0  0  0  0  0  0  0  0  0  0
  2  1  1  1  0  0  0
  2  3  1  0  0  0  0
  2  5  1  0  0  0  0
  3  4  1  0  0  0  0
  3 17  1  0  0  0  0
  5  6  1  0  0  0  0
  7  6  1  1  0  0  0
  7  8  1  0  0  0  0
  7  9  1  0  0  0  0
 10  9  1  1  0  0  0
 10 11  1  0  0  0  0
 10 12  1  0  0  0  0
 11 16  1  0  0  0  0
 12 13  1  6  0  0  0
 12 14  1  0  0  0  0
 14 15  1  6  0  0  0
 14 16  1  0  0  0  0
 16 27  1  1  0  0  0
 18 19  2  0  0  0  0
 18 23  1  0  0  0  0
 19 20  1  0  0  0  0
 20 21  2  0  0  0  0
 21 22  1  0  0  0  0
 21 27  1  0  0  0  0
 22 23  2  0  0  0  0
 22 25  1  0  0  0  0
 23 24  1  0  0  0  0
 25 26  2  0  0  0  0
 26 27  1  0  0  0  0
M  END
>  <CHROM.1>
-12.83639145,-60.39330236,-169.19670418,179.45634137,-71.70001777,122.92906730
112.87688151,46.64691816,55.61413990,33.84104996,1.89523703,0.14194266,2.49957753

>  <Name>
ligand

>  <RI>
0

>  <Rbt.Current_Directory>
/home/itssahil/PROJECTS/Mol_Feturizer/New_Systems/rnas/2GIS

>  <Rbt.Executable>
rbdock ($Id: //depot/dev/client3/rdock/2013.1/src/exe/rbdock.cxx#4 $)

>  <Rbt.Library>
libRbt.so (2013.1, Build901 2013/11/27)

>  <Rbt.Parameter_File>
/export/apps/rDock/src/rDock_2013.1_src/data/scripts/dock_solv.prm

>  <Rbt.Receptor>
prm/pocket_docking_7.prm

>  <SCORE>
-15.1162

>  <SCORE.INTER>
-12.8407

>  <SCORE.INTER.CONST>
1

>  <SCORE.INTER.POLAR>
0

>  <SCORE.INTER.ROT>
7

>  <SCORE.INTER.SOLV>
16.82

>  <SCORE.INTER.VDW>
-22.4338

>  <SCORE.INTER.norm>
-0.475582

>  <SCORE.INTRA>
-2.27547

>  <SCORE.INTRA.DIHEDRAL>
-0.675861

>  <SCORE.INTRA.DIHEDRAL.0>
9.40024

>  <SCORE.INTRA.POLAR>
0

>  <SCORE.INTRA.POLAR.0>
0

>  <SCORE.INTRA.REPUL>
0

>  <SCORE.INTRA.REPUL.0>
0

>  <SCORE.INTRA.SOLV>
-2.19413

>  <SCORE.INTRA.SOLV.lig_0>
-47.1049

>  <SCORE.INTRA.VDW>
-0.840473

>  <SCORE.INTRA.VDW.0>
-1.50278

>  <SCORE.INTRA.norm>
-0.0842767

>  <SCORE.RESTR>
0

>  <SCORE.RESTR.CAVITY>
0

>  <SCORE.RESTR.norm>
0

>  <SCORE.SYSTEM>
0

>  <SCORE.SYSTEM.CONST>
0

>  <SCORE.SYSTEM.DIHEDRAL>
0

>  <SCORE.SYSTEM.SOLV>
0

>  <SCORE.SYSTEM.norm>
0

>  <SCORE.heavy>
27

>  <SCORE.norm>
-0.559858

>  <RMSD>
6.268

$$$$
ligand
 OpenBabel11021811433D
libRbt.so/2013.1/901 2013/11/27
 27 29  0  0  0  0  0  0  0  0999 V2000
   48.7962   54.9442   33.0869 N   0  0  0  0  0  0  0  0  0  0  0  0
   49.5604   55.4353   34.2379 C   0  0  2  0  0  0  0  0  0  0  0  0
   49.1696   54.6503   35.4775 C   0  0  0  0  0  0  0  0  0  0  0  0
   48.4514   53.6597   35.3750 O   0  0  0  0  0  0  0  0  0  0  0  0
   49.3008   56.9377   34.4667 C   0  0  0  0  0  0  0  0  0  0  0  0
   49.7041   57.7134   33.2136 C   0  0  0  0  0  0  0  0  0  0  0  0
   48.4813   57.6738   31.8397 S   0  0  2  0  0  0  0  0  0  0  0  0
   49.1878   58.7876   30.5857 C   0  0  0  0  0  0  0  0  0  0  0  0
   47.2717   58.7544   32.6323 C   0  0  0  0  0  0  0  0  0  0  0  0
   45.8158   58.4497   32.2392 C   0  0  1  0  0  0  0  0  0  0  0  0
   45.7120   58.4159   30.7849 O   0  0  0  0  0  0  0  0  0  0  0  0
   45.6380   57.0263   32.7012 C   0  0  1  0  0  0  0  0  0  0  0  0
   45.0216   57.0085   33.9890 O   0  0  0  0  0  0  0  0  0  0  0  0
   44.7100   56.4132   31.6598 C   0  0  1  0  0  0  0  0  0  0  0  0
   43.3508   56.4232   32.0805 O   0  0  0  0  0  0  0  0  0  0  0  0
   44.8916   57.2672   30.3522 C   0  0  2  0  0  0  0  0  0  0  0  0
   49.5173   55.0388   36.5928 O   0  0  0  0  0  0  0  0  0  0  0  0
   47.7569   57.6860   25.9708 N   0  0  0  0  0  0  0  0  0  0  0  0
   47.1613   58.6678   26.6566 C   0  0  0  0  0  0  0  0  0  0  0  0
   46.4806   58.4185   27.7642 N   0  0  0  0  0  0  0  0  0  0  0  0
   46.3321   57.1666   28.2276 C   0  0  0  0  0  0  0  0  0  0  0  0
   46.9335   56.0896   27.5270 C   0  0  0  0  0  0  0  0  0  0  0  0
   47.6702   56.4024   26.3566 C   0  0  0  0  0  0  0  0  0  0  0  0
   48.2841   55.4096   25.6265 N   0  0  0  0  0  0  0  0  0  0  0  0
   46.6321   54.9567   28.1923 N   0  0  0  0  0  0  0  0  0  0  0  0
   45.8969   55.2517   29.2242 C   0  0  0  0  0  0  0  0  0  0  0  0
   45.6847   56.6003   29.2985 N   0  0  0  0  0  0  0  0  0  0  0  0
  2  1  1  6  0  0  0
  2  3  1  0  0  0  0
  2  5  1  0  0  0  0
  3  4  1  0  0  0  0
  3 17  1  0  0  0  0
  5  6  1  0  0  0  0
  7  6  1  1  0  0  0
  7  8  1  0  0  0  0
  7  9  1  0  0  0  0
 10  9  1  6  0  0  0
 10 11  1  0  0  0  0
 10 12  1  0  0  0  0
 11 16  1  0  0  0  0
 12 13  1  1  0  0  0
 12 14  1  0  0  0  0
 14 15  1  1  0  0  0
 14 16  1  0  0  0  0
 16 27  1  6  0  0  0
 18 19  2  0  0  0  0
 18 23  1  0  0  0  0
 19 20  1  0  0  0  0
 20 21  2  0  0  0  0
 21 22  1  0  0  0  0
 21 27  1  0  0  0  0
 22 23  2  0  0  0  0
 22 25  1  0  0  0  0
 23 24  1  0  0  0  0
 25 26  2  0  0  0  0
 26 27  1  0  0  0  0
M  END
>  <CHROM.1>
8.74864466,-59.14349291,79.21677084,175.32021706,-149.22615883,-51.71757002
-46.76170423,47.22296106,56.75544109,31.12691287,-1.35295306,0.22318707,-1.45283477

>  <Name>
ligand

>  <RI>
0

>  <Rbt.Current_Directory>
/home/itssahil/PROJECTS/Mol_Feturizer/New_Systems/rnas/2GIS

>  <Rbt.Executable>
rbdock ($Id: //depot/dev/client3/rdock/2013.1/src/exe/rbdock.cxx#4 $)

>  <Rbt.Library>
libRbt.so (2013.1, Build901 2013/11/27)

>  <Rbt.Parameter_File>
/export/apps/rDock/src/rDock_2013.1_src/data/scripts/dock_solv.prm

>  <Rbt.Receptor>
prm/pocket_docking_4.prm

>  <SCORE>
-15.9329

>  <SCORE.INTER>
-13.8603

>  <SCORE.INTER.CONST>
1

>  <SCORE.INTER.POLAR>
0

>  <SCORE.INTER.ROT>
7

>  <SCORE.INTER.SOLV>
10.1481

>  <SCORE.INTER.VDW>
-20.8895

>  <SCORE.INTER.norm>
-0.513343

>  <SCORE.INTRA>
-2.07269

>  <SCORE.INTRA.DIHEDRAL>
-1.44601

>  <SCORE.INTRA.DIHEDRAL.0>
9.40024

>  <SCORE.INTRA.POLAR>
0

>  <SCORE.INTRA.POLAR.0>
0

>  <SCORE.INTRA.REPUL>
0

>  <SCORE.INTRA.REPUL.0>
0

>  <SCORE.INTRA.SOLV>
0.190124

>  <SCORE.INTRA.SOLV.lig_0>
-47.1049

>  <SCORE.INTRA.VDW>
-1.44475

>  <SCORE.INTRA.VDW.0>
-1.50278

>  <SCORE.INTRA.norm>
-0.0767664

>  <SCORE.RESTR>
0

>  <SCORE.RESTR.CAVITY>
0

>  <SCORE.RESTR.norm>
0

>  <SCORE.SYSTEM>
0

>  <SCORE.SYSTEM.CONST>
0

>  <SCORE.SYSTEM.DIHEDRAL>
0

>  <SCORE.SYSTEM.SOLV>
0

>  <SCORE.SYSTEM.norm>
0

>  <SCORE.heavy>
27

>  <SCORE.norm>
-0.590109

>  <RMSD>
6.270

$$$$
ligand
 OpenBabel11021811433D
libRbt.so/2013.1/901 2013/11/27
 27 29  0  0  0  0  0  0  0  0999 V2000
   49.4881   57.1809   28.1404 N   0  0  0  0  0  0  0  0  0  0  0  0
   48.9703   56.9406   29.4910 C   0  0  2  0  0  0  0  0  0  0  0  0
   48.3474   58.2165   30.0290 C   0  0  0  0  0  0  0  0  0  0  0  0
   49.0383   59.2203   30.1791 O   0  0  0  0  0  0  0  0  0  0  0  0
   50.0962   56.4703   30.4333 C   0  0  0  0  0  0  0  0  0  0  0  0
   49.4772   55.8520   31.6859 C   0  0  0  0  0  0  0  0  0  0  0  0
   48.6110   57.0345   32.7976 S   0  0  2  0  0  0  0  0  0  0  0  0
   49.9522   58.0398   33.5065 C   0  0  0  0  0  0  0  0  0  0  0  0
   48.3099   55.8548   34.1304 C   0  0  0  0  0  0  0  0  0  0  0  0
   47.1478   54.8860   33.8510 C   0  0  1  0  0  0  0  0  0  0  0  0
   47.1601   53.8257   34.8522 O   0  0  0  0  0  0  0  0  0  0  0  0
   45.9343   55.7275   34.1523 C   0  0  1  0  0  0  0  0  0  0  0  0
   45.4191   56.2849   32.9430 O   0  0  0  0  0  0  0  0  0  0  0  0
   44.9388   54.7397   34.7481 C   0  0  1  0  0  0  0  0  0  0  0  0
   44.0161   54.2574   33.7784 O   0  0  0  0  0  0  0  0  0  0  0  0
   45.7917   53.5575   35.3374 C   0  0  2  0  0  0  0  0  0  0  0  0
   47.1662   58.2317   30.3757 O   0  0  0  0  0  0  0  0  0  0  0  0
   48.6723   54.5530   39.6144 N   0  0  0  0  0  0  0  0  0  0  0  0
   49.0250   54.7133   38.3342 C   0  0  0  0  0  0  0  0  0  0  0  0
   48.1844   54.4380   37.3494 N   0  0  0  0  0  0  0  0  0  0  0  0
   46.9547   53.9556   37.5931 C   0  0  0  0  0  0  0  0  0  0  0  0
   46.5395   53.7550   38.9346 C   0  0  0  0  0  0  0  0  0  0  0  0
   47.4631   54.0811   39.9596 C   0  0  0  0  0  0  0  0  0  0  0  0
   47.1293   53.9156   41.2851 N   0  0  0  0  0  0  0  0  0  0  0  0
   45.2833   53.2672   38.8997 N   0  0  0  0  0  0  0  0  0  0  0  0
   44.9074   53.1474   37.6601 C   0  0  0  0  0  0  0  0  0  0  0  0
   45.8959   53.5620   36.8116 N   0  0  0  0  0  0  0  0  0  0  0  0
  2  1  1  6  0  0  0
  2  3  1  0  0  0  0
  2  5  1  0  0  0  0
  3  4  1  0  0  0  0
  3 17  1  0  0  0  0
  5  6  1  0  0  0  0
  7  6  1  6  0  0  0
  7  8  1  0  0  0  0
  7  9  1  0  0  0  0
 10  9  1  1  0  0  0
 10 11  1  0  0  0  0
 10 12  1  0  0  0  0
 11 16  1  0  0  0  0
 12 13  1  6  0  0  0
 12 14  1  0  0  0  0
 14 15  1  6  0  0  0
 14 16  1  0  0  0  0
 16 27  1  1  0  0  0
 18 19  2  0  0  0  0
 18 23  1  0  0  0  0
 19 20  1  0  0  0  0
 20 21  2  0  0  0  0
 21 22  1  0  0  0  0
 21 27  1  0  0  0  0
 22 23  2  0  0  0  0
 22 25  1  0  0  0  0
 23 24  1  0  0  0  0
 25 26  2  0  0  0  0
 26 27  1  0  0  0  0
M  END
>  <CHROM.1>
-61.73816226,-163.79986161,-68.67896478,-69.55756270,-77.23579495,168.95865711
10.43533426,47.46247254,55.53003400,34.49126756,-1.32407168,0.40651845,1.89278698

>  <Name>
ligand

>  <RI>
0

>  <Rbt.Current_Directory>
/home/itssahil/PROJECTS/Mol_Feturizer/New_Systems/rnas/2GIS

>  <Rbt.Executable>
rbdock ($Id: //depot/dev/client3/rdock/2013.1/src/exe/rbdock.cxx#4 $)

>  <Rbt.Library>
libRbt.so (2013.1, Build901 2013/11/27)

>  <Rbt.Parameter_File>
/export/apps/rDock/src/rDock_2013.1_src/data/scripts/dock_solv.prm

>  <Rbt.Receptor>
prm/pocket_docking_8.prm

>  <SCORE>
-19.5626

>  <SCORE.INTER>
-14.258

>  <SCORE.INTER.CONST>
1

>  <SCORE.INTER.POLAR>
0

>  <SCORE.INTER.ROT>
7

>  <SCORE.INTER.SOLV>
8.42277

>  <SCORE.INTER.VDW>
-20.5796

>  <SCORE.INTER.norm>
-0.528073

>  <SCORE.INTRA>
-5.30461

>  <SCORE.INTRA.DIHEDRAL>
-4.25163

>  <SCORE.INTRA.DIHEDRAL.0>
9.40024

>  <SCORE.INTRA.POLAR>
0

>  <SCORE.INTRA.POLAR.0>
0

>  <SCORE.INTRA.REPUL>
0

>  <SCORE.INTRA.REPUL.0>
0

>  <SCORE.INTRA.SOLV>
-2.76078

>  <SCORE.INTRA.SOLV.lig_0>
-47.1049

>  <SCORE.INTRA.VDW>
-1.79841

>  <SCORE.INTRA.VDW.0>
-1.50278

>  <SCORE.INTRA.norm>
-0.196467

>  <SCORE.RESTR>
0

>  <SCORE.RESTR.CAVITY>
0

>  <SCORE.RESTR.norm>
0

>  <SCORE.SYSTEM>
0

>  <SCORE.SYSTEM.CONST>
0

>  <SCORE.SYSTEM.DIHEDRAL>
0

>  <SCORE.SYSTEM.SOLV>
0

>  <SCORE.SYSTEM.norm>
0

>  <SCORE.heavy>
27

>  <SCORE.norm>
-0.724541

>  <RMSD>
6.287

$$$$
ligand
 OpenBabel11021811433D
libRbt.so/2013.1/901 2013/11/27
 27 29  0  0  0  0  0  0  0  0999 V2000
   50.8233   54.4727   27.9495 N   0  0  0  0  0  0  0  0  0  0  0  0
   50.9681   53.0450   28.2506 C   0  0  2  0  0  0  0  0  0  0  0  0
   51.6656   52.3517   27.0938 C   0  0  0  0  0  0  0  0  0  0  0  0
   51.8077   51.1322   27.1054 O   0  0  0  0  0  0  0  0  0  0  0  0
   49.5919   52.3952   28.4970 C   0  0  0  0  0  0  0  0  0  0  0  0
   48.9127   53.0895   29.6765 C   0  0  0  0  0  0  0  0  0  0  0  0
   47.1758   52.5738   29.9953 S   0  0  2  0  0  0  0  0  0  0  0  0
   46.3297   52.8634   28.4102 C   0  0  0  0  0  0  0  0  0  0  0  0
   46.7074   54.0505   30.9220 C   0  0  0  0  0  0  0  0  0  0  0  0
   45.1914   54.1881   31.1455 C   0  0  1  0  0  0  0  0  0  0  0  0
   44.7939   53.3315   32.2568 O   0  0  0  0  0  0  0  0  0  0  0  0
   45.0565   55.6040   31.6438 C   0  0  1  0  0  0  0  0  0  0  0  0
   44.7136   56.4682   30.5602 O   0  0  0  0  0  0  0  0  0  0  0  0
   43.9139   55.5341   32.6494 C   0  0  1  0  0  0  0  0  0  0  0  0
   42.6695   55.9157   32.0746 O   0  0  0  0  0  0  0  0  0  0  0  0
   43.8594   54.0447   33.1501 C   0  0  2  0  0  0  0  0  0  0  0  0
   52.1464   53.0131   26.1733 O   0  0  0  0  0  0  0  0  0  0  0  0
   48.0322   53.2673   36.2428 N   0  0  0  0  0  0  0  0  0  0  0  0
   48.0133   53.4045   34.9124 C   0  0  0  0  0  0  0  0  0  0  0  0
   46.8820   53.6161   34.2586 N   0  0  0  0  0  0  0  0  0  0  0  0
   45.7027   53.6695   34.8996 C   0  0  0  0  0  0  0  0  0  0  0  0
   45.6696   53.5154   36.3093 C   0  0  0  0  0  0  0  0  0  0  0  0
   46.9057   53.3104   36.9729 C   0  0  0  0  0  0  0  0  0  0  0  0
   46.9521   53.1557   38.3402 N   0  0  0  0  0  0  0  0  0  0  0  0
   44.3812   53.6055   36.6952 N   0  0  0  0  0  0  0  0  0  0  0  0
   43.6346   53.7907   35.6461 C   0  0  0  0  0  0  0  0  0  0  0  0
   44.3964   53.8436   34.5122 N   0  0  0  0  0  0  0  0  0  0  0  0
  2  1  1  6  0  0  0
  2  3  1  0  0  0  0
  2  5  1  0  0  0  0
  3  4  1  0  0  0  0
  3 17  1  0  0  0  0
  5  6  1  0  0  0  0
  7  6  1  6  0  0  0
  7  8  1  0  0  0  0
  7  9  1  0  0  0  0
 10  9  1  1  0  0  0
 10 11  1  0  0  0  0
 10 12  1  0  0  0  0
 11 16  1  0  0  0  0
 12 13  1  6  0  0  0
 12 14  1  0  0  0  0
 14 15  1  6  0  0  0
 14 16  1  0  0  0  0
 16 27  1  1  0  0  0
 18 19  2  0  0  0  0
 18 23  1  0  0  0  0
 19 20  1  0  0  0  0
 20 21  2  0  0  0  0
 21 22  1  0  0  0  0
 21 27  1  0  0  0  0
 22 23  2  0  0  0  0
 22 25  1  0  0  0  0
 23 24  1  0  0  0  0
 25 26  2  0  0  0  0
 26 27  1  0  0  0  0
M  END
>  <CHROM.1>
-175.22786259,-59.76833127,173.29552586,-55.49468499,167.43042319,79.98723963
29.74387114,46.95419152,53.63046196,31.85843462,-0.90041494,-0.39146070,1.70033036

>  <Name>
ligand

>  <RI>
0

>  <Rbt.Current_Directory>
/home/itssahil/PROJECTS/Mol_Feturizer/New_Systems/rnas/2GIS

>  <Rbt.Executable>
rbdock ($Id: //depot/dev/client3/rdock/2013.1/src/exe/rbdock.cxx#4 $)

>  <Rbt.Library>
libRbt.so (2013.1, Build901 2013/11/27)

>  <Rbt.Parameter_File>
/export/apps/rDock/src/rDock_2013.1_src/data/scripts/dock_solv.prm

>  <Rbt.Receptor>
prm/pocket_docking_7.prm

>  <SCORE>
-14.601

>  <SCORE.INTER>
-10.5076

>  <SCORE.INTER.CONST>
1

>  <SCORE.INTER.POLAR>
0

>  <SCORE.INTER.ROT>
7

>  <SCORE.INTER.SOLV>
10.5219

>  <SCORE.INTER.VDW>
-18.779

>  <SCORE.INTER.norm>
-0.389169

>  <SCORE.INTRA>
-4.09339

>  <SCORE.INTRA.DIHEDRAL>
-4.22628

>  <SCORE.INTRA.DIHEDRAL.0>
9.40024

>  <SCORE.INTRA.POLAR>
0

>  <SCORE.INTRA.POLAR.0>
0

>  <SCORE.INTRA.REPUL>
0

>  <SCORE.INTRA.REPUL.0>
0

>  <SCORE.INTRA.SOLV>
-2.36617

>  <SCORE.INTRA.SOLV.lig_0>
-47.1049

>  <SCORE.INTRA.VDW>
-0.797167

>  <SCORE.INTRA.VDW.0>
-1.50278

>  <SCORE.INTRA.norm>
-0.151607

>  <SCORE.RESTR>
0

>  <SCORE.RESTR.CAVITY>
0

>  <SCORE.RESTR.norm>
0

>  <SCORE.SYSTEM>
0

>  <SCORE.SYSTEM.CONST>
0

>  <SCORE.SYSTEM.DIHEDRAL>
0

>  <SCORE.SYSTEM.SOLV>
0

>  <SCORE.SYSTEM.norm>
0

>  <SCORE.heavy>
27

>  <SCORE.norm>
-0.540777

>  <RMSD>
6.302

$$$$
ligand
 OpenBabel11021811433D
libRbt.so/2013.1/901 2013/11/27
 27 29  0  0  0  0  0  0  0  0999 V2000
   44.2642   52.5072   35.7187 N   0  0  0  0  0  0  0  0  0  0  0  0
   44.4963   53.4187   34.5940 C   0  0  2  0  0  0  0  0  0  0  0  0
   43.6441   52.9919   33.4121 C   0  0  0  0  0  0  0  0  0  0  0  0
   43.0574   51.9137   33.4366 O   0  0  0  0  0  0  0  0  0  0  0  0
   45.9845   53.4236   34.1913 C   0  0  0  0  0  0  0  0  0  0  0  0
   46.8221   53.9163   35.3704 C   0  0  0  0  0  0  0  0  0  0  0  0
   48.5297   54.4550   34.9480 S   0  0  2  0  0  0  0  0  0  0  0  0
   49.2198   55.0230   36.5333 C   0  0  0  0  0  0  0  0  0  0  0  0
   48.0512   56.0211   34.1883 C   0  0  0  0  0  0  0  0  0  0  0  0
   49.2330   56.8143   33.6043 C   0  0  1  0  0  0  0  0  0  0  0  0
   49.8236   56.0527   32.5098 O   0  0  0  0  0  0  0  0  0  0  0  0
   48.5547   57.9995   32.9667 C   0  0  1  0  0  0  0  0  0  0  0  0
   48.5845   59.1129   33.8601 O   0  0  0  0  0  0  0  0  0  0  0  0
   49.3986   58.2873   31.7312 C   0  0  1  0  0  0  0  0  0  0  0  0
   50.3551   59.3150   31.9625 O   0  0  0  0  0  0  0  0  0  0  0  0
   50.1146   56.9366   31.3635 C   0  0  2  0  0  0  0  0  0  0  0  0
   43.5891   53.6933   32.4017 O   0  0  0  0  0  0  0  0  0  0  0  0
   47.8015   57.2874   26.6616 N   0  0  0  0  0  0  0  0  0  0  0  0
   48.1839   58.2880   27.4627 C   0  0  0  0  0  0  0  0  0  0  0  0
   48.7776   58.0525   28.6221 N   0  0  0  0  0  0  0  0  0  0  0  0
   48.9913   56.7998   29.0573 C   0  0  0  0  0  0  0  0  0  0  0  0
   48.5905   55.7049   28.2494 C   0  0  0  0  0  0  0  0  0  0  0  0
   47.9762   56.0011   27.0063 C   0  0  0  0  0  0  0  0  0  0  0  0
   47.5637   54.9901   26.1677 N   0  0  0  0  0  0  0  0  0  0  0  0
   48.9127   54.5756   28.9112 N   0  0  0  0  0  0  0  0  0  0  0  0
   49.4626   54.8901   30.0474 C   0  0  0  0  0  0  0  0  0  0  0  0
   49.5415   56.2477   30.1883 N   0  0  0  0  0  0  0  0  0  0  0  0
  2  1  1  1  0  0  0
  2  3  1  0  0  0  0
  2  5  1  0  0  0  0
  3  4  1  0  0  0  0
  3 17  1  0  0  0  0
  5  6  1  0  0  0  0
  7  6  1  1  0  0  0
  7  8  1  0  0  0  0
  7  9  1  0  0  0  0
 10  9  1  6  0  0  0
 10 11  1  0  0  0  0
 10 12  1  0  0  0  0
 11 16  1  0  0  0  0
 12 13  1  1  0  0  0
 12 14  1  0  0  0  0
 14 15  1  1  0  0  0
 14 16  1  0  0  0  0
 16 27  1  6  0  0  0
 18 19  2  0  0  0  0
 18 23  1  0  0  0  0
 19 20  1  0  0  0  0
 20 21  2  0  0  0  0
 21 22  1  0  0  0  0
 21 27  1  0  0  0  0
 22 23  2  0  0  0  0
 22 25  1  0  0  0  0
 23 24  1  0  0  0  0
 25 26  2  0  0  0  0
 26 27  1  0  0  0  0
M  END
>  <CHROM.1>
-10.29038980,-61.49078638,-162.93930256,178.15909970,-177.22622787,64.20202614
147.63892926,47.77308738,55.66298132,31.92794656,2.16687482,0.72482078,1.67205282

>  <Name>
ligand

>  <RI>
0

>  <Rbt.Current_Directory>
/home/itssahil/PROJECTS/Mol_Feturizer/New_Systems/rnas/2GIS

>  <Rbt.Executable>
rbdock ($Id: //depot/dev/client3/rdock/2013.1/src/exe/rbdock.cxx#4 $)

>  <Rbt.Library>
libRbt.so (2013.1, Build901 2013/11/27)

>  <Rbt.Parameter_File>
/export/apps/rDock/src/rDock_2013.1_src/data/scripts/dock_solv.prm

>  <Rbt.Receptor>
prm/pocket_docking_5.prm

>  <SCORE>
-14.5202

>  <SCORE.INTER>
-10.4933

>  <SCORE.INTER.CONST>
1

>  <SCORE.INTER.POLAR>
0

>  <SCORE.INTER.ROT>
7

>  <SCORE.INTER.SOLV>
12.8474

>  <SCORE.INTER.VDW>
-19.5447

>  <SCORE.INTER.norm>
-0.388642

>  <SCORE.INTRA>
-4.02686

>  <SCORE.INTRA.DIHEDRAL>
-4.73036

>  <SCORE.INTRA.DIHEDRAL.0>
9.40024

>  <SCORE.INTRA.POLAR>
0

>  <SCORE.INTRA.POLAR.0>
0

>  <SCORE.INTRA.REPUL>
0

>  <SCORE.INTRA.REPUL.0>
0

>  <SCORE.INTRA.SOLV>
-2.43738

>  <SCORE.INTRA.SOLV.lig_0>
-47.1049

>  <SCORE.INTRA.VDW>
-0.442986

>  <SCORE.INTRA.VDW.0>
-1.50278

>  <SCORE.INTRA.norm>
-0.149143

>  <SCORE.RESTR>
0

>  <SCORE.RESTR.CAVITY>
0

>  <SCORE.RESTR.norm>
0

>  <SCORE.SYSTEM>
0

>  <SCORE.SYSTEM.CONST>
0

>  <SCORE.SYSTEM.DIHEDRAL>
0

>  <SCORE.SYSTEM.SOLV>
0

>  <SCORE.SYSTEM.norm>
0

>  <SCORE.heavy>
27

>  <SCORE.norm>
-0.537785

>  <RMSD>
6.303

$$$$
ligand
 OpenBabel11021811433D
libRbt.so/2013.1/901 2013/11/27
 27 29  0  0  0  0  0  0  0  0999 V2000
   48.3512   55.2065   34.4076 N   0  0  0  0  0  0  0  0  0  0  0  0
   47.0304   54.5729   34.3442 C   0  0  2  0  0  0  0  0  0  0  0  0
   47.0862   53.2167   35.0245 C   0  0  0  0  0  0  0  0  0  0  0  0
   48.1036   52.5336   34.9482 O   0  0  0  0  0  0  0  0  0  0  0  0
   46.5730   54.4060   32.8814 C   0  0  0  0  0  0  0  0  0  0  0  0
   46.3635   55.7862   32.2602 C   0  0  0  0  0  0  0  0  0  0  0  0
   45.0341   56.7985   33.0298 S   0  0  2  0  0  0  0  0  0  0  0  0
   43.5042   56.1745   32.2667 C   0  0  0  0  0  0  0  0  0  0  0  0
   45.3377   58.2846   32.0510 C   0  0  0  0  0  0  0  0  0  0  0  0
   46.6724   58.9784   32.3739 C   0  0  1  0  0  0  0  0  0  0  0  0
   47.7667   58.0486   32.1193 O   0  0  0  0  0  0  0  0  0  0  0  0
   46.7661   60.0334   31.3016 C   0  0  1  0  0  0  0  0  0  0  0  0
   46.2920   61.2815   31.8075 O   0  0  0  0  0  0  0  0  0  0  0  0
   48.2563   60.1163   30.9946 C   0  0  1  0  0  0  0  0  0  0  0  0
   48.8909   61.1766   31.6999 O   0  0  0  0  0  0  0  0  0  0  0  0
   48.8687   58.7293   31.4109 C   0  0  2  0  0  0  0  0  0  0  0  0
   46.0934   52.7700   35.5996 O   0  0  0  0  0  0  0  0  0  0  0  0
   48.1793   57.5108   26.3491 N   0  0  0  0  0  0  0  0  0  0  0  0
   47.6056   58.5036   27.0378 C   0  0  0  0  0  0  0  0  0  0  0  0
   47.8883   58.7081   28.3147 N   0  0  0  0  0  0  0  0  0  0  0  0
   48.7375   57.9081   28.9803 C   0  0  0  0  0  0  0  0  0  0  0  0
   49.3605   56.8326   28.2966 C   0  0  0  0  0  0  0  0  0  0  0  0
   49.0452   56.6608   26.9250 C   0  0  0  0  0  0  0  0  0  0  0  0
   49.6136   55.6406   26.1958 N   0  0  0  0  0  0  0  0  0  0  0  0
   50.1505   56.1943   29.1830 N   0  0  0  0  0  0  0  0  0  0  0  0
   50.0534   56.7814   30.3398 C   0  0  0  0  0  0  0  0  0  0  0  0
   49.2001   57.8474   30.2723 N   0  0  0  0  0  0  0  0  0  0  0  0
  2  1  1  6  0  0  0
  2  3  1  0  0  0  0
  2  5  1  0  0  0  0
  3  4  1  0  0  0  0
  3 17  1  0  0  0  0
  5  6  1  0  0  0  0
  7  6  1  6  0  0  0
  7  8  1  0  0  0  0
  7  9  1  0  0  0  0
 10  9  1  6  0  0  0
 10 11  1  0  0  0  0
 10 12  1  0  0  0  0
 11 16  1  0  0  0  0
 12 13  1  1  0  0  0
 12 14  1  0  0  0  0
 14 15  1  1  0  0  0
 14 16  1  0  0  0  0
 16 27  1  6  0  0  0
 18 19  2  0  0  0  0
 18 23  1  0  0  0  0
 19 20  1  0  0  0  0
 20 21  2  0  0  0  0
 21 22  1  0  0  0  0
 21 27  1  0  0  0  0
 22 23  2  0  0  0  0
 22 25  1  0  0  0  0
 23 24  1  0  0  0  0
 25 26  2  0  0  0  0
 26 27  1  0  0  0  0
M  END
>  <CHROM.1>
-34.88968508,-65.51614799,-63.43468964,-81.63465604,-68.52514099,59.73597925
94.34767526,47.49312106,57.04547641,31.31131784,-2.17537480,1.02571882,-0.45247279

>  <Name>
ligand

>  <RI>
0

>  <Rbt.Current_Directory>
/home/itssahil/PROJECTS/Mol_Feturizer/New_Systems/rnas/2GIS

>  <Rbt.Executable>
rbdock ($Id: //depot/dev/client3/rdock/2013.1/src/exe/rbdock.cxx#4 $)

>  <Rbt.Library>
libRbt.so (2013.1, Build901 2013/11/27)

>  <Rbt.Parameter_File>
/export/apps/rDock/src/rDock_2013.1_src/data/scripts/dock_solv.prm

>  <Rbt.Receptor>
prm/pocket_docking_3.prm

>  <SCORE>
-17.8572

>  <SCORE.INTER>
-13.9434

>  <SCORE.INTER.CONST>
1

>  <SCORE.INTER.POLAR>
0

>  <SCORE.INTER.ROT>
7

>  <SCORE.INTER.SOLV>
12.5502

>  <SCORE.INTER.VDW>
-21.7457

>  <SCORE.INTER.norm>
-0.516421

>  <SCORE.INTRA>
-4.14052

>  <SCORE.INTRA.DIHEDRAL>
-5.67476

>  <SCORE.INTRA.DIHEDRAL.0>
9.40024

>  <SCORE.INTRA.POLAR>
0

>  <SCORE.INTRA.POLAR.0>
0

>  <SCORE.INTRA.REPUL>
0

>  <SCORE.INTRA.REPUL.0>
0

>  <SCORE.INTRA.SOLV>
-1.28531

>  <SCORE.INTRA.SOLV.lig_0>
-47.1049

>  <SCORE.INTRA.VDW>
-0.660481

>  <SCORE.INTRA.VDW.0>
-1.50278

>  <SCORE.INTRA.norm>
-0.153353

>  <SCORE.RESTR>
0.22665

>  <SCORE.RESTR.CAVITY>
0.22665

>  <SCORE.RESTR.norm>
0.00839444

>  <SCORE.SYSTEM>
0

>  <SCORE.SYSTEM.CONST>
0

>  <SCORE.SYSTEM.DIHEDRAL>
0

>  <SCORE.SYSTEM.SOLV>
0

>  <SCORE.SYSTEM.norm>
0

>  <SCORE.heavy>
27

>  <SCORE.norm>
-0.661379

>  <RMSD>
6.324

$$$$
ligand
 OpenBabel11021811433D
libRbt.so/2013.1/901 2013/11/27
 27 29  0  0  0  0  0  0  0  0999 V2000
   49.6869   54.6779   35.8937 N   0  0  0  0  0  0  0  0  0  0  0  0
   48.7385   55.5890   35.2453 C   0  0  2  0  0  0  0  0  0  0  0  0
   47.5507   54.7983   34.7265 C   0  0  0  0  0  0  0  0  0  0  0  0
   47.7182   53.6747   34.2607 O   0  0  0  0  0  0  0  0  0  0  0  0
   49.4126   56.3442   34.0825 C   0  0  0  0  0  0  0  0  0  0  0  0
   48.4542   57.4100   33.5532 C   0  0  0  0  0  0  0  0  0  0  0  0
   49.1152   58.4498   32.1871 S   0  0  2  0  0  0  0  0  0  0  0  0
   50.4304   59.4311   32.9740 C   0  0  0  0  0  0  0  0  0  0  0  0
   47.7512   59.6322   32.1728 C   0  0  0  0  0  0  0  0  0  0  0  0
   46.7196   59.3762   31.0604 C   0  0  1  0  0  0  0  0  0  0  0  0
   47.4131   59.2748   29.7815 O   0  0  0  0  0  0  0  0  0  0  0  0
   46.2275   57.9874   31.3771 C   0  0  1  0  0  0  0  0  0  0  0  0
   45.0151   58.0625   32.1276 O   0  0  0  0  0  0  0  0  0  0  0  0
   45.9681   57.3669   30.0099 C   0  0  1  0  0  0  0  0  0  0  0  0
   44.6004   57.4610   29.6290 O   0  0  0  0  0  0  0  0  0  0  0  0
   46.8811   58.1452   28.9936 C   0  0  2  0  0  0  0  0  0  0  0  0
   46.4280   55.3035   34.7119 O   0  0  0  0  0  0  0  0  0  0  0  0
   50.6147   54.6203   30.0965 N   0  0  0  0  0  0  0  0  0  0  0  0
   49.6326   55.0503   30.8964 C   0  0  0  0  0  0  0  0  0  0  0  0
   48.7421   55.9356   30.4775 N   0  0  0  0  0  0  0  0  0  0  0  0
   48.8065   56.4632   29.2439 C   0  0  0  0  0  0  0  0  0  0  0  0
   49.8387   56.0492   28.3633 C   0  0  0  0  0  0  0  0  0  0  0  0
   50.7598   55.0848   28.8447 C   0  0  0  0  0  0  0  0  0  0  0  0
   51.7860   54.6331   28.0456 N   0  0  0  0  0  0  0  0  0  0  0  0
   49.6785   56.7246   27.2078 N   0  0  0  0  0  0  0  0  0  0  0  0
   48.6500   57.5139   27.3150 C   0  0  0  0  0  0  0  0  0  0  0  0
   48.0706   57.3904   28.5472 N   0  0  0  0  0  0  0  0  0  0  0  0
  2  1  1  6  0  0  0
  2  3  1  0  0  0  0
  2  5  1  0  0  0  0
  3  4  1  0  0  0  0
  3 17  1  0  0  0  0
  5  6  1  0  0  0  0
  7  6  1  1  0  0  0
  7  8  1  0  0  0  0
  7  9  1  0  0  0  0
 10  9  1  1  0  0  0
 10 11  1  0  0  0  0
 10 12  1  0  0  0  0
 11 16  1  0  0  0  0
 12 13  1  1  0  0  0
 12 14  1  0  0  0  0
 14 15  1  6  0  0  0
 14 16  1  0  0  0  0
 16 27  1  1  0  0  0
 18 19  2  0  0  0  0
 18 23  1  0  0  0  0
 19 20  1  0  0  0  0
 20 21  2  0  0  0  0
 21 22  1  0  0  0  0
 21 27  1  0  0  0  0
 22 23  2  0  0  0  0
 22 25  1  0  0  0  0
 23 24  1  0  0  0  0
 25 26  2  0  0  0  0
 26 27  1  0  0  0  0
M  END
>  <CHROM.1>
-36.59506587,-172.63414484,178.22498189,-67.86060008,-100.11161297,-52.22451546
81.59128737,48.30163867,56.85953088,31.29123206,-1.70481212,0.71034114,-1.29159877

>  <Name>
ligand

>  <RI>
0

>  <Rbt.Current_Directory>
/home/itssahil/PROJECTS/Mol_Feturizer/New_Systems/rnas/2GIS

>  <Rbt.Executable>
rbdock ($Id: //depot/dev/client3/rdock/2013.1/src/exe/rbdock.cxx#4 $)

>  <Rbt.Library>
libRbt.so (2013.1, Build901 2013/11/27)

>  <Rbt.Parameter_File>
/export/apps/rDock/src/rDock_2013.1_src/data/scripts/dock_solv.prm

>  <Rbt.Receptor>
prm/pocket_docking_4.prm

>  <SCORE>
-17.5061

>  <SCORE.INTER>
-11.8099

>  <SCORE.INTER.CONST>
1

>  <SCORE.INTER.POLAR>
0

>  <SCORE.INTER.ROT>
7

>  <SCORE.INTER.SOLV>
15.3645

>  <SCORE.INTER.VDW>
-21.2614

>  <SCORE.INTER.norm>
-0.437403

>  <SCORE.INTRA>
-5.69619

>  <SCORE.INTRA.DIHEDRAL>
-3.32456

>  <SCORE.INTRA.DIHEDRAL.0>
9.40024

>  <SCORE.INTRA.POLAR>
0

>  <SCORE.INTRA.POLAR.0>
0

>  <SCORE.INTRA.REPUL>
0

>  <SCORE.INTRA.REPUL.0>
0

>  <SCORE.INTRA.SOLV>
-2.70095

>  <SCORE.INTRA.SOLV.lig_0>
-47.1049

>  <SCORE.INTRA.VDW>
-2.68343

>  <SCORE.INTRA.VDW.0>
-1.50278

>  <SCORE.INTRA.norm>
-0.21097

>  <SCORE.RESTR>
0

>  <SCORE.RESTR.CAVITY>
0

>  <SCORE.RESTR.norm>
0

>  <SCORE.SYSTEM>
0

>  <SCORE.SYSTEM.CONST>
0

>  <SCORE.SYSTEM.DIHEDRAL>
0

>  <SCORE.SYSTEM.SOLV>
0

>  <SCORE.SYSTEM.norm>
0

>  <SCORE.heavy>
27

>  <SCORE.norm>
-0.648373

>  <RMSD>
6.341

$$$$
ligand
 OpenBabel11021811433D
libRbt.so/2013.1/901 2013/11/27
 27 29  0  0  0  0  0  0  0  0999 V2000
   49.8445   54.6626   35.8805 N   0  0  0  0  0  0  0  0  0  0  0  0
   48.8622   55.5718   35.2820 C   0  0  2  0  0  0  0  0  0  0  0  0
   47.6838   54.7705   34.7580 C   0  0  0  0  0  0  0  0  0  0  0  0
   47.8765   53.7123   34.1659 O   0  0  0  0  0  0  0  0  0  0  0  0
   49.4953   56.3829   34.1338 C   0  0  0  0  0  0  0  0  0  0  0  0
   48.5038   57.4462   33.6639 C   0  0  0  0  0  0  0  0  0  0  0  0
   49.0512   58.4443   32.2187 S   0  0  2  0  0  0  0  0  0  0  0  0
   50.4233   59.4482   32.8679 C   0  0  0  0  0  0  0  0  0  0  0  0
   47.6880   59.6263   32.2784 C   0  0  0  0  0  0  0  0  0  0  0  0
   46.4599   59.1994   31.4558 C   0  0  1  0  0  0  0  0  0  0  0  0
   46.8863   58.8639   30.1021 O   0  0  0  0  0  0  0  0  0  0  0  0
   46.0646   57.8962   32.1015 C   0  0  1  0  0  0  0  0  0  0  0  0
   45.0250   58.1232   33.0536 O   0  0  0  0  0  0  0  0  0  0  0  0
   45.5485   57.0519   30.9429 C   0  0  1  0  0  0  0  0  0  0  0  0
   44.1309   57.1032   30.8317 O   0  0  0  0  0  0  0  0  0  0  0  0
   46.2271   57.6243   29.6452 C   0  0  2  0  0  0  0  0  0  0  0  0
   46.5382   55.2080   34.8680 O   0  0  0  0  0  0  0  0  0  0  0  0
   48.4712   52.8871   29.3229 N   0  0  0  0  0  0  0  0  0  0  0  0
   47.3706   53.2271   30.0027 C   0  0  0  0  0  0  0  0  0  0  0  0
   46.9029   54.4653   29.9797 N   0  0  0  0  0  0  0  0  0  0  0  0
   47.5315   55.4384   29.2998 C   0  0  0  0  0  0  0  0  0  0  0  0
   48.7110   55.1299   28.5746 C   0  0  0  0  0  0  0  0  0  0  0  0
   49.1667   53.7878   28.6096 C   0  0  0  0  0  0  0  0  0  0  0  0
   50.3025   53.4134   27.9274 N   0  0  0  0  0  0  0  0  0  0  0  0
   49.1374   56.2692   27.9938 N   0  0  0  0  0  0  0  0  0  0  0  0
   48.3279   57.2372   28.3103 C   0  0  0  0  0  0  0  0  0  0  0  0
   47.3165   56.7816   29.1094 N   0  0  0  0  0  0  0  0  0  0  0  0
  2  1  1  6  0  0  0
  2  3  1  0  0  0  0
  2  5  1  0  0  0  0
  3  4  1  0  0  0  0
  3 17  1  0  0  0  0
  5  6  1  0  0  0  0
  7  6  1  1  0  0  0
  7  8  1  0  0  0  0
  7  9  1  0  0  0  0
 10  9  1  1  0  0  0
 10 11  1  0  0  0  0
 10 12  1  0  0  0  0
 11 16  1  0  0  0  0
 12 13  1  1  0  0  0
 12 14  1  0  0  0  0
 14 15  1  6  0  0  0
 14 16  1  0  0  0  0
 16 27  1  1  0  0  0
 18 19  2  0  0  0  0
 18 23  1  0  0  0  0
 19 20  1  0  0  0  0
 20 21  2  0  0  0  0
 21 22  1  0  0  0  0
 21 27  1  0  0  0  0
 22 23  2  0  0  0  0
 22 25  1  0  0  0  0
 23 24  1  0  0  0  0
 25 26  2  0  0  0  0
 26 27  1  0  0  0  0
M  END
>  <CHROM.1>
-41.74572915,-172.39477857,-176.24992831,-68.69828298,-89.35365758,-51.88219551
136.21847034,47.78809034,56.43081159,31.49678376,-1.65360940,1.16642037,-1.81954113

>  <Name>
ligand

>  <RI>
0

>  <Rbt.Current_Directory>
/home/itssahil/PROJECTS/Mol_Feturizer/New_Systems/rnas/2GIS

>  <Rbt.Executable>
rbdock ($Id: //depot/dev/client3/rdock/2013.1/src/exe/rbdock.cxx#4 $)

>  <Rbt.Library>
libRbt.so (2013.1, Build901 2013/11/27)

>  <Rbt.Parameter_File>
/export/apps/rDock/src/rDock_2013.1_src/data/scripts/dock_solv.prm

>  <Rbt.Receptor>
prm/pocket_docking_7.prm

>  <SCORE>
-13.8715

>  <SCORE.INTER>
-9.58191

>  <SCORE.INTER.CONST>
1

>  <SCORE.INTER.POLAR>
0

>  <SCORE.INTER.ROT>
7

>  <SCORE.INTER.SOLV>
12.0503

>  <SCORE.INTER.VDW>
-18.6714

>  <SCORE.INTER.norm>
-0.354886

>  <SCORE.INTRA>
-4.28954

>  <SCORE.INTRA.DIHEDRAL>
-4.44863

>  <SCORE.INTRA.DIHEDRAL.0>
9.40024

>  <SCORE.INTRA.POLAR>
0

>  <SCORE.INTRA.POLAR.0>
0

>  <SCORE.INTRA.REPUL>
0

>  <SCORE.INTRA.REPUL.0>
0

>  <SCORE.INTRA.SOLV>
-2.72086

>  <SCORE.INTRA.SOLV.lig_0>
-47.1049

>  <SCORE.INTRA.VDW>
-0.704802

>  <SCORE.INTRA.VDW.0>
-1.50278

>  <SCORE.INTRA.norm>
-0.158872

>  <SCORE.RESTR>
0

>  <SCORE.RESTR.CAVITY>
0

>  <SCORE.RESTR.norm>
0

>  <SCORE.SYSTEM>
0

>  <SCORE.SYSTEM.CONST>
0

>  <SCORE.SYSTEM.DIHEDRAL>
0

>  <SCORE.SYSTEM.SOLV>
0

>  <SCORE.SYSTEM.norm>
0

>  <SCORE.heavy>
27

>  <SCORE.norm>
-0.513758

>  <RMSD>
6.352

$$$$
ligand
 OpenBabel11021811433D
libRbt.so/2013.1/901 2013/11/27
 27 29  0  0  0  0  0  0  0  0999 V2000
   48.1664   53.6499   32.6479 N   0  0  0  0  0  0  0  0  0  0  0  0
   48.0183   54.4326   33.8789 C   0  0  2  0  0  0  0  0  0  0  0  0
   48.2628   53.5374   35.0806 C   0  0  0  0  0  0  0  0  0  0  0  0
   48.8665   53.9728   36.0571 O   0  0  0  0  0  0  0  0  0  0  0  0
   46.6099   55.0534   33.9669 C   0  0  0  0  0  0  0  0  0  0  0  0
   46.4138   56.0207   32.8004 C   0  0  0  0  0  0  0  0  0  0  0  0
   44.9722   57.1530   32.9550 S   0  0  2  0  0  0  0  0  0  0  0  0
   43.6940   56.3883   31.9094 C   0  0  0  0  0  0  0  0  0  0  0  0
   45.6154   58.4293   31.8522 C   0  0  0  0  0  0  0  0  0  0  0  0
   46.9886   58.9800   32.2744 C   0  0  1  0  0  0  0  0  0  0  0  0
   47.9870   57.9257   32.1386 O   0  0  0  0  0  0  0  0  0  0  0  0
   47.2923   59.9815   31.1899 C   0  0  1  0  0  0  0  0  0  0  0  0
   46.9228   61.2910   31.6228 O   0  0  0  0  0  0  0  0  0  0  0  0
   48.8027   59.8872   31.0128 C   0  0  1  0  0  0  0  0  0  0  0  0
   49.4925   60.8929   31.7459 O   0  0  0  0  0  0  0  0  0  0  0  0
   49.2154   58.4551   31.5137 C   0  0  2  0  0  0  0  0  0  0  0  0
   47.9142   52.3568   35.0557 O   0  0  0  0  0  0  0  0  0  0  0  0
   48.6367   57.0336   26.4911 N   0  0  0  0  0  0  0  0  0  0  0  0
   48.0927   58.0859   27.1121 C   0  0  0  0  0  0  0  0  0  0  0  0
   48.3419   58.3364   28.3878 N   0  0  0  0  0  0  0  0  0  0  0  0
   49.1246   57.5268   29.1201 C   0  0  0  0  0  0  0  0  0  0  0  0
   49.7133   56.3897   28.5096 C   0  0  0  0  0  0  0  0  0  0  0  0
   49.4366   56.1691   27.1367 C   0  0  0  0  0  0  0  0  0  0  0  0
   49.9753   55.0877   26.4762 N   0  0  0  0  0  0  0  0  0  0  0  0
   50.4379   55.7550   29.4526 N   0  0  0  0  0  0  0  0  0  0  0  0
   50.3322   56.4006   30.5770 C   0  0  0  0  0  0  0  0  0  0  0  0
   49.5388   57.5042   30.4295 N   0  0  0  0  0  0  0  0  0  0  0  0
  2  1  1  6  0  0  0
  2  3  1  0  0  0  0
  2  5  1  0  0  0  0
  3  4  1  0  0  0  0
  3 17  1  0  0  0  0
  5  6  1  0  0  0  0
  7  6  1  6  0  0  0
  7  8  1  0  0  0  0
  7  9  1  0  0  0  0
 10  9  1  6  0  0  0
 10 11  1  0  0  0  0
 10 12  1  0  0  0  0
 11 16  1  0  0  0  0
 12 13  1  1  0  0  0
 12 14  1  0  0  0  0
 14 15  1  1  0  0  0
 14 16  1  0  0  0  0
 16 27  1  6  0  0  0
 18 19  2  0  0  0  0
 18 23  1  0  0  0  0
 19 20  1  0  0  0  0
 20 21  2  0  0  0  0
 21 22  1  0  0  0  0
 21 27  1  0  0  0  0
 22 23  2  0  0  0  0
 22 25  1  0  0  0  0
 23 24  1  0  0  0  0
 25 26  2  0  0  0  0
 26 27  1  0  0  0  0
M  END
>  <CHROM.1>
141.68142166,-62.56587191,-165.85075940,-100.44314900,-56.80831825,66.69963555
89.65244766,47.92079764,56.93293192,31.34106758,-2.04912725,0.97383077,-0.64379183

>  <Name>
ligand

>  <RI>
0

>  <Rbt.Current_Directory>
/home/itssahil/PROJECTS/Mol_Feturizer/New_Systems/rnas/2GIS

>  <Rbt.Executable>
rbdock ($Id: //depot/dev/client3/rdock/2013.1/src/exe/rbdock.cxx#4 $)

>  <Rbt.Library>
libRbt.so (2013.1, Build901 2013/11/27)

>  <Rbt.Parameter_File>
/export/apps/rDock/src/rDock_2013.1_src/data/scripts/dock_solv.prm

>  <Rbt.Receptor>
prm/pocket_docking_2.prm

>  <SCORE>
-13.2078

>  <SCORE.INTER>
-14.0561

>  <SCORE.INTER.CONST>
1

>  <SCORE.INTER.POLAR>
0

>  <SCORE.INTER.ROT>
7

>  <SCORE.INTER.SOLV>
11.538

>  <SCORE.INTER.VDW>
-21.4834

>  <SCORE.INTER.norm>
-0.520598

>  <SCORE.INTRA>
-1.45309

>  <SCORE.INTRA.DIHEDRAL>
-2.45505

>  <SCORE.INTRA.DIHEDRAL.0>
9.40024

>  <SCORE.INTRA.POLAR>
0

>  <SCORE.INTRA.POLAR.0>
0

>  <SCORE.INTRA.REPUL>
0

>  <SCORE.INTRA.REPUL.0>
0

>  <SCORE.INTRA.SOLV>
-2.17804

>  <SCORE.INTRA.SOLV.lig_0>
-47.1049

>  <SCORE.INTRA.VDW>
0.863456

>  <SCORE.INTRA.VDW.0>
-1.50278

>  <SCORE.INTRA.norm>
-0.0538182

>  <SCORE.RESTR>
2.30139

>  <SCORE.RESTR.CAVITY>
2.30139

>  <SCORE.RESTR.norm>
0.0852367

>  <SCORE.SYSTEM>
0

>  <SCORE.SYSTEM.CONST>
0

>  <SCORE.SYSTEM.DIHEDRAL>
0

>  <SCORE.SYSTEM.SOLV>
0

>  <SCORE.SYSTEM.norm>
0

>  <SCORE.heavy>
27

>  <SCORE.norm>
-0.48918

>  <RMSD>
6.353

$$$$
ligand
 OpenBabel11021811433D
libRbt.so/2013.1/901 2013/11/27
 27 29  0  0  0  0  0  0  0  0999 V2000
   46.4959   55.1509   31.2481 N   0  0  0  0  0  0  0  0  0  0  0  0
   47.7048   55.0922   32.0757 C   0  0  2  0  0  0  0  0  0  0  0  0
   48.1078   53.6429   32.2815 C   0  0  0  0  0  0  0  0  0  0  0  0
   49.1370   53.3736   32.8945 O   0  0  0  0  0  0  0  0  0  0  0  0
   47.4671   55.7681   33.4408 C   0  0  0  0  0  0  0  0  0  0  0  0
   47.3808   57.2808   33.2440 C   0  0  0  0  0  0  0  0  0  0  0  0
   48.9179   58.0796   32.6246 S   0  0  2  0  0  0  0  0  0  0  0  0
   49.9464   58.2751   34.1133 C   0  0  0  0  0  0  0  0  0  0  0  0
   48.2169   59.7347   32.4583 C   0  0  0  0  0  0  0  0  0  0  0  0
   47.5930   60.0088   31.0789 C   0  0  1  0  0  0  0  0  0  0  0  0
   48.5196   59.5708   30.0413 O   0  0  0  0  0  0  0  0  0  0  0  0
   46.4378   59.0418   31.0389 C   0  0  1  0  0  0  0  0  0  0  0  0
   45.2356   59.7071   31.4273 O   0  0  0  0  0  0  0  0  0  0  0  0
   46.3617   58.6177   29.5774 C   0  0  1  0  0  0  0  0  0  0  0  0
   45.3944   59.3671   28.8512 O   0  0  0  0  0  0  0  0  0  0  0  0
   47.7986   58.8411   28.9795 C   0  0  2  0  0  0  0  0  0  0  0  0
   47.4407   52.7367   31.7818 O   0  0  0  0  0  0  0  0  0  0  0  0
   49.6434   55.2224   25.6502 N   0  0  0  0  0  0  0  0  0  0  0  0
   48.9041   56.2992   25.3619 C   0  0  0  0  0  0  0  0  0  0  0  0
   48.5215   57.1441   26.3063 N   0  0  0  0  0  0  0  0  0  0  0  0
   48.8318   56.9384   27.5969 C   0  0  0  0  0  0  0  0  0  0  0  0
   49.6025   55.8024   27.9546 C   0  0  0  0  0  0  0  0  0  0  0  0
   50.0083   54.9337   26.9101 C   0  0  0  0  0  0  0  0  0  0  0  0
   50.7608   53.8129   27.1809 N   0  0  0  0  0  0  0  0  0  0  0  0
   49.7668   55.8309   29.2922 N   0  0  0  0  0  0  0  0  0  0  0  0
   49.1582   56.8749   29.7738 C   0  0  0  0  0  0  0  0  0  0  0  0
   48.5690   57.5968   28.7734 N   0  0  0  0  0  0  0  0  0  0  0  0
  2  1  1  6  0  0  0
  2  3  1  0  0  0  0
  2  5  1  0  0  0  0
  3  4  1  0  0  0  0
  3 17  1  0  0  0  0
  5  6  1  0  0  0  0
  7  6  1  1  0  0  0
  7  8  1  0  0  0  0
  7  9  1  0  0  0  0
 10  9  1  1  0  0  0
 10 11  1  0  0  0  0
 10 12  1  0  0  0  0
 11 16  1  0  0  0  0
 12 13  1  6  0  0  0
 12 14  1  0  0  0  0
 14 15  1  6  0  0  0
 14 16  1  0  0  0  0
 16 27  1  1  0  0  0
 18 19  2  0  0  0  0
 18 23  1  0  0  0  0
 19 20  1  0  0  0  0
 20 21  2  0  0  0  0
 21 22  1  0  0  0  0
 21 27  1  0  0  0  0
 22 23  2  0  0  0  0
 22 25  1  0  0  0  0
 23 24  1  0  0  0  0
 25 26  2  0  0  0  0
 26 27  1  0  0  0  0
M  END
>  <CHROM.1>
176.40914576,-71.81267917,-63.84108817,-81.17426037,-89.88701718,-47.12933579
-142.16577274,48.21479207,56.92111610,30.27319288,-2.42843396,1.20629986
-1.14966260

>  <Name>
ligand

>  <RI>
0

>  <Rbt.Current_Directory>
/home/itssahil/PROJECTS/Mol_Feturizer/New_Systems/rnas/2GIS

>  <Rbt.Executable>
rbdock ($Id: //depot/dev/client3/rdock/2013.1/src/exe/rbdock.cxx#4 $)

>  <Rbt.Library>
libRbt.so (2013.1, Build901 2013/11/27)

>  <Rbt.Parameter_File>
/export/apps/rDock/src/rDock_2013.1_src/data/scripts/dock_solv.prm

>  <Rbt.Receptor>
prm/pocket_docking_6.prm

>  <SCORE>
-13.607

>  <SCORE.INTER>
-9.97578

>  <SCORE.INTER.CONST>
1

>  <SCORE.INTER.POLAR>
0

>  <SCORE.INTER.ROT>
7

>  <SCORE.INTER.SOLV>
7.75086

>  <SCORE.INTER.VDW>
-17.5008

>  <SCORE.INTER.norm>
-0.369473

>  <SCORE.INTRA>
-3.6323

>  <SCORE.INTRA.DIHEDRAL>
-3.15448

>  <SCORE.INTRA.DIHEDRAL.0>
9.40024

>  <SCORE.INTRA.POLAR>
0

>  <SCORE.INTRA.POLAR.0>
0

>  <SCORE.INTRA.REPUL>
0

>  <SCORE.INTRA.REPUL.0>
0

>  <SCORE.INTRA.SOLV>
-0.18181

>  <SCORE.INTRA.SOLV.lig_0>
-47.1049

>  <SCORE.INTRA.VDW>
-1.96416

>  <SCORE.INTRA.VDW.0>
-1.50278

>  <SCORE.INTRA.norm>
-0.13453

>  <SCORE.RESTR>
0.00111471

>  <SCORE.RESTR.CAVITY>
0.00111471

>  <SCORE.RESTR.norm>
4.12857e-05

>  <SCORE.SYSTEM>
0

>  <SCORE.SYSTEM.CONST>
0

>  <SCORE.SYSTEM.DIHEDRAL>
0

>  <SCORE.SYSTEM.SOLV>
0

>  <SCORE.SYSTEM.norm>
0

>  <SCORE.heavy>
27

>  <SCORE.norm>
-0.503962

>  <RMSD>
6.364

$$$$
ligand
 OpenBabel11021811433D
libRbt.so/2013.1/901 2013/11/27
 27 29  0  0  0  0  0  0  0  0999 V2000
   48.7411   54.4130   36.6026 N   0  0  0  0  0  0  0  0  0  0  0  0
   47.7557   54.6214   35.5371 C   0  0  2  0  0  0  0  0  0  0  0  0
   47.4242   53.2902   34.8864 C   0  0  0  0  0  0  0  0  0  0  0  0
   46.2701   52.8716   34.8997 O   0  0  0  0  0  0  0  0  0  0  0  0
   48.2949   55.6022   34.4768 C   0  0  0  0  0  0  0  0  0  0  0  0
   47.2464   55.7825   33.3801 C   0  0  0  0  0  0  0  0  0  0  0  0
   45.6370   56.4752   33.9408 S   0  0  2  0  0  0  0  0  0  0  0  0
   44.4287   55.1783   33.5283 C   0  0  0  0  0  0  0  0  0  0  0  0
   45.4262   57.6103   32.5530 C   0  0  0  0  0  0  0  0  0  0  0  0
   46.4443   58.7637   32.5344 C   0  0  1  0  0  0  0  0  0  0  0  0
   47.7665   58.2273   32.2330 O   0  0  0  0  0  0  0  0  0  0  0  0
   46.0296   59.5529   31.3193 C   0  0  1  0  0  0  0  0  0  0  0  0
   45.1930   60.6416   31.7113 O   0  0  0  0  0  0  0  0  0  0  0  0
   47.3442   60.0717   30.7497 C   0  0  1  0  0  0  0  0  0  0  0  0
   47.6236   61.4017   31.1712 O   0  0  0  0  0  0  0  0  0  0  0  0
   48.4607   59.0852   31.2522 C   0  0  2  0  0  0  0  0  0  0  0  0
   48.3187   52.5976   34.4006 O   0  0  0  0  0  0  0  0  0  0  0  0
   48.2833   57.4287   26.2716 N   0  0  0  0  0  0  0  0  0  0  0  0
   47.5648   58.4058   26.8356 C   0  0  0  0  0  0  0  0  0  0  0  0
   47.7275   58.7328   28.1079 N   0  0  0  0  0  0  0  0  0  0  0  0
   48.5967   58.0761   28.8937 C   0  0  0  0  0  0  0  0  0  0  0  0
   49.3717   57.0224   28.3448 C   0  0  0  0  0  0  0  0  0  0  0  0
   49.1808   56.7174   26.9734 C   0  0  0  0  0  0  0  0  0  0  0  0
   49.8998   55.7095   26.3710 N   0  0  0  0  0  0  0  0  0  0  0  0
   50.1495   56.5364   29.3327 N   0  0  0  0  0  0  0  0  0  0  0  0
   49.9074   57.1949   30.4282 C   0  0  0  0  0  0  0  0  0  0  0  0
   48.9624   58.1596   30.2151 N   0  0  0  0  0  0  0  0  0  0  0  0
  2  1  1  1  0  0  0
  2  3  1  0  0  0  0
  2  5  1  0  0  0  0
  3  4  1  0  0  0  0
  3 17  1  0  0  0  0
  5  6  1  0  0  0  0
  7  6  1  6  0  0  0
  7  8  1  0  0  0  0
  7  9  1  0  0  0  0
 10  9  1  6  0  0  0
 10 11  1  0  0  0  0
 10 12  1  0  0  0  0
 11 16  1  0  0  0  0
 12 13  1  1  0  0  0
 12 14  1  0  0  0  0
 14 15  1  1  0  0  0
 14 16  1  0  0  0  0
 16 27  1  6  0  0  0
 18 19  2  0  0  0  0
 18 23  1  0  0  0  0
 19 20  1  0  0  0  0
 20 21  2  0  0  0  0
 21 22  1  0  0  0  0
 21 27  1  0  0  0  0
 22 23  2  0  0  0  0
 22 25  1  0  0  0  0
 23 24  1  0  0  0  0
 25 26  2  0  0  0  0
 26 27  1  0  0  0  0
M  END
>  <CHROM.1>
120.04221140,179.49480449,60.85555679,-119.37712875,-67.88779564,68.98940582
114.69316912,47.56055836,57.00524698,31.58122476,-1.91591687,0.98315110,-0.76293915

>  <Name>
ligand

>  <RI>
0

>  <Rbt.Current_Directory>
/home/itssahil/PROJECTS/Mol_Feturizer/New_Systems/rnas/2GIS

>  <Rbt.Executable>
rbdock ($Id: //depot/dev/client3/rdock/2013.1/src/exe/rbdock.cxx#4 $)

>  <Rbt.Library>
libRbt.so (2013.1, Build901 2013/11/27)

>  <Rbt.Parameter_File>
/export/apps/rDock/src/rDock_2013.1_src/data/scripts/dock_solv.prm

>  <Rbt.Receptor>
prm/pocket_docking_5.prm

>  <SCORE>
-20.2437

>  <SCORE.INTER>
-17.0731

>  <SCORE.INTER.CONST>
1

>  <SCORE.INTER.POLAR>
0

>  <SCORE.INTER.ROT>
7

>  <SCORE.INTER.SOLV>
16.6721

>  <SCORE.INTER.VDW>
-25.2061

>  <SCORE.INTER.norm>
-0.632337

>  <SCORE.INTRA>
-3.17063

>  <SCORE.INTRA.DIHEDRAL>
-1.79717

>  <SCORE.INTRA.DIHEDRAL.0>
9.40024

>  <SCORE.INTRA.POLAR>
0

>  <SCORE.INTRA.POLAR.0>
0

>  <SCORE.INTRA.REPUL>
0

>  <SCORE.INTRA.REPUL.0>
0

>  <SCORE.INTRA.SOLV>
-2.84737

>  <SCORE.INTRA.SOLV.lig_0>
-47.1049

>  <SCORE.INTRA.VDW>
-0.848358

>  <SCORE.INTRA.VDW.0>
-1.50278

>  <SCORE.INTRA.norm>
-0.117431

>  <SCORE.RESTR>
0

>  <SCORE.RESTR.CAVITY>
0

>  <SCORE.RESTR.norm>
0

>  <SCORE.SYSTEM>
0

>  <SCORE.SYSTEM.CONST>
0

>  <SCORE.SYSTEM.DIHEDRAL>
0

>  <SCORE.SYSTEM.SOLV>
0

>  <SCORE.SYSTEM.norm>
0

>  <SCORE.heavy>
27

>  <SCORE.norm>
-0.749768

>  <RMSD>
6.396

$$$$
ligand
 OpenBabel11021811433D
libRbt.so/2013.1/901 2013/11/27
 27 29  0  0  0  0  0  0  0  0999 V2000
   47.1771   54.8369   32.2168 N   0  0  0  0  0  0  0  0  0  0  0  0
   48.6133   55.0703   32.3975 C   0  0  2  0  0  0  0  0  0  0  0  0
   49.3202   53.7425   32.6037 C   0  0  0  0  0  0  0  0  0  0  0  0
   49.1193   53.0930   33.6261 O   0  0  0  0  0  0  0  0  0  0  0  0
   48.8703   55.9930   33.6055 C   0  0  0  0  0  0  0  0  0  0  0  0
   48.2247   57.3531   33.3448 C   0  0  0  0  0  0  0  0  0  0  0  0
   49.1090   58.4218   32.1365 S   0  0  2  0  0  0  0  0  0  0  0  0
   50.3696   59.2721   33.1365 C   0  0  0  0  0  0  0  0  0  0  0  0
   47.8270   59.6883   32.0308 C   0  0  0  0  0  0  0  0  0  0  0  0
   46.9022   59.5350   30.8108 C   0  0  1  0  0  0  0  0  0  0  0  0
   47.7172   59.4028   29.6087 O   0  0  0  0  0  0  0  0  0  0  0  0
   46.2747   58.1836   31.0376 C   0  0  1  0  0  0  0  0  0  0  0  0
   44.9991   58.3402   31.6598 O   0  0  0  0  0  0  0  0  0  0  0  0
   46.1146   57.6108   29.6348 C   0  0  1  0  0  0  0  0  0  0  0  0
   44.8060   57.8193   29.1165 O   0  0  0  0  0  0  0  0  0  0  0  0
   47.1866   58.3334   28.7399 C   0  0  2  0  0  0  0  0  0  0  0  0
   50.1431   53.3433   31.7795 O   0  0  0  0  0  0  0  0  0  0  0  0
   49.7586   55.4908   25.1502 N   0  0  0  0  0  0  0  0  0  0  0  0
   48.6011   56.1444   25.0012 C   0  0  0  0  0  0  0  0  0  0  0  0
   48.0727   56.8427   25.9939 N   0  0  0  0  0  0  0  0  0  0  0  0
   48.6593   56.8975   27.2010 C   0  0  0  0  0  0  0  0  0  0  0  0
   49.8814   56.2089   27.4123 C   0  0  0  0  0  0  0  0  0  0  0  0
   50.4232   55.4895   26.3173 C   0  0  0  0  0  0  0  0  0  0  0  0
   51.6077   54.7996   26.4469 N   0  0  0  0  0  0  0  0  0  0  0  0
   50.2487   56.4218   28.6917 N   0  0  0  0  0  0  0  0  0  0  0  0
   49.3552   57.1679   29.2726 C   0  0  0  0  0  0  0  0  0  0  0  0
   48.3555   57.4955   28.3996 N   0  0  0  0  0  0  0  0  0  0  0  0
  2  1  1  1  0  0  0
  2  3  1  0  0  0  0
  2  5  1  0  0  0  0
  3  4  1  0  0  0  0
  3 17  1  0  0  0  0
  5  6  1  0  0  0  0
  7  6  1  1  0  0  0
  7  8  1  0  0  0  0
  7  9  1  0  0  0  0
 10  9  1  1  0  0  0
 10 11  1  0  0  0  0
 10 12  1  0  0  0  0
 11 16  1  0  0  0  0
 12 13  1  6  0  0  0
 12 14  1  0  0  0  0
 14 15  1  6  0  0  0
 14 16  1  0  0  0  0
 16 27  1  1  0  0  0
 18 19  2  0  0  0  0
 18 23  1  0  0  0  0
 19 20  1  0  0  0  0
 20 21  2  0  0  0  0
 21 22  1  0  0  0  0
 21 27  1  0  0  0  0
 22 23  2  0  0  0  0
 22 25  1  0  0  0  0
 23 24  1  0  0  0  0
 25 26  2  0  0  0  0
 26 27  1  0  0  0  0
M  END
>  <CHROM.1>
-67.80292973,-62.34088417,-74.59804161,-85.14594299,-98.32780431,-51.01748883
-140.92864124,48.43259127,56.86418388,30.09852359,-1.88558559,0.93735839
-1.44546006

>  <Name>
ligand

>  <RI>
0

>  <Rbt.Current_Directory>
/home/itssahil/PROJECTS/Mol_Feturizer/New_Systems/rnas/2GIS

>  <Rbt.Executable>
rbdock ($Id: //depot/dev/client3/rdock/2013.1/src/exe/rbdock.cxx#4 $)

>  <Rbt.Library>
libRbt.so (2013.1, Build901 2013/11/27)

>  <Rbt.Parameter_File>
/export/apps/rDock/src/rDock_2013.1_src/data/scripts/dock_solv.prm

>  <Rbt.Receptor>
prm/pocket_docking_4.prm

>  <SCORE>
-16.9416

>  <SCORE.INTER>
-13.9151

>  <SCORE.INTER.CONST>
1

>  <SCORE.INTER.POLAR>
0

>  <SCORE.INTER.ROT>
7

>  <SCORE.INTER.SOLV>
8.92811

>  <SCORE.INTER.VDW>
-20.5195

>  <SCORE.INTER.norm>
-0.515375

>  <SCORE.INTRA>
-3.02645

>  <SCORE.INTRA.DIHEDRAL>
-1.94027

>  <SCORE.INTRA.DIHEDRAL.0>
9.40024

>  <SCORE.INTRA.POLAR>
0

>  <SCORE.INTRA.POLAR.0>
0

>  <SCORE.INTRA.REPUL>
0

>  <SCORE.INTRA.REPUL.0>
0

>  <SCORE.INTRA.SOLV>
-0.385703

>  <SCORE.INTRA.SOLV.lig_0>
-47.1049

>  <SCORE.INTRA.VDW>
-1.86347

>  <SCORE.INTRA.VDW.0>
-1.50278

>  <SCORE.INTRA.norm>
-0.112091

>  <SCORE.RESTR>
0

>  <SCORE.RESTR.CAVITY>
0

>  <SCORE.RESTR.norm>
0

>  <SCORE.SYSTEM>
0

>  <SCORE.SYSTEM.CONST>
0

>  <SCORE.SYSTEM.DIHEDRAL>
0

>  <SCORE.SYSTEM.SOLV>
0

>  <SCORE.SYSTEM.norm>
0

>  <SCORE.heavy>
27

>  <SCORE.norm>
-0.627466

>  <RMSD>
6.400

$$$$
ligand
 OpenBabel11021811433D
libRbt.so/2013.1/901 2013/11/27
 27 29  0  0  0  0  0  0  0  0999 V2000
   47.2635   56.8008   29.0046 N   0  0  0  0  0  0  0  0  0  0  0  0
   48.7172   56.9017   29.1673 C   0  0  2  0  0  0  0  0  0  0  0  0
   49.0366   57.9239   30.2436 C   0  0  0  0  0  0  0  0  0  0  0  0
   48.5443   59.0473   30.1879 O   0  0  0  0  0  0  0  0  0  0  0  0
   49.3894   57.3105   27.8414 C   0  0  0  0  0  0  0  0  0  0  0  0
   49.3511   56.1286   26.8737 C   0  0  0  0  0  0  0  0  0  0  0  0
   50.2874   54.6408   27.4161 S   0  0  2  0  0  0  0  0  0  0  0  0
   52.0202   55.1961   27.4504 C   0  0  0  0  0  0  0  0  0  0  0  0
   50.2205   53.7861   25.8275 C   0  0  0  0  0  0  0  0  0  0  0  0
   48.9917   52.8747   25.6643 C   0  0  1  0  0  0  0  0  0  0  0  0
   48.7100   52.2221   26.9377 O   0  0  0  0  0  0  0  0  0  0  0  0
   47.8733   53.8612   25.4469 C   0  0  1  0  0  0  0  0  0  0  0  0
   47.6248   54.0113   24.0489 O   0  0  0  0  0  0  0  0  0  0  0  0
   46.6748   53.2175   26.1332 C   0  0  1  0  0  0  0  0  0  0  0  0
   45.8496   52.5076   25.2169 O   0  0  0  0  0  0  0  0  0  0  0  0
   47.2610   52.2441   27.2199 C   0  0  2  0  0  0  0  0  0  0  0  0
   49.8375   57.6527   31.1385 O   0  0  0  0  0  0  0  0  0  0  0  0
   49.6357   53.5492   31.7186 N   0  0  0  0  0  0  0  0  0  0  0  0
   50.2016   53.0875   30.5981 C   0  0  0  0  0  0  0  0  0  0  0  0
   49.4779   52.8150   29.5237 N   0  0  0  0  0  0  0  0  0  0  0  0
   48.1425   52.9596   29.5243 C   0  0  0  0  0  0  0  0  0  0  0  0
   47.4946   53.4330   30.6941 C   0  0  0  0  0  0  0  0  0  0  0  0
   48.3087   53.7317   31.8158 C   0  0  0  0  0  0  0  0  0  0  0  0
   47.7505   54.1983   32.9848 N   0  0  0  0  0  0  0  0  0  0  0  0
   46.1732   53.4820   30.4320 N   0  0  0  0  0  0  0  0  0  0  0  0
   45.9652   53.0730   29.2147 C   0  0  0  0  0  0  0  0  0  0  0  0
   47.1441   52.7431   28.6061 N   0  0  0  0  0  0  0  0  0  0  0  0
  2  1  1  6  0  0  0
  2  3  1  0  0  0  0
  2  5  1  0  0  0  0
  3  4  1  0  0  0  0
  3 17  1  0  0  0  0
  5  6  1  0  0  0  0
  7  6  1  6  0  0  0
  7  8  1  0  0  0  0
  7  9  1  0  0  0  0
 10  9  1  1  0  0  0
 10 11  1  0  0  0  0
 10 12  1  0  0  0  0
 11 16  1  0  0  0  0
 12 13  1  6  0  0  0
 12 14  1  0  0  0  0
 14 15  1  6  0  0  0
 14 16  1  0  0  0  0
 16 27  1  1  0  0  0
 18 19  2  0  0  0  0
 18 23  1  0  0  0  0
 19 20  1  0  0  0  0
 20 21  2  0  0  0  0
 21 22  1  0  0  0  0
 21 27  1  0  0  0  0
 22 23  2  0  0  0  0
 22 25  1  0  0  0  0
 23 24  1  0  0  0  0
 25 26  2  0  0  0  0
 26 27  1  0  0  0  0
M  END
>  <CHROM.1>
-51.69770765,-72.53341588,-63.13246413,-64.66553875,-89.94460708,-38.02872628
-8.73892233,48.54351400,54.47105736,28.43856215,-1.21860306,-1.05863788,-1.79646347

>  <Name>
ligand

>  <RI>
0

>  <Rbt.Current_Directory>
/home/itssahil/PROJECTS/Mol_Feturizer/New_Systems/rnas/2GIS

>  <Rbt.Executable>
rbdock ($Id: //depot/dev/client3/rdock/2013.1/src/exe/rbdock.cxx#4 $)

>  <Rbt.Library>
libRbt.so (2013.1, Build901 2013/11/27)

>  <Rbt.Parameter_File>
/export/apps/rDock/src/rDock_2013.1_src/data/scripts/dock_solv.prm

>  <Rbt.Receptor>
prm/pocket_docking_8.prm

>  <SCORE>
-13.5798

>  <SCORE.INTER>
-8.37197

>  <SCORE.INTER.CONST>
1

>  <SCORE.INTER.POLAR>
0

>  <SCORE.INTER.ROT>
7

>  <SCORE.INTER.SOLV>
5.41263

>  <SCORE.INTER.VDW>
-15.6522

>  <SCORE.INTER.norm>
-0.310073

>  <SCORE.INTRA>
-5.20785

>  <SCORE.INTRA.DIHEDRAL>
-2.66073

>  <SCORE.INTRA.DIHEDRAL.0>
9.40024

>  <SCORE.INTRA.POLAR>
0

>  <SCORE.INTRA.POLAR.0>
0

>  <SCORE.INTRA.REPUL>
0

>  <SCORE.INTRA.REPUL.0>
0

>  <SCORE.INTRA.SOLV>
-1.302

>  <SCORE.INTRA.SOLV.lig_0>
-47.1049

>  <SCORE.INTRA.VDW>
-3.22649

>  <SCORE.INTRA.VDW.0>
-1.50278

>  <SCORE.INTRA.norm>
-0.192883

>  <SCORE.RESTR>
0

>  <SCORE.RESTR.CAVITY>
0

>  <SCORE.RESTR.norm>
0

>  <SCORE.SYSTEM>
0

>  <SCORE.SYSTEM.CONST>
0

>  <SCORE.SYSTEM.DIHEDRAL>
0

>  <SCORE.SYSTEM.SOLV>
0

>  <SCORE.SYSTEM.norm>
0

>  <SCORE.heavy>
27

>  <SCORE.norm>
-0.502956

>  <RMSD>
6.401

$$$$
ligand
 OpenBabel11021811433D
libRbt.so/2013.1/901 2013/11/27
 27 29  0  0  0  0  0  0  0  0999 V2000
   48.6558   54.7753   35.4510 N   0  0  0  0  0  0  0  0  0  0  0  0
   47.6314   54.7792   34.4019 C   0  0  2  0  0  0  0  0  0  0  0  0
   46.2556   54.8690   35.0378 C   0  0  0  0  0  0  0  0  0  0  0  0
   45.9734   54.1510   35.9930 O   0  0  0  0  0  0  0  0  0  0  0  0
   47.7268   53.5052   33.5389 C   0  0  0  0  0  0  0  0  0  0  0  0
   48.9888   53.5737   32.6802 C   0  0  0  0  0  0  0  0  0  0  0  0
   48.9751   54.8629   31.3680 S   0  0  2  0  0  0  0  0  0  0  0  0
   50.3691   54.4113   30.2887 C   0  0  0  0  0  0  0  0  0  0  0  0
   49.7146   56.1656   32.3755 C   0  0  0  0  0  0  0  0  0  0  0  0
   49.4806   57.5835   31.8259 C   0  0  1  0  0  0  0  0  0  0  0  0
   50.0563   57.6775   30.4893 O   0  0  0  0  0  0  0  0  0  0  0  0
   47.9858   57.6242   31.6380 C   0  0  1  0  0  0  0  0  0  0  0  0
   47.3720   58.2413   32.7698 O   0  0  0  0  0  0  0  0  0  0  0  0
   47.7933   58.4841   30.3949 C   0  0  1  0  0  0  0  0  0  0  0  0
   47.5073   59.8395   30.7194 O   0  0  0  0  0  0  0  0  0  0  0  0
   49.1324   58.3808   29.5773 C   0  0  2  0  0  0  0  0  0  0  0  0
   45.3991   55.6135   34.5604 O   0  0  0  0  0  0  0  0  0  0  0  0
   51.4548   54.9395   26.3609 N   0  0  0  0  0  0  0  0  0  0  0  0
   51.9737   55.5253   27.4456 C   0  0  0  0  0  0  0  0  0  0  0  0
   51.2622   56.3656   28.1804 N   0  0  0  0  0  0  0  0  0  0  0  0
   50.0014   56.6900   27.8495 C   0  0  0  0  0  0  0  0  0  0  0  0
   49.4118   56.1054   26.6994 C   0  0  0  0  0  0  0  0  0  0  0  0
   50.2015   55.1957   25.9517 C   0  0  0  0  0  0  0  0  0  0  0  0
   49.6952   54.5870   24.8252 N   0  0  0  0  0  0  0  0  0  0  0  0
   48.1607   56.5961   26.5934 N   0  0  0  0  0  0  0  0  0  0  0  0
   47.9462   57.4293   27.5691 C   0  0  0  0  0  0  0  0  0  0  0  0
   49.0448   57.5223   28.3775 N   0  0  0  0  0  0  0  0  0  0  0  0
  2  1  1  1  0  0  0
  2  3  1  0  0  0  0
  2  5  1  0  0  0  0
  3  4  1  0  0  0  0
  3 17  1  0  0  0  0
  5  6  1  0  0  0  0
  7  6  1  1  0  0  0
  7  8  1  0  0  0  0
  7  9  1  0  0  0  0
 10  9  1  6  0  0  0
 10 11  1  0  0  0  0
 10 12  1  0  0  0  0
 11 16  1  0  0  0  0
 12 13  1  1  0  0  0
 12 14  1  0  0  0  0
 14 15  1  1  0  0  0
 14 16  1  0  0  0  0
 16 27  1  6  0  0  0
 18 19  2  0  0  0  0
 18 23  1  0  0  0  0
 19 20  1  0  0  0  0
 20 21  2  0  0  0  0
 21 22  1  0  0  0  0
 21 27  1  0  0  0  0
 22 23  2  0  0  0  0
 22 25  1  0  0  0  0
 23 24  1  0  0  0  0
 25 26  2  0  0  0  0
 26 27  1  0  0  0  0
M  END
>  <CHROM.1>
-46.30680346,-70.71864366,-67.98199515,-165.91392199,-160.83354732,-59.79472653
-30.57981107,48.78311419,56.08015816,30.63222970,-2.39241339,1.06422591,-0.69036044

>  <Name>
ligand

>  <RI>
0

>  <Rbt.Current_Directory>
/home/itssahil/PROJECTS/Mol_Feturizer/New_Systems/rnas/2GIS

>  <Rbt.Executable>
rbdock ($Id: //depot/dev/client3/rdock/2013.1/src/exe/rbdock.cxx#4 $)

>  <Rbt.Library>
libRbt.so (2013.1, Build901 2013/11/27)

>  <Rbt.Parameter_File>
/export/apps/rDock/src/rDock_2013.1_src/data/scripts/dock_solv.prm

>  <Rbt.Receptor>
prm/pocket_docking_7.prm

>  <SCORE>
-13.5267

>  <SCORE.INTER>
-9.97505

>  <SCORE.INTER.CONST>
1

>  <SCORE.INTER.POLAR>
0

>  <SCORE.INTER.ROT>
7

>  <SCORE.INTER.SOLV>
8.0274

>  <SCORE.INTER.VDW>
-17.5925

>  <SCORE.INTER.norm>
-0.369446

>  <SCORE.INTRA>
-3.55165

>  <SCORE.INTRA.DIHEDRAL>
-2.48365

>  <SCORE.INTRA.DIHEDRAL.0>
9.40024

>  <SCORE.INTRA.POLAR>
0

>  <SCORE.INTRA.POLAR.0>
0

>  <SCORE.INTRA.REPUL>
0

>  <SCORE.INTRA.REPUL.0>
0

>  <SCORE.INTRA.SOLV>
-0.755878

>  <SCORE.INTRA.SOLV.lig_0>
-47.1049

>  <SCORE.INTRA.VDW>
-1.93189

>  <SCORE.INTRA.VDW.0>
-1.50278

>  <SCORE.INTRA.norm>
-0.131543

>  <SCORE.RESTR>
0

>  <SCORE.RESTR.CAVITY>
0

>  <SCORE.RESTR.norm>
0

>  <SCORE.SYSTEM>
0

>  <SCORE.SYSTEM.CONST>
0

>  <SCORE.SYSTEM.DIHEDRAL>
0

>  <SCORE.SYSTEM.SOLV>
0

>  <SCORE.SYSTEM.norm>
0

>  <SCORE.heavy>
27

>  <SCORE.norm>
-0.500989

>  <RMSD>
6.413

$$$$
ligand
 OpenBabel11021811433D
libRbt.so/2013.1/901 2013/11/27
 27 29  0  0  0  0  0  0  0  0999 V2000
   48.6024   53.9963   29.3761 N   0  0  0  0  0  0  0  0  0  0  0  0
   49.4093   55.0610   29.9805 C   0  0  2  0  0  0  0  0  0  0  0  0
   50.7688   55.1108   29.3063 C   0  0  0  0  0  0  0  0  0  0  0  0
   51.2453   56.1899   28.9658 O   0  0  0  0  0  0  0  0  0  0  0  0
   49.5842   54.8233   31.4937 C   0  0  0  0  0  0  0  0  0  0  0  0
   50.1274   56.0956   32.1424 C   0  0  0  0  0  0  0  0  0  0  0  0
   48.8594   57.3534   32.5836 S   0  0  2  0  0  0  0  0  0  0  0  0
   49.8038   58.6538   33.4375 C   0  0  0  0  0  0  0  0  0  0  0  0
   48.1679   56.4425   33.9803 C   0  0  0  0  0  0  0  0  0  0  0  0
   47.0748   55.4349   33.5841 C   0  0  1  0  0  0  0  0  0  0  0  0
   47.1514   54.2769   34.4673 O   0  0  0  0  0  0  0  0  0  0  0  0
   45.8060   56.1579   33.9567 C   0  0  1  0  0  0  0  0  0  0  0  0
   45.2624   56.8062   32.8065 O   0  0  0  0  0  0  0  0  0  0  0  0
   44.8749   55.0489   34.4310 C   0  0  1  0  0  0  0  0  0  0  0  0
   43.9925   54.6134   33.4032 O   0  0  0  0  0  0  0  0  0  0  0  0
   45.8009   53.8692   34.9029 C   0  0  2  0  0  0  0  0  0  0  0  0
   51.3684   54.0686   29.0414 O   0  0  0  0  0  0  0  0  0  0  0  0
   48.6657   54.3865   39.2740 N   0  0  0  0  0  0  0  0  0  0  0  0
   49.0292   54.6705   38.0185 C   0  0  0  0  0  0  0  0  0  0  0  0
   48.1916   54.5080   37.0064 N   0  0  0  0  0  0  0  0  0  0  0  0
   46.9539   54.0208   37.1935 C   0  0  0  0  0  0  0  0  0  0  0  0
   46.5270   53.6913   38.5055 C   0  0  0  0  0  0  0  0  0  0  0  0
   47.4481   53.8991   39.5632 C   0  0  0  0  0  0  0  0  0  0  0  0
   47.1030   53.6051   40.8633 N   0  0  0  0  0  0  0  0  0  0  0  0
   45.2647   53.2273   38.4148 N   0  0  0  0  0  0  0  0  0  0  0  0
   44.8956   53.2387   37.1674 C   0  0  0  0  0  0  0  0  0  0  0  0
   45.8952   53.7231   36.3705 N   0  0  0  0  0  0  0  0  0  0  0  0
  2  1  1  6  0  0  0
  2  3  1  0  0  0  0
  2  5  1  0  0  0  0
  3  4  1  0  0  0  0
  3 17  1  0  0  0  0
  5  6  1  0  0  0  0
  7  6  1  1  0  0  0
  7  8  1  0  0  0  0
  7  9  1  0  0  0  0
 10  9  1  1  0  0  0
 10 11  1  0  0  0  0
 10 12  1  0  0  0  0
 11 16  1  0  0  0  0
 12 13  1  6  0  0  0
 12 14  1  0  0  0  0
 14 15  1  6  0  0  0
 14 16  1  0  0  0  0
 16 27  1  1  0  0  0
 18 19  2  0  0  0  0
 18 23  1  0  0  0  0
 19 20  1  0  0  0  0
 20 21  2  0  0  0  0
 21 22  1  0  0  0  0
 21 27  1  0  0  0  0
 22 23  2  0  0  0  0
 22 25  1  0  0  0  0
 23 24  1  0  0  0  0
 25 26  2  0  0  0  0
 26 27  1  0  0  0  0
M  END
>  <CHROM.1>
134.34682381,-166.51599948,84.07436321,175.66427544,-86.09021085,146.03751503
5.83121972,47.77807235,55.07672306,34.24147631,1.17719663,-0.15270806,-1.41771386

>  <Name>
ligand

>  <RI>
0

>  <Rbt.Current_Directory>
/home/itssahil/PROJECTS/Mol_Feturizer/New_Systems/rnas/2GIS

>  <Rbt.Executable>
rbdock ($Id: //depot/dev/client3/rdock/2013.1/src/exe/rbdock.cxx#4 $)

>  <Rbt.Library>
libRbt.so (2013.1, Build901 2013/11/27)

>  <Rbt.Parameter_File>
/export/apps/rDock/src/rDock_2013.1_src/data/scripts/dock_solv.prm

>  <Rbt.Receptor>
prm/pocket_docking_7.prm

>  <SCORE>
-19.5323

>  <SCORE.INTER>
-16.804

>  <SCORE.INTER.CONST>
1

>  <SCORE.INTER.POLAR>
0

>  <SCORE.INTER.ROT>
7

>  <SCORE.INTER.SOLV>
5.37987

>  <SCORE.INTER.VDW>
-21.2626

>  <SCORE.INTER.norm>
-0.62237

>  <SCORE.INTRA>
-2.72832

>  <SCORE.INTRA.DIHEDRAL>
0.512471

>  <SCORE.INTRA.DIHEDRAL.0>
9.40024

>  <SCORE.INTRA.POLAR>
0

>  <SCORE.INTRA.POLAR.0>
0

>  <SCORE.INTRA.REPUL>
0

>  <SCORE.INTRA.REPUL.0>
0

>  <SCORE.INTRA.SOLV>
-2.86666

>  <SCORE.INTRA.SOLV.lig_0>
-47.1049

>  <SCORE.INTRA.VDW>
-1.55122

>  <SCORE.INTRA.VDW.0>
-1.50278

>  <SCORE.INTRA.norm>
-0.101049

>  <SCORE.RESTR>
0

>  <SCORE.RESTR.CAVITY>
0

>  <SCORE.RESTR.norm>
0

>  <SCORE.SYSTEM>
0

>  <SCORE.SYSTEM.CONST>
0

>  <SCORE.SYSTEM.DIHEDRAL>
0

>  <SCORE.SYSTEM.SOLV>
0

>  <SCORE.SYSTEM.norm>
0

>  <SCORE.heavy>
27

>  <SCORE.norm>
-0.723419

>  <RMSD>
6.417

$$$$
ligand
 OpenBabel11021811433D
libRbt.so/2013.1/901 2013/11/27
 27 29  0  0  0  0  0  0  0  0999 V2000
   45.4011   53.8426   35.1899 N   0  0  0  0  0  0  0  0  0  0  0  0
   46.4876   54.0027   34.2185 C   0  0  2  0  0  0  0  0  0  0  0  0
   47.7272   53.2850   34.7222 C   0  0  0  0  0  0  0  0  0  0  0  0
   47.9333   53.1906   35.9289 O   0  0  0  0  0  0  0  0  0  0  0  0
   46.8030   55.4945   33.9908 C   0  0  0  0  0  0  0  0  0  0  0  0
   47.8295   55.6249   32.8666 C   0  0  0  0  0  0  0  0  0  0  0  0
   49.4197   56.4164   33.3451 S   0  0  2  0  0  0  0  0  0  0  0  0
   49.8111   55.6813   34.9633 C   0  0  0  0  0  0  0  0  0  0  0  0
   48.7027   57.9979   33.8384 C   0  0  0  0  0  0  0  0  0  0  0  0
   48.4753   58.9687   32.6667 C   0  0  1  0  0  0  0  0  0  0  0  0
   49.5317   58.7794   31.6792 O   0  0  0  0  0  0  0  0  0  0  0  0
   47.2153   58.4362   32.0340 C   0  0  1  0  0  0  0  0  0  0  0  0
   46.0859   59.1638   32.5175 O   0  0  0  0  0  0  0  0  0  0  0  0
   47.4136   58.6913   30.5450 C   0  0  1  0  0  0  0  0  0  0  0  0
   46.7847   59.8943   30.1185 O   0  0  0  0  0  0  0  0  0  0  0  0
   48.9672   58.7667   30.3150 C   0  0  2  0  0  0  0  0  0  0  0  0
   48.5600   52.8521   33.9255 O   0  0  0  0  0  0  0  0  0  0  0  0
   49.4364   55.7970   26.0090 N   0  0  0  0  0  0  0  0  0  0  0  0
   48.7278   56.9220   26.1544 C   0  0  0  0  0  0  0  0  0  0  0  0
   48.7147   57.5834   27.3010 N   0  0  0  0  0  0  0  0  0  0  0  0
   49.3856   57.1356   28.3750 C   0  0  0  0  0  0  0  0  0  0  0  0
   50.1406   55.9389   28.2743 C   0  0  0  0  0  0  0  0  0  0  0  0
   50.1437   55.2722   27.0230 C   0  0  0  0  0  0  0  0  0  0  0  0
   50.8562   54.1069   26.8494 N   0  0  0  0  0  0  0  0  0  0  0  0
   50.7048   55.7150   29.4779 N   0  0  0  0  0  0  0  0  0  0  0  0
   50.3516   56.6623   30.2965 C   0  0  0  0  0  0  0  0  0  0  0  0
   49.5426   57.5685   29.6691 N   0  0  0  0  0  0  0  0  0  0  0  0
  2  1  1  1  0  0  0
  2  3  1  0  0  0  0
  2  5  1  0  0  0  0
  3  4  1  0  0  0  0
  3 17  1  0  0  0  0
  5  6  1  0  0  0  0
  7  6  1  1  0  0  0
  7  8  1  0  0  0  0
  7  9  1  0  0  0  0
 10  9  1  1  0  0  0
 10 11  1  0  0  0  0
 10 12  1  0  0  0  0
 11 16  1  0  0  0  0
 12 13  1  1  0  0  0
 12 14  1  0  0  0  0
 14 15  1  1  0  0  0
 14 16  1  0  0  0  0
 16 27  1  6  0  0  0
 18 19  2  0  0  0  0
 18 23  1  0  0  0  0
 19 20  1  0  0  0  0
 20 21  2  0  0  0  0
 21 22  1  0  0  0  0
 21 27  1  0  0  0  0
 22 23  2  0  0  0  0
 22 25  1  0  0  0  0
 23 24  1  0  0  0  0
 25 26  2  0  0  0  0
 26 27  1  0  0  0  0
M  END
>  <CHROM.1>
-30.76972432,-173.92174807,-119.03408530,42.40673455,-83.90916464,-33.83980386
-176.66098009,48.56875789,56.44288879,31.40100742,-2.23188631,1.15739093
-0.67126317

>  <Name>
ligand

>  <RI>
0

>  <Rbt.Current_Directory>
/home/itssahil/PROJECTS/Mol_Feturizer/New_Systems/rnas/2GIS

>  <Rbt.Executable>
rbdock ($Id: //depot/dev/client3/rdock/2013.1/src/exe/rbdock.cxx#4 $)

>  <Rbt.Library>
libRbt.so (2013.1, Build901 2013/11/27)

>  <Rbt.Parameter_File>
/export/apps/rDock/src/rDock_2013.1_src/data/scripts/dock_solv.prm

>  <Rbt.Receptor>
prm/pocket_docking_3.prm

>  <SCORE>
-14.0655

>  <SCORE.INTER>
-13.7027

>  <SCORE.INTER.CONST>
1

>  <SCORE.INTER.POLAR>
0

>  <SCORE.INTER.ROT>
7

>  <SCORE.INTER.SOLV>
8.21596

>  <SCORE.INTER.VDW>
-20.1405

>  <SCORE.INTER.norm>
-0.507508

>  <SCORE.INTRA>
-0.362745

>  <SCORE.INTRA.DIHEDRAL>
2.40978

>  <SCORE.INTRA.DIHEDRAL.0>
9.40024

>  <SCORE.INTRA.POLAR>
0

>  <SCORE.INTRA.POLAR.0>
0

>  <SCORE.INTRA.REPUL>
0

>  <SCORE.INTRA.REPUL.0>
0

>  <SCORE.INTRA.SOLV>
-2.61933

>  <SCORE.INTRA.SOLV.lig_0>
-47.1049

>  <SCORE.INTRA.VDW>
-0.25797

>  <SCORE.INTRA.VDW.0>
-1.50278

>  <SCORE.INTRA.norm>
-0.013435

>  <SCORE.RESTR>
0

>  <SCORE.RESTR.CAVITY>
0

>  <SCORE.RESTR.norm>
0

>  <SCORE.SYSTEM>
0

>  <SCORE.SYSTEM.CONST>
0

>  <SCORE.SYSTEM.DIHEDRAL>
0

>  <SCORE.SYSTEM.SOLV>
0

>  <SCORE.SYSTEM.norm>
0

>  <SCORE.heavy>
27

>  <SCORE.norm>
-0.520943

>  <RMSD>
6.418

$$$$
ligand
 OpenBabel11021811433D
libRbt.so/2013.1/901 2013/11/27
 27 29  0  0  0  0  0  0  0  0999 V2000
   43.6268   52.7867   33.2868 N   0  0  0  0  0  0  0  0  0  0  0  0
   44.8056   52.9172   34.1489 C   0  0  2  0  0  0  0  0  0  0  0  0
   44.4266   53.6638   35.4155 C   0  0  0  0  0  0  0  0  0  0  0  0
   43.6054   54.5753   35.3677 O   0  0  0  0  0  0  0  0  0  0  0  0
   45.9376   53.6670   33.4186 C   0  0  0  0  0  0  0  0  0  0  0  0
   47.1443   53.7835   34.3486 C   0  0  0  0  0  0  0  0  0  0  0  0
   48.5785   54.7071   33.6598 S   0  0  2  0  0  0  0  0  0  0  0  0
   49.4831   55.2818   35.1307 C   0  0  0  0  0  0  0  0  0  0  0  0
   47.6511   56.1898   33.2123 C   0  0  0  0  0  0  0  0  0  0  0  0
   48.5396   57.4032   32.8878 C   0  0  1  0  0  0  0  0  0  0  0  0
   49.6351   56.9748   32.0257 O   0  0  0  0  0  0  0  0  0  0  0  0
   47.6406   58.2519   32.0259 C   0  0  1  0  0  0  0  0  0  0  0  0
   47.0098   59.2540   32.8237 O   0  0  0  0  0  0  0  0  0  0  0  0
   48.5900   58.8928   31.0212 C   0  0  1  0  0  0  0  0  0  0  0  0
   48.9815   60.2032   31.4138 O   0  0  0  0  0  0  0  0  0  0  0  0
   49.8409   57.9444   30.9315 C   0  0  2  0  0  0  0  0  0  0  0  0
   44.9858   53.4019   36.4807 O   0  0  0  0  0  0  0  0  0  0  0  0
   48.2023   57.1764   26.0013 N   0  0  0  0  0  0  0  0  0  0  0  0
   47.8419   58.1531   26.8411 C   0  0  0  0  0  0  0  0  0  0  0  0
   48.3531   58.2364   28.0593 N   0  0  0  0  0  0  0  0  0  0  0  0
   49.2297   57.3260   28.5142 C   0  0  0  0  0  0  0  0  0  0  0  0
   49.6321   56.2630   27.6654 C   0  0  0  0  0  0  0  0  0  0  0  0
   49.0758   56.2220   26.3620 C   0  0  0  0  0  0  0  0  0  0  0  0
   49.4217   55.2216   25.4814 N   0  0  0  0  0  0  0  0  0  0  0  0
   50.5019   55.5006   28.3578 N   0  0  0  0  0  0  0  0  0  0  0  0
   50.6532   56.0020   29.5486 C   0  0  0  0  0  0  0  0  0  0  0  0
   49.8969   57.1309   29.6989 N   0  0  0  0  0  0  0  0  0  0  0  0
  2  1  1  6  0  0  0
  2  3  1  0  0  0  0
  2  5  1  0  0  0  0
  3  4  1  0  0  0  0
  3 17  1  0  0  0  0
  5  6  1  0  0  0  0
  7  6  1  1  0  0  0
  7  8  1  0  0  0  0
  7  9  1  0  0  0  0
 10  9  1  6  0  0  0
 10 11  1  0  0  0  0
 10 12  1  0  0  0  0
 11 16  1  0  0  0  0
 12 13  1  1  0  0  0
 12 14  1  0  0  0  0
 14 15  1  1  0  0  0
 14 16  1  0  0  0  0
 16 27  1  6  0  0  0
 18 19  2  0  0  0  0
 18 23  1  0  0  0  0
 19 20  1  0  0  0  0
 20 21  2  0  0  0  0
 21 22  1  0  0  0  0
 21 27  1  0  0  0  0
 22 23  2  0  0  0  0
 22 25  1  0  0  0  0
 23 24  1  0  0  0  0
 25 26  2  0  0  0  0
 26 27  1  0  0  0  0
M  END
>  <CHROM.1>
-35.95196452,179.93067226,-177.96212731,156.52527277,165.98211347,44.90815179
131.63422759,47.89063562,56.12265550,31.50138497,2.43957791,0.96814838,1.22580088

>  <Name>
ligand

>  <RI>
0

>  <Rbt.Current_Directory>
/home/itssahil/PROJECTS/Mol_Feturizer/New_Systems/rnas/2GIS

>  <Rbt.Executable>
rbdock ($Id: //depot/dev/client3/rdock/2013.1/src/exe/rbdock.cxx#4 $)

>  <Rbt.Library>
libRbt.so (2013.1, Build901 2013/11/27)

>  <Rbt.Parameter_File>
/export/apps/rDock/src/rDock_2013.1_src/data/scripts/dock_solv.prm

>  <Rbt.Receptor>
prm/pocket_docking_6.prm

>  <SCORE>
-15.5496

>  <SCORE.INTER>
-11.8477

>  <SCORE.INTER.CONST>
1

>  <SCORE.INTER.POLAR>
0

>  <SCORE.INTER.ROT>
7

>  <SCORE.INTER.SOLV>
11.2911

>  <SCORE.INTER.VDW>
-19.9288

>  <SCORE.INTER.norm>
-0.438803

>  <SCORE.INTRA>
-3.70187

>  <SCORE.INTRA.DIHEDRAL>
-4.82462

>  <SCORE.INTRA.DIHEDRAL.0>
9.40024

>  <SCORE.INTRA.POLAR>
0

>  <SCORE.INTRA.POLAR.0>
0

>  <SCORE.INTRA.REPUL>
0

>  <SCORE.INTRA.REPUL.0>
0

>  <SCORE.INTRA.SOLV>
-3.07888

>  <SCORE.INTRA.SOLV.lig_0>
-47.1049

>  <SCORE.INTRA.VDW>
0.24988

>  <SCORE.INTRA.VDW.0>
-1.50278

>  <SCORE.INTRA.norm>
-0.137106

>  <SCORE.RESTR>
0

>  <SCORE.RESTR.CAVITY>
0

>  <SCORE.RESTR.norm>
0

>  <SCORE.SYSTEM>
0

>  <SCORE.SYSTEM.CONST>
0

>  <SCORE.SYSTEM.DIHEDRAL>
0

>  <SCORE.SYSTEM.SOLV>
0

>  <SCORE.SYSTEM.norm>
0

>  <SCORE.heavy>
27

>  <SCORE.norm>
-0.57591

>  <RMSD>
6.445

$$$$
ligand
 OpenBabel11021811433D
libRbt.so/2013.1/901 2013/11/27
 27 29  0  0  0  0  0  0  0  0999 V2000
   48.2259   54.1893   33.8933 N   0  0  0  0  0  0  0  0  0  0  0  0
   49.3049   54.7440   34.7167 C   0  0  2  0  0  0  0  0  0  0  0  0
   48.7697   55.0712   36.0994 C   0  0  0  0  0  0  0  0  0  0  0  0
   49.5033   55.5956   36.9327 O   0  0  0  0  0  0  0  0  0  0  0  0
   49.8906   56.0142   34.0683 C   0  0  0  0  0  0  0  0  0  0  0  0
   48.7492   56.9571   33.6903 C   0  0  0  0  0  0  0  0  0  0  0  0
   49.1748   58.2440   32.4465 S   0  0  2  0  0  0  0  0  0  0  0  0
   50.3838   59.3028   33.3006 C   0  0  0  0  0  0  0  0  0  0  0  0
   47.6599   59.2056   32.6437 C   0  0  0  0  0  0  0  0  0  0  0  0
   46.6310   58.9799   31.5223 C   0  0  1  0  0  0  0  0  0  0  0  0
   47.3044   59.0728   30.2321 O   0  0  0  0  0  0  0  0  0  0  0  0
   46.2642   57.5284   31.6956 C   0  0  1  0  0  0  0  0  0  0  0  0
   45.0654   57.4202   32.4636 O   0  0  0  0  0  0  0  0  0  0  0  0
   46.0302   57.0344   30.2733 C   0  0  1  0  0  0  0  0  0  0  0  0
   44.6519   57.0500   29.9202 O   0  0  0  0  0  0  0  0  0  0  0  0
   46.8534   57.9904   29.3349 C   0  0  2  0  0  0  0  0  0  0  0  0
   47.6211   54.7554   36.4107 O   0  0  0  0  0  0  0  0  0  0  0  0
   50.8384   54.6297   29.9729 N   0  0  0  0  0  0  0  0  0  0  0  0
   49.8310   54.8749   30.8178 C   0  0  0  0  0  0  0  0  0  0  0  0
   48.8766   55.7416   30.5173 N   0  0  0  0  0  0  0  0  0  0  0  0
   48.8972   56.4345   29.3668 C   0  0  0  0  0  0  0  0  0  0  0  0
   49.9532   56.2196   28.4443 C   0  0  0  0  0  0  0  0  0  0  0  0
   50.9441   55.2685   28.7961 C   0  0  0  0  0  0  0  0  0  0  0  0
   51.9973   55.0049   27.9493 N   0  0  0  0  0  0  0  0  0  0  0  0
   49.7396   57.0316   27.3897 N   0  0  0  0  0  0  0  0  0  0  0  0
   48.6567   57.7221   27.5967 C   0  0  0  0  0  0  0  0  0  0  0  0
   48.0930   57.3914   28.7975 N   0  0  0  0  0  0  0  0  0  0  0  0
  2  1  1  6  0  0  0
  2  3  1  0  0  0  0
  2  5  1  0  0  0  0
  3  4  1  0  0  0  0
  3 17  1  0  0  0  0
  5  6  1  0  0  0  0
  7  6  1  1  0  0  0
  7  8  1  0  0  0  0
  7  9  1  0  0  0  0
 10  9  1  1  0  0  0
 10 11  1  0  0  0  0
 10 12  1  0  0  0  0
 11 16  1  0  0  0  0
 12 13  1  1  0  0  0
 12 14  1  0  0  0  0
 14 15  1  6  0  0  0
 14 16  1  0  0  0  0
 16 27  1  1  0  0  0
 18 19  2  0  0  0  0
 18 23  1  0  0  0  0
 19 20  1  0  0  0  0
 20 21  2  0  0  0  0
 21 22  1  0  0  0  0
 21 27  1  0  0  0  0
 22 23  2  0  0  0  0
 22 25  1  0  0  0  0
 23 24  1  0  0  0  0
 25 26  2  0  0  0  0
 26 27  1  0  0  0  0
M  END
>  <CHROM.1>
-177.25777046,49.62805742,-161.14075455,-65.98705416,-102.25867836,-47.69931238
83.68412957,48.49613338,56.74574385,31.58885949,-1.61614891,0.59085386,-1.38653826

>  <Name>
ligand

>  <RI>
0

>  <Rbt.Current_Directory>
/home/itssahil/PROJECTS/Mol_Feturizer/New_Systems/rnas/2GIS

>  <Rbt.Executable>
rbdock ($Id: //depot/dev/client3/rdock/2013.1/src/exe/rbdock.cxx#4 $)

>  <Rbt.Library>
libRbt.so (2013.1, Build901 2013/11/27)

>  <Rbt.Parameter_File>
/export/apps/rDock/src/rDock_2013.1_src/data/scripts/dock_solv.prm

>  <Rbt.Receptor>
prm/pocket_docking_3.prm

>  <SCORE>
-16.287

>  <SCORE.INTER>
-12.8232

>  <SCORE.INTER.CONST>
1

>  <SCORE.INTER.POLAR>
0

>  <SCORE.INTER.ROT>
7

>  <SCORE.INTER.SOLV>
11.5762

>  <SCORE.INTER.VDW>
-20.6742

>  <SCORE.INTER.norm>
-0.474932

>  <SCORE.INTRA>
-3.46386

>  <SCORE.INTRA.DIHEDRAL>
-1.21778

>  <SCORE.INTRA.DIHEDRAL.0>
9.40024

>  <SCORE.INTRA.POLAR>
0

>  <SCORE.INTRA.POLAR.0>
0

>  <SCORE.INTRA.REPUL>
0

>  <SCORE.INTRA.REPUL.0>
0

>  <SCORE.INTRA.SOLV>
-1.28692

>  <SCORE.INTRA.SOLV.lig_0>
-47.1049

>  <SCORE.INTRA.VDW>
-2.2115

>  <SCORE.INTRA.VDW.0>
-1.50278

>  <SCORE.INTRA.norm>
-0.128291

>  <SCORE.RESTR>
0

>  <SCORE.RESTR.CAVITY>
0

>  <SCORE.RESTR.norm>
0

>  <SCORE.SYSTEM>
0

>  <SCORE.SYSTEM.CONST>
0

>  <SCORE.SYSTEM.DIHEDRAL>
0

>  <SCORE.SYSTEM.SOLV>
0

>  <SCORE.SYSTEM.norm>
0

>  <SCORE.heavy>
27

>  <SCORE.norm>
-0.603223

>  <RMSD>
6.446

$$$$
ligand
 OpenBabel11021811433D
libRbt.so/2013.1/901 2013/11/27
 27 29  0  0  0  0  0  0  0  0999 V2000
   48.3809   54.1636   23.6028 N   0  0  0  0  0  0  0  0  0  0  0  0
   47.9306   54.0524   24.9937 C   0  0  2  0  0  0  0  0  0  0  0  0
   48.7328   55.0041   25.8633 C   0  0  0  0  0  0  0  0  0  0  0  0
   49.9519   54.8824   25.9428 O   0  0  0  0  0  0  0  0  0  0  0  0
   48.0950   52.6086   25.5087 C   0  0  0  0  0  0  0  0  0  0  0  0
   47.2648   52.4309   26.7790 C   0  0  0  0  0  0  0  0  0  0  0  0
   47.9688   53.2079   28.2906 S   0  0  2  0  0  0  0  0  0  0  0  0
   49.1804   51.9902   28.8914 C   0  0  0  0  0  0  0  0  0  0  0  0
   46.5557   52.8584   29.3582 C   0  0  0  0  0  0  0  0  0  0  0  0
   45.3302   53.7446   29.0757 C   0  0  1  0  0  0  0  0  0  0  0  0
   44.2447   53.3554   29.9686 O   0  0  0  0  0  0  0  0  0  0  0  0
   45.7869   55.1021   29.5446 C   0  0  1  0  0  0  0  0  0  0  0  0
   46.2679   55.8611   28.4350 O   0  0  0  0  0  0  0  0  0  0  0  0
   44.5262   55.7385   30.1168 C   0  0  1  0  0  0  0  0  0  0  0  0
   43.8817   56.5906   29.1771 O   0  0  0  0  0  0  0  0  0  0  0  0
   43.5813   54.5505   30.5266 C   0  0  2  0  0  0  0  0  0  0  0  0
   48.1598   55.8584   26.5399 O   0  0  0  0  0  0  0  0  0  0  0  0
   42.2246   51.3559   34.4681 N   0  0  0  0  0  0  0  0  0  0  0  0
   42.0867   51.1406   33.1552 C   0  0  0  0  0  0  0  0  0  0  0  0
   42.4931   52.0325   32.2654 N   0  0  0  0  0  0  0  0  0  0  0  0
   43.0306   53.2039   32.6438 C   0  0  0  0  0  0  0  0  0  0  0  0
   43.1846   53.4844   34.0258 C   0  0  0  0  0  0  0  0  0  0  0  0
   42.7547   52.4942   34.9449 C   0  0  0  0  0  0  0  0  0  0  0  0
   42.8755   52.6949   36.3017 N   0  0  0  0  0  0  0  0  0  0  0  0
   43.7374   54.7095   34.1299 N   0  0  0  0  0  0  0  0  0  0  0  0
   43.9219   55.1960   32.9376 C   0  0  0  0  0  0  0  0  0  0  0  0
   43.5092   54.3087   31.9828 N   0  0  0  0  0  0  0  0  0  0  0  0
  2  1  1  6  0  0  0
  2  3  1  0  0  0  0
  2  5  1  0  0  0  0
  3  4  1  0  0  0  0
  3 17  1  0  0  0  0
  5  6  1  0  0  0  0
  7  6  1  6  0  0  0
  7  8  1  0  0  0  0
  7  9  1  0  0  0  0
 10  9  1  1  0  0  0
 10 11  1  0  0  0  0
 10 12  1  0  0  0  0
 11 16  1  0  0  0  0
 12 13  1  6  0  0  0
 12 14  1  0  0  0  0
 14 15  1  6  0  0  0
 14 16  1  0  0  0  0
 16 27  1  1  0  0  0
 18 19  2  0  0  0  0
 18 23  1  0  0  0  0
 19 20  1  0  0  0  0
 20 21  2  0  0  0  0
 21 22  1  0  0  0  0
 21 27  1  0  0  0  0
 22 23  2  0  0  0  0
 22 25  1  0  0  0  0
 23 24  1  0  0  0  0
 25 26  2  0  0  0  0
 26 27  1  0  0  0  0
M  END
>  <CHROM.1>
-60.45762008,-163.76681941,-75.05269709,-82.59110486,-73.75288294,178.63086734
-50.95204414,45.59609123,53.80797318,29.79299535,0.49485581,0.85813120,-0.47847674

>  <Name>
ligand

>  <RI>
0

>  <Rbt.Current_Directory>
/home/itssahil/PROJECTS/Mol_Feturizer/New_Systems/rnas/2GIS

>  <Rbt.Executable>
rbdock ($Id: //depot/dev/client3/rdock/2013.1/src/exe/rbdock.cxx#4 $)

>  <Rbt.Library>
libRbt.so (2013.1, Build901 2013/11/27)

>  <Rbt.Parameter_File>
/export/apps/rDock/src/rDock_2013.1_src/data/scripts/dock_solv.prm

>  <Rbt.Receptor>
prm/pocket_docking_8.prm

>  <SCORE>
-10.8823

>  <SCORE.INTER>
-6.08659

>  <SCORE.INTER.CONST>
1

>  <SCORE.INTER.POLAR>
0

>  <SCORE.INTER.ROT>
7

>  <SCORE.INTER.SOLV>
7.63428

>  <SCORE.INTER.VDW>
-14.8692

>  <SCORE.INTER.norm>
-0.225429

>  <SCORE.INTRA>
-4.79572

>  <SCORE.INTRA.DIHEDRAL>
-3.71033

>  <SCORE.INTRA.DIHEDRAL.0>
9.40024

>  <SCORE.INTRA.POLAR>
0

>  <SCORE.INTRA.POLAR.0>
0

>  <SCORE.INTRA.REPUL>
0

>  <SCORE.INTRA.REPUL.0>
0

>  <SCORE.INTRA.SOLV>
-2.56275

>  <SCORE.INTRA.SOLV.lig_0>
-47.1049

>  <SCORE.INTRA.VDW>
-1.65917

>  <SCORE.INTRA.VDW.0>
-1.50278

>  <SCORE.INTRA.norm>
-0.177619

>  <SCORE.RESTR>
0

>  <SCORE.RESTR.CAVITY>
0

>  <SCORE.RESTR.norm>
0

>  <SCORE.SYSTEM>
0

>  <SCORE.SYSTEM.CONST>
0

>  <SCORE.SYSTEM.DIHEDRAL>
0

>  <SCORE.SYSTEM.SOLV>
0

>  <SCORE.SYSTEM.norm>
0

>  <SCORE.heavy>
27

>  <SCORE.norm>
-0.403048

>  <RMSD>
6.454

$$$$
ligand
 OpenBabel11021811433D
libRbt.so/2013.1/901 2013/11/27
 27 29  0  0  0  0  0  0  0  0999 V2000
   46.9566   55.1844   33.2063 N   0  0  0  0  0  0  0  0  0  0  0  0
   48.1370   54.6355   33.8811 C   0  0  2  0  0  0  0  0  0  0  0  0
   47.7031   53.8737   35.1207 C   0  0  0  0  0  0  0  0  0  0  0  0
   47.7867   52.6491   35.1486 O   0  0  0  0  0  0  0  0  0  0  0  0
   49.1155   55.7603   34.2739 C   0  0  0  0  0  0  0  0  0  0  0  0
   49.9846   56.1137   33.0680 C   0  0  0  0  0  0  0  0  0  0  0  0
   49.0628   56.6249   31.5603 S   0  0  2  0  0  0  0  0  0  0  0  0
   50.2631   56.4025   30.2105 C   0  0  0  0  0  0  0  0  0  0  0  0
   49.1871   58.4013   31.8560 C   0  0  0  0  0  0  0  0  0  0  0  0
   48.3585   59.2528   30.8785 C   0  0  1  0  0  0  0  0  0  0  0  0
   48.7642   58.9409   29.5129 O   0  0  0  0  0  0  0  0  0  0  0  0
   46.9711   58.6865   31.0390 C   0  0  1  0  0  0  0  0  0  0  0  0
   46.2260   59.4840   31.9596 O   0  0  0  0  0  0  0  0  0  0  0  0
   46.3686   58.7845   29.6428 C   0  0  1  0  0  0  0  0  0  0  0  0
   45.5701   59.9514   29.4840 O   0  0  0  0  0  0  0  0  0  0  0  0
   47.5806   58.8020   28.6414 C   0  0  2  0  0  0  0  0  0  0  0  0
   47.2081   54.4731   36.0755 O   0  0  0  0  0  0  0  0  0  0  0  0
   47.2062   53.5638   28.5966 N   0  0  0  0  0  0  0  0  0  0  0  0
   46.8698   54.4003   29.5846 C   0  0  0  0  0  0  0  0  0  0  0  0
   47.0009   55.7107   29.4511 N   0  0  0  0  0  0  0  0  0  0  0  0
   47.5073   56.2530   28.3314 C   0  0  0  0  0  0  0  0  0  0  0  0
   47.8920   55.4058   27.2606 C   0  0  0  0  0  0  0  0  0  0  0  0
   47.7166   54.0100   27.4371 C   0  0  0  0  0  0  0  0  0  0  0  0
   48.0645   53.1264   26.4400 N   0  0  0  0  0  0  0  0  0  0  0  0
   48.3645   56.1924   26.2732 N   0  0  0  0  0  0  0  0  0  0  0  0
   48.3081   57.4348   26.6547 C   0  0  0  0  0  0  0  0  0  0  0  0
   47.7830   57.5320   27.9133 N   0  0  0  0  0  0  0  0  0  0  0  0
  2  1  1  1  0  0  0
  2  3  1  0  0  0  0
  2  5  1  0  0  0  0
  3  4  1  0  0  0  0
  3 17  1  0  0  0  0
  5  6  1  0  0  0  0
  7  6  1  1  0  0  0
  7  8  1  0  0  0  0
  7  9  1  0  0  0  0
 10  9  1  1  0  0  0
 10 11  1  0  0  0  0
 10 12  1  0  0  0  0
 11 16  1  0  0  0  0
 12 13  1  1  0  0  0
 12 14  1  0  0  0  0
 14 15  1  1  0  0  0
 14 16  1  0  0  0  0
 16 27  1  1  0  0  0
 18 19  2  0  0  0  0
 18 23  1  0  0  0  0
 19 20  1  0  0  0  0
 20 21  2  0  0  0  0
 21 22  1  0  0  0  0
 21 27  1  0  0  0  0
 22 23  2  0  0  0  0
 22 25  1  0  0  0  0
 23 24  1  0  0  0  0
 25 26  2  0  0  0  0
 26 27  1  0  0  0  0
M  END
>  <CHROM.1>
109.45453516,-82.93501001,57.09441288,-160.78130047,-172.46848685,-56.56412297
82.82731977,47.90433687,56.40231219,30.63817001,-0.96960603,1.48160769,-1.85795230

>  <Name>
ligand

>  <RI>
0

>  <Rbt.Current_Directory>
/home/itssahil/PROJECTS/Mol_Feturizer/New_Systems/rnas/2GIS

>  <Rbt.Executable>
rbdock ($Id: //depot/dev/client3/rdock/2013.1/src/exe/rbdock.cxx#4 $)

>  <Rbt.Library>
libRbt.so (2013.1, Build901 2013/11/27)

>  <Rbt.Parameter_File>
/export/apps/rDock/src/rDock_2013.1_src/data/scripts/dock_solv.prm

>  <Rbt.Receptor>
prm/pocket_docking_3.prm

>  <SCORE>
-10.5913

>  <SCORE.INTER>
-6.92963

>  <SCORE.INTER.CONST>
1

>  <SCORE.INTER.POLAR>
0

>  <SCORE.INTER.ROT>
7

>  <SCORE.INTER.SOLV>
7.60087

>  <SCORE.INTER.VDW>
-15.42

>  <SCORE.INTER.norm>
-0.256653

>  <SCORE.INTRA>
-3.66595

>  <SCORE.INTRA.DIHEDRAL>
-1.79404

>  <SCORE.INTRA.DIHEDRAL.0>
9.40024

>  <SCORE.INTRA.POLAR>
0

>  <SCORE.INTRA.POLAR.0>
0

>  <SCORE.INTRA.REPUL>
0

>  <SCORE.INTRA.REPUL.0>
0

>  <SCORE.INTRA.SOLV>
0.0554912

>  <SCORE.INTRA.SOLV.lig_0>
-47.1049

>  <SCORE.INTRA.VDW>
-2.79667

>  <SCORE.INTRA.VDW.0>
-1.50278

>  <SCORE.INTRA.norm>
-0.135776

>  <SCORE.RESTR>
0.00429753

>  <SCORE.RESTR.CAVITY>
0.00429753

>  <SCORE.RESTR.norm>
0.000159168

>  <SCORE.SYSTEM>
0

>  <SCORE.SYSTEM.CONST>
0

>  <SCORE.SYSTEM.DIHEDRAL>
0

>  <SCORE.SYSTEM.SOLV>
0

>  <SCORE.SYSTEM.norm>
0

>  <SCORE.heavy>
27

>  <SCORE.norm>
-0.392269

>  <RMSD>
6.459

$$$$
ligand
 OpenBabel11021811433D
libRbt.so/2013.1/901 2013/11/27
 27 29  0  0  0  0  0  0  0  0999 V2000
   48.0505   55.4619   34.0128 N   0  0  0  0  0  0  0  0  0  0  0  0
   48.9671   55.5913   32.8757 C   0  0  2  0  0  0  0  0  0  0  0  0
   49.4538   54.2150   32.4584 C   0  0  0  0  0  0  0  0  0  0  0  0
   49.3570   53.2688   33.2347 O   0  0  0  0  0  0  0  0  0  0  0  0
   50.1704   56.4832   33.2412 C   0  0  0  0  0  0  0  0  0  0  0  0
   49.6947   57.9261   33.4043 C   0  0  0  0  0  0  0  0  0  0  0  0
   49.2470   58.7853   31.8405 S   0  0  2  0  0  0  0  0  0  0  0  0
   48.6288   60.4072   32.3875 C   0  0  0  0  0  0  0  0  0  0  0  0
   47.7027   57.8907   31.5689 C   0  0  0  0  0  0  0  0  0  0  0  0
   46.8412   58.4702   30.4335 C   0  0  1  0  0  0  0  0  0  0  0  0
   47.6901   58.7314   29.2769 O   0  0  0  0  0  0  0  0  0  0  0  0
   45.9668   57.3035   30.0517 C   0  0  1  0  0  0  0  0  0  0  0  0
   44.7053   57.4070   30.7125 O   0  0  0  0  0  0  0  0  0  0  0  0
   45.7910   57.4514   28.5454 C   0  0  1  0  0  0  0  0  0  0  0  0
   44.5757   58.1106   28.2095 O   0  0  0  0  0  0  0  0  0  0  0  0
   47.0284   58.2778   28.0375 C   0  0  2  0  0  0  0  0  0  0  0  0
   50.0037   54.0557   31.3684 O   0  0  0  0  0  0  0  0  0  0  0  0
   51.4524   55.4565   28.2611 N   0  0  0  0  0  0  0  0  0  0  0  0
   50.8249   56.0763   29.2667 C   0  0  0  0  0  0  0  0  0  0  0  0
   49.6978   56.7416   29.0683 N   0  0  0  0  0  0  0  0  0  0  0  0
   49.1549   56.8495   27.8444 C   0  0  0  0  0  0  0  0  0  0  0  0
   49.7913   56.2212   26.7433 C   0  0  0  0  0  0  0  0  0  0  0  0
   50.9855   55.5023   27.0026 C   0  0  0  0  0  0  0  0  0  0  0  0
   51.6568   54.8641   25.9839 N   0  0  0  0  0  0  0  0  0  0  0  0
   49.0531   56.4842   25.6465 N   0  0  0  0  0  0  0  0  0  0  0  0
   48.0355   57.2208   25.9848 C   0  0  0  0  0  0  0  0  0  0  0  0
   48.0447   57.4725   27.3285 N   0  0  0  0  0  0  0  0  0  0  0  0
  2  1  1  1  0  0  0
  2  3  1  0  0  0  0
  2  5  1  0  0  0  0
  3  4  1  0  0  0  0
  3 17  1  0  0  0  0
  5  6  1  0  0  0  0
  7  6  1  1  0  0  0
  7  8  1  0  0  0  0
  7  9  1  0  0  0  0
 10  9  1  1  0  0  0
 10 11  1  0  0  0  0
 10 12  1  0  0  0  0
 11 16  1  0  0  0  0
 12 13  1  1  0  0  0
 12 14  1  0  0  0  0
 14 15  1  1  0  0  0
 14 16  1  0  0  0  0
 16 27  1  1  0  0  0
 18 19  2  0  0  0  0
 18 23  1  0  0  0  0
 19 20  1  0  0  0  0
 20 21  2  0  0  0  0
 21 22  1  0  0  0  0
 21 27  1  0  0  0  0
 22 23  2  0  0  0  0
 22 25  1  0  0  0  0
 23 24  1  0  0  0  0
 25 26  2  0  0  0  0
 26 27  1  0  0  0  0
M  END
>  <CHROM.1>
-18.53819905,-69.39482439,-72.19205130,176.34184236,170.41718206,46.13824559
21.75014544,48.59665437,56.87393905,29.97402104,-1.57756254,0.67582532,-1.54526422

>  <Name>
ligand

>  <RI>
0

>  <Rbt.Current_Directory>
/home/itssahil/PROJECTS/Mol_Feturizer/New_Systems/rnas/2GIS

>  <Rbt.Executable>
rbdock ($Id: //depot/dev/client3/rdock/2013.1/src/exe/rbdock.cxx#4 $)

>  <Rbt.Library>
libRbt.so (2013.1, Build901 2013/11/27)

>  <Rbt.Parameter_File>
/export/apps/rDock/src/rDock_2013.1_src/data/scripts/dock_solv.prm

>  <Rbt.Receptor>
prm/pocket_docking_7.prm

>  <SCORE>
-19.2852

>  <SCORE.INTER>
-14.6311

>  <SCORE.INTER.CONST>
1

>  <SCORE.INTER.POLAR>
0

>  <SCORE.INTER.ROT>
7

>  <SCORE.INTER.SOLV>
11.4369

>  <SCORE.INTER.VDW>
-21.833

>  <SCORE.INTER.norm>
-0.541893

>  <SCORE.INTRA>
-4.65408

>  <SCORE.INTRA.DIHEDRAL>
-4.72895

>  <SCORE.INTRA.DIHEDRAL.0>
9.40024

>  <SCORE.INTRA.POLAR>
0

>  <SCORE.INTRA.POLAR.0>
0

>  <SCORE.INTRA.REPUL>
0

>  <SCORE.INTRA.REPUL.0>
0

>  <SCORE.INTRA.SOLV>
-1.03253

>  <SCORE.INTRA.SOLV.lig_0>
-47.1049

>  <SCORE.INTRA.VDW>
-1.77335

>  <SCORE.INTRA.VDW.0>
-1.50278

>  <SCORE.INTRA.norm>
-0.172373

>  <SCORE.RESTR>
0

>  <SCORE.RESTR.CAVITY>
0

>  <SCORE.RESTR.norm>
0

>  <SCORE.SYSTEM>
0

>  <SCORE.SYSTEM.CONST>
0

>  <SCORE.SYSTEM.DIHEDRAL>
0

>  <SCORE.SYSTEM.SOLV>
0

>  <SCORE.SYSTEM.norm>
0

>  <SCORE.heavy>
27

>  <SCORE.norm>
-0.714266

>  <RMSD>
6.470

$$$$
ligand
 OpenBabel11021811433D
libRbt.so/2013.1/901 2013/11/27
 27 29  0  0  0  0  0  0  0  0999 V2000
   49.0950   54.7927   33.8524 N   0  0  0  0  0  0  0  0  0  0  0  0
   47.8493   55.0900   34.5664 C   0  0  2  0  0  0  0  0  0  0  0  0
   47.3005   53.8143   35.1801 C   0  0  0  0  0  0  0  0  0  0  0  0
   47.6582   52.7223   34.7475 O   0  0  0  0  0  0  0  0  0  0  0  0
   46.8047   55.7033   33.6127 C   0  0  0  0  0  0  0  0  0  0  0  0
   47.0520   57.2067   33.4969 C   0  0  0  0  0  0  0  0  0  0  0  0
   48.6651   57.6805   32.7502 S   0  0  2  0  0  0  0  0  0  0  0  0
   49.8209   57.6810   34.1560 C   0  0  0  0  0  0  0  0  0  0  0  0
   48.2927   59.4402   32.5971 C   0  0  0  0  0  0  0  0  0  0  0  0
   47.6973   59.8323   31.2336 C   0  0  1  0  0  0  0  0  0  0  0  0
   48.5910   59.3771   30.1748 O   0  0  0  0  0  0  0  0  0  0  0  0
   46.4706   58.9614   31.1444 C   0  0  1  0  0  0  0  0  0  0  0  0
   45.3223   59.6975   31.5666 O   0  0  0  0  0  0  0  0  0  0  0  0
   46.3673   58.6199   29.6630 C   0  0  1  0  0  0  0  0  0  0  0  0
   45.4640   59.4784   28.9764 O   0  0  0  0  0  0  0  0  0  0  0  0
   47.8195   58.7610   29.0771 C   0  0  2  0  0  0  0  0  0  0  0  0
   46.4494   53.8695   36.0681 O   0  0  0  0  0  0  0  0  0  0  0  0
   48.2530   53.6351   30.1347 N   0  0  0  0  0  0  0  0  0  0  0  0
   47.4127   54.5169   30.6872 C   0  0  0  0  0  0  0  0  0  0  0  0
   47.3992   55.7851   30.3081 N   0  0  0  0  0  0  0  0  0  0  0  0
   48.2503   56.2463   29.3769 C   0  0  0  0  0  0  0  0  0  0  0  0
   49.1705   55.3522   28.7718 C   0  0  0  0  0  0  0  0  0  0  0  0
   49.1383   53.9986   29.1923 C   0  0  0  0  0  0  0  0  0  0  0  0
   49.9995   53.0728   28.6474 N   0  0  0  0  0  0  0  0  0  0  0  0
   49.9001   56.0612   27.8875 N   0  0  0  0  0  0  0  0  0  0  0  0
   49.5098   57.3020   27.9112 C   0  0  0  0  0  0  0  0  0  0  0  0
   48.4915   57.4727   28.8073 N   0  0  0  0  0  0  0  0  0  0  0  0
  2  1  1  6  0  0  0
  2  3  1  0  0  0  0
  2  5  1  0  0  0  0
  3  4  1  0  0  0  0
  3 17  1  0  0  0  0
  5  6  1  0  0  0  0
  7  6  1  1  0  0  0
  7  8  1  0  0  0  0
  7  9  1  0  0  0  0
 10  9  1  1  0  0  0
 10 11  1  0  0  0  0
 10 12  1  0  0  0  0
 11 16  1  0  0  0  0
 12 13  1  6  0  0  0
 12 14  1  0  0  0  0
 14 15  1  6  0  0  0
 14 16  1  0  0  0  0
 16 27  1  1  0  0  0
 18 19  2  0  0  0  0
 18 23  1  0  0  0  0
 19 20  1  0  0  0  0
 20 21  2  0  0  0  0
 21 22  1  0  0  0  0
 21 27  1  0  0  0  0
 22 23  2  0  0  0  0
 22 25  1  0  0  0  0
 23 24  1  0  0  0  0
 25 26  2  0  0  0  0
 26 27  1  0  0  0  0
M  END
>  <CHROM.1>
-20.28394432,-84.04788958,63.54678877,-86.12984699,-92.75691762,-54.61200048
89.46812487,47.93460170,56.61297577,31.41842768,-1.62433168,1.20092204,-0.88251813

>  <Name>
ligand

>  <RI>
0

>  <Rbt.Current_Directory>
/home/itssahil/PROJECTS/Mol_Feturizer/New_Systems/rnas/2GIS

>  <Rbt.Executable>
rbdock ($Id: //depot/dev/client3/rdock/2013.1/src/exe/rbdock.cxx#4 $)

>  <Rbt.Library>
libRbt.so (2013.1, Build901 2013/11/27)

>  <Rbt.Parameter_File>
/export/apps/rDock/src/rDock_2013.1_src/data/scripts/dock_solv.prm

>  <Rbt.Receptor>
prm/pocket_docking_5.prm

>  <SCORE>
-11.4708

>  <SCORE.INTER>
-8.72986

>  <SCORE.INTER.CONST>
1

>  <SCORE.INTER.POLAR>
0

>  <SCORE.INTER.ROT>
7

>  <SCORE.INTER.SOLV>
9.81457

>  <SCORE.INTER.VDW>
-17.3581

>  <SCORE.INTER.norm>
-0.323328

>  <SCORE.INTRA>
-2.7409

>  <SCORE.INTRA.DIHEDRAL>
-1.52953

>  <SCORE.INTRA.DIHEDRAL.0>
9.40024

>  <SCORE.INTRA.POLAR>
0

>  <SCORE.INTRA.POLAR.0>
0

>  <SCORE.INTRA.REPUL>
0

>  <SCORE.INTRA.REPUL.0>
0

>  <SCORE.INTRA.SOLV>
0.488189

>  <SCORE.INTRA.SOLV.lig_0>
-47.1049

>  <SCORE.INTRA.VDW>
-2.22023

>  <SCORE.INTRA.VDW.0>
-1.50278

>  <SCORE.INTRA.norm>
-0.101515

>  <SCORE.RESTR>
0

>  <SCORE.RESTR.CAVITY>
0

>  <SCORE.RESTR.norm>
0

>  <SCORE.SYSTEM>
0

>  <SCORE.SYSTEM.CONST>
0

>  <SCORE.SYSTEM.DIHEDRAL>
0

>  <SCORE.SYSTEM.SOLV>
0

>  <SCORE.SYSTEM.norm>
0

>  <SCORE.heavy>
27

>  <SCORE.norm>
-0.424843

>  <RMSD>
6.488

$$$$
ligand
 OpenBabel11021811433D
libRbt.so/2013.1/901 2013/11/27
 27 29  0  0  0  0  0  0  0  0999 V2000
   49.4795   55.4089   33.7417 N   0  0  0  0  0  0  0  0  0  0  0  0
   48.2306   55.5432   34.4980 C   0  0  2  0  0  0  0  0  0  0  0  0
   47.8342   54.1918   35.0653 C   0  0  0  0  0  0  0  0  0  0  0  0
   46.9442   53.5384   34.5281 O   0  0  0  0  0  0  0  0  0  0  0  0
   47.1015   56.0848   33.5987 C   0  0  0  0  0  0  0  0  0  0  0  0
   47.2919   57.5883   33.4041 C   0  0  0  0  0  0  0  0  0  0  0  0
   48.8431   58.0772   32.5444 S   0  0  2  0  0  0  0  0  0  0  0  0
   50.0273   58.3642   33.8963 C   0  0  0  0  0  0  0  0  0  0  0  0
   48.3245   59.7638   32.1636 C   0  0  0  0  0  0  0  0  0  0  0  0
   47.7695   59.9357   30.7389 C   0  0  1  0  0  0  0  0  0  0  0  0
   48.7319   59.3975   29.7845 O   0  0  0  0  0  0  0  0  0  0  0  0
   46.5961   58.9900   30.7234 C   0  0  1  0  0  0  0  0  0  0  0  0
   45.3927   59.7068   31.0003 O   0  0  0  0  0  0  0  0  0  0  0  0
   46.5765   58.4495   29.2989 C   0  0  1  0  0  0  0  0  0  0  0  0
   45.6597   59.1547   28.4703 O   0  0  0  0  0  0  0  0  0  0  0  0
   48.0435   58.5968   28.7526 C   0  0  2  0  0  0  0  0  0  0  0  0
   48.3571   53.7756   36.0993 O   0  0  0  0  0  0  0  0  0  0  0  0
   48.9083   53.8012   30.7109 N   0  0  0  0  0  0  0  0  0  0  0  0
   48.0339   54.7165   31.1429 C   0  0  0  0  0  0  0  0  0  0  0  0
   47.9074   55.8867   30.5373 N   0  0  0  0  0  0  0  0  0  0  0  0
   48.6739   56.2165   29.4846 C   0  0  0  0  0  0  0  0  0  0  0  0
   49.6260   55.2843   28.9983 C   0  0  0  0  0  0  0  0  0  0  0  0
   49.7155   54.0353   29.6633 C   0  0  0  0  0  0  0  0  0  0  0  0
   50.6143   53.0796   29.2456 N   0  0  0  0  0  0  0  0  0  0  0  0
   50.2556   55.8581   27.9535 N   0  0  0  0  0  0  0  0  0  0  0  0
   49.7761   57.0537   27.7719 C   0  0  0  0  0  0  0  0  0  0  0  0
   48.7946   57.3259   28.6838 N   0  0  0  0  0  0  0  0  0  0  0  0
  2  1  1  6  0  0  0
  2  3  1  0  0  0  0
  2  5  1  0  0  0  0
  3  4  1  0  0  0  0
  3 17  1  0  0  0  0
  5  6  1  0  0  0  0
  7  6  1  1  0  0  0
  7  8  1  0  0  0  0
  7  9  1  0  0  0  0
 10  9  1  1  0  0  0
 10 11  1  0  0  0  0
 10 12  1  0  0  0  0
 11 16  1  0  0  0  0
 12 13  1  6  0  0  0
 12 14  1  0  0  0  0
 14 15  1  6  0  0  0
 14 16  1  0  0  0  0
 16 27  1  1  0  0  0
 18 19  2  0  0  0  0
 18 23  1  0  0  0  0
 19 20  1  0  0  0  0
 20 21  2  0  0  0  0
 21 22  1  0  0  0  0
 21 27  1  0  0  0  0
 22 23  2  0  0  0  0
 22 25  1  0  0  0  0
 23 24  1  0  0  0  0
 25 26  2  0  0  0  0
 26 27  1  0  0  0  0
M  END
>  <CHROM.1>
-102.46807289,-77.01588739,62.72016433,-92.48040039,-97.32645274,-52.36196001
83.03153486,48.26673145,56.76445423,31.32396404,-1.38148433,1.13406661,-1.08378052

>  <Name>
ligand

>  <RI>
0

>  <Rbt.Current_Directory>
/home/itssahil/PROJECTS/Mol_Feturizer/New_Systems/rnas/2GIS

>  <Rbt.Executable>
rbdock ($Id: //depot/dev/client3/rdock/2013.1/src/exe/rbdock.cxx#4 $)

>  <Rbt.Library>
libRbt.so (2013.1, Build901 2013/11/27)

>  <Rbt.Parameter_File>
/export/apps/rDock/src/rDock_2013.1_src/data/scripts/dock_solv.prm

>  <Rbt.Receptor>
prm/pocket_docking_2.prm

>  <SCORE>
-7.76845

>  <SCORE.INTER>
-6.77734

>  <SCORE.INTER.CONST>
1

>  <SCORE.INTER.POLAR>
0

>  <SCORE.INTER.ROT>
7

>  <SCORE.INTER.SOLV>
12.6767

>  <SCORE.INTER.VDW>
-17.0104

>  <SCORE.INTER.norm>
-0.251012

>  <SCORE.INTRA>
-1.82475

>  <SCORE.INTRA.DIHEDRAL>
-1.00512

>  <SCORE.INTRA.DIHEDRAL.0>
9.40024

>  <SCORE.INTRA.POLAR>
0

>  <SCORE.INTRA.POLAR.0>
0

>  <SCORE.INTRA.REPUL>
0

>  <SCORE.INTRA.REPUL.0>
0

>  <SCORE.INTRA.SOLV>
1.28091

>  <SCORE.INTRA.SOLV.lig_0>
-47.1049

>  <SCORE.INTRA.VDW>
-1.96264

>  <SCORE.INTRA.VDW.0>
-1.50278

>  <SCORE.INTRA.norm>
-0.0675832

>  <SCORE.RESTR>
0.833634

>  <SCORE.RESTR.CAVITY>
0.833634

>  <SCORE.RESTR.norm>
0.0308753

>  <SCORE.SYSTEM>
0

>  <SCORE.SYSTEM.CONST>
0

>  <SCORE.SYSTEM.DIHEDRAL>
0

>  <SCORE.SYSTEM.SOLV>
0

>  <SCORE.SYSTEM.norm>
0

>  <SCORE.heavy>
27

>  <SCORE.norm>
-0.28772

>  <RMSD>
6.504

$$$$
ligand
 OpenBabel11021811433D
libRbt.so/2013.1/901 2013/11/27
 27 29  0  0  0  0  0  0  0  0999 V2000
   49.1584   60.1517   32.3351 N   0  0  0  0  0  0  0  0  0  0  0  0
   48.0425   59.4042   31.7469 C   0  0  2  0  0  0  0  0  0  0  0  0
   46.9385   60.3692   31.3527 C   0  0  0  0  0  0  0  0  0  0  0  0
   45.8853   59.9402   30.8898 O   0  0  0  0  0  0  0  0  0  0  0  0
   47.4958   58.3624   32.7432 C   0  0  0  0  0  0  0  0  0  0  0  0
   48.6288   57.4278   33.1646 C   0  0  0  0  0  0  0  0  0  0  0  0
   48.1704   56.1510   34.4071 S   0  0  2  0  0  0  0  0  0  0  0  0
   49.7531   55.3607   34.8347 C   0  0  0  0  0  0  0  0  0  0  0  0
   47.4929   54.9693   33.2225 C   0  0  0  0  0  0  0  0  0  0  0  0
   46.7074   53.8181   33.8743 C   0  0  1  0  0  0  0  0  0  0  0  0
   47.5059   53.2470   34.9528 O   0  0  0  0  0  0  0  0  0  0  0  0
   45.5609   54.5341   34.5408 C   0  0  1  0  0  0  0  0  0  0  0  0
   44.4101   54.4968   33.6965 O   0  0  0  0  0  0  0  0  0  0  0  0
   45.3133   53.7312   35.8120 C   0  0  1  0  0  0  0  0  0  0  0  0
   44.2621   52.7856   35.6527 O   0  0  0  0  0  0  0  0  0  0  0  0
   46.6673   53.0040   36.1434 C   0  0  2  0  0  0  0  0  0  0  0  0
   47.1181   61.5844   31.4356 O   0  0  0  0  0  0  0  0  0  0  0  0
   46.6258   54.8362   41.0651 N   0  0  0  0  0  0  0  0  0  0  0  0
   45.5979   54.3409   40.3671 C   0  0  0  0  0  0  0  0  0  0  0  0
   45.7572   53.8936   39.1315 N   0  0  0  0  0  0  0  0  0  0  0  0
   46.9497   53.9484   38.5156 C   0  0  0  0  0  0  0  0  0  0  0  0
   48.0674   54.4785   39.2099 C   0  0  0  0  0  0  0  0  0  0  0  0
   47.8578   54.9282   40.5381 C   0  0  0  0  0  0  0  0  0  0  0  0
   48.8963   55.4519   41.2748 N   0  0  0  0  0  0  0  0  0  0  0  0
   49.1248   54.4221   38.3757 N   0  0  0  0  0  0  0  0  0  0  0  0
   48.7442   53.9149   37.2398 C   0  0  0  0  0  0  0  0  0  0  0  0
   47.4143   53.5995   37.2710 N   0  0  0  0  0  0  0  0  0  0  0  0
  2  1  1  1  0  0  0
  2  3  1  0  0  0  0
  2  5  1  0  0  0  0
  3  4  1  0  0  0  0
  3 17  1  0  0  0  0
  5  6  1  0  0  0  0
  7  6  1  6  0  0  0
  7  8  1  0  0  0  0
  7  9  1  0  0  0  0
 10  9  1  1  0  0  0
 10 11  1  0  0  0  0
 10 12  1  0  0  0  0
 11 16  1  0  0  0  0
 12 13  1  6  0  0  0
 12 14  1  0  0  0  0
 14 15  1  6  0  0  0
 14 16  1  0  0  0  0
 16 27  1  1  0  0  0
 18 19  2  0  0  0  0
 18 23  1  0  0  0  0
 19 20  1  0  0  0  0
 20 21  2  0  0  0  0
 21 22  1  0  0  0  0
 21 27  1  0  0  0  0
 22 23  2  0  0  0  0
 22 25  1  0  0  0  0
 23 24  1  0  0  0  0
 25 26  2  0  0  0  0
 26 27  1  0  0  0  0
M  END
>  <CHROM.1>
-176.98055723,-57.08155740,177.82742654,-173.30962759,-168.10686519,-49.09553533
161.95063976,47.21229143,55.73295622,35.52264470,-1.50610163,0.95389055,2.15139935

>  <Name>
ligand

>  <RI>
0

>  <Rbt.Current_Directory>
/home/itssahil/PROJECTS/Mol_Feturizer/New_Systems/rnas/2GIS

>  <Rbt.Executable>
rbdock ($Id: //depot/dev/client3/rdock/2013.1/src/exe/rbdock.cxx#4 $)

>  <Rbt.Library>
libRbt.so (2013.1, Build901 2013/11/27)

>  <Rbt.Parameter_File>
/export/apps/rDock/src/rDock_2013.1_src/data/scripts/dock_solv.prm

>  <Rbt.Receptor>
prm/pocket_docking_7.prm

>  <SCORE>
-22.3762

>  <SCORE.INTER>
-19.239

>  <SCORE.INTER.CONST>
1

>  <SCORE.INTER.POLAR>
0

>  <SCORE.INTER.ROT>
7

>  <SCORE.INTER.SOLV>
16.411

>  <SCORE.INTER.VDW>
-26.563

>  <SCORE.INTER.norm>
-0.712555

>  <SCORE.INTRA>
-3.14086

>  <SCORE.INTRA.DIHEDRAL>
-4.10152

>  <SCORE.INTRA.DIHEDRAL.0>
9.40024

>  <SCORE.INTRA.POLAR>
0

>  <SCORE.INTRA.POLAR.0>
0

>  <SCORE.INTRA.REPUL>
0

>  <SCORE.INTRA.REPUL.0>
0

>  <SCORE.INTRA.SOLV>
-2.08468

>  <SCORE.INTRA.SOLV.lig_0>
-47.1049

>  <SCORE.INTRA.VDW>
-0.0477626

>  <SCORE.INTRA.VDW.0>
-1.50278

>  <SCORE.INTRA.norm>
-0.116328

>  <SCORE.RESTR>
0.00367564

>  <SCORE.RESTR.CAVITY>
0.00367564

>  <SCORE.RESTR.norm>
0.000136135

>  <SCORE.SYSTEM>
0

>  <SCORE.SYSTEM.CONST>
0

>  <SCORE.SYSTEM.DIHEDRAL>
0

>  <SCORE.SYSTEM.SOLV>
0

>  <SCORE.SYSTEM.norm>
0

>  <SCORE.heavy>
27

>  <SCORE.norm>
-0.828747

>  <RMSD>
6.505

$$$$
ligand
 OpenBabel11021811433D
libRbt.so/2013.1/901 2013/11/27
 27 29  0  0  0  0  0  0  0  0999 V2000
   46.7026   54.2231   32.5790 N   0  0  0  0  0  0  0  0  0  0  0  0
   47.7008   55.2325   32.9460 C   0  0  2  0  0  0  0  0  0  0  0  0
   48.6589   54.6488   33.9690 C   0  0  0  0  0  0  0  0  0  0  0  0
   49.6604   55.2772   34.2999 O   0  0  0  0  0  0  0  0  0  0  0  0
   47.0209   56.4898   33.5238 C   0  0  0  0  0  0  0  0  0  0  0  0
   48.0311   57.6356   33.5593 C   0  0  0  0  0  0  0  0  0  0  0  0
   48.3437   58.4554   31.9423 S   0  0  2  0  0  0  0  0  0  0  0  0
   49.6773   59.6417   32.2975 C   0  0  0  0  0  0  0  0  0  0  0  0
   46.8927   59.5282   31.9909 C   0  0  0  0  0  0  0  0  0  0  0  0
   45.9046   59.2884   30.8362 C   0  0  1  0  0  0  0  0  0  0  0  0
   46.6126   59.4200   29.5680 O   0  0  0  0  0  0  0  0  0  0  0  0
   45.5766   57.8244   30.9786 C   0  0  1  0  0  0  0  0  0  0  0  0
   44.3594   57.6695   31.7088 O   0  0  0  0  0  0  0  0  0  0  0  0
   45.3995   57.3445   29.5433 C   0  0  1  0  0  0  0  0  0  0  0  0
   44.0324   57.3244   29.1494 O   0  0  0  0  0  0  0  0  0  0  0  0
   46.2209   58.3379   28.6431 C   0  0  2  0  0  0  0  0  0  0  0  0
   48.4703   53.5195   34.4219 O   0  0  0  0  0  0  0  0  0  0  0  0
   48.6760   54.7552   25.6904 N   0  0  0  0  0  0  0  0  0  0  0  0
   47.3597   54.8955   25.8820 C   0  0  0  0  0  0  0  0  0  0  0  0
   46.8747   55.8633   26.6438 N   0  0  0  0  0  0  0  0  0  0  0  0
   47.6846   56.7242   27.2819 C   0  0  0  0  0  0  0  0  0  0  0  0
   49.0892   56.6072   27.1214 C   0  0  0  0  0  0  0  0  0  0  0  0
   49.5660   55.5694   26.2812 C   0  0  0  0  0  0  0  0  0  0  0  0
   50.9164   55.3965   26.0754 N   0  0  0  0  0  0  0  0  0  0  0  0
   49.6623   57.5773   27.8612 N   0  0  0  0  0  0  0  0  0  0  0  0
   48.7321   58.2621   28.4596 C   0  0  0  0  0  0  0  0  0  0  0  0
   47.4932   57.7838   28.1348 N   0  0  0  0  0  0  0  0  0  0  0  0
  2  1  1  1  0  0  0
  2  3  1  0  0  0  0
  2  5  1  0  0  0  0
  3  4  1  0  0  0  0
  3 17  1  0  0  0  0
  5  6  1  0  0  0  0
  7  6  1  1  0  0  0
  7  8  1  0  0  0  0
  7  9  1  0  0  0  0
 10  9  1  1  0  0  0
 10 11  1  0  0  0  0
 10 12  1  0  0  0  0
 11 16  1  0  0  0  0
 12 13  1  1  0  0  0
 12 14  1  0  0  0  0
 14 15  1  6  0  0  0
 14 16  1  0  0  0  0
 16 27  1  1  0  0  0
 18 19  2  0  0  0  0
 18 23  1  0  0  0  0
 19 20  1  0  0  0  0
 20 21  2  0  0  0  0
 21 22  1  0  0  0  0
 21 27  1  0  0  0  0
 22 23  2  0  0  0  0
 22 25  1  0  0  0  0
 23 24  1  0  0  0  0
 25 26  2  0  0  0  0
 26 27  1  0  0  0  0
M  END
>  <CHROM.1>
171.88158804,-165.66857517,77.77493128,-175.00018793,-118.83499026,-55.33887604
177.32074106,47.60939005,56.95173304,30.24167286,-1.69309201,0.85517865,-1.50818818

>  <Name>
ligand

>  <RI>
0

>  <Rbt.Current_Directory>
/home/itssahil/PROJECTS/Mol_Feturizer/New_Systems/rnas/2GIS

>  <Rbt.Executable>
rbdock ($Id: //depot/dev/client3/rdock/2013.1/src/exe/rbdock.cxx#4 $)

>  <Rbt.Library>
libRbt.so (2013.1, Build901 2013/11/27)

>  <Rbt.Parameter_File>
/export/apps/rDock/src/rDock_2013.1_src/data/scripts/dock_solv.prm

>  <Rbt.Receptor>
prm/pocket_docking_4.prm

>  <SCORE>
-12.3483

>  <SCORE.INTER>
-10.3351

>  <SCORE.INTER.CONST>
1

>  <SCORE.INTER.POLAR>
0

>  <SCORE.INTER.ROT>
7

>  <SCORE.INTER.SOLV>
11.129

>  <SCORE.INTER.VDW>
-18.8664

>  <SCORE.INTER.norm>
-0.38278

>  <SCORE.INTRA>
-2.01327

>  <SCORE.INTRA.DIHEDRAL>
0.579893

>  <SCORE.INTRA.DIHEDRAL.0>
9.40024

>  <SCORE.INTRA.POLAR>
0

>  <SCORE.INTRA.POLAR.0>
0

>  <SCORE.INTRA.REPUL>
0

>  <SCORE.INTRA.REPUL.0>
0

>  <SCORE.INTRA.SOLV>
-1.99734

>  <SCORE.INTRA.SOLV.lig_0>
-47.1049

>  <SCORE.INTRA.VDW>
-1.30454

>  <SCORE.INTRA.VDW.0>
-1.50278

>  <SCORE.INTRA.norm>
-0.0745655

>  <SCORE.RESTR>
0

>  <SCORE.RESTR.CAVITY>
0

>  <SCORE.RESTR.norm>
0

>  <SCORE.SYSTEM>
0

>  <SCORE.SYSTEM.CONST>
0

>  <SCORE.SYSTEM.DIHEDRAL>
0

>  <SCORE.SYSTEM.SOLV>
0

>  <SCORE.SYSTEM.norm>
0

>  <SCORE.heavy>
27

>  <SCORE.norm>
-0.457346

>  <RMSD>
6.506

$$$$
ligand
 OpenBabel11021811433D
libRbt.so/2013.1/901 2013/11/27
 27 29  0  0  0  0  0  0  0  0999 V2000
   46.1648   57.7117   33.1146 N   0  0  0  0  0  0  0  0  0  0  0  0
   47.1333   58.6152   32.4856 C   0  0  2  0  0  0  0  0  0  0  0  0
   47.2604   58.2746   31.0115 C   0  0  0  0  0  0  0  0  0  0  0  0
   47.8045   59.0638   30.2443 O   0  0  0  0  0  0  0  0  0  0  0  0
   48.5107   58.5030   33.1692 C   0  0  0  0  0  0  0  0  0  0  0  0
   48.9854   57.0520   33.1071 C   0  0  0  0  0  0  0  0  0  0  0  0
   48.3233   55.9536   34.4260 S   0  0  2  0  0  0  0  0  0  0  0  0
   49.8062   55.1817   35.1453 C   0  0  0  0  0  0  0  0  0  0  0  0
   47.7487   54.6510   33.3162 C   0  0  0  0  0  0  0  0  0  0  0  0
   46.8148   53.6299   33.9887 C   0  0  1  0  0  0  0  0  0  0  0  0
   47.5032   53.0320   35.1269 O   0  0  0  0  0  0  0  0  0  0  0  0
   45.7322   54.5026   34.5700 C   0  0  1  0  0  0  0  0  0  0  0  0
   44.6168   54.5482   33.6798 O   0  0  0  0  0  0  0  0  0  0  0  0
   45.3486   53.8005   35.8667 C   0  0  1  0  0  0  0  0  0  0  0  0
   44.2043   52.9697   35.7085 O   0  0  0  0  0  0  0  0  0  0  0  0
   46.5988   52.9466   36.2908 C   0  0  2  0  0  0  0  0  0  0  0  0
   46.7639   57.2383   30.5693 O   0  0  0  0  0  0  0  0  0  0  0  0
   46.5899   54.9524   41.1445 N   0  0  0  0  0  0  0  0  0  0  0  0
   45.5410   54.5242   40.4336 C   0  0  0  0  0  0  0  0  0  0  0  0
   45.6926   54.0202   39.2190 N   0  0  0  0  0  0  0  0  0  0  0  0
   46.9011   53.9478   38.6371 C   0  0  0  0  0  0  0  0  0  0  0  0
   48.0427   54.4026   39.3458 C   0  0  0  0  0  0  0  0  0  0  0  0
   47.8387   54.9168   40.6513 C   0  0  0  0  0  0  0  0  0  0  0  0
   48.8998   55.3737   41.4003 N   0  0  0  0  0  0  0  0  0  0  0  0
   49.1125   54.2234   38.5455 N   0  0  0  0  0  0  0  0  0  0  0  0
   48.7186   53.7109   37.4166 C   0  0  0  0  0  0  0  0  0  0  0  0
   47.3657   53.5147   37.4192 N   0  0  0  0  0  0  0  0  0  0  0  0
  2  1  1  1  0  0  0
  2  3  1  0  0  0  0
  2  5  1  0  0  0  0
  3  4  1  0  0  0  0
  3 17  1  0  0  0  0
  5  6  1  0  0  0  0
  7  6  1  6  0  0  0
  7  8  1  0  0  0  0
  7  9  1  0  0  0  0
 10  9  1  1  0  0  0
 10 11  1  0  0  0  0
 10 12  1  0  0  0  0
 11 16  1  0  0  0  0
 12 13  1  6  0  0  0
 12 14  1  0  0  0  0
 14 15  1  6  0  0  0
 14 16  1  0  0  0  0
 16 27  1  1  0  0  0
 18 19  2  0  0  0  0
 18 23  1  0  0  0  0
 19 20  1  0  0  0  0
 20 21  2  0  0  0  0
 21 22  1  0  0  0  0
 21 27  1  0  0  0  0
 22 23  2  0  0  0  0
 22 25  1  0  0  0  0
 23 24  1  0  0  0  0
 25 26  2  0  0  0  0
 26 27  1  0  0  0  0
M  END
>  <CHROM.1>
165.37444872,57.12757092,-83.26378373,-127.66537154,-166.78073012,-57.39160549
163.71836602,47.22480972,55.28390770,35.59396227,-1.53580047,0.74828839,1.95129879

>  <Name>
ligand

>  <RI>
0

>  <Rbt.Current_Directory>
/home/itssahil/PROJECTS/Mol_Feturizer/New_Systems/rnas/2GIS

>  <Rbt.Executable>
rbdock ($Id: //depot/dev/client3/rdock/2013.1/src/exe/rbdock.cxx#4 $)

>  <Rbt.Library>
libRbt.so (2013.1, Build901 2013/11/27)

>  <Rbt.Parameter_File>
/export/apps/rDock/src/rDock_2013.1_src/data/scripts/dock_solv.prm

>  <Rbt.Receptor>
prm/pocket_docking_7.prm

>  <SCORE>
-15.4287

>  <SCORE.INTER>
-16.3931

>  <SCORE.INTER.CONST>
1

>  <SCORE.INTER.POLAR>
0

>  <SCORE.INTER.ROT>
7

>  <SCORE.INTER.SOLV>
12.709

>  <SCORE.INTER.VDW>
-23.4318

>  <SCORE.INTER.norm>
-0.607153

>  <SCORE.INTRA>
0.964196

>  <SCORE.INTRA.DIHEDRAL>
1.24952

>  <SCORE.INTRA.DIHEDRAL.0>
9.40024

>  <SCORE.INTRA.POLAR>
0

>  <SCORE.INTRA.POLAR.0>
0

>  <SCORE.INTRA.REPUL>
0

>  <SCORE.INTRA.REPUL.0>
0

>  <SCORE.INTRA.SOLV>
1.26908

>  <SCORE.INTRA.SOLV.lig_0>
-47.1049

>  <SCORE.INTRA.VDW>
-0.295106

>  <SCORE.INTRA.VDW.0>
-1.50278

>  <SCORE.INTRA.norm>
0.0357109

>  <SCORE.RESTR>
0.000201511

>  <SCORE.RESTR.CAVITY>
0.000201511

>  <SCORE.RESTR.norm>
7.46335e-06

>  <SCORE.SYSTEM>
0

>  <SCORE.SYSTEM.CONST>
0

>  <SCORE.SYSTEM.DIHEDRAL>
0

>  <SCORE.SYSTEM.SOLV>
0

>  <SCORE.SYSTEM.norm>
0

>  <SCORE.heavy>
27

>  <SCORE.norm>
-0.571435

>  <RMSD>
6.518

$$$$
ligand
 OpenBabel11021811433D
libRbt.so/2013.1/901 2013/11/27
 27 29  0  0  0  0  0  0  0  0999 V2000
   47.5601   53.4546   33.6044 N   0  0  0  0  0  0  0  0  0  0  0  0
   47.1100   54.0870   34.8484 C   0  0  2  0  0  0  0  0  0  0  0  0
   46.7005   53.0148   35.8423 C   0  0  0  0  0  0  0  0  0  0  0  0
   45.5884   52.5002   35.7658 O   0  0  0  0  0  0  0  0  0  0  0  0
   45.9233   55.0347   34.5825 C   0  0  0  0  0  0  0  0  0  0  0  0
   46.3873   56.1807   33.6848 C   0  0  0  0  0  0  0  0  0  0  0  0
   45.0948   57.4212   33.2664 S   0  0  2  0  0  0  0  0  0  0  0  0
   43.9989   56.5453   32.1072 C   0  0  0  0  0  0  0  0  0  0  0  0
   46.1165   58.3826   32.1303 C   0  0  0  0  0  0  0  0  0  0  0  0
   47.5709   58.5579   32.6005 C   0  0  1  0  0  0  0  0  0  0  0  0
   48.3524   57.4032   32.1729 O   0  0  0  0  0  0  0  0  0  0  0  0
   48.0522   59.7170   31.7660 C   0  0  1  0  0  0  0  0  0  0  0  0
   47.9380   60.9300   32.5104 O   0  0  0  0  0  0  0  0  0  0  0  0
   49.5169   59.3949   31.4967 C   0  0  1  0  0  0  0  0  0  0  0  0
   50.3874   60.0542   32.4089 O   0  0  0  0  0  0  0  0  0  0  0  0
   49.6553   57.8343   31.6283 C   0  0  2  0  0  0  0  0  0  0  0  0
   47.4546   52.7032   36.7644 O   0  0  0  0  0  0  0  0  0  0  0  0
   48.3160   57.4830   26.5623 N   0  0  0  0  0  0  0  0  0  0  0  0
   47.9016   58.3858   27.4580 C   0  0  0  0  0  0  0  0  0  0  0  0
   48.3392   58.3665   28.7072 N   0  0  0  0  0  0  0  0  0  0  0  0
   49.1917   57.4210   29.1357 C   0  0  0  0  0  0  0  0  0  0  0  0
   49.6488   56.4329   28.2263 C   0  0  0  0  0  0  0  0  0  0  0  0
   49.1711   56.5015   26.8931 C   0  0  0  0  0  0  0  0  0  0  0  0
   49.5735   55.5785   25.9541 N   0  0  0  0  0  0  0  0  0  0  0  0
   50.4797   55.6150   28.9029 N   0  0  0  0  0  0  0  0  0  0  0  0
   50.5577   56.0147   30.1384 C   0  0  0  0  0  0  0  0  0  0  0  0
   49.7883   57.1271   30.3375 N   0  0  0  0  0  0  0  0  0  0  0  0
  2  1  1  6  0  0  0
  2  3  1  0  0  0  0
  2  5  1  0  0  0  0
  3  4  1  0  0  0  0
  3 17  1  0  0  0  0
  5  6  1  0  0  0  0
  7  6  1  6  0  0  0
  7  8  1  0  0  0  0
  7  9  1  0  0  0  0
 10  9  1  6  0  0  0
 10 11  1  0  0  0  0
 10 12  1  0  0  0  0
 11 16  1  0  0  0  0
 12 13  1  1  0  0  0
 12 14  1  0  0  0  0
 14 15  1  1  0  0  0
 14 16  1  0  0  0  0
 16 27  1  6  0  0  0
 18 19  2  0  0  0  0
 18 23  1  0  0  0  0
 19 20  1  0  0  0  0
 20 21  2  0  0  0  0
 21 22  1  0  0  0  0
 21 27  1  0  0  0  0
 22 23  2  0  0  0  0
 22 25  1  0  0  0  0
 23 24  1  0  0  0  0
 25 26  2  0  0  0  0
 26 27  1  0  0  0  0
M  END
>  <CHROM.1>
-81.39453377,-64.15924490,-179.75548300,-71.85049575,-39.81180746,85.64338615
77.67054529,47.83559476,56.77494711,31.65499878,-2.61449011,1.12368623,-0.10401830

>  <Name>
ligand

>  <RI>
0

>  <Rbt.Current_Directory>
/home/itssahil/PROJECTS/Mol_Feturizer/New_Systems/rnas/2GIS

>  <Rbt.Executable>
rbdock ($Id: //depot/dev/client3/rdock/2013.1/src/exe/rbdock.cxx#4 $)

>  <Rbt.Library>
libRbt.so (2013.1, Build901 2013/11/27)

>  <Rbt.Parameter_File>
/export/apps/rDock/src/rDock_2013.1_src/data/scripts/dock_solv.prm

>  <Rbt.Receptor>
prm/pocket_docking_4.prm

>  <SCORE>
-18.3709

>  <SCORE.INTER>
-16.8799

>  <SCORE.INTER.CONST>
1

>  <SCORE.INTER.POLAR>
0

>  <SCORE.INTER.ROT>
7

>  <SCORE.INTER.SOLV>
14.3584

>  <SCORE.INTER.VDW>
-24.3061

>  <SCORE.INTER.norm>
-0.625182

>  <SCORE.INTRA>
-1.49104

>  <SCORE.INTRA.DIHEDRAL>
-2.1071

>  <SCORE.INTRA.DIHEDRAL.0>
9.40024

>  <SCORE.INTRA.POLAR>
0

>  <SCORE.INTRA.POLAR.0>
0

>  <SCORE.INTRA.REPUL>
0

>  <SCORE.INTRA.REPUL.0>
0

>  <SCORE.INTRA.SOLV>
-2.31046

>  <SCORE.INTRA.SOLV.lig_0>
-47.1049

>  <SCORE.INTRA.VDW>
0.717741

>  <SCORE.INTRA.VDW.0>
-1.50278

>  <SCORE.INTRA.norm>
-0.0552236

>  <SCORE.RESTR>
0

>  <SCORE.RESTR.CAVITY>
0

>  <SCORE.RESTR.norm>
0

>  <SCORE.SYSTEM>
0

>  <SCORE.SYSTEM.CONST>
0

>  <SCORE.SYSTEM.DIHEDRAL>
0

>  <SCORE.SYSTEM.SOLV>
0

>  <SCORE.SYSTEM.norm>
0

>  <SCORE.heavy>
27

>  <SCORE.norm>
-0.680405

>  <RMSD>
6.521

$$$$
ligand
 OpenBabel11021811433D
libRbt.so/2013.1/901 2013/11/27
 27 29  0  0  0  0  0  0  0  0999 V2000
   47.0588   55.1869   34.8071 N   0  0  0  0  0  0  0  0  0  0  0  0
   48.1990   54.9575   33.9142 C   0  0  2  0  0  0  0  0  0  0  0  0
   48.2633   53.4868   33.5426 C   0  0  0  0  0  0  0  0  0  0  0  0
   48.1672   53.1465   32.3668 O   0  0  0  0  0  0  0  0  0  0  0  0
   49.5175   55.3848   34.5892 C   0  0  0  0  0  0  0  0  0  0  0  0
   49.5436   56.9068   34.7219 C   0  0  0  0  0  0  0  0  0  0  0  0
   49.6370   57.8306   33.1338 S   0  0  2  0  0  0  0  0  0  0  0  0
   49.9499   59.5506   33.6396 C   0  0  0  0  0  0  0  0  0  0  0  0
   47.8576   57.8680   32.8321 C   0  0  0  0  0  0  0  0  0  0  0  0
   47.4481   58.7555   31.6439 C   0  0  1  0  0  0  0  0  0  0  0  0
   48.5241   58.7602   30.6596 O   0  0  0  0  0  0  0  0  0  0  0  0
   46.3189   57.9757   31.0208 C   0  0  1  0  0  0  0  0  0  0  0  0
   45.0672   58.4758   31.4919 O   0  0  0  0  0  0  0  0  0  0  0  0
   46.4680   58.2395   29.5276 C   0  0  1  0  0  0  0  0  0  0  0  0
   45.6168   59.2884   29.0806 O   0  0  0  0  0  0  0  0  0  0  0  0
   47.9774   58.6140   29.2959 C   0  0  2  0  0  0  0  0  0  0  0  0
   48.3478   52.6283   34.4210 O   0  0  0  0  0  0  0  0  0  0  0  0
   48.9479   55.6346   25.0814 N   0  0  0  0  0  0  0  0  0  0  0  0
   48.0176   56.5863   25.2146 C   0  0  0  0  0  0  0  0  0  0  0  0
   47.8963   57.2775   26.3370 N   0  0  0  0  0  0  0  0  0  0  0  0
   48.6801   57.0301   27.3994 C   0  0  0  0  0  0  0  0  0  0  0  0
   49.6724   56.0203   27.3117 C   0  0  0  0  0  0  0  0  0  0  0  0
   49.7820   55.3174   26.0852 C   0  0  0  0  0  0  0  0  0  0  0  0
   50.7240   54.3261   25.9251 N   0  0  0  0  0  0  0  0  0  0  0  0
   50.3076   55.9740   28.4998 N   0  0  0  0  0  0  0  0  0  0  0  0
   49.7826   56.8572   29.2978 C   0  0  0  0  0  0  0  0  0  0  0  0
   48.7785   57.5410   28.6706 N   0  0  0  0  0  0  0  0  0  0  0  0
  2  1  1  1  0  0  0
  2  3  1  0  0  0  0
  2  5  1  0  0  0  0
  3  4  1  0  0  0  0
  3 17  1  0  0  0  0
  5  6  1  0  0  0  0
  7  6  1  1  0  0  0
  7  8  1  0  0  0  0
  7  9  1  0  0  0  0
 10  9  1  1  0  0  0
 10 11  1  0  0  0  0
 10 12  1  0  0  0  0
 11 16  1  0  0  0  0
 12 13  1  1  0  0  0
 12 14  1  0  0  0  0
 14 15  1  1  0  0  0
 14 16  1  0  0  0  0
 16 27  1  1  0  0  0
 18 19  2  0  0  0  0
 18 23  1  0  0  0  0
 19 20  1  0  0  0  0
 20 21  2  0  0  0  0
 21 22  1  0  0  0  0
 21 27  1  0  0  0  0
 22 23  2  0  0  0  0
 22 25  1  0  0  0  0
 23 24  1  0  0  0  0
 25 26  2  0  0  0  0
 26 27  1  0  0  0  0
M  END
>  <CHROM.1>
119.24775813,-69.29379656,-66.88717268,-170.22580728,171.77337037,30.35615966
-179.32454831,48.41513111,56.72004957,30.61655088,-1.68130439,1.16426567
-1.39463195

>  <Name>
ligand

>  <RI>
0

>  <Rbt.Current_Directory>
/home/itssahil/PROJECTS/Mol_Feturizer/New_Systems/rnas/2GIS

>  <Rbt.Executable>
rbdock ($Id: //depot/dev/client3/rdock/2013.1/src/exe/rbdock.cxx#4 $)

>  <Rbt.Library>
libRbt.so (2013.1, Build901 2013/11/27)

>  <Rbt.Parameter_File>
/export/apps/rDock/src/rDock_2013.1_src/data/scripts/dock_solv.prm

>  <Rbt.Receptor>
prm/pocket_docking_4.prm

>  <SCORE>
-16.5426

>  <SCORE.INTER>
-14.1737

>  <SCORE.INTER.CONST>
1

>  <SCORE.INTER.POLAR>
0

>  <SCORE.INTER.ROT>
7

>  <SCORE.INTER.SOLV>
10.0008

>  <SCORE.INTER.VDW>
-21.0494

>  <SCORE.INTER.norm>
-0.524952

>  <SCORE.INTRA>
-2.36895

>  <SCORE.INTRA.DIHEDRAL>
-2.38047

>  <SCORE.INTRA.DIHEDRAL.0>
9.40024

>  <SCORE.INTRA.POLAR>
0

>  <SCORE.INTRA.POLAR.0>
0

>  <SCORE.INTRA.REPUL>
0

>  <SCORE.INTRA.REPUL.0>
0

>  <SCORE.INTRA.SOLV>
-0.985798

>  <SCORE.INTRA.SOLV.lig_0>
-47.1049

>  <SCORE.INTRA.VDW>
-0.685818

>  <SCORE.INTRA.VDW.0>
-1.50278

>  <SCORE.INTRA.norm>
-0.087739

>  <SCORE.RESTR>
0

>  <SCORE.RESTR.CAVITY>
0

>  <SCORE.RESTR.norm>
0

>  <SCORE.SYSTEM>
0

>  <SCORE.SYSTEM.CONST>
0

>  <SCORE.SYSTEM.DIHEDRAL>
0

>  <SCORE.SYSTEM.SOLV>
0

>  <SCORE.SYSTEM.norm>
0

>  <SCORE.heavy>
27

>  <SCORE.norm>
-0.612691

>  <RMSD>
6.529

$$$$
ligand
 OpenBabel11021811433D
libRbt.so/2013.1/901 2013/11/27
 27 29  0  0  0  0  0  0  0  0999 V2000
   43.9693   53.3597   35.4667 N   0  0  0  0  0  0  0  0  0  0  0  0
   45.3591   53.3009   35.0031 C   0  0  2  0  0  0  0  0  0  0  0  0
   46.2867   53.1740   36.1984 C   0  0  0  0  0  0  0  0  0  0  0  0
   46.0718   53.8298   37.2139 O   0  0  0  0  0  0  0  0  0  0  0  0
   45.7197   54.5619   34.1927 C   0  0  0  0  0  0  0  0  0  0  0  0
   47.1620   54.4477   33.7014 C   0  0  0  0  0  0  0  0  0  0  0  0
   47.6709   55.7103   32.4640 S   0  0  2  0  0  0  0  0  0  0  0  0
   49.4763   55.5133   32.3469 C   0  0  0  0  0  0  0  0  0  0  0  0
   47.5403   57.1270   33.5751 C   0  0  0  0  0  0  0  0  0  0  0  0
   47.6539   58.4864   32.8636 C   0  0  1  0  0  0  0  0  0  0  0  0
   48.8027   58.4597   31.9656 O   0  0  0  0  0  0  0  0  0  0  0  0
   46.4347   58.5002   31.9777 C   0  0  1  0  0  0  0  0  0  0  0  0
   45.3784   59.2157   32.6186 O   0  0  0  0  0  0  0  0  0  0  0  0
   46.8951   59.2400   30.7276 C   0  0  1  0  0  0  0  0  0  0  0  0
   46.5418   60.6179   30.7593 O   0  0  0  0  0  0  0  0  0  0  0  0
   48.4570   59.0697   30.6663 C   0  0  2  0  0  0  0  0  0  0  0  0
   47.2903   52.4640   36.1320 O   0  0  0  0  0  0  0  0  0  0  0  0
   48.0819   57.2001   25.7729 N   0  0  0  0  0  0  0  0  0  0  0  0
   47.3808   58.1966   26.3246 C   0  0  0  0  0  0  0  0  0  0  0  0
   47.5945   58.5788   27.5738 N   0  0  0  0  0  0  0  0  0  0  0  0
   48.5008   57.9612   28.3493 C   0  0  0  0  0  0  0  0  0  0  0  0
   49.2596   56.8891   27.8135 C   0  0  0  0  0  0  0  0  0  0  0  0
   49.0134   56.5246   26.4656 C   0  0  0  0  0  0  0  0  0  0  0  0
   49.7136   55.4957   25.8768 N   0  0  0  0  0  0  0  0  0  0  0  0
   50.0819   56.4502   28.7873 N   0  0  0  0  0  0  0  0  0  0  0  0
   49.8814   57.1537   29.8630 C   0  0  0  0  0  0  0  0  0  0  0  0
   48.9213   58.1032   29.6492 N   0  0  0  0  0  0  0  0  0  0  0  0
  2  1  1  1  0  0  0
  2  3  1  0  0  0  0
  2  5  1  0  0  0  0
  3  4  1  0  0  0  0
  3 17  1  0  0  0  0
  5  6  1  0  0  0  0
  7  6  1  1  0  0  0
  7  8  1  0  0  0  0
  7  9  1  0  0  0  0
 10  9  1  1  0  0  0
 10 11  1  0  0  0  0
 10 12  1  0  0  0  0
 11 16  1  0  0  0  0
 12 13  1  1  0  0  0
 12 14  1  0  0  0  0
 14 15  1  1  0  0  0
 14 16  1  0  0  0  0
 16 27  1  6  0  0  0
 18 19  2  0  0  0  0
 18 23  1  0  0  0  0
 19 20  1  0  0  0  0
 20 21  2  0  0  0  0
 21 22  1  0  0  0  0
 21 27  1  0  0  0  0
 22 23  2  0  0  0  0
 22 25  1  0  0  0  0
 23 24  1  0  0  0  0
 25 26  2  0  0  0  0
 26 27  1  0  0  0  0
M  END
>  <CHROM.1>
-41.10176051,-178.70152657,169.31096026,169.05090381,-169.82912184,-47.69065443
157.71080599,47.56987736,56.59957237,31.44563570,-2.22690541,1.11350364,-0.51348538

>  <Name>
ligand

>  <RI>
0

>  <Rbt.Current_Directory>
/home/itssahil/PROJECTS/Mol_Feturizer/New_Systems/rnas/2GIS

>  <Rbt.Executable>
rbdock ($Id: //depot/dev/client3/rdock/2013.1/src/exe/rbdock.cxx#4 $)

>  <Rbt.Library>
libRbt.so (2013.1, Build901 2013/11/27)

>  <Rbt.Parameter_File>
/export/apps/rDock/src/rDock_2013.1_src/data/scripts/dock_solv.prm

>  <Rbt.Receptor>
prm/pocket_docking_7.prm

>  <SCORE>
-16.4547

>  <SCORE.INTER>
-12.6137

>  <SCORE.INTER.CONST>
1

>  <SCORE.INTER.POLAR>
0

>  <SCORE.INTER.ROT>
7

>  <SCORE.INTER.SOLV>
11.1411

>  <SCORE.INTER.VDW>
-20.3895

>  <SCORE.INTER.norm>
-0.467174

>  <SCORE.INTRA>
-3.84096

>  <SCORE.INTRA.DIHEDRAL>
-4.4839

>  <SCORE.INTRA.DIHEDRAL.0>
9.40024

>  <SCORE.INTRA.POLAR>
0

>  <SCORE.INTRA.POLAR.0>
0

>  <SCORE.INTRA.REPUL>
0

>  <SCORE.INTRA.REPUL.0>
0

>  <SCORE.INTRA.SOLV>
-2.84511

>  <SCORE.INTRA.SOLV.lig_0>
-47.1049

>  <SCORE.INTRA.VDW>
-0.176452

>  <SCORE.INTRA.VDW.0>
-1.50278

>  <SCORE.INTRA.norm>
-0.142258

>  <SCORE.RESTR>
0

>  <SCORE.RESTR.CAVITY>
0

>  <SCORE.RESTR.norm>
0

>  <SCORE.SYSTEM>
0

>  <SCORE.SYSTEM.CONST>
0

>  <SCORE.SYSTEM.DIHEDRAL>
0

>  <SCORE.SYSTEM.SOLV>
0

>  <SCORE.SYSTEM.norm>
0

>  <SCORE.heavy>
27

>  <SCORE.norm>
-0.609432

>  <RMSD>
6.568

$$$$
ligand
 OpenBabel11021811433D
libRbt.so/2013.1/901 2013/11/27
 27 29  0  0  0  0  0  0  0  0999 V2000
   47.8263   54.6554   35.3058 N   0  0  0  0  0  0  0  0  0  0  0  0
   47.3355   53.5178   34.5217 C   0  0  2  0  0  0  0  0  0  0  0  0
   47.2933   53.8963   33.0519 C   0  0  0  0  0  0  0  0  0  0  0  0
   47.7886   53.1502   32.2120 O   0  0  0  0  0  0  0  0  0  0  0  0
   45.9303   53.0934   34.9932 C   0  0  0  0  0  0  0  0  0  0  0  0
   45.0125   54.3150   34.9991 C   0  0  0  0  0  0  0  0  0  0  0  0
   43.2117   53.9426   34.9459 S   0  0  2  0  0  0  0  0  0  0  0  0
   43.0249   52.5007   36.0405 C   0  0  0  0  0  0  0  0  0  0  0  0
   43.2297   53.1547   33.3218 C   0  0  0  0  0  0  0  0  0  0  0  0
   42.1805   53.7173   32.3473 C   0  0  1  0  0  0  0  0  0  0  0  0
   42.3579   55.1607   32.2374 O   0  0  0  0  0  0  0  0  0  0  0  0
   42.6157   53.1436   31.0234 C   0  0  1  0  0  0  0  0  0  0  0  0
   41.8679   51.9611   30.7387 O   0  0  0  0  0  0  0  0  0  0  0  0
   42.2804   54.2387   30.0184 C   0  0  1  0  0  0  0  0  0  0  0  0
   41.0265   54.0181   29.3832 O   0  0  0  0  0  0  0  0  0  0  0  0
   42.2623   55.5870   30.8271 C   0  0  2  0  0  0  0  0  0  0  0  0
   46.8210   54.9786   32.7035 O   0  0  0  0  0  0  0  0  0  0  0  0
   46.3075   58.2525   32.8551 N   0  0  0  0  0  0  0  0  0  0  0  0
   45.3840   57.5416   33.5114 C   0  0  0  0  0  0  0  0  0  0  0  0
   44.4231   56.8995   32.8658 N   0  0  0  0  0  0  0  0  0  0  0  0
   44.3160   56.9617   31.5283 C   0  0  0  0  0  0  0  0  0  0  0  0
   45.2636   57.7150   30.7888 C   0  0  0  0  0  0  0  0  0  0  0  0
   46.2880   58.3709   31.5173 C   0  0  0  0  0  0  0  0  0  0  0  0
   47.2448   59.1177   30.8672 N   0  0  0  0  0  0  0  0  0  0  0  0
   44.9303   57.6161   29.4865 N   0  0  0  0  0  0  0  0  0  0  0  0
   43.8638   56.8797   29.3747 C   0  0  0  0  0  0  0  0  0  0  0  0
   43.4444   56.4447   30.6011 N   0  0  0  0  0  0  0  0  0  0  0  0
  2  1  1  1  0  0  0
  2  3  1  0  0  0  0
  2  5  1  0  0  0  0
  3  4  1  0  0  0  0
  3 17  1  0  0  0  0
  5  6  1  0  0  0  0
  7  6  1  1  0  0  0
  7  8  1  0  0  0  0
  7  9  1  0  0  0  0
 10  9  1  1  0  0  0
 10 11  1  0  0  0  0
 10 12  1  0  0  0  0
 11 16  1  0  0  0  0
 12 13  1  6  0  0  0
 12 14  1  0  0  0  0
 14 15  1  1  0  0  0
 14 16  1  0  0  0  0
 16 27  1  6  0  0  0
 18 19  2  0  0  0  0
 18 23  1  0  0  0  0
 19 20  1  0  0  0  0
 20 21  2  0  0  0  0
 21 22  1  0  0  0  0
 21 27  1  0  0  0  0
 22 23  2  0  0  0  0
 22 25  1  0  0  0  0
 23 24  1  0  0  0  0
 25 26  2  0  0  0  0
 26 27  1  0  0  0  0
M  END
>  <CHROM.1>
130.98885293,52.45911638,159.25015468,39.90410216,-128.75345094,55.09820994
-11.36486805,44.48305085,55.07826584,32.43736934,-1.94145979,-0.55539602
-0.78065733

>  <Name>
ligand

>  <RI>
0

>  <Rbt.Current_Directory>
/home/itssahil/PROJECTS/Mol_Feturizer/New_Systems/rnas/2GIS

>  <Rbt.Executable>
rbdock ($Id: //depot/dev/client3/rdock/2013.1/src/exe/rbdock.cxx#4 $)

>  <Rbt.Library>
libRbt.so (2013.1, Build901 2013/11/27)

>  <Rbt.Parameter_File>
/export/apps/rDock/src/rDock_2013.1_src/data/scripts/dock_solv.prm

>  <Rbt.Receptor>
prm/pocket_docking_8.prm

>  <SCORE>
-13.3602

>  <SCORE.INTER>
-11.0669

>  <SCORE.INTER.CONST>
1

>  <SCORE.INTER.POLAR>
0

>  <SCORE.INTER.ROT>
7

>  <SCORE.INTER.SOLV>
8.86696

>  <SCORE.INTER.VDW>
-18.6003

>  <SCORE.INTER.norm>
-0.409886

>  <SCORE.INTRA>
-2.29331

>  <SCORE.INTRA.DIHEDRAL>
0.489364

>  <SCORE.INTRA.DIHEDRAL.0>
9.40024

>  <SCORE.INTRA.POLAR>
0

>  <SCORE.INTRA.POLAR.0>
0

>  <SCORE.INTRA.REPUL>
0

>  <SCORE.INTRA.REPUL.0>
0

>  <SCORE.INTRA.SOLV>
-2.29846

>  <SCORE.INTRA.SOLV.lig_0>
-47.1049

>  <SCORE.INTRA.VDW>
-1.38876

>  <SCORE.INTRA.VDW.0>
-1.50278

>  <SCORE.INTRA.norm>
-0.0849375

>  <SCORE.RESTR>
0

>  <SCORE.RESTR.CAVITY>
0

>  <SCORE.RESTR.norm>
0

>  <SCORE.SYSTEM>
0

>  <SCORE.SYSTEM.CONST>
0

>  <SCORE.SYSTEM.DIHEDRAL>
0

>  <SCORE.SYSTEM.SOLV>
0

>  <SCORE.SYSTEM.norm>
0

>  <SCORE.heavy>
27

>  <SCORE.norm>
-0.494824

>  <RMSD>
6.578

$$$$
ligand
 OpenBabel11021811433D
libRbt.so/2013.1/901 2013/11/27
 27 29  0  0  0  0  0  0  0  0999 V2000
   49.9245   59.9634   33.9176 N   0  0  0  0  0  0  0  0  0  0  0  0
   49.5440   59.1087   32.7886 C   0  0  2  0  0  0  0  0  0  0  0  0
   48.8029   59.9365   31.7539 C   0  0  0  0  0  0  0  0  0  0  0  0
   48.3214   61.0217   32.0670 O   0  0  0  0  0  0  0  0  0  0  0  0
   48.6534   57.9422   33.2609 C   0  0  0  0  0  0  0  0  0  0  0  0
   49.4416   57.0730   34.2396 C   0  0  0  0  0  0  0  0  0  0  0  0
   48.6043   55.5189   34.7574 S   0  0  2  0  0  0  0  0  0  0  0  0
   49.7832   54.7420   35.9058 C   0  0  0  0  0  0  0  0  0  0  0  0
   48.9393   54.6077   33.2355 C   0  0  0  0  0  0  0  0  0  0  0  0
   47.8294   54.7366   32.1778 C   0  0  1  0  0  0  0  0  0  0  0  0
   48.4386   54.9760   30.8746 O   0  0  0  0  0  0  0  0  0  0  0  0
   47.2616   53.3418   32.1208 C   0  0  1  0  0  0  0  0  0  0  0  0
   46.1031   53.2561   32.9510 O   0  0  0  0  0  0  0  0  0  0  0  0
   46.8806   53.1579   30.6569 C   0  0  1  0  0  0  0  0  0  0  0  0
   45.5029   53.4260   30.4236 O   0  0  0  0  0  0  0  0  0  0  0  0
   47.7846   54.1512   29.8394 C   0  0  2  0  0  0  0  0  0  0  0  0
   48.6271   59.4964   30.6176 O   0  0  0  0  0  0  0  0  0  0  0  0
   49.3872   51.4727   25.6158 N   0  0  0  0  0  0  0  0  0  0  0  0
   48.1503   51.8990   25.8942 C   0  0  0  0  0  0  0  0  0  0  0  0
   47.8909   52.5853   26.9960 N   0  0  0  0  0  0  0  0  0  0  0  0
   48.8515   52.8540   27.8956 C   0  0  0  0  0  0  0  0  0  0  0  0
   50.1766   52.4104   27.6518 C   0  0  0  0  0  0  0  0  0  0  0  0
   50.4153   51.6961   26.4506 C   0  0  0  0  0  0  0  0  0  0  0  0
   51.6769   51.2370   26.1449 N   0  0  0  0  0  0  0  0  0  0  0  0
   50.9324   52.8028   28.6967 N   0  0  0  0  0  0  0  0  0  0  0  0
   50.1821   53.4341   29.5516 C   0  0  0  0  0  0  0  0  0  0  0  0
   48.8909   53.5002   29.1071 N   0  0  0  0  0  0  0  0  0  0  0  0
  2  1  1  1  0  0  0
  2  3  1  0  0  0  0
  2  5  1  0  0  0  0
  3  4  1  0  0  0  0
  3 17  1  0  0  0  0
  5  6  1  0  0  0  0
  7  6  1  6  0  0  0
  7  8  1  0  0  0  0
  7  9  1  0  0  0  0
 10  9  1  1  0  0  0
 10 11  1  0  0  0  0
 10 12  1  0  0  0  0
 11 16  1  0  0  0  0
 12 13  1  1  0  0  0
 12 14  1  0  0  0  0
 14 15  1  1  0  0  0
 14 16  1  0  0  0  0
 16 27  1  1  0  0  0
 18 19  2  0  0  0  0
 18 23  1  0  0  0  0
 19 20  1  0  0  0  0
 20 21  2  0  0  0  0
 21 22  1  0  0  0  0
 21 27  1  0  0  0  0
 22 23  2  0  0  0  0
 22 25  1  0  0  0  0
 23 24  1  0  0  0  0
 25 26  2  0  0  0  0
 26 27  1  0  0  0  0
M  END
>  <CHROM.1>
-18.06924260,-62.17750478,-173.11278010,-179.66137000,-91.37434066,135.44617558
-165.44376034,48.72872759,54.93427119,30.86700098,-1.74269063,-1.24063329
-2.48619368

>  <Name>
ligand

>  <RI>
0

>  <Rbt.Current_Directory>
/home/itssahil/PROJECTS/Mol_Feturizer/New_Systems/rnas/2GIS

>  <Rbt.Executable>
rbdock ($Id: //depot/dev/client3/rdock/2013.1/src/exe/rbdock.cxx#4 $)

>  <Rbt.Library>
libRbt.so (2013.1, Build901 2013/11/27)

>  <Rbt.Parameter_File>
/export/apps/rDock/src/rDock_2013.1_src/data/scripts/dock_solv.prm

>  <Rbt.Receptor>
prm/pocket_docking_6.prm

>  <SCORE>
-15.5069

>  <SCORE.INTER>
-13.5167

>  <SCORE.INTER.CONST>
1

>  <SCORE.INTER.POLAR>
0

>  <SCORE.INTER.ROT>
7

>  <SCORE.INTER.SOLV>
18.7687

>  <SCORE.INTER.VDW>
-23.534

>  <SCORE.INTER.norm>
-0.500619

>  <SCORE.INTRA>
-1.99017

>  <SCORE.INTRA.DIHEDRAL>
-0.160693

>  <SCORE.INTRA.DIHEDRAL.0>
9.40024

>  <SCORE.INTRA.POLAR>
0

>  <SCORE.INTRA.POLAR.0>
0

>  <SCORE.INTRA.REPUL>
0

>  <SCORE.INTRA.REPUL.0>
0

>  <SCORE.INTRA.SOLV>
-2.33233

>  <SCORE.INTRA.SOLV.lig_0>
-47.1049

>  <SCORE.INTRA.VDW>
-0.743658

>  <SCORE.INTRA.VDW.0>
-1.50278

>  <SCORE.INTRA.norm>
-0.07371

>  <SCORE.RESTR>
0

>  <SCORE.RESTR.CAVITY>
0

>  <SCORE.RESTR.norm>
0

>  <SCORE.SYSTEM>
0

>  <SCORE.SYSTEM.CONST>
0

>  <SCORE.SYSTEM.DIHEDRAL>
0

>  <SCORE.SYSTEM.SOLV>
0

>  <SCORE.SYSTEM.norm>
0

>  <SCORE.heavy>
27

>  <SCORE.norm>
-0.574329

>  <RMSD>
6.583

$$$$
ligand
 OpenBabel11021811433D
libRbt.so/2013.1/901 2013/11/27
 27 29  0  0  0  0  0  0  0  0999 V2000
   48.2274   54.7670   34.7371 N   0  0  0  0  0  0  0  0  0  0  0  0
   46.9668   55.4483   34.4261 C   0  0  2  0  0  0  0  0  0  0  0  0
   45.8567   54.4216   34.2891 C   0  0  0  0  0  0  0  0  0  0  0  0
   46.1327   53.2457   34.0685 O   0  0  0  0  0  0  0  0  0  0  0  0
   47.0912   56.2615   33.1222 C   0  0  0  0  0  0  0  0  0  0  0  0
   48.0086   57.4595   33.3632 C   0  0  0  0  0  0  0  0  0  0  0  0
   48.3390   58.5035   31.8850 S   0  0  2  0  0  0  0  0  0  0  0  0
   49.5867   59.6987   32.4568 C   0  0  0  0  0  0  0  0  0  0  0  0
   46.8280   59.4840   32.0046 C   0  0  0  0  0  0  0  0  0  0  0  0
   45.8501   59.2620   30.8378 C   0  0  1  0  0  0  0  0  0  0  0  0
   46.5702   59.4083   29.5781 O   0  0  0  0  0  0  0  0  0  0  0  0
   45.5170   57.7970   30.9579 C   0  0  1  0  0  0  0  0  0  0  0  0
   44.2928   57.6358   31.6747 O   0  0  0  0  0  0  0  0  0  0  0  0
   45.3521   57.3365   29.5148 C   0  0  1  0  0  0  0  0  0  0  0  0
   43.9887   57.3252   29.1081 O   0  0  0  0  0  0  0  0  0  0  0  0
   46.1844   58.3395   28.6354 C   0  0  2  0  0  0  0  0  0  0  0  0
   44.6777   54.7731   34.3349 O   0  0  0  0  0  0  0  0  0  0  0  0
   48.6618   54.7347   25.7287 N   0  0  0  0  0  0  0  0  0  0  0  0
   47.3448   54.8666   25.9220 C   0  0  0  0  0  0  0  0  0  0  0  0
   46.8537   55.8414   26.6709 N   0  0  0  0  0  0  0  0  0  0  0  0
   47.6580   56.7184   27.2939 C   0  0  0  0  0  0  0  0  0  0  0  0
   49.0630   56.6109   27.1310 C   0  0  0  0  0  0  0  0  0  0  0  0
   49.5464   55.5650   26.3049 C   0  0  0  0  0  0  0  0  0  0  0  0
   50.8976   55.4005   26.0977 N   0  0  0  0  0  0  0  0  0  0  0  0
   49.6299   57.5967   27.8549 N   0  0  0  0  0  0  0  0  0  0  0  0
   48.6956   58.2823   28.4458 C   0  0  0  0  0  0  0  0  0  0  0  0
   47.4599   57.7888   28.1317 N   0  0  0  0  0  0  0  0  0  0  0  0
  2  1  1  6  0  0  0
  2  3  1  0  0  0  0
  2  5  1  0  0  0  0
  3  4  1  0  0  0  0
  3 17  1  0  0  0  0
  5  6  1  0  0  0  0
  7  6  1  1  0  0  0
  7  8  1  0  0  0  0
  7  9  1  0  0  0  0
 10  9  1  1  0  0  0
 10 11  1  0  0  0  0
 10 12  1  0  0  0  0
 11 16  1  0  0  0  0
 12 13  1  1  0  0  0
 12 14  1  0  0  0  0
 14 15  1  6  0  0  0
 14 16  1  0  0  0  0
 16 27  1  1  0  0  0
 18 19  2  0  0  0  0
 18 23  1  0  0  0  0
 19 20  1  0  0  0  0
 20 21  2  0  0  0  0
 21 22  1  0  0  0  0
 21 27  1  0  0  0  0
 22 23  2  0  0  0  0
 22 25  1  0  0  0  0
 23 24  1  0  0  0  0
 25 26  2  0  0  0  0
 26 27  1  0  0  0  0
M  END
>  <CHROM.1>
-20.15051284,-69.99593652,177.16212699,-173.78289162,-114.06818578,-50.68984388
175.46898969,47.22792806,56.92479757,30.34620596,-3.08835363,1.28353463,-0.00853984

>  <Name>
ligand

>  <RI>
0

>  <Rbt.Current_Directory>
/home/itssahil/PROJECTS/Mol_Feturizer/New_Systems/rnas/2GIS

>  <Rbt.Executable>
rbdock ($Id: //depot/dev/client3/rdock/2013.1/src/exe/rbdock.cxx#4 $)

>  <Rbt.Library>
libRbt.so (2013.1, Build901 2013/11/27)

>  <Rbt.Parameter_File>
/export/apps/rDock/src/rDock_2013.1_src/data/scripts/dock_solv.prm

>  <Rbt.Receptor>
prm/pocket_docking_7.prm

>  <SCORE>
-13.4617

>  <SCORE.INTER>
-10.7209

>  <SCORE.INTER.CONST>
1

>  <SCORE.INTER.POLAR>
0

>  <SCORE.INTER.ROT>
7

>  <SCORE.INTER.SOLV>
11.9567

>  <SCORE.INTER.VDW>
-19.3995

>  <SCORE.INTER.norm>
-0.397071

>  <SCORE.INTRA>
-2.74081

>  <SCORE.INTRA.DIHEDRAL>
-1.01181

>  <SCORE.INTRA.DIHEDRAL.0>
9.40024

>  <SCORE.INTRA.POLAR>
0

>  <SCORE.INTRA.POLAR.0>
0

>  <SCORE.INTRA.REPUL>
0

>  <SCORE.INTRA.REPUL.0>
0

>  <SCORE.INTRA.SOLV>
-1.95245

>  <SCORE.INTRA.SOLV.lig_0>
-47.1049

>  <SCORE.INTRA.VDW>
-1.25868

>  <SCORE.INTRA.VDW.0>
-1.50278

>  <SCORE.INTRA.norm>
-0.101511

>  <SCORE.RESTR>
0

>  <SCORE.RESTR.CAVITY>
0

>  <SCORE.RESTR.norm>
0

>  <SCORE.SYSTEM>
0

>  <SCORE.SYSTEM.CONST>
0

>  <SCORE.SYSTEM.DIHEDRAL>
0

>  <SCORE.SYSTEM.SOLV>
0

>  <SCORE.SYSTEM.norm>
0

>  <SCORE.heavy>
27

>  <SCORE.norm>
-0.498583

>  <RMSD>
6.600

$$$$
ligand
 OpenBabel11021811433D
libRbt.so/2013.1/901 2013/11/27
 27 29  0  0  0  0  0  0  0  0999 V2000
   48.7275   55.5545   35.5599 N   0  0  0  0  0  0  0  0  0  0  0  0
   48.7121   55.9995   34.1629 C   0  0  2  0  0  0  0  0  0  0  0  0
   49.7544   57.0859   33.9659 C   0  0  0  0  0  0  0  0  0  0  0  0
   50.7906   56.8382   33.3557 O   0  0  0  0  0  0  0  0  0  0  0  0
   47.3193   56.5340   33.7739 C   0  0  0  0  0  0  0  0  0  0  0  0
   46.2932   55.4106   33.9140 C   0  0  0  0  0  0  0  0  0  0  0  0
   44.6099   55.8034   33.2844 S   0  0  2  0  0  0  0  0  0  0  0  0
   43.6742   54.2618   33.5299 C   0  0  0  0  0  0  0  0  0  0  0  0
   45.0315   55.6868   31.5329 C   0  0  0  0  0  0  0  0  0  0  0  0
   44.6624   56.9405   30.7210 C   0  0  1  0  0  0  0  0  0  0  0  0
   45.8857   57.6267   30.3215 O   0  0  0  0  0  0  0  0  0  0  0  0
   44.0812   56.3588   29.4580 C   0  0  1  0  0  0  0  0  0  0  0  0
   42.6572   56.3182   29.5540 O   0  0  0  0  0  0  0  0  0  0  0  0
   44.5125   57.3343   28.3698 C   0  0  1  0  0  0  0  0  0  0  0  0
   43.4963   58.2829   28.0666 O   0  0  0  0  0  0  0  0  0  0  0  0
   45.8002   58.0558   28.9114 C   0  0  2  0  0  0  0  0  0  0  0  0
   49.5943   58.1977   34.4700 O   0  0  0  0  0  0  0  0  0  0  0  0
   48.2980   54.4757   25.9916 N   0  0  0  0  0  0  0  0  0  0  0  0
   47.0077   54.4892   26.3439 C   0  0  0  0  0  0  0  0  0  0  0  0
   46.5041   55.4722   27.0735 N   0  0  0  0  0  0  0  0  0  0  0  0
   47.2739   56.4795   27.5176 C   0  0  0  0  0  0  0  0  0  0  0  0
   48.6519   56.5019   27.1820 C   0  0  0  0  0  0  0  0  0  0  0  0
   49.1466   55.4406   26.3825 C   0  0  0  0  0  0  0  0  0  0  0  0
   50.4726   55.3971   26.0145 N   0  0  0  0  0  0  0  0  0  0  0  0
   49.1875   57.6017   27.7483 N   0  0  0  0  0  0  0  0  0  0  0  0
   48.2602   58.2387   28.4016 C   0  0  0  0  0  0  0  0  0  0  0  0
   47.0593   57.5951   28.2896 N   0  0  0  0  0  0  0  0  0  0  0  0
  2  1  1  1  0  0  0
  2  3  1  0  0  0  0
  2  5  1  0  0  0  0
  3  4  1  0  0  0  0
  3 17  1  0  0  0  0
  5  6  1  0  0  0  0
  7  6  1  1  0  0  0
  7  8  1  0  0  0  0
  7  9  1  0  0  0  0
 10  9  1  1  0  0  0
 10 11  1  0  0  0  0
 10 12  1  0  0  0  0
 11 16  1  0  0  0  0
 12 13  1  1  0  0  0
 12 14  1  0  0  0  0
 14 15  1  1  0  0  0
 14 16  1  0  0  0  0
 16 27  1  6  0  0  0
 18 19  2  0  0  0  0
 18 23  1  0  0  0  0
 19 20  1  0  0  0  0
 20 21  2  0  0  0  0
 21 22  1  0  0  0  0
 21 27  1  0  0  0  0
 22 23  2  0  0  0  0
 22 25  1  0  0  0  0
 23 24  1  0  0  0  0
 25 26  2  0  0  0  0
 26 27  1  0  0  0  0
M  END
>  <CHROM.1>
106.85682137,-61.58202302,-172.43206765,177.62683099,-125.76916424,110.26291924
99.79869376,46.78925468,56.42999528,30.37899108,-1.57770677,-0.03377778,-1.56591319

>  <Name>
ligand

>  <RI>
0

>  <Rbt.Current_Directory>
/home/itssahil/PROJECTS/Mol_Feturizer/New_Systems/rnas/2GIS

>  <Rbt.Executable>
rbdock ($Id: //depot/dev/client3/rdock/2013.1/src/exe/rbdock.cxx#4 $)

>  <Rbt.Library>
libRbt.so (2013.1, Build901 2013/11/27)

>  <Rbt.Parameter_File>
/export/apps/rDock/src/rDock_2013.1_src/data/scripts/dock_solv.prm

>  <Rbt.Receptor>
prm/pocket_docking_6.prm

>  <SCORE>
-8.82653

>  <SCORE.INTER>
-8.21896

>  <SCORE.INTER.CONST>
1

>  <SCORE.INTER.POLAR>
0

>  <SCORE.INTER.ROT>
7

>  <SCORE.INTER.SOLV>
16.2314

>  <SCORE.INTER.VDW>
-19.1564

>  <SCORE.INTER.norm>
-0.304406

>  <SCORE.INTRA>
-0.607565

>  <SCORE.INTRA.DIHEDRAL>
3.17875

>  <SCORE.INTRA.DIHEDRAL.0>
9.40024

>  <SCORE.INTRA.POLAR>
0

>  <SCORE.INTRA.POLAR.0>
0

>  <SCORE.INTRA.REPUL>
0

>  <SCORE.INTRA.REPUL.0>
0

>  <SCORE.INTRA.SOLV>
-2.38547

>  <SCORE.INTRA.SOLV.lig_0>
-47.1049

>  <SCORE.INTRA.VDW>
-1.00421

>  <SCORE.INTRA.VDW.0>
-1.50278

>  <SCORE.INTRA.norm>
-0.0225024

>  <SCORE.RESTR>
0

>  <SCORE.RESTR.CAVITY>
0

>  <SCORE.RESTR.norm>
0

>  <SCORE.SYSTEM>
0

>  <SCORE.SYSTEM.CONST>
0

>  <SCORE.SYSTEM.DIHEDRAL>
0

>  <SCORE.SYSTEM.SOLV>
0

>  <SCORE.SYSTEM.norm>
0

>  <SCORE.heavy>
27

>  <SCORE.norm>
-0.326908

>  <RMSD>
6.627

$$$$
ligand
 OpenBabel11021811433D
libRbt.so/2013.1/901 2013/11/27
 27 29  0  0  0  0  0  0  0  0999 V2000
   48.5719   53.8361   36.3321 N   0  0  0  0  0  0  0  0  0  0  0  0
   48.5005   54.5540   35.0555 C   0  0  2  0  0  0  0  0  0  0  0  0
   48.4377   53.5539   33.9149 C   0  0  0  0  0  0  0  0  0  0  0  0
   49.4579   52.9780   33.5473 O   0  0  0  0  0  0  0  0  0  0  0  0
   49.7234   55.4756   34.8766 C   0  0  0  0  0  0  0  0  0  0  0  0
   49.2471   56.8673   34.4630 C   0  0  0  0  0  0  0  0  0  0  0  0
   48.2194   56.9230   32.9383 S   0  0  2  0  0  0  0  0  0  0  0  0
   48.1474   58.6921   32.5170 C   0  0  0  0  0  0  0  0  0  0  0  0
   46.6342   56.6921   33.7705 C   0  0  0  0  0  0  0  0  0  0  0  0
   45.4545   56.4702   32.8081 C   0  0  1  0  0  0  0  0  0  0  0  0
   45.9422   56.5286   31.4349 O   0  0  0  0  0  0  0  0  0  0  0  0
   45.0887   55.0297   33.0578 C   0  0  1  0  0  0  0  0  0  0  0  0
   44.0074   54.9587   33.9876 O   0  0  0  0  0  0  0  0  0  0  0  0
   44.6487   54.5183   31.6916 C   0  0  1  0  0  0  0  0  0  0  0  0
   43.2352   54.5572   31.5341 O   0  0  0  0  0  0  0  0  0  0  0  0
   45.3501   55.4419   30.6298 C   0  0  2  0  0  0  0  0  0  0  0  0
   47.3800   53.3640   33.3140 O   0  0  0  0  0  0  0  0  0  0  0  0
   47.0533   52.1628   26.8977 N   0  0  0  0  0  0  0  0  0  0  0  0
   45.7874   52.4625   27.2089 C   0  0  0  0  0  0  0  0  0  0  0  0
   45.5013   53.3280   28.1688 N   0  0  0  0  0  0  0  0  0  0  0  0
   46.4685   53.9164   28.8917 C   0  0  0  0  0  0  0  0  0  0  0  0
   47.8265   53.6199   28.6086 C   0  0  0  0  0  0  0  0  0  0  0  0
   48.0896   52.7028   27.5598 C   0  0  0  0  0  0  0  0  0  0  0  0
   49.3831   52.3691   27.2262 N   0  0  0  0  0  0  0  0  0  0  0  0
   48.5828   54.3307   29.4688 N   0  0  0  0  0  0  0  0  0  0  0  0
   47.8044   55.0211   30.2497 C   0  0  0  0  0  0  0  0  0  0  0  0
   46.4909   54.8087   29.9357 N   0  0  0  0  0  0  0  0  0  0  0  0
  2  1  1  1  0  0  0
  2  3  1  0  0  0  0
  2  5  1  0  0  0  0
  3  4  1  0  0  0  0
  3 17  1  0  0  0  0
  5  6  1  0  0  0  0
  7  6  1  1  0  0  0
  7  8  1  0  0  0  0
  7  9  1  0  0  0  0
 10  9  1  1  0  0  0
 10 11  1  0  0  0  0
 10 12  1  0  0  0  0
 11 16  1  0  0  0  0
 12 13  1  1  0  0  0
 12 14  1  0  0  0  0
 14 15  1  1  0  0  0
 14 16  1  0  0  0  0
 16 27  1  1  0  0  0
 18 19  2  0  0  0  0
 18 23  1  0  0  0  0
 19 20  1  0  0  0  0
 20 21  2  0  0  0  0
 21 22  1  0  0  0  0
 21 27  1  0  0  0  0
 22 23  2  0  0  0  0
 22 25  1  0  0  0  0
 23 24  1  0  0  0  0
 25 26  2  0  0  0  0
 26 27  1  0  0  0  0
M  END
>  <CHROM.1>
-77.54995591,-131.07022815,-56.71906226,-167.48373596,-171.60544646,-0.92758786
-167.10385512,47.10994886,54.77459147,31.63685722,-1.42692747,0.26021602
-1.99962084

>  <Name>
ligand

>  <RI>
0

>  <Rbt.Current_Directory>
/home/itssahil/PROJECTS/Mol_Feturizer/New_Systems/rnas/2GIS

>  <Rbt.Executable>
rbdock ($Id: //depot/dev/client3/rdock/2013.1/src/exe/rbdock.cxx#4 $)

>  <Rbt.Library>
libRbt.so (2013.1, Build901 2013/11/27)

>  <Rbt.Parameter_File>
/export/apps/rDock/src/rDock_2013.1_src/data/scripts/dock_solv.prm

>  <Rbt.Receptor>
prm/pocket_docking_5.prm

>  <SCORE>
-8.14218

>  <SCORE.INTER>
-8.03422

>  <SCORE.INTER.CONST>
1

>  <SCORE.INTER.POLAR>
0

>  <SCORE.INTER.ROT>
7

>  <SCORE.INTER.SOLV>
9.19789

>  <SCORE.INTER.VDW>
-16.6888

>  <SCORE.INTER.norm>
-0.297564

>  <SCORE.INTRA>
-0.107962

>  <SCORE.INTRA.DIHEDRAL>
6.15589

>  <SCORE.INTRA.DIHEDRAL.0>
9.40024

>  <SCORE.INTRA.POLAR>
0

>  <SCORE.INTRA.POLAR.0>
0

>  <SCORE.INTRA.REPUL>
0

>  <SCORE.INTRA.REPUL.0>
0

>  <SCORE.INTRA.SOLV>
-2.26877

>  <SCORE.INTRA.SOLV.lig_0>
-47.1049

>  <SCORE.INTRA.VDW>
-2.05152

>  <SCORE.INTRA.VDW.0>
-1.50278

>  <SCORE.INTRA.norm>
-0.0039986

>  <SCORE.RESTR>
0

>  <SCORE.RESTR.CAVITY>
0

>  <SCORE.RESTR.norm>
0

>  <SCORE.SYSTEM>
0

>  <SCORE.SYSTEM.CONST>
0

>  <SCORE.SYSTEM.DIHEDRAL>
0

>  <SCORE.SYSTEM.SOLV>
0

>  <SCORE.SYSTEM.norm>
0

>  <SCORE.heavy>
27

>  <SCORE.norm>
-0.301562

>  <RMSD>
6.633

$$$$
ligand
 OpenBabel11021811433D
libRbt.so/2013.1/901 2013/11/27
 27 29  0  0  0  0  0  0  0  0999 V2000
   48.4209   56.8485   34.1752 N   0  0  0  0  0  0  0  0  0  0  0  0
   48.9462   57.1057   32.8306 C   0  0  2  0  0  0  0  0  0  0  0  0
   49.7330   55.8974   32.3547 C   0  0  0  0  0  0  0  0  0  0  0  0
   50.4395   55.9810   31.3541 O   0  0  0  0  0  0  0  0  0  0  0  0
   49.8508   58.3541   32.8258 C   0  0  0  0  0  0  0  0  0  0  0  0
   48.9769   59.6074   32.8266 C   0  0  0  0  0  0  0  0  0  0  0  0
   48.1211   59.9673   31.2384 S   0  0  2  0  0  0  0  0  0  0  0  0
   47.0152   61.3569   31.6360 C   0  0  0  0  0  0  0  0  0  0  0  0
   46.9793   58.5714   31.3186 C   0  0  0  0  0  0  0  0  0  0  0  0
   45.8057   58.6719   30.3288 C   0  0  1  0  0  0  0  0  0  0  0  0
   46.3325   58.8747   28.9841 O   0  0  0  0  0  0  0  0  0  0  0  0
   45.2368   57.2764   30.3457 C   0  0  1  0  0  0  0  0  0  0  0  0
   44.1322   57.2146   31.2484 O   0  0  0  0  0  0  0  0  0  0  0  0
   44.7658   57.0524   28.9140 C   0  0  1  0  0  0  0  0  0  0  0  0
   43.3759   57.3149   28.7594 O   0  0  0  0  0  0  0  0  0  0  0  0
   45.6162   58.0220   28.0147 C   0  0  2  0  0  0  0  0  0  0  0  0
   49.6167   54.8155   32.9306 O   0  0  0  0  0  0  0  0  0  0  0  0
   47.9419   53.5439   26.5589 N   0  0  0  0  0  0  0  0  0  0  0  0
   46.8965   53.6944   27.3796 C   0  0  0  0  0  0  0  0  0  0  0  0
   46.3976   54.8913   27.6459 N   0  0  0  0  0  0  0  0  0  0  0  0
   46.9400   56.0063   27.1294 C   0  0  0  0  0  0  0  0  0  0  0  0
   48.0592   55.8992   26.2644 C   0  0  0  0  0  0  0  0  0  0  0  0
   48.5498   54.5976   25.9897 C   0  0  0  0  0  0  0  0  0  0  0  0
   49.6309   54.4155   25.1568 N   0  0  0  0  0  0  0  0  0  0  0  0
   48.4046   57.1486   25.8946 N   0  0  0  0  0  0  0  0  0  0  0  0
   47.6018   57.9987   26.4648 C   0  0  0  0  0  0  0  0  0  0  0  0
   46.6756   57.3502   27.2334 N   0  0  0  0  0  0  0  0  0  0  0  0
  2  1  1  1  0  0  0
  2  3  1  0  0  0  0
  2  5  1  0  0  0  0
  3  4  1  0  0  0  0
  3 17  1  0  0  0  0
  5  6  1  0  0  0  0
  7  6  1  1  0  0  0
  7  8  1  0  0  0  0
  7  9  1  0  0  0  0
 10  9  1  1  0  0  0
 10 11  1  0  0  0  0
 10 12  1  0  0  0  0
 11 16  1  0  0  0  0
 12 13  1  1  0  0  0
 12 14  1  0  0  0  0
 14 15  1  1  0  0  0
 14 16  1  0  0  0  0
 16 27  1  1  0  0  0
 18 19  2  0  0  0  0
 18 23  1  0  0  0  0
 19 20  1  0  0  0  0
 20 21  2  0  0  0  0
 21 22  1  0  0  0  0
 21 27  1  0  0  0  0
 22 23  2  0  0  0  0
 22 25  1  0  0  0  0
 23 24  1  0  0  0  0
 25 26  2  0  0  0  0
 26 27  1  0  0  0  0
M  END
>  <CHROM.1>
-167.99626445,-78.35462766,-72.85517787,172.65828661,165.45271505,53.96040936
118.32160069,47.43995021,57.15866810,29.64187988,-1.41153572,0.63552482,-2.14144441

>  <Name>
ligand

>  <RI>
0

>  <Rbt.Current_Directory>
/home/itssahil/PROJECTS/Mol_Feturizer/New_Systems/rnas/2GIS

>  <Rbt.Executable>
rbdock ($Id: //depot/dev/client3/rdock/2013.1/src/exe/rbdock.cxx#4 $)

>  <Rbt.Library>
libRbt.so (2013.1, Build901 2013/11/27)

>  <Rbt.Parameter_File>
/export/apps/rDock/src/rDock_2013.1_src/data/scripts/dock_solv.prm

>  <Rbt.Receptor>
prm/pocket_docking_5.prm

>  <SCORE>
-17.4377

>  <SCORE.INTER>
-14.9998

>  <SCORE.INTER.CONST>
1

>  <SCORE.INTER.POLAR>
0

>  <SCORE.INTER.ROT>
7

>  <SCORE.INTER.SOLV>
13.131

>  <SCORE.INTER.VDW>
-22.6435

>  <SCORE.INTER.norm>
-0.555549

>  <SCORE.INTRA>
-2.43783

>  <SCORE.INTRA.DIHEDRAL>
-4.15686

>  <SCORE.INTRA.DIHEDRAL.0>
9.40024

>  <SCORE.INTRA.POLAR>
0

>  <SCORE.INTRA.POLAR.0>
0

>  <SCORE.INTRA.REPUL>
0

>  <SCORE.INTRA.REPUL.0>
0

>  <SCORE.INTRA.SOLV>
-1.42262

>  <SCORE.INTRA.SOLV.lig_0>
-47.1049

>  <SCORE.INTRA.VDW>
0.351901

>  <SCORE.INTRA.VDW.0>
-1.50278

>  <SCORE.INTRA.norm>
-0.0902902

>  <SCORE.RESTR>
0

>  <SCORE.RESTR.CAVITY>
0

>  <SCORE.RESTR.norm>
0

>  <SCORE.SYSTEM>
0

>  <SCORE.SYSTEM.CONST>
0

>  <SCORE.SYSTEM.DIHEDRAL>
0

>  <SCORE.SYSTEM.SOLV>
0

>  <SCORE.SYSTEM.norm>
0

>  <SCORE.heavy>
27

>  <SCORE.norm>
-0.64584

>  <RMSD>
6.636

$$$$
ligand
 OpenBabel11021811433D
libRbt.so/2013.1/901 2013/11/27
 27 29  0  0  0  0  0  0  0  0999 V2000
   42.0024   52.8540   33.8168 N   0  0  0  0  0  0  0  0  0  0  0  0
   42.2383   54.2532   33.4474 C   0  0  2  0  0  0  0  0  0  0  0  0
   40.9071   54.9570   33.2530 C   0  0  0  0  0  0  0  0  0  0  0  0
   40.4679   55.6923   34.1327 O   0  0  0  0  0  0  0  0  0  0  0  0
   43.0724   54.3448   32.1540 C   0  0  0  0  0  0  0  0  0  0  0  0
   43.4899   55.7970   31.9275 C   0  0  0  0  0  0  0  0  0  0  0  0
   45.2548   56.1706   32.2880 S   0  0  2  0  0  0  0  0  0  0  0  0
   45.3462   56.1662   34.1057 C   0  0  0  0  0  0  0  0  0  0  0  0
   45.1478   57.9392   31.9428 C   0  0  0  0  0  0  0  0  0  0  0  0
   46.4126   58.7249   32.3305 C   0  0  1  0  0  0  0  0  0  0  0  0
   47.5810   57.8748   32.1324 O   0  0  0  0  0  0  0  0  0  0  0  0
   46.4850   59.7855   31.2622 C   0  0  1  0  0  0  0  0  0  0  0  0
   45.8996   60.9964   31.7415 O   0  0  0  0  0  0  0  0  0  0  0  0
   47.9791   59.9737   31.0296 C   0  0  1  0  0  0  0  0  0  0  0  0
   48.5016   61.0750   31.7636 O   0  0  0  0  0  0  0  0  0  0  0  0
   48.6662   58.6326   31.4784 C   0  0  2  0  0  0  0  0  0  0  0  0
   40.2348   54.7445   32.2437 O   0  0  0  0  0  0  0  0  0  0  0  0
   48.3675   57.4217   26.3769 N   0  0  0  0  0  0  0  0  0  0  0  0
   47.7003   58.3783   27.0318 C   0  0  0  0  0  0  0  0  0  0  0  0
   47.8894   58.5866   28.3252 N   0  0  0  0  0  0  0  0  0  0  0  0
   48.7341   57.8256   29.0405 C   0  0  0  0  0  0  0  0  0  0  0  0
   49.4543   56.7889   28.3934 C   0  0  0  0  0  0  0  0  0  0  0  0
   49.2372   56.6124   27.0034 C   0  0  0  0  0  0  0  0  0  0  0  0
   49.9032   55.6286   26.3076 N   0  0  0  0  0  0  0  0  0  0  0  0
   50.2175   56.1847   29.3258 N   0  0  0  0  0  0  0  0  0  0  0  0
   50.0161   56.7566   30.4768 C   0  0  0  0  0  0  0  0  0  0  0  0
   49.1151   57.7781   30.3594 N   0  0  0  0  0  0  0  0  0  0  0  0
  2  1  1  6  0  0  0
  2  3  1  0  0  0  0
  2  5  1  0  0  0  0
  3  4  1  0  0  0  0
  3 17  1  0  0  0  0
  5  6  1  0  0  0  0
  7  6  1  1  0  0  0
  7  8  1  0  0  0  0
  7  9  1  0  0  0  0
 10  9  1  6  0  0  0
 10 11  1  0  0  0  0
 10 12  1  0  0  0  0
 11 16  1  0  0  0  0
 12 13  1  1  0  0  0
 12 14  1  0  0  0  0
 14 15  1  1  0  0  0
 14 16  1  0  0  0  0
 16 27  1  6  0  0  0
 18 19  2  0  0  0  0
 18 23  1  0  0  0  0
 19 20  1  0  0  0  0
 20 21  2  0  0  0  0
 21 22  1  0  0  0  0
 21 27  1  0  0  0  0
 22 23  2  0  0  0  0
 22 25  1  0  0  0  0
 23 24  1  0  0  0  0
 25 26  2  0  0  0  0
 26 27  1  0  0  0  0
M  END
>  <CHROM.1>
101.78420870,-170.82437323,105.38160610,-74.10462586,171.28892255,33.10863592
95.78202404,46.16883723,57.07973840,31.02866972,3.11105979,0.64687602,0.63856971

>  <Name>
ligand

>  <RI>
0

>  <Rbt.Current_Directory>
/home/itssahil/PROJECTS/Mol_Feturizer/New_Systems/rnas/2GIS

>  <Rbt.Executable>
rbdock ($Id: //depot/dev/client3/rdock/2013.1/src/exe/rbdock.cxx#4 $)

>  <Rbt.Library>
libRbt.so (2013.1, Build901 2013/11/27)

>  <Rbt.Parameter_File>
/export/apps/rDock/src/rDock_2013.1_src/data/scripts/dock_solv.prm

>  <Rbt.Receptor>
prm/pocket_docking_8.prm

>  <SCORE>
-15.8553

>  <SCORE.INTER>
-13.9383

>  <SCORE.INTER.CONST>
1

>  <SCORE.INTER.POLAR>
0

>  <SCORE.INTER.ROT>
7

>  <SCORE.INTER.SOLV>
11.1936

>  <SCORE.INTER.VDW>
-21.2901

>  <SCORE.INTER.norm>
-0.516234

>  <SCORE.INTRA>
-1.91703

>  <SCORE.INTRA.DIHEDRAL>
0.895985

>  <SCORE.INTRA.DIHEDRAL.0>
9.40024

>  <SCORE.INTRA.POLAR>
0

>  <SCORE.INTRA.POLAR.0>
0

>  <SCORE.INTRA.REPUL>
0

>  <SCORE.INTRA.REPUL.0>
0

>  <SCORE.INTRA.SOLV>
-2.91914

>  <SCORE.INTRA.SOLV.lig_0>
-47.1049

>  <SCORE.INTRA.VDW>
-0.90545

>  <SCORE.INTRA.VDW.0>
-1.50278

>  <SCORE.INTRA.norm>
-0.071001

>  <SCORE.RESTR>
0

>  <SCORE.RESTR.CAVITY>
0

>  <SCORE.RESTR.norm>
0

>  <SCORE.SYSTEM>
0

>  <SCORE.SYSTEM.CONST>
0

>  <SCORE.SYSTEM.DIHEDRAL>
0

>  <SCORE.SYSTEM.SOLV>
0

>  <SCORE.SYSTEM.norm>
0

>  <SCORE.heavy>
27

>  <SCORE.norm>
-0.587235

>  <RMSD>
6.652

$$$$
ligand
 OpenBabel11021811433D
libRbt.so/2013.1/901 2013/11/27
 27 29  0  0  0  0  0  0  0  0999 V2000
   48.3417   56.7670   34.2084 N   0  0  0  0  0  0  0  0  0  0  0  0
   48.9272   56.9793   32.8810 C   0  0  2  0  0  0  0  0  0  0  0  0
   49.7088   55.7446   32.4688 C   0  0  0  0  0  0  0  0  0  0  0  0
   50.4281   55.7777   31.4743 O   0  0  0  0  0  0  0  0  0  0  0  0
   49.8559   58.2099   32.8828 C   0  0  0  0  0  0  0  0  0  0  0  0
   49.0065   59.4800   32.8747 C   0  0  0  0  0  0  0  0  0  0  0  0
   48.2035   59.8757   31.2675 S   0  0  2  0  0  0  0  0  0  0  0  0
   47.1075   61.2766   31.6530 C   0  0  0  0  0  0  0  0  0  0  0  0
   47.0388   58.4968   31.2938 C   0  0  0  0  0  0  0  0  0  0  0  0
   45.8695   58.6531   30.3062 C   0  0  1  0  0  0  0  0  0  0  0  0
   46.4031   58.8515   28.9635 O   0  0  0  0  0  0  0  0  0  0  0  0
   45.2482   57.2800   30.3072 C   0  0  1  0  0  0  0  0  0  0  0  0
   44.1424   57.2495   31.2100 O   0  0  0  0  0  0  0  0  0  0  0  0
   44.7686   57.0907   28.8734 C   0  0  1  0  0  0  0  0  0  0  0  0
   43.3897   57.4074   28.7229 O   0  0  0  0  0  0  0  0  0  0  0  0
   45.6548   58.0379   27.9848 C   0  0  2  0  0  0  0  0  0  0  0  0
   49.5758   54.6902   33.0905 O   0  0  0  0  0  0  0  0  0  0  0  0
   47.8365   53.4943   26.5093 N   0  0  0  0  0  0  0  0  0  0  0  0
   46.8025   53.6749   27.3384 C   0  0  0  0  0  0  0  0  0  0  0  0
   46.3411   54.8858   27.6089 N   0  0  0  0  0  0  0  0  0  0  0  0
   46.9118   55.9847   27.0885 C   0  0  0  0  0  0  0  0  0  0  0  0
   48.0205   55.8452   26.2145 C   0  0  0  0  0  0  0  0  0  0  0  0
   48.4705   54.5300   25.9356 C   0  0  0  0  0  0  0  0  0  0  0  0
   49.5392   54.3167   25.0940 N   0  0  0  0  0  0  0  0  0  0  0  0
   48.3995   57.0842   25.8423 N   0  0  0  0  0  0  0  0  0  0  0  0
   47.6264   57.9571   26.4191 C   0  0  0  0  0  0  0  0  0  0  0  0
   46.6878   57.3357   27.1949 N   0  0  0  0  0  0  0  0  0  0  0  0
  2  1  1  1  0  0  0
  2  3  1  0  0  0  0
  2  5  1  0  0  0  0
  3  4  1  0  0  0  0
  3 17  1  0  0  0  0
  5  6  1  0  0  0  0
  7  6  1  1  0  0  0
  7  8  1  0  0  0  0
  7  9  1  0  0  0  0
 10  9  1  1  0  0  0
 10 11  1  0  0  0  0
 10 12  1  0  0  0  0
 11 16  1  0  0  0  0
 12 13  1  1  0  0  0
 12 14  1  0  0  0  0
 14 15  1  1  0  0  0
 14 16  1  0  0  0  0
 16 27  1  1  0  0  0
 18 19  2  0  0  0  0
 18 23  1  0  0  0  0
 19 20  1  0  0  0  0
 20 21  2  0  0  0  0
 21 22  1  0  0  0  0
 21 27  1  0  0  0  0
 22 23  2  0  0  0  0
 22 25  1  0  0  0  0
 23 24  1  0  0  0  0
 25 26  2  0  0  0  0
 26 27  1  0  0  0  0
M  END
>  <CHROM.1>
-170.08645420,-76.00662374,-74.22368800,172.39367720,163.43002813,55.86782703
117.40845777,47.43957857,57.10124329,29.64164115,-1.37941476,0.68117218,-2.13729420

>  <Name>
ligand

>  <RI>
0

>  <Rbt.Current_Directory>
/home/itssahil/PROJECTS/Mol_Feturizer/New_Systems/rnas/2GIS

>  <Rbt.Executable>
rbdock ($Id: //depot/dev/client3/rdock/2013.1/src/exe/rbdock.cxx#4 $)

>  <Rbt.Library>
libRbt.so (2013.1, Build901 2013/11/27)

>  <Rbt.Parameter_File>
/export/apps/rDock/src/rDock_2013.1_src/data/scripts/dock_solv.prm

>  <Rbt.Receptor>
prm/pocket_docking_6.prm

>  <SCORE>
-17.4033

>  <SCORE.INTER>
-14.9267

>  <SCORE.INTER.CONST>
1

>  <SCORE.INTER.POLAR>
0

>  <SCORE.INTER.ROT>
7

>  <SCORE.INTER.SOLV>
12.9324

>  <SCORE.INTER.VDW>
-22.5286

>  <SCORE.INTER.norm>
-0.552841

>  <SCORE.INTRA>
-2.47655

>  <SCORE.INTRA.DIHEDRAL>
-4.26208

>  <SCORE.INTRA.DIHEDRAL.0>
9.40024

>  <SCORE.INTRA.POLAR>
0

>  <SCORE.INTRA.POLAR.0>
0

>  <SCORE.INTRA.REPUL>
0

>  <SCORE.INTRA.REPUL.0>
0

>  <SCORE.INTRA.SOLV>
-1.39705

>  <SCORE.INTRA.SOLV.lig_0>
-47.1049

>  <SCORE.INTRA.VDW>
0.35301

>  <SCORE.INTRA.VDW.0>
-1.50278

>  <SCORE.INTRA.norm>
-0.0917242

>  <SCORE.RESTR>
0

>  <SCORE.RESTR.CAVITY>
0

>  <SCORE.RESTR.norm>
0

>  <SCORE.SYSTEM>
0

>  <SCORE.SYSTEM.CONST>
0

>  <SCORE.SYSTEM.DIHEDRAL>
0

>  <SCORE.SYSTEM.SOLV>
0

>  <SCORE.SYSTEM.norm>
0

>  <SCORE.heavy>
27

>  <SCORE.norm>
-0.644566

>  <RMSD>
6.670

$$$$
ligand
 OpenBabel11021811433D
libRbt.so/2013.1/901 2013/11/27
 27 29  0  0  0  0  0  0  0  0999 V2000
   42.1668   57.0072   29.5854 N   0  0  0  0  0  0  0  0  0  0  0  0
   42.8760   55.7547   29.8652 C   0  0  2  0  0  0  0  0  0  0  0  0
   41.9720   54.8269   30.6571 C   0  0  0  0  0  0  0  0  0  0  0  0
   42.0315   53.6135   30.4792 O   0  0  0  0  0  0  0  0  0  0  0  0
   44.1714   56.0242   30.6566 C   0  0  0  0  0  0  0  0  0  0  0  0
   43.8220   56.7274   31.9674 C   0  0  0  0  0  0  0  0  0  0  0  0
   45.2184   56.9215   33.1492 S   0  0  2  0  0  0  0  0  0  0  0  0
   46.5544   57.6383   32.1424 C   0  0  0  0  0  0  0  0  0  0  0  0
   45.6890   55.1788   33.1734 C   0  0  0  0  0  0  0  0  0  0  0  0
   47.2081   54.9471   33.2480 C   0  0  1  0  0  0  0  0  0  0  0  0
   47.6904   55.3672   34.5586 O   0  0  0  0  0  0  0  0  0  0  0  0
   47.3161   53.4440   33.2281 C   0  0  1  0  0  0  0  0  0  0  0  0
   47.5739   52.9946   31.8977 O   0  0  0  0  0  0  0  0  0  0  0  0
   48.5084   53.1476   34.1293 C   0  0  1  0  0  0  0  0  0  0  0  0
   49.7085   52.9630   33.3875 O   0  0  0  0  0  0  0  0  0  0  0  0
   48.6413   54.3765   35.1010 C   0  0  2  0  0  0  0  0  0  0  0  0
   41.1341   55.2893   31.4317 O   0  0  0  0  0  0  0  0  0  0  0  0
   44.7099   53.0616   38.3254 N   0  0  0  0  0  0  0  0  0  0  0  0
   44.6661   53.2027   36.9961 C   0  0  0  0  0  0  0  0  0  0  0  0
   45.7472   53.5222   36.3022 N   0  0  0  0  0  0  0  0  0  0  0  0
   46.9249   53.7497   36.9067 C   0  0  0  0  0  0  0  0  0  0  0  0
   47.0183   53.6262   38.3168 C   0  0  0  0  0  0  0  0  0  0  0  0
   45.8418   53.2631   39.0197 C   0  0  0  0  0  0  0  0  0  0  0  0
   45.8570   53.1213   40.3892 N   0  0  0  0  0  0  0  0  0  0  0  0
   48.2904   53.9072   38.6633 N   0  0  0  0  0  0  0  0  0  0  0  0
   48.9692   54.1973   37.5921 C   0  0  0  0  0  0  0  0  0  0  0  0
   48.1794   54.1112   36.4796 N   0  0  0  0  0  0  0  0  0  0  0  0
  2  1  1  1  0  0  0
  2  3  1  0  0  0  0
  2  5  1  0  0  0  0
  3  4  1  0  0  0  0
  3 17  1  0  0  0  0
  5  6  1  0  0  0  0
  7  6  1  6  0  0  0
  7  8  1  0  0  0  0
  7  9  1  0  0  0  0
 10  9  1  1  0  0  0
 10 11  1  0  0  0  0
 10 12  1  0  0  0  0
 11 16  1  0  0  0  0
 12 13  1  6  0  0  0
 12 14  1  0  0  0  0
 14 15  1  6  0  0  0
 14 16  1  0  0  0  0
 16 27  1  1  0  0  0
 18 19  2  0  0  0  0
 18 23  1  0  0  0  0
 19 20  1  0  0  0  0
 20 21  2  0  0  0  0
 21 22  1  0  0  0  0
 21 27  1  0  0  0  0
 22 23  2  0  0  0  0
 22 25  1  0  0  0  0
 23 24  1  0  0  0  0
 25 26  2  0  0  0  0
 26 27  1  0  0  0  0
M  END
>  <CHROM.1>
145.53125943,58.85320059,171.91668384,49.92919575,142.56307558,68.88006995
52.42759283,45.82111991,54.64949057,34.19157587,2.09612268,0.07247751,-1.29601398

>  <Name>
ligand

>  <RI>
0

>  <Rbt.Current_Directory>
/home/itssahil/PROJECTS/Mol_Feturizer/New_Systems/rnas/2GIS

>  <Rbt.Executable>
rbdock ($Id: //depot/dev/client3/rdock/2013.1/src/exe/rbdock.cxx#4 $)

>  <Rbt.Library>
libRbt.so (2013.1, Build901 2013/11/27)

>  <Rbt.Parameter_File>
/export/apps/rDock/src/rDock_2013.1_src/data/scripts/dock_solv.prm

>  <Rbt.Receptor>
prm/pocket_docking_8.prm

>  <SCORE>
-14.4841

>  <SCORE.INTER>
-12.3546

>  <SCORE.INTER.CONST>
1

>  <SCORE.INTER.POLAR>
0

>  <SCORE.INTER.ROT>
7

>  <SCORE.INTER.SOLV>
15.7873

>  <SCORE.INTER.VDW>
-21.7655

>  <SCORE.INTER.norm>
-0.457577

>  <SCORE.INTRA>
-2.12951

>  <SCORE.INTRA.DIHEDRAL>
-3.27001

>  <SCORE.INTRA.DIHEDRAL.0>
9.40024

>  <SCORE.INTRA.POLAR>
0

>  <SCORE.INTRA.POLAR.0>
0

>  <SCORE.INTRA.REPUL>
0

>  <SCORE.INTRA.REPUL.0>
0

>  <SCORE.INTRA.SOLV>
-2.32439

>  <SCORE.INTRA.SOLV.lig_0>
-47.1049

>  <SCORE.INTRA.VDW>
0.667695

>  <SCORE.INTRA.VDW.0>
-1.50278

>  <SCORE.INTRA.norm>
-0.0788706

>  <SCORE.RESTR>
0

>  <SCORE.RESTR.CAVITY>
0

>  <SCORE.RESTR.norm>
0

>  <SCORE.SYSTEM>
0

>  <SCORE.SYSTEM.CONST>
0

>  <SCORE.SYSTEM.DIHEDRAL>
0

>  <SCORE.SYSTEM.SOLV>
0

>  <SCORE.SYSTEM.norm>
0

>  <SCORE.heavy>
27

>  <SCORE.norm>
-0.536447

>  <RMSD>
6.670

$$$$
ligand
 OpenBabel11021811433D
libRbt.so/2013.1/901 2013/11/27
 27 29  0  0  0  0  0  0  0  0999 V2000
   49.3557   54.1484   36.5627 N   0  0  0  0  0  0  0  0  0  0  0  0
   48.1082   54.4478   35.8529 C   0  0  2  0  0  0  0  0  0  0  0  0
   47.7154   53.2581   34.9952 C   0  0  0  0  0  0  0  0  0  0  0  0
   46.5655   52.8291   35.0312 O   0  0  0  0  0  0  0  0  0  0  0  0
   48.2687   55.7002   34.9682 C   0  0  0  0  0  0  0  0  0  0  0  0
   49.4595   55.5038   34.0312 C   0  0  0  0  0  0  0  0  0  0  0  0
   49.8004   56.9075   32.8920 S   0  0  2  0  0  0  0  0  0  0  0  0
   49.8785   58.3584   33.9878 C   0  0  0  0  0  0  0  0  0  0  0  0
   48.1194   57.0402   32.2474 C   0  0  0  0  0  0  0  0  0  0  0  0
   47.8020   58.4079   31.6185 C   0  0  1  0  0  0  0  0  0  0  0  0
   48.4357   58.4881   30.3074 O   0  0  0  0  0  0  0  0  0  0  0  0
   46.3202   58.3180   31.3586 C   0  0  1  0  0  0  0  0  0  0  0  0
   45.6026   58.9335   32.4286 O   0  0  0  0  0  0  0  0  0  0  0  0
   46.1237   59.1022   30.0671 C   0  0  1  0  0  0  0  0  0  0  0  0
   45.7149   60.4431   30.3107 O   0  0  0  0  0  0  0  0  0  0  0  0
   47.5066   59.0717   29.3195 C   0  0  2  0  0  0  0  0  0  0  0  0
   48.5605   52.6808   34.3109 O   0  0  0  0  0  0  0  0  0  0  0  0
   47.6350   54.1396   27.5195 N   0  0  0  0  0  0  0  0  0  0  0  0
   47.6042   54.5457   28.7935 C   0  0  0  0  0  0  0  0  0  0  0  0
   47.5541   55.8313   29.1048 N   0  0  0  0  0  0  0  0  0  0  0  0
   47.5651   56.7821   28.1560 C   0  0  0  0  0  0  0  0  0  0  0  0
   47.6115   56.4014   26.7903 C   0  0  0  0  0  0  0  0  0  0  0  0
   47.6442   55.0140   26.5000 C   0  0  0  0  0  0  0  0  0  0  0  0
   47.6868   54.5694   25.1976 N   0  0  0  0  0  0  0  0  0  0  0  0
   47.6163   57.5319   26.0561 N   0  0  0  0  0  0  0  0  0  0  0  0
   47.5862   58.5583   26.8546 C   0  0  0  0  0  0  0  0  0  0  0  0
   47.5484   58.1556   28.1606 N   0  0  0  0  0  0  0  0  0  0  0  0
  2  1  1  6  0  0  0
  2  3  1  0  0  0  0
  2  5  1  0  0  0  0
  3  4  1  0  0  0  0
  3 17  1  0  0  0  0
  5  6  1  0  0  0  0
  7  6  1  1  0  0  0
  7  8  1  0  0  0  0
  7  9  1  0  0  0  0
 10  9  1  6  0  0  0
 10 11  1  0  0  0  0
 10 12  1  0  0  0  0
 11 16  1  0  0  0  0
 12 13  1  1  0  0  0
 12 14  1  0  0  0  0
 14 15  1  1  0  0  0
 14 16  1  0  0  0  0
 16 27  1  6  0  0  0
 18 19  2  0  0  0  0
 18 23  1  0  0  0  0
 19 20  1  0  0  0  0
 20 21  2  0  0  0  0
 21 22  1  0  0  0  0
 21 27  1  0  0  0  0
 22 23  2  0  0  0  0
 22 25  1  0  0  0  0
 23 24  1  0  0  0  0
 25 26  2  0  0  0  0
 26 27  1  0  0  0  0
M  END
>  <CHROM.1>
131.82906936,54.78295232,179.87622700,51.84903242,159.26308727,75.85176021
41.70074911,47.84707185,56.52159397,31.06814403,-0.61256201,1.39833752,-2.21781519

>  <Name>
ligand

>  <RI>
0

>  <Rbt.Current_Directory>
/home/itssahil/PROJECTS/Mol_Feturizer/New_Systems/rnas/2GIS

>  <Rbt.Executable>
rbdock ($Id: //depot/dev/client3/rdock/2013.1/src/exe/rbdock.cxx#4 $)

>  <Rbt.Library>
libRbt.so (2013.1, Build901 2013/11/27)

>  <Rbt.Parameter_File>
/export/apps/rDock/src/rDock_2013.1_src/data/scripts/dock_solv.prm

>  <Rbt.Receptor>
prm/pocket_docking_6.prm

>  <SCORE>
-13.6712

>  <SCORE.INTER>
-10.3811

>  <SCORE.INTER.CONST>
1

>  <SCORE.INTER.POLAR>
0

>  <SCORE.INTER.ROT>
7

>  <SCORE.INTER.SOLV>
14.641

>  <SCORE.INTER.VDW>
-20.0677

>  <SCORE.INTER.norm>
-0.384486

>  <SCORE.INTRA>
-3.29006

>  <SCORE.INTRA.DIHEDRAL>
-4.62283

>  <SCORE.INTRA.DIHEDRAL.0>
9.40024

>  <SCORE.INTRA.POLAR>
0

>  <SCORE.INTRA.POLAR.0>
0

>  <SCORE.INTRA.REPUL>
0

>  <SCORE.INTRA.REPUL.0>
0

>  <SCORE.INTRA.SOLV>
-2.32344

>  <SCORE.INTRA.SOLV.lig_0>
-47.1049

>  <SCORE.INTRA.VDW>
0.18308

>  <SCORE.INTRA.VDW.0>
-1.50278

>  <SCORE.INTRA.norm>
-0.121854

>  <SCORE.RESTR>
0

>  <SCORE.RESTR.CAVITY>
0

>  <SCORE.RESTR.norm>
0

>  <SCORE.SYSTEM>
0

>  <SCORE.SYSTEM.CONST>
0

>  <SCORE.SYSTEM.DIHEDRAL>
0

>  <SCORE.SYSTEM.SOLV>
0

>  <SCORE.SYSTEM.norm>
0

>  <SCORE.heavy>
27

>  <SCORE.norm>
-0.506339

>  <RMSD>
6.672

$$$$
ligand
 OpenBabel11021811433D
libRbt.so/2013.1/901 2013/11/27
 27 29  0  0  0  0  0  0  0  0999 V2000
   47.8580   57.7632   30.4438 N   0  0  0  0  0  0  0  0  0  0  0  0
   47.5752   59.0219   31.1407 C   0  0  2  0  0  0  0  0  0  0  0  0
   48.8803   59.7323   31.4529 C   0  0  0  0  0  0  0  0  0  0  0  0
   48.9055   60.9564   31.5450 O   0  0  0  0  0  0  0  0  0  0  0  0
   46.7959   58.7621   32.4454 C   0  0  0  0  0  0  0  0  0  0  0  0
   45.3829   58.2932   32.1014 C   0  0  0  0  0  0  0  0  0  0  0  0
   45.2317   56.5113   31.6700 S   0  0  2  0  0  0  0  0  0  0  0  0
   43.4849   56.3165   31.1980 C   0  0  0  0  0  0  0  0  0  0  0  0
   45.2088   55.9065   33.3707 C   0  0  0  0  0  0  0  0  0  0  0  0
   44.8772   54.4090   33.4925 C   0  0  1  0  0  0  0  0  0  0  0  0
   45.8174   53.7865   34.4173 O   0  0  0  0  0  0  0  0  0  0  0  0
   43.5459   54.4202   34.1988 C   0  0  1  0  0  0  0  0  0  0  0  0
   42.4901   54.3114   33.2438 O   0  0  0  0  0  0  0  0  0  0  0  0
   43.5886   53.1825   35.0866 C   0  0  1  0  0  0  0  0  0  0  0  0
   42.9425   52.0674   34.4835 O   0  0  0  0  0  0  0  0  0  0  0  0
   45.1098   52.8730   35.3363 C   0  0  2  0  0  0  0  0  0  0  0  0
   49.9270   59.0916   31.5514 O   0  0  0  0  0  0  0  0  0  0  0  0
   49.0303   54.5843   38.3831 N   0  0  0  0  0  0  0  0  0  0  0  0
   49.0505   54.3780   37.0617 C   0  0  0  0  0  0  0  0  0  0  0  0
   47.9745   53.9593   36.4143 N   0  0  0  0  0  0  0  0  0  0  0  0
   46.8278   53.6930   37.0612 C   0  0  0  0  0  0  0  0  0  0  0  0
   46.7611   53.8829   38.4654 C   0  0  0  0  0  0  0  0  0  0  0  0
   47.9299   54.3513   39.1171 C   0  0  0  0  0  0  0  0  0  0  0  0
   47.9393   54.5620   40.4777 N   0  0  0  0  0  0  0  0  0  0  0  0
   45.5174   53.5445   38.8600 N   0  0  0  0  0  0  0  0  0  0  0  0
   44.8318   53.1598   37.8235 C   0  0  0  0  0  0  0  0  0  0  0  0
   45.5878   53.2358   36.6869 N   0  0  0  0  0  0  0  0  0  0  0  0
  2  1  1  1  0  0  0
  2  3  1  0  0  0  0
  2  5  1  0  0  0  0
  3  4  1  0  0  0  0
  3 17  1  0  0  0  0
  5  6  1  0  0  0  0
  7  6  1  1  0  0  0
  7  8  1  0  0  0  0
  7  9  1  0  0  0  0
 10  9  1  1  0  0  0
 10 11  1  0  0  0  0
 10 12  1  0  0  0  0
 11 16  1  0  0  0  0
 12 13  1  6  0  0  0
 12 14  1  0  0  0  0
 14 15  1  6  0  0  0
 14 16  1  0  0  0  0
 16 27  1  1  0  0  0
 18 19  2  0  0  0  0
 18 23  1  0  0  0  0
 19 20  1  0  0  0  0
 20 21  2  0  0  0  0
 21 22  1  0  0  0  0
 21 27  1  0  0  0  0
 22 23  2  0  0  0  0
 22 25  1  0  0  0  0
 23 24  1  0  0  0  0
 25 26  2  0  0  0  0
 26 27  1  0  0  0  0
M  END
>  <CHROM.1>
151.97509308,-69.52935072,80.99614732,-175.79589295,171.36995308,133.97501333
-33.16740329,46.18306333,55.52905101,34.47614105,-1.40644151,0.57029234,2.16840486

>  <Name>
ligand

>  <RI>
0

>  <Rbt.Current_Directory>
/home/itssahil/PROJECTS/Mol_Feturizer/New_Systems/rnas/2GIS

>  <Rbt.Executable>
rbdock ($Id: //depot/dev/client3/rdock/2013.1/src/exe/rbdock.cxx#4 $)

>  <Rbt.Library>
libRbt.so (2013.1, Build901 2013/11/27)

>  <Rbt.Parameter_File>
/export/apps/rDock/src/rDock_2013.1_src/data/scripts/dock_solv.prm

>  <Rbt.Receptor>
prm/pocket_docking_7.prm

>  <SCORE>
-17.3733

>  <SCORE.INTER>
-16.375

>  <SCORE.INTER.CONST>
1

>  <SCORE.INTER.POLAR>
0

>  <SCORE.INTER.ROT>
7

>  <SCORE.INTER.SOLV>
9.67331

>  <SCORE.INTER.VDW>
-22.4078

>  <SCORE.INTER.norm>
-0.606482

>  <SCORE.INTRA>
-0.998269

>  <SCORE.INTRA.DIHEDRAL>
0.540606

>  <SCORE.INTRA.DIHEDRAL.0>
9.40024

>  <SCORE.INTRA.POLAR>
0

>  <SCORE.INTRA.POLAR.0>
0

>  <SCORE.INTRA.REPUL>
0

>  <SCORE.INTRA.REPUL.0>
0

>  <SCORE.INTRA.SOLV>
-0.80762

>  <SCORE.INTRA.SOLV.lig_0>
-47.1049

>  <SCORE.INTRA.VDW>
-0.864762

>  <SCORE.INTRA.VDW.0>
-1.50278

>  <SCORE.INTRA.norm>
-0.0369729

>  <SCORE.RESTR>
0

>  <SCORE.RESTR.CAVITY>
0

>  <SCORE.RESTR.norm>
0

>  <SCORE.SYSTEM>
0

>  <SCORE.SYSTEM.CONST>
0

>  <SCORE.SYSTEM.DIHEDRAL>
0

>  <SCORE.SYSTEM.SOLV>
0

>  <SCORE.SYSTEM.norm>
0

>  <SCORE.heavy>
27

>  <SCORE.norm>
-0.643455

>  <RMSD>
6.687

$$$$
ligand
 OpenBabel11021811433D
libRbt.so/2013.1/901 2013/11/27
 27 29  0  0  0  0  0  0  0  0999 V2000
   44.4417   55.2001   34.3968 N   0  0  0  0  0  0  0  0  0  0  0  0
   45.2070   53.9508   34.4557 C   0  0  2  0  0  0  0  0  0  0  0  0
   44.2506   52.7717   34.4772 C   0  0  0  0  0  0  0  0  0  0  0  0
   43.8150   52.3160   33.4236 O   0  0  0  0  0  0  0  0  0  0  0  0
   46.1062   53.9180   35.7076 C   0  0  0  0  0  0  0  0  0  0  0  0
   47.3505   53.0826   35.4104 C   0  0  0  0  0  0  0  0  0  0  0  0
   48.8496   54.0451   34.9515 S   0  0  2  0  0  0  0  0  0  0  0  0
   49.1490   55.1132   36.3943 C   0  0  0  0  0  0  0  0  0  0  0  0
   48.0071   55.1860   33.8347 C   0  0  0  0  0  0  0  0  0  0  0  0
   48.8884   56.3545   33.3603 C   0  0  1  0  0  0  0  0  0  0  0  0
   49.9600   55.8325   32.5201 O   0  0  0  0  0  0  0  0  0  0  0  0
   47.9680   57.1109   32.4372 C   0  0  1  0  0  0  0  0  0  0  0  0
   47.3600   58.1945   33.1406 O   0  0  0  0  0  0  0  0  0  0  0  0
   48.8914   57.6378   31.3457 C   0  0  1  0  0  0  0  0  0  0  0  0
   49.2951   58.9808   31.5868 O   0  0  0  0  0  0  0  0  0  0  0  0
   50.1381   56.6799   31.3243 C   0  0  2  0  0  0  0  0  0  0  0  0
   43.8595   52.3098   35.5494 O   0  0  0  0  0  0  0  0  0  0  0  0
   48.2772   52.3015   29.0999 N   0  0  0  0  0  0  0  0  0  0  0  0
   47.9312   52.8321   30.2779 C   0  0  0  0  0  0  0  0  0  0  0  0
   48.4724   53.9603   30.7098 N   0  0  0  0  0  0  0  0  0  0  0  0
   49.4146   54.6017   29.9989 C   0  0  0  0  0  0  0  0  0  0  0  0
   49.8252   54.0703   28.7494 C   0  0  0  0  0  0  0  0  0  0  0  0
   49.2062   52.8711   28.3148 C   0  0  0  0  0  0  0  0  0  0  0  0
   49.5515   52.2982   27.1113 N   0  0  0  0  0  0  0  0  0  0  0  0
   50.7700   54.8930   28.2517 N   0  0  0  0  0  0  0  0  0  0  0  0
   50.9723   55.8660   29.0911 C   0  0  0  0  0  0  0  0  0  0  0  0
   50.1603   55.7403   30.1838 N   0  0  0  0  0  0  0  0  0  0  0  0
  2  1  1  1  0  0  0
  2  3  1  0  0  0  0
  2  5  1  0  0  0  0
  3  4  1  0  0  0  0
  3 17  1  0  0  0  0
  5  6  1  0  0  0  0
  7  6  1  1  0  0  0
  7  8  1  0  0  0  0
  7  9  1  0  0  0  0
 10  9  1  6  0  0  0
 10 11  1  0  0  0  0
 10 12  1  0  0  0  0
 11 16  1  0  0  0  0
 12 13  1  1  0  0  0
 12 14  1  0  0  0  0
 14 15  1  1  0  0  0
 14 16  1  0  0  0  0
 16 27  1  6  0  0  0
 18 19  2  0  0  0  0
 18 23  1  0  0  0  0
 19 20  1  0  0  0  0
 20 21  2  0  0  0  0
 21 22  1  0  0  0  0
 21 27  1  0  0  0  0
 22 23  2  0  0  0  0
 22 25  1  0  0  0  0
 23 24  1  0  0  0  0
 25 26  2  0  0  0  0
 26 27  1  0  0  0  0
M  END
>  <CHROM.1>
85.07874121,-150.23156227,98.18330102,59.53859962,171.01677717,66.52352976
37.95723541,48.06785353,54.74121944,32.30510576,2.59629361,0.83016331,0.88816525

>  <Name>
ligand

>  <RI>
0

>  <Rbt.Current_Directory>
/home/itssahil/PROJECTS/Mol_Feturizer/New_Systems/rnas/2GIS

>  <Rbt.Executable>
rbdock ($Id: //depot/dev/client3/rdock/2013.1/src/exe/rbdock.cxx#4 $)

>  <Rbt.Library>
libRbt.so (2013.1, Build901 2013/11/27)

>  <Rbt.Parameter_File>
/export/apps/rDock/src/rDock_2013.1_src/data/scripts/dock_solv.prm

>  <Rbt.Receptor>
prm/pocket_docking_5.prm

>  <SCORE>
-10.6194

>  <SCORE.INTER>
-9.88862

>  <SCORE.INTER.CONST>
1

>  <SCORE.INTER.POLAR>
0

>  <SCORE.INTER.ROT>
7

>  <SCORE.INTER.SOLV>
11.5158

>  <SCORE.INTER.VDW>
-18.6977

>  <SCORE.INTER.norm>
-0.366245

>  <SCORE.INTRA>
-0.730803

>  <SCORE.INTRA.DIHEDRAL>
0.819827

>  <SCORE.INTRA.DIHEDRAL.0>
9.40024

>  <SCORE.INTRA.POLAR>
0

>  <SCORE.INTRA.POLAR.0>
0

>  <SCORE.INTRA.REPUL>
0

>  <SCORE.INTRA.REPUL.0>
0

>  <SCORE.INTRA.SOLV>
-2.03863

>  <SCORE.INTRA.SOLV.lig_0>
-47.1049

>  <SCORE.INTRA.VDW>
-0.121399

>  <SCORE.INTRA.VDW.0>
-1.50278

>  <SCORE.INTRA.norm>
-0.0270668

>  <SCORE.RESTR>
0

>  <SCORE.RESTR.CAVITY>
0

>  <SCORE.RESTR.norm>
0

>  <SCORE.SYSTEM>
0

>  <SCORE.SYSTEM.CONST>
0

>  <SCORE.SYSTEM.DIHEDRAL>
0

>  <SCORE.SYSTEM.SOLV>
0

>  <SCORE.SYSTEM.norm>
0

>  <SCORE.heavy>
27

>  <SCORE.norm>
-0.393312

>  <RMSD>
6.699

$$$$
ligand
 OpenBabel11021811433D
libRbt.so/2013.1/901 2013/11/27
 27 29  0  0  0  0  0  0  0  0999 V2000
   49.2942   53.5472   33.8692 N   0  0  0  0  0  0  0  0  0  0  0  0
   48.8132   54.1600   35.1114 C   0  0  2  0  0  0  0  0  0  0  0  0
   47.7137   53.2994   35.7080 C   0  0  0  0  0  0  0  0  0  0  0  0
   46.8037   52.8857   34.9951 O   0  0  0  0  0  0  0  0  0  0  0  0
   48.2799   55.5826   34.8493 C   0  0  0  0  0  0  0  0  0  0  0  0
   49.4572   56.5532   34.7689 C   0  0  0  0  0  0  0  0  0  0  0  0
   49.6083   57.4725   33.1826 S   0  0  2  0  0  0  0  0  0  0  0  0
   50.2339   59.1086   33.6765 C   0  0  0  0  0  0  0  0  0  0  0  0
   47.8453   57.8101   32.9913 C   0  0  0  0  0  0  0  0  0  0  0  0
   47.5398   59.0368   32.1144 C   0  0  1  0  0  0  0  0  0  0  0  0
   48.4147   59.0182   30.9477 O   0  0  0  0  0  0  0  0  0  0  0  0
   46.1548   58.7402   31.5995 C   0  0  1  0  0  0  0  0  0  0  0  0
   45.1843   59.4021   32.4111 O   0  0  0  0  0  0  0  0  0  0  0  0
   46.1529   59.3197   30.1903 C   0  0  1  0  0  0  0  0  0  0  0  0
   45.5851   60.6237   30.1474 O   0  0  0  0  0  0  0  0  0  0  0  0
   47.6550   59.3541   29.7270 C   0  0  2  0  0  0  0  0  0  0  0  0
   47.6955   53.0665   36.9169 O   0  0  0  0  0  0  0  0  0  0  0  0
   50.4598   55.0607   28.5947 N   0  0  0  0  0  0  0  0  0  0  0  0
   50.4571   55.7598   29.7351 C   0  0  0  0  0  0  0  0  0  0  0  0
   49.6795   56.8197   29.8905 N   0  0  0  0  0  0  0  0  0  0  0  0
   48.8854   57.2565   28.8991 C   0  0  0  0  0  0  0  0  0  0  0  0
   48.8639   56.5565   27.6654 C   0  0  0  0  0  0  0  0  0  0  0  0
   49.6970   55.4153   27.5477 C   0  0  0  0  0  0  0  0  0  0  0  0
   49.7266   54.6842   26.3814 N   0  0  0  0  0  0  0  0  0  0  0  0
   47.9987   57.1961   26.8533 N   0  0  0  0  0  0  0  0  0  0  0  0
   47.5041   58.2221   27.4818 C   0  0  0  0  0  0  0  0  0  0  0  0
   48.0112   58.3052   28.7487 N   0  0  0  0  0  0  0  0  0  0  0  0
  2  1  1  6  0  0  0
  2  3  1  0  0  0  0
  2  5  1  0  0  0  0
  3  4  1  0  0  0  0
  3 17  1  0  0  0  0
  5  6  1  0  0  0  0
  7  6  1  1  0  0  0
  7  8  1  0  0  0  0
  7  9  1  0  0  0  0
 10  9  1  1  0  0  0
 10 11  1  0  0  0  0
 10 12  1  0  0  0  0
 11 16  1  0  0  0  0
 12 13  1  1  0  0  0
 12 14  1  0  0  0  0
 14 15  1  1  0  0  0
 14 16  1  0  0  0  0
 16 27  1  6  0  0  0
 18 19  2  0  0  0  0
 18 23  1  0  0  0  0
 19 20  1  0  0  0  0
 20 21  2  0  0  0  0
 21 22  1  0  0  0  0
 21 27  1  0  0  0  0
 22 23  2  0  0  0  0
 22 25  1  0  0  0  0
 23 24  1  0  0  0  0
 25 26  2  0  0  0  0
 26 27  1  0  0  0  0
M  END
>  <CHROM.1>
-47.07540157,-80.31510182,120.93636716,144.90618754,156.01322426,42.72543650
-1.75369598,48.30803632,56.87101117,31.48521169,-1.55409859,1.08318420,-1.14535918

>  <Name>
ligand

>  <RI>
0

>  <Rbt.Current_Directory>
/home/itssahil/PROJECTS/Mol_Feturizer/New_Systems/rnas/2GIS

>  <Rbt.Executable>
rbdock ($Id: //depot/dev/client3/rdock/2013.1/src/exe/rbdock.cxx#4 $)

>  <Rbt.Library>
libRbt.so (2013.1, Build901 2013/11/27)

>  <Rbt.Parameter_File>
/export/apps/rDock/src/rDock_2013.1_src/data/scripts/dock_solv.prm

>  <Rbt.Receptor>
prm/pocket_docking_3.prm

>  <SCORE>
-13.1057

>  <SCORE.INTER>
-14.3195

>  <SCORE.INTER.CONST>
1

>  <SCORE.INTER.POLAR>
0

>  <SCORE.INTER.ROT>
7

>  <SCORE.INTER.SOLV>
12.5337

>  <SCORE.INTER.VDW>
-21.9909

>  <SCORE.INTER.norm>
-0.530353

>  <SCORE.INTRA>
1.21388

>  <SCORE.INTRA.DIHEDRAL>
4.26341

>  <SCORE.INTRA.DIHEDRAL.0>
9.40024

>  <SCORE.INTRA.POLAR>
0

>  <SCORE.INTRA.POLAR.0>
0

>  <SCORE.INTRA.REPUL>
0

>  <SCORE.INTRA.REPUL.0>
0

>  <SCORE.INTRA.SOLV>
-1.90264

>  <SCORE.INTRA.SOLV.lig_0>
-47.1049

>  <SCORE.INTRA.VDW>
0.0334964

>  <SCORE.INTRA.VDW.0>
-1.50278

>  <SCORE.INTRA.norm>
0.0449585

>  <SCORE.RESTR>
0

>  <SCORE.RESTR.CAVITY>
0

>  <SCORE.RESTR.norm>
0

>  <SCORE.SYSTEM>
0

>  <SCORE.SYSTEM.CONST>
0

>  <SCORE.SYSTEM.DIHEDRAL>
0

>  <SCORE.SYSTEM.SOLV>
0

>  <SCORE.SYSTEM.norm>
0

>  <SCORE.heavy>
27

>  <SCORE.norm>
-0.485395

>  <RMSD>
6.716

$$$$
ligand
 OpenBabel11021811433D
libRbt.so/2013.1/901 2013/11/27
 27 29  0  0  0  0  0  0  0  0999 V2000
   43.6311   53.4905   36.7717 N   0  0  0  0  0  0  0  0  0  0  0  0
   43.9184   53.5058   35.3339 C   0  0  2  0  0  0  0  0  0  0  0  0
   42.9668   52.5644   34.6173 C   0  0  0  0  0  0  0  0  0  0  0  0
   42.3006   51.7586   35.2610 O   0  0  0  0  0  0  0  0  0  0  0  0
   45.3759   53.0829   35.0624 C   0  0  0  0  0  0  0  0  0  0  0  0
   46.3167   53.9761   35.8697 C   0  0  0  0  0  0  0  0  0  0  0  0
   48.0949   53.5104   35.7964 S   0  0  2  0  0  0  0  0  0  0  0  0
   48.9233   54.7618   36.8259 C   0  0  0  0  0  0  0  0  0  0  0  0
   48.3924   54.1616   34.1392 C   0  0  0  0  0  0  0  0  0  0  0  0
   48.3667   55.6979   34.0621 C   0  0  1  0  0  0  0  0  0  0  0  0
   49.4497   56.1498   33.1962 O   0  0  0  0  0  0  0  0  0  0  0  0
   47.0907   55.9712   33.3081 C   0  0  1  0  0  0  0  0  0  0  0  0
   46.0367   56.2579   34.2276 O   0  0  0  0  0  0  0  0  0  0  0  0
   47.4137   57.2021   32.4700 C   0  0  1  0  0  0  0  0  0  0  0  0
   46.9736   58.4043   33.0909 O   0  0  0  0  0  0  0  0  0  0  0  0
   48.9753   57.2122   32.2874 C   0  0  2  0  0  0  0  0  0  0  0  0
   42.9063   52.5614   33.3876 O   0  0  0  0  0  0  0  0  0  0  0  0
   51.2029   53.5620   29.2386 N   0  0  0  0  0  0  0  0  0  0  0  0
   50.9670   53.4976   30.5536 C   0  0  0  0  0  0  0  0  0  0  0  0
   50.3760   54.4928   31.1960 N   0  0  0  0  0  0  0  0  0  0  0  0
   50.0183   55.6212   30.5611 C   0  0  0  0  0  0  0  0  0  0  0  0
   50.2607   55.7426   29.1687 C   0  0  0  0  0  0  0  0  0  0  0  0
   50.8776   54.6459   28.5153 C   0  0  0  0  0  0  0  0  0  0  0  0
   51.1413   54.6905   27.1647 N   0  0  0  0  0  0  0  0  0  0  0  0
   49.8160   56.9562   28.7858 N   0  0  0  0  0  0  0  0  0  0  0  0
   49.3364   57.5801   29.8217 C   0  0  0  0  0  0  0  0  0  0  0  0
   49.4304   56.8026   30.9423 N   0  0  0  0  0  0  0  0  0  0  0  0
  2  1  1  1  0  0  0
  2  3  1  0  0  0  0
  2  5  1  0  0  0  0
  3  4  1  0  0  0  0
  3 17  1  0  0  0  0
  5  6  1  0  0  0  0
  7  6  1  1  0  0  0
  7  8  1  0  0  0  0
  7  9  1  0  0  0  0
 10  9  1  6  0  0  0
 10 11  1  0  0  0  0
 10 12  1  0  0  0  0
 11 16  1  0  0  0  0
 12 13  1  1  0  0  0
 12 14  1  0  0  0  0
 14 15  1  1  0  0  0
 14 16  1  0  0  0  0
 16 27  1  6  0  0  0
 18 19  2  0  0  0  0
 18 23  1  0  0  0  0
 19 20  1  0  0  0  0
 20 21  2  0  0  0  0
 21 22  1  0  0  0  0
 21 27  1  0  0  0  0
 22 23  2  0  0  0  0
 22 25  1  0  0  0  0
 23 24  1  0  0  0  0
 25 26  2  0  0  0  0
 26 27  1  0  0  0  0
M  END
>  <CHROM.1>
-13.58423540,-54.86715698,174.32278176,179.31426725,70.14243189,138.47088420
7.45807243,47.72630652,54.88024310,32.89491234,-2.63035374,-0.67501498,-2.03249589

>  <Name>
ligand

>  <RI>
0

>  <Rbt.Current_Directory>
/home/itssahil/PROJECTS/Mol_Feturizer/New_Systems/rnas/2GIS

>  <Rbt.Executable>
rbdock ($Id: //depot/dev/client3/rdock/2013.1/src/exe/rbdock.cxx#4 $)

>  <Rbt.Library>
libRbt.so (2013.1, Build901 2013/11/27)

>  <Rbt.Parameter_File>
/export/apps/rDock/src/rDock_2013.1_src/data/scripts/dock_solv.prm

>  <Rbt.Receptor>
prm/pocket_docking_7.prm

>  <SCORE>
-14.3094

>  <SCORE.INTER>
-13.2874

>  <SCORE.INTER.CONST>
1

>  <SCORE.INTER.POLAR>
0

>  <SCORE.INTER.ROT>
7

>  <SCORE.INTER.SOLV>
8.9259

>  <SCORE.INTER.VDW>
-20.1002

>  <SCORE.INTER.norm>
-0.492125

>  <SCORE.INTRA>
-1.02199

>  <SCORE.INTRA.DIHEDRAL>
-1.17212

>  <SCORE.INTRA.DIHEDRAL.0>
9.40024

>  <SCORE.INTRA.POLAR>
0

>  <SCORE.INTRA.POLAR.0>
0

>  <SCORE.INTRA.REPUL>
0

>  <SCORE.INTRA.REPUL.0>
0

>  <SCORE.INTRA.SOLV>
-1.61333

>  <SCORE.INTRA.SOLV.lig_0>
-47.1049

>  <SCORE.INTRA.VDW>
0.370738

>  <SCORE.INTRA.VDW.0>
-1.50278

>  <SCORE.INTRA.norm>
-0.0378514

>  <SCORE.RESTR>
0

>  <SCORE.RESTR.CAVITY>
0

>  <SCORE.RESTR.norm>
0

>  <SCORE.SYSTEM>
0

>  <SCORE.SYSTEM.CONST>
0

>  <SCORE.SYSTEM.DIHEDRAL>
0

>  <SCORE.SYSTEM.SOLV>
0

>  <SCORE.SYSTEM.norm>
0

>  <SCORE.heavy>
27

>  <SCORE.norm>
-0.529977

>  <RMSD>
6.742

$$$$
ligand
 OpenBabel11021811433D
libRbt.so/2013.1/901 2013/11/27
 27 29  0  0  0  0  0  0  0  0999 V2000
   48.6131   54.2479   33.6094 N   0  0  0  0  0  0  0  0  0  0  0  0
   48.4214   55.5576   32.9785 C   0  0  2  0  0  0  0  0  0  0  0  0
   49.2067   55.6142   31.6803 C   0  0  0  0  0  0  0  0  0  0  0  0
   50.4010   55.8986   31.6979 O   0  0  0  0  0  0  0  0  0  0  0  0
   48.8811   56.6903   33.9180 C   0  0  0  0  0  0  0  0  0  0  0  0
   48.2410   58.0039   33.4715 C   0  0  0  0  0  0  0  0  0  0  0  0
   48.9806   58.7654   31.9690 S   0  0  2  0  0  0  0  0  0  0  0  0
   48.5852   60.5346   32.1287 C   0  0  0  0  0  0  0  0  0  0  0  0
   47.6949   58.2166   30.8268 C   0  0  0  0  0  0  0  0  0  0  0  0
   47.9197   58.6715   29.3743 C   0  0  1  0  0  0  0  0  0  0  0  0
   49.2036   58.1604   28.9082 O   0  0  0  0  0  0  0  0  0  0  0  0
   46.8673   57.9015   28.6187 C   0  0  1  0  0  0  0  0  0  0  0  0
   45.7143   58.7208   28.4238 O   0  0  0  0  0  0  0  0  0  0  0  0
   47.5280   57.5878   27.2820 C   0  0  1  0  0  0  0  0  0  0  0  0
   47.1672   58.5236   26.2727 O   0  0  0  0  0  0  0  0  0  0  0  0
   49.0787   57.6210   27.5396 C   0  0  2  0  0  0  0  0  0  0  0  0
   48.6374   55.4385   30.6029 O   0  0  0  0  0  0  0  0  0  0  0  0
   48.5138   52.4091   27.8539 N   0  0  0  0  0  0  0  0  0  0  0  0
   47.5513   53.3379   27.8432 C   0  0  0  0  0  0  0  0  0  0  0  0
   47.8391   54.6258   27.7398 N   0  0  0  0  0  0  0  0  0  0  0  0
   49.1099   55.0558   27.6740 C   0  0  0  0  0  0  0  0  0  0  0  0
   50.1665   54.1096   27.6961 C   0  0  0  0  0  0  0  0  0  0  0  0
   49.8140   52.7393   27.7879 C   0  0  0  0  0  0  0  0  0  0  0  0
   50.7854   51.7639   27.8113 N   0  0  0  0  0  0  0  0  0  0  0  0
   51.3245   54.7957   27.6222 N   0  0  0  0  0  0  0  0  0  0  0  0
   51.0623   56.0686   27.5667 C   0  0  0  0  0  0  0  0  0  0  0  0
   49.7129   56.2871   27.5899 N   0  0  0  0  0  0  0  0  0  0  0  0
  2  1  1  1  0  0  0
  2  3  1  0  0  0  0
  2  5  1  0  0  0  0
  3  4  1  0  0  0  0
  3 17  1  0  0  0  0
  5  6  1  0  0  0  0
  7  6  1  1  0  0  0
  7  8  1  0  0  0  0
  7  9  1  0  0  0  0
 10  9  1  1  0  0  0
 10 11  1  0  0  0  0
 10 12  1  0  0  0  0
 11 16  1  0  0  0  0
 12 13  1  6  0  0  0
 12 14  1  0  0  0  0
 14 15  1  6  0  0  0
 14 16  1  0  0  0  0
 16 27  1  1  0  0  0
 18 19  2  0  0  0  0
 18 23  1  0  0  0  0
 19 20  1  0  0  0  0
 20 21  2  0  0  0  0
 21 22  1  0  0  0  0
 21 27  1  0  0  0  0
 22 23  2  0  0  0  0
 22 25  1  0  0  0  0
 23 24  1  0  0  0  0
 25 26  2  0  0  0  0
 26 27  1  0  0  0  0
M  END
>  <CHROM.1>
-83.45771485,-160.38808144,-75.51552635,-155.34026684,179.38815100,58.63943040
101.05363921,48.76180721,56.39417159,29.65183956,-2.05857566,1.20164164,-1.87637889

>  <Name>
ligand

>  <RI>
0

>  <Rbt.Current_Directory>
/home/itssahil/PROJECTS/Mol_Feturizer/New_Systems/rnas/2GIS

>  <Rbt.Executable>
rbdock ($Id: //depot/dev/client3/rdock/2013.1/src/exe/rbdock.cxx#4 $)

>  <Rbt.Library>
libRbt.so (2013.1, Build901 2013/11/27)

>  <Rbt.Parameter_File>
/export/apps/rDock/src/rDock_2013.1_src/data/scripts/dock_solv.prm

>  <Rbt.Receptor>
prm/pocket_docking_3.prm

>  <SCORE>
-13.1241

>  <SCORE.INTER>
-7.89006

>  <SCORE.INTER.CONST>
1

>  <SCORE.INTER.POLAR>
0

>  <SCORE.INTER.ROT>
7

>  <SCORE.INTER.SOLV>
15.747

>  <SCORE.INTER.VDW>
-18.7757

>  <SCORE.INTER.norm>
-0.292224

>  <SCORE.INTRA>
-5.23403

>  <SCORE.INTRA.DIHEDRAL>
-1.1879

>  <SCORE.INTRA.DIHEDRAL.0>
9.40024

>  <SCORE.INTRA.POLAR>
0

>  <SCORE.INTRA.POLAR.0>
0

>  <SCORE.INTRA.REPUL>
0

>  <SCORE.INTRA.REPUL.0>
0

>  <SCORE.INTRA.SOLV>
-2.9032

>  <SCORE.INTRA.SOLV.lig_0>
-47.1049

>  <SCORE.INTRA.VDW>
-3.18848

>  <SCORE.INTRA.VDW.0>
-1.50278

>  <SCORE.INTRA.norm>
-0.193853

>  <SCORE.RESTR>
0

>  <SCORE.RESTR.CAVITY>
0

>  <SCORE.RESTR.norm>
0

>  <SCORE.SYSTEM>
0

>  <SCORE.SYSTEM.CONST>
0

>  <SCORE.SYSTEM.DIHEDRAL>
0

>  <SCORE.SYSTEM.SOLV>
0

>  <SCORE.SYSTEM.norm>
0

>  <SCORE.heavy>
27

>  <SCORE.norm>
-0.486077

>  <RMSD>
6.746

$$$$
ligand
 OpenBabel11021811433D
libRbt.so/2013.1/901 2013/11/27
 27 29  0  0  0  0  0  0  0  0999 V2000
   48.7925   54.8394   36.1176 N   0  0  0  0  0  0  0  0  0  0  0  0
   47.7662   54.2570   36.9879 C   0  0  2  0  0  0  0  0  0  0  0  0
   48.3285   54.0822   38.3874 C   0  0  0  0  0  0  0  0  0  0  0  0
   49.2004   54.8432   38.7974 O   0  0  0  0  0  0  0  0  0  0  0  0
   47.2925   52.8958   36.4406 C   0  0  0  0  0  0  0  0  0  0  0  0
   46.5835   53.1110   35.1043 C   0  0  0  0  0  0  0  0  0  0  0  0
   44.9893   54.0240   35.2009 S   0  0  2  0  0  0  0  0  0  0  0  0
   43.8558   52.8519   36.0090 C   0  0  0  0  0  0  0  0  0  0  0  0
   44.5431   53.8090   33.4650 C   0  0  0  0  0  0  0  0  0  0  0  0
   43.7918   55.0096   32.8639 C   0  0  1  0  0  0  0  0  0  0  0  0
   44.3712   56.2429   33.3836 O   0  0  0  0  0  0  0  0  0  0  0  0
   44.1799   54.9495   31.4089 C   0  0  1  0  0  0  0  0  0  0  0  0
   43.1663   54.2731   30.6648 O   0  0  0  0  0  0  0  0  0  0  0  0
   44.2614   56.4116   30.9878 C   0  0  1  0  0  0  0  0  0  0  0  0
   43.0644   56.8565   30.3603 O   0  0  0  0  0  0  0  0  0  0  0  0
   44.5370   57.2323   32.3003 C   0  0  2  0  0  0  0  0  0  0  0  0
   47.9597   53.1415   39.0909 O   0  0  0  0  0  0  0  0  0  0  0  0
   47.9364   61.2154   31.8997 N   0  0  0  0  0  0  0  0  0  0  0  0
   46.6224   61.2322   31.6502 C   0  0  0  0  0  0  0  0  0  0  0  0
   45.8774   60.1501   31.8128 N   0  0  0  0  0  0  0  0  0  0  0  0
   46.4148   58.9826   32.2033 C   0  0  0  0  0  0  0  0  0  0  0  0
   47.8068   58.9111   32.4664 C   0  0  0  0  0  0  0  0  0  0  0  0
   48.5648   60.0976   32.2991 C   0  0  0  0  0  0  0  0  0  0  0  0
   49.9205   60.1050   32.5390 N   0  0  0  0  0  0  0  0  0  0  0  0
   48.0838   57.6438   32.8330 N   0  0  0  0  0  0  0  0  0  0  0  0
   46.9877   56.9436   32.8060 C   0  0  0  0  0  0  0  0  0  0  0  0
   45.9264   57.7190   32.4298 N   0  0  0  0  0  0  0  0  0  0  0  0
  2  1  1  6  0  0  0
  2  3  1  0  0  0  0
  2  5  1  0  0  0  0
  3  4  1  0  0  0  0
  3 17  1  0  0  0  0
  5  6  1  0  0  0  0
  7  6  1  6  0  0  0
  7  8  1  0  0  0  0
  7  9  1  0  0  0  0
 10  9  1  1  0  0  0
 10 11  1  0  0  0  0
 10 12  1  0  0  0  0
 11 16  1  0  0  0  0
 12 13  1  6  0  0  0
 12 14  1  0  0  0  0
 14 15  1  1  0  0  0
 14 16  1  0  0  0  0
 16 27  1  6  0  0  0
 18 19  2  0  0  0  0
 18 23  1  0  0  0  0
 19 20  1  0  0  0  0
 20 21  2  0  0  0  0
 21 22  1  0  0  0  0
 21 27  1  0  0  0  0
 22 23  2  0  0  0  0
 22 25  1  0  0  0  0
 23 24  1  0  0  0  0
 25 26  2  0  0  0  0
 26 27  1  0  0  0  0
M  END
>  <CHROM.1>
29.37967529,-65.44428136,-67.23525274,-70.43724466,-145.25115020,38.85649118
-144.44623175,46.22206104,56.16151183,33.83917228,-1.44930419,-0.65490626
-0.71260568

>  <Name>
ligand

>  <RI>
0

>  <Rbt.Current_Directory>
/home/itssahil/PROJECTS/Mol_Feturizer/New_Systems/rnas/2GIS

>  <Rbt.Executable>
rbdock ($Id: //depot/dev/client3/rdock/2013.1/src/exe/rbdock.cxx#4 $)

>  <Rbt.Library>
libRbt.so (2013.1, Build901 2013/11/27)

>  <Rbt.Parameter_File>
/export/apps/rDock/src/rDock_2013.1_src/data/scripts/dock_solv.prm

>  <Rbt.Receptor>
prm/pocket_docking_7.prm

>  <SCORE>
-18.4172

>  <SCORE.INTER>
-16.6569

>  <SCORE.INTER.CONST>
1

>  <SCORE.INTER.POLAR>
0

>  <SCORE.INTER.ROT>
7

>  <SCORE.INTER.SOLV>
20.4511

>  <SCORE.INTER.VDW>
-26.1883

>  <SCORE.INTER.norm>
-0.616922

>  <SCORE.INTRA>
-1.76027

>  <SCORE.INTRA.DIHEDRAL>
-0.896189

>  <SCORE.INTRA.DIHEDRAL.0>
9.40024

>  <SCORE.INTRA.POLAR>
0

>  <SCORE.INTRA.POLAR.0>
0

>  <SCORE.INTRA.REPUL>
0

>  <SCORE.INTRA.REPUL.0>
0

>  <SCORE.INTRA.SOLV>
-1.91661

>  <SCORE.INTRA.SOLV.lig_0>
-47.1049

>  <SCORE.INTRA.VDW>
-0.353872

>  <SCORE.INTRA.VDW.0>
-1.50278

>  <SCORE.INTRA.norm>
-0.0651952

>  <SCORE.RESTR>
0

>  <SCORE.RESTR.CAVITY>
0

>  <SCORE.RESTR.norm>
0

>  <SCORE.SYSTEM>
0

>  <SCORE.SYSTEM.CONST>
0

>  <SCORE.SYSTEM.DIHEDRAL>
0

>  <SCORE.SYSTEM.SOLV>
0

>  <SCORE.SYSTEM.norm>
0

>  <SCORE.heavy>
27

>  <SCORE.norm>
-0.682118

>  <RMSD>
6.752

$$$$
ligand
 OpenBabel11021811433D
libRbt.so/2013.1/901 2013/11/27
 27 29  0  0  0  0  0  0  0  0999 V2000
   47.1819   58.8603   30.3515 N   0  0  0  0  0  0  0  0  0  0  0  0
   46.2000   59.3580   31.3201 C   0  0  2  0  0  0  0  0  0  0  0  0
   46.6323   60.7238   31.8231 C   0  0  0  0  0  0  0  0  0  0  0  0
   45.7908   61.5893   32.0475 O   0  0  0  0  0  0  0  0  0  0  0  0
   46.0594   58.3839   32.5068 C   0  0  0  0  0  0  0  0  0  0  0  0
   44.8038   57.5349   32.3135 C   0  0  0  0  0  0  0  0  0  0  0  0
   44.8084   55.9177   33.1904 S   0  0  2  0  0  0  0  0  0  0  0  0
   45.9963   54.9080   32.2514 C   0  0  0  0  0  0  0  0  0  0  0  0
   43.2380   55.3339   32.5182 C   0  0  0  0  0  0  0  0  0  0  0  0
   42.8377   53.9306   33.0055 C   0  0  1  0  0  0  0  0  0  0  0  0
   44.0131   53.2627   33.5524 O   0  0  0  0  0  0  0  0  0  0  0  0
   41.9451   54.2298   34.1824 C   0  0  1  0  0  0  0  0  0  0  0  0
   40.5774   54.1956   33.7740 O   0  0  0  0  0  0  0  0  0  0  0  0
   42.2351   53.0998   35.1624 C   0  0  1  0  0  0  0  0  0  0  0  0
   41.2819   52.0479   35.0654 O   0  0  0  0  0  0  0  0  0  0  0  0
   43.6761   52.5755   34.8149 C   0  0  2  0  0  0  0  0  0  0  0  0
   47.8282   60.9892   31.9469 O   0  0  0  0  0  0  0  0  0  0  0  0
   48.7156   53.7544   35.7071 N   0  0  0  0  0  0  0  0  0  0  0  0
   48.1540   53.3816   34.5517 C   0  0  0  0  0  0  0  0  0  0  0  0
   46.8570   53.1315   34.4664 N   0  0  0  0  0  0  0  0  0  0  0  0
   46.0568   53.2098   35.5425 C   0  0  0  0  0  0  0  0  0  0  0  0
   46.6085   53.5875   36.7935 C   0  0  0  0  0  0  0  0  0  0  0  0
   47.9981   53.8658   36.8370 C   0  0  0  0  0  0  0  0  0  0  0  0
   48.6030   54.2413   38.0155 N   0  0  0  0  0  0  0  0  0  0  0  0
   45.6056   53.5852   37.6943 N   0  0  0  0  0  0  0  0  0  0  0  0
   44.5025   53.2320   37.1022 C   0  0  0  0  0  0  0  0  0  0  0  0
   44.7202   52.9935   35.7737 N   0  0  0  0  0  0  0  0  0  0  0  0
  2  1  1  6  0  0  0
  2  3  1  0  0  0  0
  2  5  1  0  0  0  0
  3  4  1  0  0  0  0
  3 17  1  0  0  0  0
  5  6  1  0  0  0  0
  7  6  1  6  0  0  0
  7  8  1  0  0  0  0
  7  9  1  0  0  0  0
 10  9  1  1  0  0  0
 10 11  1  0  0  0  0
 10 12  1  0  0  0  0
 11 16  1  0  0  0  0
 12 13  1  6  0  0  0
 12 14  1  0  0  0  0
 14 15  1  6  0  0  0
 14 16  1  0  0  0  0
 16 27  1  1  0  0  0
 18 19  2  0  0  0  0
 18 23  1  0  0  0  0
 19 20  1  0  0  0  0
 20 21  2  0  0  0  0
 21 22  1  0  0  0  0
 21 27  1  0  0  0  0
 22 23  2  0  0  0  0
 22 25  1  0  0  0  0
 23 24  1  0  0  0  0
 25 26  2  0  0  0  0
 26 27  1  0  0  0  0
M  END
>  <CHROM.1>
143.00445521,-100.53201919,156.25257075,-72.31636044,179.39088422,-17.55203640
-37.07481884,45.21964749,55.34189829,34.05352365,-1.28596043,0.35042570,2.51636202

>  <Name>
ligand

>  <RI>
0

>  <Rbt.Current_Directory>
/home/itssahil/PROJECTS/Mol_Feturizer/New_Systems/rnas/2GIS

>  <Rbt.Executable>
rbdock ($Id: //depot/dev/client3/rdock/2013.1/src/exe/rbdock.cxx#4 $)

>  <Rbt.Library>
libRbt.so (2013.1, Build901 2013/11/27)

>  <Rbt.Parameter_File>
/export/apps/rDock/src/rDock_2013.1_src/data/scripts/dock_solv.prm

>  <Rbt.Receptor>
prm/pocket_docking_8.prm

>  <SCORE>
-13.9946

>  <SCORE.INTER>
-14.275

>  <SCORE.INTER.CONST>
1

>  <SCORE.INTER.POLAR>
0

>  <SCORE.INTER.ROT>
7

>  <SCORE.INTER.SOLV>
13.736

>  <SCORE.INTER.VDW>
-22.362

>  <SCORE.INTER.norm>
-0.528705

>  <SCORE.INTRA>
0.280439

>  <SCORE.INTRA.DIHEDRAL>
4.46913

>  <SCORE.INTRA.DIHEDRAL.0>
9.40024

>  <SCORE.INTRA.POLAR>
0

>  <SCORE.INTRA.POLAR.0>
0

>  <SCORE.INTRA.REPUL>
0

>  <SCORE.INTRA.REPUL.0>
0

>  <SCORE.INTRA.SOLV>
-2.29942

>  <SCORE.INTRA.SOLV.lig_0>
-47.1049

>  <SCORE.INTRA.VDW>
-0.804415

>  <SCORE.INTRA.VDW.0>
-1.50278

>  <SCORE.INTRA.norm>
0.0103866

>  <SCORE.RESTR>
0

>  <SCORE.RESTR.CAVITY>
0

>  <SCORE.RESTR.norm>
0

>  <SCORE.SYSTEM>
0

>  <SCORE.SYSTEM.CONST>
0

>  <SCORE.SYSTEM.DIHEDRAL>
0

>  <SCORE.SYSTEM.SOLV>
0

>  <SCORE.SYSTEM.norm>
0

>  <SCORE.heavy>
27

>  <SCORE.norm>
-0.518318

>  <RMSD>
6.758

$$$$
ligand
 OpenBabel11021811433D
libRbt.so/2013.1/901 2013/11/27
 27 29  0  0  0  0  0  0  0  0999 V2000
   49.0107   55.0387   35.4752 N   0  0  0  0  0  0  0  0  0  0  0  0
   48.9457   55.2694   34.0286 C   0  0  2  0  0  0  0  0  0  0  0  0
   49.2083   53.9659   33.2956 C   0  0  0  0  0  0  0  0  0  0  0  0
   49.4829   53.9797   32.0990 O   0  0  0  0  0  0  0  0  0  0  0  0
   49.9779   56.3298   33.5964 C   0  0  0  0  0  0  0  0  0  0  0  0
   49.5335   57.7001   34.1059 C   0  0  0  0  0  0  0  0  0  0  0  0
   48.1459   58.4701   33.1753 S   0  0  2  0  0  0  0  0  0  0  0  0
   46.8141   57.2327   33.2616 C   0  0  0  0  0  0  0  0  0  0  0  0
   48.8205   58.1507   31.5317 C   0  0  0  0  0  0  0  0  0  0  0  0
   48.0822   58.8911   30.4031 C   0  0  1  0  0  0  0  0  0  0  0  0
   48.8625   58.7881   29.1754 O   0  0  0  0  0  0  0  0  0  0  0  0
   46.8589   58.0369   30.1903 C   0  0  1  0  0  0  0  0  0  0  0  0
   45.7564   58.5803   30.9168 O   0  0  0  0  0  0  0  0  0  0  0  0
   46.6026   58.1259   28.6910 C   0  0  1  0  0  0  0  0  0  0  0  0
   45.6261   59.1102   28.3714 O   0  0  0  0  0  0  0  0  0  0  0  0
   47.9841   58.4807   28.0292 C   0  0  2  0  0  0  0  0  0  0  0  0
   49.0849   52.8896   33.8807 O   0  0  0  0  0  0  0  0  0  0  0  0
   51.4039   54.4988   28.2054 N   0  0  0  0  0  0  0  0  0  0  0  0
   51.1069   55.3667   29.1789 C   0  0  0  0  0  0  0  0  0  0  0  0
   50.2033   56.3174   29.0008 N   0  0  0  0  0  0  0  0  0  0  0  0
   49.5710   56.4708   27.8257 C   0  0  0  0  0  0  0  0  0  0  0  0
   49.8624   55.5835   26.7580 C   0  0  0  0  0  0  0  0  0  0  0  0
   50.8218   54.5673   26.9970 C   0  0  0  0  0  0  0  0  0  0  0  0
   51.1535   53.6677   26.0089 N   0  0  0  0  0  0  0  0  0  0  0  0
   49.1044   55.9541   25.7067 N   0  0  0  0  0  0  0  0  0  0  0  0
   48.3900   56.9887   26.0407 C   0  0  0  0  0  0  0  0  0  0  0  0
   48.6329   57.3474   27.3373 N   0  0  0  0  0  0  0  0  0  0  0  0
  2  1  1  1  0  0  0
  2  3  1  0  0  0  0
  2  5  1  0  0  0  0
  3  4  1  0  0  0  0
  3 17  1  0  0  0  0
  5  6  1  0  0  0  0
  7  6  1  1  0  0  0
  7  8  1  0  0  0  0
  7  9  1  0  0  0  0
 10  9  1  1  0  0  0
 10 11  1  0  0  0  0
 10 12  1  0  0  0  0
 11 16  1  0  0  0  0
 12 13  1  1  0  0  0
 12 14  1  0  0  0  0
 14 15  1  1  0  0  0
 14 16  1  0  0  0  0
 16 27  1  1  0  0  0
 18 19  2  0  0  0  0
 18 23  1  0  0  0  0
 19 20  1  0  0  0  0
 20 21  2  0  0  0  0
 21 22  1  0  0  0  0
 21 27  1  0  0  0  0
 22 23  2  0  0  0  0
 22 25  1  0  0  0  0
 23 24  1  0  0  0  0
 25 26  2  0  0  0  0
 26 27  1  0  0  0  0
M  END
>  <CHROM.1>
-164.43153740,-70.71258051,-75.40087783,56.46001295,-168.66676822,168.40768531
19.33481736,48.77255641,56.62336474,30.34375824,-1.74802213,0.93033129,-1.42062969

>  <Name>
ligand

>  <RI>
0

>  <Rbt.Current_Directory>
/home/itssahil/PROJECTS/Mol_Feturizer/New_Systems/rnas/2GIS

>  <Rbt.Executable>
rbdock ($Id: //depot/dev/client3/rdock/2013.1/src/exe/rbdock.cxx#4 $)

>  <Rbt.Library>
libRbt.so (2013.1, Build901 2013/11/27)

>  <Rbt.Parameter_File>
/export/apps/rDock/src/rDock_2013.1_src/data/scripts/dock_solv.prm

>  <Rbt.Receptor>
prm/pocket_docking_4.prm

>  <SCORE>
-15.3347

>  <SCORE.INTER>
-14.4807

>  <SCORE.INTER.CONST>
1

>  <SCORE.INTER.POLAR>
0

>  <SCORE.INTER.ROT>
7

>  <SCORE.INTER.SOLV>
10.4925

>  <SCORE.INTER.VDW>
-21.418

>  <SCORE.INTER.norm>
-0.536322

>  <SCORE.INTRA>
-1.01453

>  <SCORE.INTRA.DIHEDRAL>
-3.54676

>  <SCORE.INTRA.DIHEDRAL.0>
9.40024

>  <SCORE.INTRA.POLAR>
0

>  <SCORE.INTRA.POLAR.0>
0

>  <SCORE.INTRA.REPUL>
0

>  <SCORE.INTRA.REPUL.0>
0

>  <SCORE.INTRA.SOLV>
-1.03006

>  <SCORE.INTRA.SOLV.lig_0>
-47.1049

>  <SCORE.INTRA.VDW>
1.27388

>  <SCORE.INTRA.VDW.0>
-1.50278

>  <SCORE.INTRA.norm>
-0.0375752

>  <SCORE.RESTR>
0.160553

>  <SCORE.RESTR.CAVITY>
0.160553

>  <SCORE.RESTR.norm>
0.00594641

>  <SCORE.SYSTEM>
0

>  <SCORE.SYSTEM.CONST>
0

>  <SCORE.SYSTEM.DIHEDRAL>
0

>  <SCORE.SYSTEM.SOLV>
0

>  <SCORE.SYSTEM.norm>
0

>  <SCORE.heavy>
27

>  <SCORE.norm>
-0.567951

>  <RMSD>
6.771

$$$$
ligand
 OpenBabel11021811433D
libRbt.so/2013.1/901 2013/11/27
 27 29  0  0  0  0  0  0  0  0999 V2000
   49.0943   55.1045   35.3632 N   0  0  0  0  0  0  0  0  0  0  0  0
   48.0728   55.2754   34.3253 C   0  0  2  0  0  0  0  0  0  0  0  0
   48.2494   54.2076   33.2604 C   0  0  0  0  0  0  0  0  0  0  0  0
   49.1585   53.3882   33.3582 O   0  0  0  0  0  0  0  0  0  0  0  0
   48.1717   56.6743   33.6849 C   0  0  0  0  0  0  0  0  0  0  0  0
   49.5056   56.7970   32.9499 C   0  0  0  0  0  0  0  0  0  0  0  0
   49.8062   58.4196   32.1367 S   0  0  2  0  0  0  0  0  0  0  0  0
   49.6595   59.6273   33.4902 C   0  0  0  0  0  0  0  0  0  0  0  0
   48.1782   58.5498   31.3676 C   0  0  0  0  0  0  0  0  0  0  0  0
   48.2245   58.9271   29.8767 C   0  0  1  0  0  0  0  0  0  0  0  0
   49.2027   58.0821   29.2015 O   0  0  0  0  0  0  0  0  0  0  0  0
   46.8745   58.4788   29.3787 C   0  0  1  0  0  0  0  0  0  0  0  0
   45.9717   59.5848   29.3646 O   0  0  0  0  0  0  0  0  0  0  0  0
   47.1462   57.9968   27.9590 C   0  0  1  0  0  0  0  0  0  0  0  0
   46.8594   58.9973   26.9889 O   0  0  0  0  0  0  0  0  0  0  0  0
   48.6670   57.6001   27.9129 C   0  0  2  0  0  0  0  0  0  0  0  0
   47.5240   54.1979   32.2655 O   0  0  0  0  0  0  0  0  0  0  0  0
   50.3696   53.3506   30.4866 N   0  0  0  0  0  0  0  0  0  0  0  0
   50.3293   54.6129   30.9269 C   0  0  0  0  0  0  0  0  0  0  0  0
   49.8534   55.5902   30.1714 N   0  0  0  0  0  0  0  0  0  0  0  0
   49.4218   55.3608   28.9202 C   0  0  0  0  0  0  0  0  0  0  0  0
   49.4578   54.0403   28.4032 C   0  0  0  0  0  0  0  0  0  0  0  0
   49.9563   53.0201   29.2522 C   0  0  0  0  0  0  0  0  0  0  0  0
   50.0184   51.7143   28.8200 N   0  0  0  0  0  0  0  0  0  0  0  0
   48.9784   54.0866   27.1441 N   0  0  0  0  0  0  0  0  0  0  0  0
   48.6656   55.3152   26.8526 C   0  0  0  0  0  0  0  0  0  0  0  0
   48.9130   56.1429   27.9122 N   0  0  0  0  0  0  0  0  0  0  0  0
  2  1  1  1  0  0  0
  2  3  1  0  0  0  0
  2  5  1  0  0  0  0
  3  4  1  0  0  0  0
  3 17  1  0  0  0  0
  5  6  1  0  0  0  0
  7  6  1  1  0  0  0
  7  8  1  0  0  0  0
  7  9  1  0  0  0  0
 10  9  1  1  0  0  0
 10 11  1  0  0  0  0
 10 12  1  0  0  0  0
 11 16  1  0  0  0  0
 12 13  1  6  0  0  0
 12 14  1  0  0  0  0
 14 15  1  6  0  0  0
 14 16  1  0  0  0  0
 16 27  1  1  0  0  0
 18 19  2  0  0  0  0
 18 23  1  0  0  0  0
 19 20  1  0  0  0  0
 20 21  2  0  0  0  0
 21 22  1  0  0  0  0
 21 27  1  0  0  0  0
 22 23  2  0  0  0  0
 22 25  1  0  0  0  0
 23 24  1  0  0  0  0
 25 26  2  0  0  0  0
 26 27  1  0  0  0  0
M  END
>  <CHROM.1>
-0.71382837,64.86756375,-179.28974372,56.94937346,-131.86572630,47.76992168
5.05669941,48.77213746,56.28343382,30.55044927,0.74251013,-1.28693577,1.26301133

>  <Name>
ligand

>  <RI>
0

>  <Rbt.Current_Directory>
/home/itssahil/PROJECTS/Mol_Feturizer/New_Systems/rnas/2GIS

>  <Rbt.Executable>
rbdock ($Id: //depot/dev/client3/rdock/2013.1/src/exe/rbdock.cxx#4 $)

>  <Rbt.Library>
libRbt.so (2013.1, Build901 2013/11/27)

>  <Rbt.Parameter_File>
/export/apps/rDock/src/rDock_2013.1_src/data/scripts/dock_solv.prm

>  <Rbt.Receptor>
prm/pocket_docking_2.prm

>  <SCORE>
-9.29935

>  <SCORE.INTER>
-7.68856

>  <SCORE.INTER.CONST>
1

>  <SCORE.INTER.POLAR>
0

>  <SCORE.INTER.ROT>
7

>  <SCORE.INTER.SOLV>
19.1518

>  <SCORE.INTER.VDW>
-19.7763

>  <SCORE.INTER.norm>
-0.284762

>  <SCORE.INTRA>
-2.46697

>  <SCORE.INTRA.DIHEDRAL>
-1.16439

>  <SCORE.INTRA.DIHEDRAL.0>
9.40024

>  <SCORE.INTRA.POLAR>
0

>  <SCORE.INTRA.POLAR.0>
0

>  <SCORE.INTRA.REPUL>
0

>  <SCORE.INTRA.REPUL.0>
0

>  <SCORE.INTRA.SOLV>
-2.36303

>  <SCORE.INTRA.SOLV.lig_0>
-47.1049

>  <SCORE.INTRA.VDW>
-0.703268

>  <SCORE.INTRA.VDW.0>
-1.50278

>  <SCORE.INTRA.norm>
-0.0913694

>  <SCORE.RESTR>
0.856187

>  <SCORE.RESTR.CAVITY>
0.856187

>  <SCORE.RESTR.norm>
0.0317106

>  <SCORE.SYSTEM>
0

>  <SCORE.SYSTEM.CONST>
0

>  <SCORE.SYSTEM.DIHEDRAL>
0

>  <SCORE.SYSTEM.SOLV>
0

>  <SCORE.SYSTEM.norm>
0

>  <SCORE.heavy>
27

>  <SCORE.norm>
-0.34442

>  <RMSD>
6.777

$$$$
ligand
 OpenBabel11021811433D
libRbt.so/2013.1/901 2013/11/27
 27 29  0  0  0  0  0  0  0  0999 V2000
   45.8346   52.1072   26.6794 N   0  0  0  0  0  0  0  0  0  0  0  0
   46.2528   53.4043   27.2205 C   0  0  2  0  0  0  0  0  0  0  0  0
   46.9473   54.2061   26.1341 C   0  0  0  0  0  0  0  0  0  0  0  0
   47.0077   55.4295   26.2184 O   0  0  0  0  0  0  0  0  0  0  0  0
   47.2025   53.2165   28.4203 C   0  0  0  0  0  0  0  0  0  0  0  0
   46.3761   52.9600   29.6796 C   0  0  0  0  0  0  0  0  0  0  0  0
   45.3723   54.3871   30.2627 S   0  0  2  0  0  0  0  0  0  0  0  0
   46.5582   55.7661   30.3267 C   0  0  0  0  0  0  0  0  0  0  0  0
   45.3189   53.8849   31.9958 C   0  0  0  0  0  0  0  0  0  0  0  0
   43.9378   53.3860   32.4551 C   0  0  1  0  0  0  0  0  0  0  0  0
   44.0997   52.5734   33.6552 O   0  0  0  0  0  0  0  0  0  0  0  0
   43.2581   54.6549   32.9015 C   0  0  1  0  0  0  0  0  0  0  0  0
   42.4377   55.1612   31.8482 O   0  0  0  0  0  0  0  0  0  0  0  0
   42.3983   54.2178   34.0810 C   0  0  1  0  0  0  0  0  0  0  0  0
   41.0517   53.9636   33.6980 O   0  0  0  0  0  0  0  0  0  0  0  0
   43.0669   52.9149   34.6534 C   0  0  2  0  0  0  0  0  0  0  0  0
   47.3952   53.6407   25.1364 O   0  0  0  0  0  0  0  0  0  0  0  0
   47.6750   53.0966   37.1662 N   0  0  0  0  0  0  0  0  0  0  0  0
   47.4584   52.8464   35.8702 C   0  0  0  0  0  0  0  0  0  0  0  0
   46.2354   52.8510   35.3637 N   0  0  0  0  0  0  0  0  0  0  0  0
   45.1590   53.0746   36.1355 C   0  0  0  0  0  0  0  0  0  0  0  0
   45.3365   53.3308   37.5194 C   0  0  0  0  0  0  0  0  0  0  0  0
   46.6640   53.3364   38.0173 C   0  0  0  0  0  0  0  0  0  0  0  0
   46.9140   53.5807   39.3491 N   0  0  0  0  0  0  0  0  0  0  0  0
   44.1138   53.5155   38.0558 N   0  0  0  0  0  0  0  0  0  0  0  0
   43.2158   53.3850   37.1237 C   0  0  0  0  0  0  0  0  0  0  0  0
   43.8034   53.1179   35.9185 N   0  0  0  0  0  0  0  0  0  0  0  0
  2  1  1  6  0  0  0
  2  3  1  0  0  0  0
  2  5  1  0  0  0  0
  3  4  1  0  0  0  0
  3 17  1  0  0  0  0
  5  6  1  0  0  0  0
  7  6  1  6  0  0  0
  7  8  1  0  0  0  0
  7  9  1  0  0  0  0
 10  9  1  1  0  0  0
 10 11  1  0  0  0  0
 10 12  1  0  0  0  0
 11 16  1  0  0  0  0
 12 13  1  6  0  0  0
 12 14  1  0  0  0  0
 14 15  1  6  0  0  0
 14 16  1  0  0  0  0
 16 27  1  1  0  0  0
 18 19  2  0  0  0  0
 18 23  1  0  0  0  0
 19 20  1  0  0  0  0
 20 21  2  0  0  0  0
 21 22  1  0  0  0  0
 21 27  1  0  0  0  0
 22 23  2  0  0  0  0
 22 25  1  0  0  0  0
 23 24  1  0  0  0  0
 25 26  2  0  0  0  0
 26 27  1  0  0  0  0
M  END
>  <CHROM.1>
157.43973919,-82.49157472,-67.71678419,-50.81464944,-108.62700362,159.49049390
3.10597879,45.21567132,53.69102298,32.55256633,-1.41906939,-0.12731763,1.65320888

>  <Name>
ligand

>  <RI>
0

>  <Rbt.Current_Directory>
/home/itssahil/PROJECTS/Mol_Feturizer/New_Systems/rnas/2GIS

>  <Rbt.Executable>
rbdock ($Id: //depot/dev/client3/rdock/2013.1/src/exe/rbdock.cxx#4 $)

>  <Rbt.Library>
libRbt.so (2013.1, Build901 2013/11/27)

>  <Rbt.Parameter_File>
/export/apps/rDock/src/rDock_2013.1_src/data/scripts/dock_solv.prm

>  <Rbt.Receptor>
prm/pocket_docking_8.prm

>  <SCORE>
-7.8348

>  <SCORE.INTER>
-6.31303

>  <SCORE.INTER.CONST>
1

>  <SCORE.INTER.POLAR>
0

>  <SCORE.INTER.ROT>
7

>  <SCORE.INTER.SOLV>
12.9313

>  <SCORE.INTER.VDW>
-16.7858

>  <SCORE.INTER.norm>
-0.233816

>  <SCORE.INTRA>
-1.52177

>  <SCORE.INTRA.DIHEDRAL>
1.55887

>  <SCORE.INTRA.DIHEDRAL.0>
9.40024

>  <SCORE.INTRA.POLAR>
0

>  <SCORE.INTRA.POLAR.0>
0

>  <SCORE.INTRA.REPUL>
0

>  <SCORE.INTRA.REPUL.0>
0

>  <SCORE.INTRA.SOLV>
-2.14185

>  <SCORE.INTRA.SOLV.lig_0>
-47.1049

>  <SCORE.INTRA.VDW>
-1.23028

>  <SCORE.INTRA.VDW.0>
-1.50278

>  <SCORE.INTRA.norm>
-0.0563618

>  <SCORE.RESTR>
0

>  <SCORE.RESTR.CAVITY>
0

>  <SCORE.RESTR.norm>
0

>  <SCORE.SYSTEM>
0

>  <SCORE.SYSTEM.CONST>
0

>  <SCORE.SYSTEM.DIHEDRAL>
0

>  <SCORE.SYSTEM.SOLV>
0

>  <SCORE.SYSTEM.norm>
0

>  <SCORE.heavy>
27

>  <SCORE.norm>
-0.290178

>  <RMSD>
6.779

$$$$
ligand
 OpenBabel11021811433D
libRbt.so/2013.1/901 2013/11/27
 27 29  0  0  0  0  0  0  0  0999 V2000
   49.3619   54.1307   36.9926 N   0  0  0  0  0  0  0  0  0  0  0  0
   48.2572   54.6771   36.1983 C   0  0  2  0  0  0  0  0  0  0  0  0
   47.1787   53.6207   36.0366 C   0  0  0  0  0  0  0  0  0  0  0  0
   45.9957   53.9491   36.0220 O   0  0  0  0  0  0  0  0  0  0  0  0
   48.7535   55.1345   34.8122 C   0  0  0  0  0  0  0  0  0  0  0  0
   49.4577   56.4834   34.9509 C   0  0  0  0  0  0  0  0  0  0  0  0
   49.6567   57.4285   33.3852 S   0  0  2  0  0  0  0  0  0  0  0  0
   50.0906   59.1086   33.9339 C   0  0  0  0  0  0  0  0  0  0  0  0
   47.8925   57.6101   33.0486 C   0  0  0  0  0  0  0  0  0  0  0  0
   47.5474   58.8412   32.1929 C   0  0  1  0  0  0  0  0  0  0  0  0
   48.4972   58.9366   31.0904 O   0  0  0  0  0  0  0  0  0  0  0  0
   46.2290   58.4556   31.5728 C   0  0  1  0  0  0  0  0  0  0  0  0
   45.1553   59.0070   32.3357 O   0  0  0  0  0  0  0  0  0  0  0  0
   46.2744   59.0865   30.1866 C   0  0  1  0  0  0  0  0  0  0  0  0
   45.6060   60.3420   30.1467 O   0  0  0  0  0  0  0  0  0  0  0  0
   47.7964   59.2575   29.8311 C   0  0  2  0  0  0  0  0  0  0  0  0
   47.4813   52.4284   35.9838 O   0  0  0  0  0  0  0  0  0  0  0  0
   50.7151   55.0037   28.8474 N   0  0  0  0  0  0  0  0  0  0  0  0
   50.5281   55.6145   30.0226 C   0  0  0  0  0  0  0  0  0  0  0  0
   49.7442   56.6758   30.1293 N   0  0  0  0  0  0  0  0  0  0  0  0
   49.1302   57.2029   29.0572 C   0  0  0  0  0  0  0  0  0  0  0  0
   49.3090   56.5989   27.7862 C   0  0  0  0  0  0  0  0  0  0  0  0
   50.1406   55.4525   27.7194 C   0  0  0  0  0  0  0  0  0  0  0  0
   50.3582   54.8112   26.5206 N   0  0  0  0  0  0  0  0  0  0  0  0
   48.5967   57.3162   26.8945 N   0  0  0  0  0  0  0  0  0  0  0  0
   48.0127   58.3020   27.5105 C   0  0  0  0  0  0  0  0  0  0  0  0
   48.3020   58.2783   28.8464 N   0  0  0  0  0  0  0  0  0  0  0  0
  2  1  1  1  0  0  0
  2  3  1  0  0  0  0
  2  5  1  0  0  0  0
  3  4  1  0  0  0  0
  3 17  1  0  0  0  0
  5  6  1  0  0  0  0
  7  6  1  1  0  0  0
  7  8  1  0  0  0  0
  7  9  1  0  0  0  0
 10  9  1  1  0  0  0
 10 11  1  0  0  0  0
 10 12  1  0  0  0  0
 11 16  1  0  0  0  0
 12 13  1  1  0  0  0
 12 14  1  0  0  0  0
 14 15  1  1  0  0  0
 14 16  1  0  0  0  0
 16 27  1  6  0  0  0
 18 19  2  0  0  0  0
 18 23  1  0  0  0  0
 19 20  1  0  0  0  0
 20 21  2  0  0  0  0
 21 22  1  0  0  0  0
 21 27  1  0  0  0  0
 22 23  2  0  0  0  0
 22 25  1  0  0  0  0
 23 24  1  0  0  0  0
 25 26  2  0  0  0  0
 26 27  1  0  0  0  0
M  END
>  <CHROM.1>
144.56791356,-77.96159392,-161.95956460,165.24061314,154.01393333,44.12151770
6.45433144,48.38404381,56.84847664,31.74031588,-1.70725548,0.94974239,-1.09333532

>  <Name>
ligand

>  <RI>
0

>  <Rbt.Current_Directory>
/home/itssahil/PROJECTS/Mol_Feturizer/New_Systems/rnas/2GIS

>  <Rbt.Executable>
rbdock ($Id: //depot/dev/client3/rdock/2013.1/src/exe/rbdock.cxx#4 $)

>  <Rbt.Library>
libRbt.so (2013.1, Build901 2013/11/27)

>  <Rbt.Parameter_File>
/export/apps/rDock/src/rDock_2013.1_src/data/scripts/dock_solv.prm

>  <Rbt.Receptor>
prm/pocket_docking_3.prm

>  <SCORE>
-18.3556

>  <SCORE.INTER>
-15.34

>  <SCORE.INTER.CONST>
1

>  <SCORE.INTER.POLAR>
0

>  <SCORE.INTER.ROT>
7

>  <SCORE.INTER.SOLV>
14.8686

>  <SCORE.INTER.VDW>
-23.4495

>  <SCORE.INTER.norm>
-0.568147

>  <SCORE.INTRA>
-3.01807

>  <SCORE.INTRA.DIHEDRAL>
-1.82782

>  <SCORE.INTRA.DIHEDRAL.0>
9.40024

>  <SCORE.INTRA.POLAR>
0

>  <SCORE.INTRA.POLAR.0>
0

>  <SCORE.INTRA.REPUL>
0

>  <SCORE.INTRA.REPUL.0>
0

>  <SCORE.INTRA.SOLV>
-2.38987

>  <SCORE.INTRA.SOLV.lig_0>
-47.1049

>  <SCORE.INTRA.VDW>
-0.909224

>  <SCORE.INTRA.VDW.0>
-1.50278

>  <SCORE.INTRA.norm>
-0.11178

>  <SCORE.RESTR>
0.002429

>  <SCORE.RESTR.CAVITY>
0.002429

>  <SCORE.RESTR.norm>
8.99628e-05

>  <SCORE.SYSTEM>
0

>  <SCORE.SYSTEM.CONST>
0

>  <SCORE.SYSTEM.DIHEDRAL>
0

>  <SCORE.SYSTEM.SOLV>
0

>  <SCORE.SYSTEM.norm>
0

>  <SCORE.heavy>
27

>  <SCORE.norm>
-0.679837

>  <RMSD>
6.799

$$$$
ligand
 OpenBabel11021811433D
libRbt.so/2013.1/901 2013/11/27
 27 29  0  0  0  0  0  0  0  0999 V2000
   50.0356   56.1774   34.4590 N   0  0  0  0  0  0  0  0  0  0  0  0
   49.1286   57.2860   34.1455 C   0  0  2  0  0  0  0  0  0  0  0  0
   47.8046   56.7323   33.6496 C   0  0  0  0  0  0  0  0  0  0  0  0
   46.7523   57.2730   33.9778 O   0  0  0  0  0  0  0  0  0  0  0  0
   49.7430   58.2101   33.0752 C   0  0  0  0  0  0  0  0  0  0  0  0
   48.9241   59.4975   32.9934 C   0  0  0  0  0  0  0  0  0  0  0  0
   48.2798   59.9116   31.3208 S   0  0  2  0  0  0  0  0  0  0  0  0
   47.0658   61.2321   31.6282 C   0  0  0  0  0  0  0  0  0  0  0  0
   47.2043   58.4695   31.1703 C   0  0  0  0  0  0  0  0  0  0  0  0
   46.0496   58.6580   30.1712 C   0  0  1  0  0  0  0  0  0  0  0  0
   46.6004   58.8078   28.8291 O   0  0  0  0  0  0  0  0  0  0  0  0
   45.3691   57.3135   30.1929 C   0  0  1  0  0  0  0  0  0  0  0  0
   44.2570   57.3480   31.0877 O   0  0  0  0  0  0  0  0  0  0  0  0
   44.8913   57.1183   28.7593 C   0  0  1  0  0  0  0  0  0  0  0  0
   43.5285   57.4918   28.5926 O   0  0  0  0  0  0  0  0  0  0  0  0
   45.8239   58.0093   27.8600 C   0  0  2  0  0  0  0  0  0  0  0  0
   47.7770   55.7053   32.9712 O   0  0  0  0  0  0  0  0  0  0  0  0
   47.7639   53.3463   26.4197 N   0  0  0  0  0  0  0  0  0  0  0  0
   46.7244   53.5868   27.2264 C   0  0  0  0  0  0  0  0  0  0  0  0
   46.3299   54.8225   27.4903 N   0  0  0  0  0  0  0  0  0  0  0  0
   46.9762   55.8864   26.9856 C   0  0  0  0  0  0  0  0  0  0  0  0
   48.0936   55.6827   26.1358 C   0  0  0  0  0  0  0  0  0  0  0  0
   48.4708   54.3434   25.8630 C   0  0  0  0  0  0  0  0  0  0  0  0
   49.5432   54.0683   25.0445 N   0  0  0  0  0  0  0  0  0  0  0  0
   48.5536   56.8975   25.7755 N   0  0  0  0  0  0  0  0  0  0  0  0
   47.8213   57.8139   26.3377 C   0  0  0  0  0  0  0  0  0  0  0  0
   46.8305   57.2482   27.0909 N   0  0  0  0  0  0  0  0  0  0  0  0
  2  1  1  6  0  0  0
  2  3  1  0  0  0  0
  2  5  1  0  0  0  0
  3  4  1  0  0  0  0
  3 17  1  0  0  0  0
  5  6  1  0  0  0  0
  7  6  1  1  0  0  0
  7  8  1  0  0  0  0
  7  9  1  0  0  0  0
 10  9  1  1  0  0  0
 10 11  1  0  0  0  0
 10 12  1  0  0  0  0
 11 16  1  0  0  0  0
 12 13  1  1  0  0  0
 12 14  1  0  0  0  0
 14 15  1  1  0  0  0
 14 16  1  0  0  0  0
 16 27  1  1  0  0  0
 18 19  2  0  0  0  0
 18 23  1  0  0  0  0
 19 20  1  0  0  0  0
 20 21  2  0  0  0  0
 21 22  1  0  0  0  0
 21 27  1  0  0  0  0
 22 23  2  0  0  0  0
 22 25  1  0  0  0  0
 23 24  1  0  0  0  0
 25 26  2  0  0  0  0
 26 27  1  0  0  0  0
M  END
>  <CHROM.1>
141.52476391,-167.90158342,-124.70626380,167.32639604,157.16448650,65.24282576
119.13486445,47.28154498,57.18421510,29.77571620,-1.44381353,0.78000535,-2.07706006

>  <Name>
ligand

>  <RI>
0

>  <Rbt.Current_Directory>
/home/itssahil/PROJECTS/Mol_Feturizer/New_Systems/rnas/2GIS

>  <Rbt.Executable>
rbdock ($Id: //depot/dev/client3/rdock/2013.1/src/exe/rbdock.cxx#4 $)

>  <Rbt.Library>
libRbt.so (2013.1, Build901 2013/11/27)

>  <Rbt.Parameter_File>
/export/apps/rDock/src/rDock_2013.1_src/data/scripts/dock_solv.prm

>  <Rbt.Receptor>
prm/pocket_docking_5.prm

>  <SCORE>
-18.3867

>  <SCORE.INTER>
-16.1613

>  <SCORE.INTER.CONST>
1

>  <SCORE.INTER.POLAR>
0

>  <SCORE.INTER.ROT>
7

>  <SCORE.INTER.SOLV>
14.6502

>  <SCORE.INTER.VDW>
-23.9243

>  <SCORE.INTER.norm>
-0.598568

>  <SCORE.INTRA>
-2.22542

>  <SCORE.INTRA.DIHEDRAL>
0.78024

>  <SCORE.INTRA.DIHEDRAL.0>
9.40024

>  <SCORE.INTRA.POLAR>
0

>  <SCORE.INTRA.POLAR.0>
0

>  <SCORE.INTRA.REPUL>
0

>  <SCORE.INTRA.REPUL.0>
0

>  <SCORE.INTRA.SOLV>
-3.03673

>  <SCORE.INTRA.SOLV.lig_0>
-47.1049

>  <SCORE.INTRA.VDW>
-1.09718

>  <SCORE.INTRA.VDW.0>
-1.50278

>  <SCORE.INTRA.norm>
-0.0824231

>  <SCORE.RESTR>
0

>  <SCORE.RESTR.CAVITY>
0

>  <SCORE.RESTR.norm>
0

>  <SCORE.SYSTEM>
0

>  <SCORE.SYSTEM.CONST>
0

>  <SCORE.SYSTEM.DIHEDRAL>
0

>  <SCORE.SYSTEM.SOLV>
0

>  <SCORE.SYSTEM.norm>
0

>  <SCORE.heavy>
27

>  <SCORE.norm>
-0.680991

>  <RMSD>
6.809

$$$$
ligand
 OpenBabel11021811433D
libRbt.so/2013.1/901 2013/11/27
 27 29  0  0  0  0  0  0  0  0999 V2000
   49.7756   55.7261   35.1867 N   0  0  0  0  0  0  0  0  0  0  0  0
   48.8525   56.4658   34.3203 C   0  0  2  0  0  0  0  0  0  0  0  0
   48.4558   55.5944   33.1419 C   0  0  0  0  0  0  0  0  0  0  0  0
   49.3217   55.0471   32.4649 O   0  0  0  0  0  0  0  0  0  0  0  0
   49.5031   57.7680   33.8125 C   0  0  0  0  0  0  0  0  0  0  0  0
   48.4301   58.6505   33.1765 C   0  0  0  0  0  0  0  0  0  0  0  0
   49.0626   59.9946   32.0912 S   0  0  2  0  0  0  0  0  0  0  0  0
   47.6049   61.0404   31.7859 C   0  0  0  0  0  0  0  0  0  0  0  0
   49.1142   59.0085   30.5800 C   0  0  0  0  0  0  0  0  0  0  0  0
   47.8177   59.0705   29.7540 C   0  0  1  0  0  0  0  0  0  0  0  0
   48.1526   59.0079   28.3360 O   0  0  0  0  0  0  0  0  0  0  0  0
   47.1522   57.7585   30.0817 C   0  0  1  0  0  0  0  0  0  0  0  0
   46.1928   57.9486   31.1218 O   0  0  0  0  0  0  0  0  0  0  0  0
   46.4578   57.3627   28.7844 C   0  0  1  0  0  0  0  0  0  0  0  0
   45.0847   57.7355   28.7758 O   0  0  0  0  0  0  0  0  0  0  0  0
   47.2369   58.0907   27.6289 C   0  0  2  0  0  0  0  0  0  0  0  0
   47.2719   55.4846   32.8224 O   0  0  0  0  0  0  0  0  0  0  0  0
   51.6825   55.3118   27.3191 N   0  0  0  0  0  0  0  0  0  0  0  0
   51.2489   56.0511   28.3460 C   0  0  0  0  0  0  0  0  0  0  0  0
   50.0901   56.6886   28.2938 N   0  0  0  0  0  0  0  0  0  0  0  0
   49.3169   56.6465   27.1962 C   0  0  0  0  0  0  0  0  0  0  0  0
   49.7407   55.8870   26.0756 C   0  0  0  0  0  0  0  0  0  0  0  0
   50.9785   55.2036   26.1804 C   0  0  0  0  0  0  0  0  0  0  0  0
   51.4528   54.4443   25.1343 N   0  0  0  0  0  0  0  0  0  0  0  0
   48.7972   56.0146   25.1213 N   0  0  0  0  0  0  0  0  0  0  0  0
   47.8486   56.7885   25.5612 C   0  0  0  0  0  0  0  0  0  0  0  0
   48.1136   57.2030   26.8367 N   0  0  0  0  0  0  0  0  0  0  0  0
  2  1  1  1  0  0  0
  2  3  1  0  0  0  0
  2  5  1  0  0  0  0
  3  4  1  0  0  0  0
  3 17  1  0  0  0  0
  5  6  1  0  0  0  0
  7  6  1  1  0  0  0
  7  8  1  0  0  0  0
  7  9  1  0  0  0  0
 10  9  1  1  0  0  0
 10 11  1  0  0  0  0
 10 12  1  0  0  0  0
 11 16  1  0  0  0  0
 12 13  1  1  0  0  0
 12 14  1  0  0  0  0
 14 15  1  1  0  0  0
 14 16  1  0  0  0  0
 16 27  1  1  0  0  0
 18 19  2  0  0  0  0
 18 23  1  0  0  0  0
 19 20  1  0  0  0  0
 20 21  2  0  0  0  0
 21 22  1  0  0  0  0
 21 27  1  0  0  0  0
 22 23  2  0  0  0  0
 22 25  1  0  0  0  0
 23 24  1  0  0  0  0
 25 26  2  0  0  0  0
 26 27  1  0  0  0  0
M  END
>  <CHROM.1>
-51.38424465,-167.73196432,-162.85531294,-168.72311131,90.89325780,145.43794640
39.81458482,48.65821123,57.27820802,29.82602005,-1.81154682,0.84847994,-1.63356446

>  <Name>
ligand

>  <RI>
0

>  <Rbt.Current_Directory>
/home/itssahil/PROJECTS/Mol_Feturizer/New_Systems/rnas/2GIS

>  <Rbt.Executable>
rbdock ($Id: //depot/dev/client3/rdock/2013.1/src/exe/rbdock.cxx#4 $)

>  <Rbt.Library>
libRbt.so (2013.1, Build901 2013/11/27)

>  <Rbt.Parameter_File>
/export/apps/rDock/src/rDock_2013.1_src/data/scripts/dock_solv.prm

>  <Rbt.Receptor>
prm/pocket_docking_5.prm

>  <SCORE>
-17.6885

>  <SCORE.INTER>
-17.0947

>  <SCORE.INTER.CONST>
1

>  <SCORE.INTER.POLAR>
0

>  <SCORE.INTER.ROT>
7

>  <SCORE.INTER.SOLV>
14.3239

>  <SCORE.INTER.VDW>
-24.4378

>  <SCORE.INTER.norm>
-0.633137

>  <SCORE.INTRA>
-0.597315

>  <SCORE.INTRA.DIHEDRAL>
2.57944

>  <SCORE.INTRA.DIHEDRAL.0>
9.40024

>  <SCORE.INTRA.POLAR>
0

>  <SCORE.INTRA.POLAR.0>
0

>  <SCORE.INTRA.REPUL>
0

>  <SCORE.INTRA.REPUL.0>
0

>  <SCORE.INTRA.SOLV>
-2.49222

>  <SCORE.INTRA.SOLV.lig_0>
-47.1049

>  <SCORE.INTRA.VDW>
-0.640926

>  <SCORE.INTRA.VDW.0>
-1.50278

>  <SCORE.INTRA.norm>
-0.0221228

>  <SCORE.RESTR>
0.0034867

>  <SCORE.RESTR.CAVITY>
0.0034867

>  <SCORE.RESTR.norm>
0.000129137

>  <SCORE.SYSTEM>
0

>  <SCORE.SYSTEM.CONST>
0

>  <SCORE.SYSTEM.DIHEDRAL>
0

>  <SCORE.SYSTEM.SOLV>
0

>  <SCORE.SYSTEM.norm>
0

>  <SCORE.heavy>
27

>  <SCORE.norm>
-0.655131

>  <RMSD>
6.826

$$$$
ligand
 OpenBabel11021811433D
libRbt.so/2013.1/901 2013/11/27
 27 29  0  0  0  0  0  0  0  0999 V2000
   39.4144   54.7414   31.1373 N   0  0  0  0  0  0  0  0  0  0  0  0
   40.7891   55.2337   31.0040 C   0  0  2  0  0  0  0  0  0  0  0  0
   41.0268   55.6917   29.5760 C   0  0  0  0  0  0  0  0  0  0  0  0
   41.7132   56.6858   29.3570 O   0  0  0  0  0  0  0  0  0  0  0  0
   41.8030   54.1336   31.3763 C   0  0  0  0  0  0  0  0  0  0  0  0
   41.6997   53.8409   32.8723 C   0  0  0  0  0  0  0  0  0  0  0  0
   42.7211   52.4314   33.4676 S   0  0  2  0  0  0  0  0  0  0  0  0
   41.6736   50.9717   33.1774 C   0  0  0  0  0  0  0  0  0  0  0  0
   42.4407   52.7246   35.2267 C   0  0  0  0  0  0  0  0  0  0  0  0
   43.6235   52.3135   36.1206 C   0  0  1  0  0  0  0  0  0  0  0  0
   44.8683   52.5232   35.3903 O   0  0  0  0  0  0  0  0  0  0  0  0
   43.5980   53.3585   37.2063 C   0  0  1  0  0  0  0  0  0  0  0  0
   42.8981   52.8568   38.3452 O   0  0  0  0  0  0  0  0  0  0  0  0
   45.0681   53.5789   37.5411 C   0  0  1  0  0  0  0  0  0  0  0  0
   45.4806   52.8188   38.6709 O   0  0  0  0  0  0  0  0  0  0  0  0
   45.8785   53.1550   36.2622 C   0  0  2  0  0  0  0  0  0  0  0  0
   40.4821   55.1080   28.6387 O   0  0  0  0  0  0  0  0  0  0  0  0
   50.0374   55.9735   34.7321 N   0  0  0  0  0  0  0  0  0  0  0  0
   50.0226   54.9099   35.5430 C   0  0  0  0  0  0  0  0  0  0  0  0
   48.8946   54.2797   35.8306 N   0  0  0  0  0  0  0  0  0  0  0  0
   47.7145   54.7012   35.3470 C   0  0  0  0  0  0  0  0  0  0  0  0
   47.6770   55.8339   34.4938 C   0  0  0  0  0  0  0  0  0  0  0  0
   48.9097   56.4674   34.1952 C   0  0  0  0  0  0  0  0  0  0  0  0
   48.9517   57.5702   33.3719 N   0  0  0  0  0  0  0  0  0  0  0  0
   46.3885   56.0434   34.1575 N   0  0  0  0  0  0  0  0  0  0  0  0
   45.6459   55.1463   34.7371 C   0  0  0  0  0  0  0  0  0  0  0  0
   46.4107   54.2895   35.4788 N   0  0  0  0  0  0  0  0  0  0  0  0
  2  1  1  6  0  0  0
  2  3  1  0  0  0  0
  2  5  1  0  0  0  0
  3  4  1  0  0  0  0
  3 17  1  0  0  0  0
  5  6  1  0  0  0  0
  7  6  1  6  0  0  0
  7  8  1  0  0  0  0
  7  9  1  0  0  0  0
 10  9  1  6  0  0  0
 10 11  1  0  0  0  0
 10 12  1  0  0  0  0
 11 16  1  0  0  0  0
 12 13  1  1  0  0  0
 12 14  1  0  0  0  0
 14 15  1  1  0  0  0
 14 16  1  0  0  0  0
 16 27  1  6  0  0  0
 18 19  2  0  0  0  0
 18 23  1  0  0  0  0
 19 20  1  0  0  0  0
 20 21  2  0  0  0  0
 21 22  1  0  0  0  0
 21 27  1  0  0  0  0
 22 23  2  0  0  0  0
 22 25  1  0  0  0  0
 23 24  1  0  0  0  0
 25 26  2  0  0  0  0
 26 27  1  0  0  0  0
M  END
>  <CHROM.1>
142.23661272,-67.80987754,174.13577497,-85.60387874,-148.67744227,32.55033907
-137.64098015,44.46668058,54.21726525,34.14372836,2.62841046,-0.39284549
-1.02553361

>  <Name>
ligand

>  <RI>
0

>  <Rbt.Current_Directory>
/home/itssahil/PROJECTS/Mol_Feturizer/New_Systems/rnas/2GIS

>  <Rbt.Executable>
rbdock ($Id: //depot/dev/client3/rdock/2013.1/src/exe/rbdock.cxx#4 $)

>  <Rbt.Library>
libRbt.so (2013.1, Build901 2013/11/27)

>  <Rbt.Parameter_File>
/export/apps/rDock/src/rDock_2013.1_src/data/scripts/dock_solv.prm

>  <Rbt.Receptor>
prm/pocket_docking_8.prm

>  <SCORE>
-15.0497

>  <SCORE.INTER>
-13.0522

>  <SCORE.INTER.CONST>
1

>  <SCORE.INTER.POLAR>
0

>  <SCORE.INTER.ROT>
7

>  <SCORE.INTER.SOLV>
10.3127

>  <SCORE.INTER.VDW>
-20.4057

>  <SCORE.INTER.norm>
-0.483415

>  <SCORE.INTRA>
-1.99752

>  <SCORE.INTRA.DIHEDRAL>
0.405053

>  <SCORE.INTRA.DIHEDRAL.0>
9.40024

>  <SCORE.INTRA.POLAR>
0

>  <SCORE.INTRA.POLAR.0>
0

>  <SCORE.INTRA.REPUL>
0

>  <SCORE.INTRA.REPUL.0>
0

>  <SCORE.INTRA.SOLV>
-2.43362

>  <SCORE.INTRA.SOLV.lig_0>
-47.1049

>  <SCORE.INTRA.VDW>
-0.983234

>  <SCORE.INTRA.VDW.0>
-1.50278

>  <SCORE.INTRA.norm>
-0.0739822

>  <SCORE.RESTR>
0

>  <SCORE.RESTR.CAVITY>
0

>  <SCORE.RESTR.norm>
0

>  <SCORE.SYSTEM>
0

>  <SCORE.SYSTEM.CONST>
0

>  <SCORE.SYSTEM.DIHEDRAL>
0

>  <SCORE.SYSTEM.SOLV>
0

>  <SCORE.SYSTEM.norm>
0

>  <SCORE.heavy>
27

>  <SCORE.norm>
-0.557398

>  <RMSD>
6.832

$$$$
ligand
 OpenBabel11021811433D
libRbt.so/2013.1/901 2013/11/27
 27 29  0  0  0  0  0  0  0  0999 V2000
   48.0647   52.8564   35.0808 N   0  0  0  0  0  0  0  0  0  0  0  0
   48.8501   54.0641   35.3541 C   0  0  2  0  0  0  0  0  0  0  0  0
   48.3906   54.6815   36.6629 C   0  0  0  0  0  0  0  0  0  0  0  0
   49.1418   55.4255   37.2871 O   0  0  0  0  0  0  0  0  0  0  0  0
   48.6970   55.0870   34.2108 C   0  0  0  0  0  0  0  0  0  0  0  0
   49.5786   56.3006   34.5015 C   0  0  0  0  0  0  0  0  0  0  0  0
   49.7370   57.5036   33.1188 S   0  0  2  0  0  0  0  0  0  0  0  0
   50.0987   59.0839   33.9458 C   0  0  0  0  0  0  0  0  0  0  0  0
   47.9666   57.6649   32.8051 C   0  0  0  0  0  0  0  0  0  0  0  0
   47.6126   58.7778   31.8034 C   0  0  1  0  0  0  0  0  0  0  0  0
   48.4397   58.6270   30.6117 O   0  0  0  0  0  0  0  0  0  0  0  0
   46.2112   58.4142   31.3847 C   0  0  1  0  0  0  0  0  0  0  0  0
   45.2672   59.1613   32.1524 O   0  0  0  0  0  0  0  0  0  0  0  0
   46.1460   58.8235   29.9185 C   0  0  1  0  0  0  0  0  0  0  0  0
   45.5628   60.1098   29.7462 O   0  0  0  0  0  0  0  0  0  0  0  0
   47.6277   58.8120   29.3926 C   0  0  2  0  0  0  0  0  0  0  0  0
   47.2912   54.3897   37.1342 O   0  0  0  0  0  0  0  0  0  0  0  0
   47.9984   53.6020   28.8450 N   0  0  0  0  0  0  0  0  0  0  0  0
   47.6186   54.2863   29.9297 C   0  0  0  0  0  0  0  0  0  0  0  0
   47.5524   55.6083   29.9208 N   0  0  0  0  0  0  0  0  0  0  0  0
   47.8948   56.3189   28.8336 C   0  0  0  0  0  0  0  0  0  0  0  0
   48.3178   55.6387   27.6628 C   0  0  0  0  0  0  0  0  0  0  0  0
   48.3555   54.2221   27.7084 C   0  0  0  0  0  0  0  0  0  0  0  0
   48.7527   53.4940   26.6094 N   0  0  0  0  0  0  0  0  0  0  0  0
   48.6017   56.5729   26.7335 N   0  0  0  0  0  0  0  0  0  0  0  0
   48.3970   57.7535   27.2402 C   0  0  0  0  0  0  0  0  0  0  0  0
   47.9554   57.6573   28.5304 N   0  0  0  0  0  0  0  0  0  0  0  0
  2  1  1  6  0  0  0
  2  3  1  0  0  0  0
  2  5  1  0  0  0  0
  3  4  1  0  0  0  0
  3 17  1  0  0  0  0
  5  6  1  0  0  0  0
  7  6  1  1  0  0  0
  7  8  1  0  0  0  0
  7  9  1  0  0  0  0
 10  9  1  1  0  0  0
 10 11  1  0  0  0  0
 10 12  1  0  0  0  0
 11 16  1  0  0  0  0
 12 13  1  1  0  0  0
 12 14  1  0  0  0  0
 14 15  1  1  0  0  0
 14 16  1  0  0  0  0
 16 27  1  6  0  0  0
 18 19  2  0  0  0  0
 18 23  1  0  0  0  0
 19 20  1  0  0  0  0
 20 21  2  0  0  0  0
 21 22  1  0  0  0  0
 21 27  1  0  0  0  0
 22 23  2  0  0  0  0
 22 25  1  0  0  0  0
 23 24  1  0  0  0  0
 25 26  2  0  0  0  0
 26 27  1  0  0  0  0
M  END
>  <CHROM.1>
157.57571113,-177.41628139,170.49223949,153.77426756,171.65091482,50.05351906
54.06226009,48.07261946,56.57462061,31.56385935,-1.09690237,1.32729569,-1.85049456

>  <Name>
ligand

>  <RI>
0

>  <Rbt.Current_Directory>
/home/itssahil/PROJECTS/Mol_Feturizer/New_Systems/rnas/2GIS

>  <Rbt.Executable>
rbdock ($Id: //depot/dev/client3/rdock/2013.1/src/exe/rbdock.cxx#4 $)

>  <Rbt.Library>
libRbt.so (2013.1, Build901 2013/11/27)

>  <Rbt.Parameter_File>
/export/apps/rDock/src/rDock_2013.1_src/data/scripts/dock_solv.prm

>  <Rbt.Receptor>
prm/pocket_docking_6.prm

>  <SCORE>
-14.5527

>  <SCORE.INTER>
-10.2381

>  <SCORE.INTER.CONST>
1

>  <SCORE.INTER.POLAR>
0

>  <SCORE.INTER.ROT>
7

>  <SCORE.INTER.SOLV>
12.0982

>  <SCORE.INTER.VDW>
-19.1248

>  <SCORE.INTER.norm>
-0.379188

>  <SCORE.INTRA>
-4.31762

>  <SCORE.INTRA.DIHEDRAL>
-4.53967

>  <SCORE.INTRA.DIHEDRAL.0>
9.40024

>  <SCORE.INTRA.POLAR>
0

>  <SCORE.INTRA.POLAR.0>
0

>  <SCORE.INTRA.REPUL>
0

>  <SCORE.INTRA.REPUL.0>
0

>  <SCORE.INTRA.SOLV>
-3.03423

>  <SCORE.INTRA.SOLV.lig_0>
-47.1049

>  <SCORE.INTRA.VDW>
-0.530669

>  <SCORE.INTRA.VDW.0>
-1.50278

>  <SCORE.INTRA.norm>
-0.159912

>  <SCORE.RESTR>
0.00304063

>  <SCORE.RESTR.CAVITY>
0.00304063

>  <SCORE.RESTR.norm>
0.000112616

>  <SCORE.SYSTEM>
0

>  <SCORE.SYSTEM.CONST>
0

>  <SCORE.SYSTEM.DIHEDRAL>
0

>  <SCORE.SYSTEM.SOLV>
0

>  <SCORE.SYSTEM.norm>
0

>  <SCORE.heavy>
27

>  <SCORE.norm>
-0.538988

>  <RMSD>
6.839

$$$$
ligand
 OpenBabel11021811433D
libRbt.so/2013.1/901 2013/11/27
 27 29  0  0  0  0  0  0  0  0999 V2000
   49.5138   55.2606   34.7908 N   0  0  0  0  0  0  0  0  0  0  0  0
   48.6333   56.3666   34.4015 C   0  0  2  0  0  0  0  0  0  0  0  0
   47.4494   55.8214   33.6228 C   0  0  0  0  0  0  0  0  0  0  0  0
   47.6290   54.9961   32.7318 O   0  0  0  0  0  0  0  0  0  0  0  0
   49.3947   57.3963   33.5431 C   0  0  0  0  0  0  0  0  0  0  0  0
   48.4438   58.5277   33.1551 C   0  0  0  0  0  0  0  0  0  0  0  0
   49.1856   59.8541   32.1184 S   0  0  2  0  0  0  0  0  0  0  0  0
   47.8027   60.9940   31.8013 C   0  0  0  0  0  0  0  0  0  0  0  0
   49.2175   58.9006   30.5859 C   0  0  0  0  0  0  0  0  0  0  0  0
   47.9101   58.9792   29.7787 C   0  0  1  0  0  0  0  0  0  0  0  0
   48.2266   58.9530   28.3553 O   0  0  0  0  0  0  0  0  0  0  0  0
   47.2525   57.6575   30.0822 C   0  0  1  0  0  0  0  0  0  0  0  0
   46.3063   57.8187   31.1392 O   0  0  0  0  0  0  0  0  0  0  0  0
   46.5422   57.2920   28.7847 C   0  0  1  0  0  0  0  0  0  0  0  0
   45.1681   57.6608   28.8033 O   0  0  0  0  0  0  0  0  0  0  0  0
   47.3041   58.0510   27.6376 C   0  0  2  0  0  0  0  0  0  0  0  0
   46.3154   56.2501   33.8375 O   0  0  0  0  0  0  0  0  0  0  0  0
   51.7763   55.3356   27.1818 N   0  0  0  0  0  0  0  0  0  0  0  0
   51.3583   56.0550   28.2291 C   0  0  0  0  0  0  0  0  0  0  0  0
   50.1904   56.6778   28.2138 N   0  0  0  0  0  0  0  0  0  0  0  0
   49.3914   56.6405   27.1347 C   0  0  0  0  0  0  0  0  0  0  0  0
   49.7976   55.9021   25.9936 C   0  0  0  0  0  0  0  0  0  0  0  0
   51.0463   55.2338   26.0590 C   0  0  0  0  0  0  0  0  0  0  0  0
   51.5049   54.4953   24.9912 N   0  0  0  0  0  0  0  0  0  0  0  0
   48.8297   56.0303   25.0642 N   0  0  0  0  0  0  0  0  0  0  0  0
   47.8822   56.7855   25.5377 C   0  0  0  0  0  0  0  0  0  0  0  0
   48.1727   57.1860   26.8121 N   0  0  0  0  0  0  0  0  0  0  0  0
  2  1  1  6  0  0  0
  2  3  1  0  0  0  0
  2  5  1  0  0  0  0
  3  4  1  0  0  0  0
  3 17  1  0  0  0  0
  5  6  1  0  0  0  0
  7  6  1  1  0  0  0
  7  8  1  0  0  0  0
  7  9  1  0  0  0  0
 10  9  1  1  0  0  0
 10 11  1  0  0  0  0
 10 12  1  0  0  0  0
 11 16  1  0  0  0  0
 12 13  1  1  0  0  0
 12 14  1  0  0  0  0
 14 15  1  1  0  0  0
 14 16  1  0  0  0  0
 16 27  1  6  0  0  0
 18 19  2  0  0  0  0
 18 23  1  0  0  0  0
 19 20  1  0  0  0  0
 20 21  2  0  0  0  0
 21 22  1  0  0  0  0
 21 27  1  0  0  0  0
 22 23  2  0  0  0  0
 22 25  1  0  0  0  0
 23 24  1  0  0  0  0
 25 26  2  0  0  0  0
 26 27  1  0  0  0  0
M  END
>  <CHROM.1>
-45.85569169,179.81709415,-179.85393260,178.41027079,86.70331853,145.19207858
38.74290871,48.56522973,57.24226622,29.84988817,-1.93337595,0.85452365,-1.49727371

>  <Name>
ligand

>  <RI>
0

>  <Rbt.Current_Directory>
/home/itssahil/PROJECTS/Mol_Feturizer/New_Systems/rnas/2GIS

>  <Rbt.Executable>
rbdock ($Id: //depot/dev/client3/rdock/2013.1/src/exe/rbdock.cxx#4 $)

>  <Rbt.Library>
libRbt.so (2013.1, Build901 2013/11/27)

>  <Rbt.Parameter_File>
/export/apps/rDock/src/rDock_2013.1_src/data/scripts/dock_solv.prm

>  <Rbt.Receptor>
prm/pocket_docking_6.prm

>  <SCORE>
-19.0167

>  <SCORE.INTER>
-17.328

>  <SCORE.INTER.CONST>
1

>  <SCORE.INTER.POLAR>
0

>  <SCORE.INTER.ROT>
7

>  <SCORE.INTER.SOLV>
12.3572

>  <SCORE.INTER.VDW>
-23.9377

>  <SCORE.INTER.norm>
-0.641776

>  <SCORE.INTRA>
-1.68876

>  <SCORE.INTRA.DIHEDRAL>
-0.418025

>  <SCORE.INTRA.DIHEDRAL.0>
9.40024

>  <SCORE.INTRA.POLAR>
0

>  <SCORE.INTRA.POLAR.0>
0

>  <SCORE.INTRA.REPUL>
0

>  <SCORE.INTRA.REPUL.0>
0

>  <SCORE.INTRA.SOLV>
-2.3649

>  <SCORE.INTRA.SOLV.lig_0>
-47.1049

>  <SCORE.INTRA.VDW>
-0.297298

>  <SCORE.INTRA.VDW.0>
-1.50278

>  <SCORE.INTRA.norm>
-0.0625467

>  <SCORE.RESTR>
0

>  <SCORE.RESTR.CAVITY>
0

>  <SCORE.RESTR.norm>
0

>  <SCORE.SYSTEM>
0

>  <SCORE.SYSTEM.CONST>
0

>  <SCORE.SYSTEM.DIHEDRAL>
0

>  <SCORE.SYSTEM.SOLV>
0

>  <SCORE.SYSTEM.norm>
0

>  <SCORE.heavy>
27

>  <SCORE.norm>
-0.704323

>  <RMSD>
6.850

$$$$
ligand
 OpenBabel11021811433D
libRbt.so/2013.1/901 2013/11/27
 27 29  0  0  0  0  0  0  0  0999 V2000
   46.9828   54.2011   36.6942 N   0  0  0  0  0  0  0  0  0  0  0  0
   48.2266   54.1588   37.4696 C   0  0  2  0  0  0  0  0  0  0  0  0
   47.9234   54.4457   38.9294 C   0  0  0  0  0  0  0  0  0  0  0  0
   48.8333   54.7448   39.6975 O   0  0  0  0  0  0  0  0  0  0  0  0
   49.2410   55.1888   36.9337 C   0  0  0  0  0  0  0  0  0  0  0  0
   49.5746   54.8557   35.4803 C   0  0  0  0  0  0  0  0  0  0  0  0
   48.6825   55.8580   34.2218 S   0  0  2  0  0  0  0  0  0  0  0  0
   48.3411   54.6796   32.8777 C   0  0  0  0  0  0  0  0  0  0  0  0
   50.1434   56.7070   33.5863 C   0  0  0  0  0  0  0  0  0  0  0  0
   49.8191   57.8838   32.6499 C   0  0  1  0  0  0  0  0  0  0  0  0
   48.7461   57.4904   31.7441 O   0  0  0  0  0  0  0  0  0  0  0  0
   49.2190   58.8991   33.5882 C   0  0  1  0  0  0  0  0  0  0  0  0
   50.2188   59.8342   33.9938 O   0  0  0  0  0  0  0  0  0  0  0  0
   48.1526   59.5922   32.7491 C   0  0  1  0  0  0  0  0  0  0  0  0
   48.6234   60.8096   32.1826 O   0  0  0  0  0  0  0  0  0  0  0  0
   47.7514   58.5743   31.6200 C   0  0  2  0  0  0  0  0  0  0  0  0
   46.7776   54.3180   39.3616 O   0  0  0  0  0  0  0  0  0  0  0  0
   44.0261   55.3399   29.8193 N   0  0  0  0  0  0  0  0  0  0  0  0
   45.1748   55.6781   29.2233 C   0  0  0  0  0  0  0  0  0  0  0  0
   46.0370   56.4964   29.8056 N   0  0  0  0  0  0  0  0  0  0  0  0
   45.7802   57.0465   31.0039 C   0  0  0  0  0  0  0  0  0  0  0  0
   44.5683   56.7294   31.6694 C   0  0  0  0  0  0  0  0  0  0  0  0
   43.6817   55.8337   31.0199 C   0  0  0  0  0  0  0  0  0  0  0  0
   42.4882   55.4773   31.6066 N   0  0  0  0  0  0  0  0  0  0  0  0
   44.5580   57.4078   32.8342 N   0  0  0  0  0  0  0  0  0  0  0  0
   45.6483   58.1113   32.9269 C   0  0  0  0  0  0  0  0  0  0  0  0
   46.4412   57.9232   31.8292 N   0  0  0  0  0  0  0  0  0  0  0  0
  2  1  1  6  0  0  0
  2  3  1  0  0  0  0
  2  5  1  0  0  0  0
  3  4  1  0  0  0  0
  3 17  1  0  0  0  0
  5  6  1  0  0  0  0
  7  6  1  1  0  0  0
  7  8  1  0  0  0  0
  7  9  1  0  0  0  0
 10  9  1  1  0  0  0
 10 11  1  0  0  0  0
 10 12  1  0  0  0  0
 11 16  1  0  0  0  0
 12 13  1  6  0  0  0
 12 14  1  0  0  0  0
 14 15  1  6  0  0  0
 14 16  1  0  0  0  0
 16 27  1  1  0  0  0
 18 19  2  0  0  0  0
 18 23  1  0  0  0  0
 19 20  1  0  0  0  0
 20 21  2  0  0  0  0
 21 22  1  0  0  0  0
 21 27  1  0  0  0  0
 22 23  2  0  0  0  0
 22 25  1  0  0  0  0
 23 24  1  0  0  0  0
 25 26  2  0  0  0  0
 26 27  1  0  0  0  0
M  END
>  <CHROM.1>
-164.20430460,-60.98854597,99.61210836,-142.81048599,-168.95884073,-42.70584141
-70.10823499,47.38907514,56.57845380,33.64732664,1.11495255,0.58265644,2.15327643

>  <Name>
ligand

>  <RI>
0

>  <Rbt.Current_Directory>
/home/itssahil/PROJECTS/Mol_Feturizer/New_Systems/rnas/2GIS

>  <Rbt.Executable>
rbdock ($Id: //depot/dev/client3/rdock/2013.1/src/exe/rbdock.cxx#4 $)

>  <Rbt.Library>
libRbt.so (2013.1, Build901 2013/11/27)

>  <Rbt.Parameter_File>
/export/apps/rDock/src/rDock_2013.1_src/data/scripts/dock_solv.prm

>  <Rbt.Receptor>
prm/pocket_docking_6.prm

>  <SCORE>
-16.777

>  <SCORE.INTER>
-16.9465

>  <SCORE.INTER.CONST>
1

>  <SCORE.INTER.POLAR>
0

>  <SCORE.INTER.ROT>
7

>  <SCORE.INTER.SOLV>
14.4173

>  <SCORE.INTER.VDW>
-24.3701

>  <SCORE.INTER.norm>
-0.627647

>  <SCORE.INTRA>
0.16944

>  <SCORE.INTRA.DIHEDRAL>
3.46939

>  <SCORE.INTRA.DIHEDRAL.0>
9.40024

>  <SCORE.INTRA.POLAR>
0

>  <SCORE.INTRA.POLAR.0>
0

>  <SCORE.INTRA.REPUL>
0

>  <SCORE.INTRA.REPUL.0>
0

>  <SCORE.INTRA.SOLV>
-0.758534

>  <SCORE.INTRA.SOLV.lig_0>
-47.1049

>  <SCORE.INTRA.VDW>
-1.18599

>  <SCORE.INTRA.VDW.0>
-1.50278

>  <SCORE.INTRA.norm>
0.00627555

>  <SCORE.RESTR>
0

>  <SCORE.RESTR.CAVITY>
0

>  <SCORE.RESTR.norm>
0

>  <SCORE.SYSTEM>
0

>  <SCORE.SYSTEM.CONST>
0

>  <SCORE.SYSTEM.DIHEDRAL>
0

>  <SCORE.SYSTEM.SOLV>
0

>  <SCORE.SYSTEM.norm>
0

>  <SCORE.heavy>
27

>  <SCORE.norm>
-0.621372

>  <RMSD>
6.850

$$$$
ligand
 OpenBabel11021811433D
libRbt.so/2013.1/901 2013/11/27
 27 29  0  0  0  0  0  0  0  0999 V2000
   47.8612   52.9306   35.4799 N   0  0  0  0  0  0  0  0  0  0  0  0
   48.7478   54.0854   35.6545 C   0  0  2  0  0  0  0  0  0  0  0  0
   48.5467   54.6733   37.0399 C   0  0  0  0  0  0  0  0  0  0  0  0
   47.5239   54.4212   37.6706 O   0  0  0  0  0  0  0  0  0  0  0  0
   48.4656   55.1589   34.5845 C   0  0  0  0  0  0  0  0  0  0  0  0
   49.4884   56.2857   34.7219 C   0  0  0  0  0  0  0  0  0  0  0  0
   49.6376   57.3914   33.2592 S   0  0  2  0  0  0  0  0  0  0  0  0
   50.1164   58.9987   33.9659 C   0  0  0  0  0  0  0  0  0  0  0  0
   47.8640   57.6249   33.0172 C   0  0  0  0  0  0  0  0  0  0  0  0
   47.5048   58.9215   32.2709 C   0  0  1  0  0  0  0  0  0  0  0  0
   48.4057   59.0830   31.1356 O   0  0  0  0  0  0  0  0  0  0  0  0
   46.1525   58.6041   31.6860 C   0  0  1  0  0  0  0  0  0  0  0  0
   45.1252   59.1147   32.5361 O   0  0  0  0  0  0  0  0  0  0  0  0
   46.1478   59.3352   30.3492 C   0  0  1  0  0  0  0  0  0  0  0  0
   45.5029   60.6008   30.4324 O   0  0  0  0  0  0  0  0  0  0  0  0
   47.6553   59.5075   29.9370 C   0  0  2  0  0  0  0  0  0  0  0  0
   49.3758   55.4534   37.5089 O   0  0  0  0  0  0  0  0  0  0  0  0
   50.6188   55.4290   28.4659 N   0  0  0  0  0  0  0  0  0  0  0  0
   50.5267   55.9776   29.6823 C   0  0  0  0  0  0  0  0  0  0  0  0
   49.7182   56.9991   29.9168 N   0  0  0  0  0  0  0  0  0  0  0  0
   48.9815   57.5479   28.9369 C   0  0  0  0  0  0  0  0  0  0  0  0
   49.0557   57.0100   27.6264 C   0  0  0  0  0  0  0  0  0  0  0  0
   49.9188   55.9038   27.4226 C   0  0  0  0  0  0  0  0  0  0  0  0
   50.0401   55.3270   26.1783 N   0  0  0  0  0  0  0  0  0  0  0  0
   48.2320   57.7363   26.8446 N   0  0  0  0  0  0  0  0  0  0  0  0
   47.6756   58.6679   27.5622 C   0  0  0  0  0  0  0  0  0  0  0  0
   48.0969   58.5960   28.8608 N   0  0  0  0  0  0  0  0  0  0  0  0
  2  1  1  6  0  0  0
  2  3  1  0  0  0  0
  2  5  1  0  0  0  0
  3  4  1  0  0  0  0
  3 17  1  0  0  0  0
  5  6  1  0  0  0  0
  7  6  1  1  0  0  0
  7  8  1  0  0  0  0
  7  9  1  0  0  0  0
 10  9  1  1  0  0  0
 10 11  1  0  0  0  0
 10 12  1  0  0  0  0
 11 16  1  0  0  0  0
 12 13  1  1  0  0  0
 12 14  1  0  0  0  0
 14 15  1  1  0  0  0
 14 16  1  0  0  0  0
 16 27  1  6  0  0  0
 18 19  2  0  0  0  0
 18 23  1  0  0  0  0
 19 20  1  0  0  0  0
 20 21  2  0  0  0  0
 21 22  1  0  0  0  0
 21 27  1  0  0  0  0
 22 23  2  0  0  0  0
 22 25  1  0  0  0  0
 23 24  1  0  0  0  0
 25 26  2  0  0  0  0
 26 27  1  0  0  0  0
M  END
>  <CHROM.1>
-19.29245883,-174.98573410,162.62540464,149.83164996,155.95814500,44.18981829
1.72709073,48.43013055,57.12512815,31.77781519,-1.56467355,0.91334804,-1.26423523

>  <Name>
ligand

>  <RI>
0

>  <Rbt.Current_Directory>
/home/itssahil/PROJECTS/Mol_Feturizer/New_Systems/rnas/2GIS

>  <Rbt.Executable>
rbdock ($Id: //depot/dev/client3/rdock/2013.1/src/exe/rbdock.cxx#4 $)

>  <Rbt.Library>
libRbt.so (2013.1, Build901 2013/11/27)

>  <Rbt.Parameter_File>
/export/apps/rDock/src/rDock_2013.1_src/data/scripts/dock_solv.prm

>  <Rbt.Receptor>
prm/pocket_docking_6.prm

>  <SCORE>
-19.0477

>  <SCORE.INTER>
-16.871

>  <SCORE.INTER.CONST>
1

>  <SCORE.INTER.POLAR>
0

>  <SCORE.INTER.ROT>
7

>  <SCORE.INTER.SOLV>
15.3925

>  <SCORE.INTER.VDW>
-24.6449

>  <SCORE.INTER.norm>
-0.624853

>  <SCORE.INTRA>
-2.17663

>  <SCORE.INTRA.DIHEDRAL>
-2.2952

>  <SCORE.INTRA.DIHEDRAL.0>
9.40024

>  <SCORE.INTRA.POLAR>
0

>  <SCORE.INTRA.POLAR.0>
0

>  <SCORE.INTRA.REPUL>
0

>  <SCORE.INTRA.REPUL.0>
0

>  <SCORE.INTRA.SOLV>
-2.96764

>  <SCORE.INTRA.SOLV.lig_0>
-47.1049

>  <SCORE.INTRA.VDW>
0.454787

>  <SCORE.INTRA.VDW.0>
-1.50278

>  <SCORE.INTRA.norm>
-0.080616

>  <SCORE.RESTR>
0

>  <SCORE.RESTR.CAVITY>
0

>  <SCORE.RESTR.norm>
0

>  <SCORE.SYSTEM>
0

>  <SCORE.SYSTEM.CONST>
0

>  <SCORE.SYSTEM.DIHEDRAL>
0

>  <SCORE.SYSTEM.SOLV>
0

>  <SCORE.SYSTEM.norm>
0

>  <SCORE.heavy>
27

>  <SCORE.norm>
-0.705469

>  <RMSD>
6.863

$$$$
ligand
 OpenBabel11021811433D
libRbt.so/2013.1/901 2013/11/27
 27 29  0  0  0  0  0  0  0  0999 V2000
   49.0141   54.0159   37.1233 N   0  0  0  0  0  0  0  0  0  0  0  0
   47.9112   54.3735   36.2257 C   0  0  2  0  0  0  0  0  0  0  0  0
   47.0172   53.1645   36.0151 C   0  0  0  0  0  0  0  0  0  0  0  0
   47.5021   52.0365   36.0110 O   0  0  0  0  0  0  0  0  0  0  0  0
   48.4488   54.8695   34.8686 C   0  0  0  0  0  0  0  0  0  0  0  0
   49.1587   56.2077   35.0684 C   0  0  0  0  0  0  0  0  0  0  0  0
   49.4218   57.1919   33.5366 S   0  0  2  0  0  0  0  0  0  0  0  0
   49.9893   58.8114   34.1427 C   0  0  0  0  0  0  0  0  0  0  0  0
   47.6752   57.5232   33.2227 C   0  0  0  0  0  0  0  0  0  0  0  0
   47.4300   58.6824   32.2412 C   0  0  1  0  0  0  0  0  0  0  0  0
   48.5226   58.7292   31.2765 O   0  0  0  0  0  0  0  0  0  0  0  0
   46.2187   58.2175   31.4744 C   0  0  1  0  0  0  0  0  0  0  0  0
   45.0388   58.7889   32.0400 O   0  0  0  0  0  0  0  0  0  0  0  0
   46.4455   58.7530   30.0660 C   0  0  1  0  0  0  0  0  0  0  0  0
   45.7658   59.9831   29.8440 O   0  0  0  0  0  0  0  0  0  0  0  0
   47.9988   58.9428   29.9128 C   0  0  2  0  0  0  0  0  0  0  0  0
   45.8169   53.3132   35.7849 O   0  0  0  0  0  0  0  0  0  0  0  0
   48.3438   56.4854   25.2842 N   0  0  0  0  0  0  0  0  0  0  0  0
   47.5035   57.4671   25.6293 C   0  0  0  0  0  0  0  0  0  0  0  0
   47.5402   58.0119   26.8352 N   0  0  0  0  0  0  0  0  0  0  0  0
   48.4000   57.5799   27.7725 C   0  0  0  0  0  0  0  0  0  0  0  0
   49.3018   56.5309   27.4586 C   0  0  0  0  0  0  0  0  0  0  0  0
   49.2428   55.9889   26.1498 C   0  0  0  0  0  0  0  0  0  0  0  0
   50.0892   54.9707   25.7720 N   0  0  0  0  0  0  0  0  0  0  0  0
   50.0408   56.2907   28.5601 N   0  0  0  0  0  0  0  0  0  0  0  0
   49.6605   57.0927   29.5111 C   0  0  0  0  0  0  0  0  0  0  0  0
   48.6555   57.9133   29.0802 N   0  0  0  0  0  0  0  0  0  0  0  0
  2  1  1  1  0  0  0
  2  3  1  0  0  0  0
  2  5  1  0  0  0  0
  3  4  1  0  0  0  0
  3 17  1  0  0  0  0
  5  6  1  0  0  0  0
  7  6  1  1  0  0  0
  7  8  1  0  0  0  0
  7  9  1  0  0  0  0
 10  9  1  1  0  0  0
 10 11  1  0  0  0  0
 10 12  1  0  0  0  0
 11 16  1  0  0  0  0
 12 13  1  1  0  0  0
 12 14  1  0  0  0  0
 14 15  1  1  0  0  0
 14 16  1  0  0  0  0
 16 27  1  6  0  0  0
 18 19  2  0  0  0  0
 18 23  1  0  0  0  0
 19 20  1  0  0  0  0
 20 21  2  0  0  0  0
 21 22  1  0  0  0  0
 21 27  1  0  0  0  0
 22 23  2  0  0  0  0
 22 25  1  0  0  0  0
 23 24  1  0  0  0  0
 25 26  2  0  0  0  0
 26 27  1  0  0  0  0
M  END
>  <CHROM.1>
-32.90030234,-67.86993577,-162.51155850,169.97330041,162.78785882,31.70203919
171.71120508,48.10491000,56.76037763,31.37349917,-1.71088708,1.18723850,-1.12957725

>  <Name>
ligand

>  <RI>
0

>  <Rbt.Current_Directory>
/home/itssahil/PROJECTS/Mol_Feturizer/New_Systems/rnas/2GIS

>  <Rbt.Executable>
rbdock ($Id: //depot/dev/client3/rdock/2013.1/src/exe/rbdock.cxx#4 $)

>  <Rbt.Library>
libRbt.so (2013.1, Build901 2013/11/27)

>  <Rbt.Parameter_File>
/export/apps/rDock/src/rDock_2013.1_src/data/scripts/dock_solv.prm

>  <Rbt.Receptor>
prm/pocket_docking_8.prm

>  <SCORE>
-17.3726

>  <SCORE.INTER>
-14.869

>  <SCORE.INTER.CONST>
1

>  <SCORE.INTER.POLAR>
0

>  <SCORE.INTER.ROT>
7

>  <SCORE.INTER.SOLV>
14.5899

>  <SCORE.INTER.VDW>
-23.0426

>  <SCORE.INTER.norm>
-0.550702

>  <SCORE.INTRA>
-2.50364

>  <SCORE.INTRA.DIHEDRAL>
-2.47873

>  <SCORE.INTRA.DIHEDRAL.0>
9.40024

>  <SCORE.INTRA.POLAR>
0

>  <SCORE.INTRA.POLAR.0>
0

>  <SCORE.INTRA.REPUL>
0

>  <SCORE.INTRA.REPUL.0>
0

>  <SCORE.INTRA.SOLV>
-2.37104

>  <SCORE.INTRA.SOLV.lig_0>
-47.1049

>  <SCORE.INTRA.VDW>
-0.0787541

>  <SCORE.INTRA.VDW.0>
-1.50278

>  <SCORE.INTRA.norm>
-0.0927274

>  <SCORE.RESTR>
0

>  <SCORE.RESTR.CAVITY>
0

>  <SCORE.RESTR.norm>
0

>  <SCORE.SYSTEM>
0

>  <SCORE.SYSTEM.CONST>
0

>  <SCORE.SYSTEM.DIHEDRAL>
0

>  <SCORE.SYSTEM.SOLV>
0

>  <SCORE.SYSTEM.norm>
0

>  <SCORE.heavy>
27

>  <SCORE.norm>
-0.643429

>  <RMSD>
6.868

$$$$
ligand
 OpenBabel11021811433D
libRbt.so/2013.1/901 2013/11/27
 27 29  0  0  0  0  0  0  0  0999 V2000
   46.9328   54.0376   34.4027 N   0  0  0  0  0  0  0  0  0  0  0  0
   46.9553   55.5034   34.3729 C   0  0  2  0  0  0  0  0  0  0  0  0
   45.5629   56.0251   34.0659 C   0  0  0  0  0  0  0  0  0  0  0  0
   44.7504   55.3046   33.4930 O   0  0  0  0  0  0  0  0  0  0  0  0
   47.9510   56.0141   33.3123 C   0  0  0  0  0  0  0  0  0  0  0  0
   48.2144   57.5010   33.5457 C   0  0  0  0  0  0  0  0  0  0  0  0
   48.9896   58.3906   32.1343 S   0  0  2  0  0  0  0  0  0  0  0  0
   48.8640   60.1468   32.5950 C   0  0  0  0  0  0  0  0  0  0  0  0
   47.5880   58.2182   31.0097 C   0  0  0  0  0  0  0  0  0  0  0  0
   47.8153   58.8629   29.6314 C   0  0  1  0  0  0  0  0  0  0  0  0
   49.0411   58.3270   29.0509 O   0  0  0  0  0  0  0  0  0  0  0  0
   46.6852   58.2975   28.8100 C   0  0  1  0  0  0  0  0  0  0  0  0
   45.5997   59.2245   28.7769 O   0  0  0  0  0  0  0  0  0  0  0  0
   47.2859   58.1332   27.4194 C   0  0  1  0  0  0  0  0  0  0  0  0
   46.9800   59.2328   26.5697 O   0  0  0  0  0  0  0  0  0  0  0  0
   48.8396   58.0064   27.6239 C   0  0  2  0  0  0  0  0  0  0  0  0
   45.2643   57.1896   34.3319 O   0  0  0  0  0  0  0  0  0  0  0  0
   50.6309   53.6025   29.8552 N   0  0  0  0  0  0  0  0  0  0  0  0
   50.2281   54.7235   30.4638 C   0  0  0  0  0  0  0  0  0  0  0  0
   49.7787   55.7586   29.7718 N   0  0  0  0  0  0  0  0  0  0  0  0
   49.7389   55.7389   28.4293 C   0  0  0  0  0  0  0  0  0  0  0  0
   50.1689   54.5774   27.7376 C   0  0  0  0  0  0  0  0  0  0  0  0
   50.6242   53.4843   28.5174 C   0  0  0  0  0  0  0  0  0  0  0  0
   51.0542   52.3228   27.9157 N   0  0  0  0  0  0  0  0  0  0  0  0
   50.0313   54.8189   26.4186 N   0  0  0  0  0  0  0  0  0  0  0  0
   49.5663   56.0224   26.2524 C   0  0  0  0  0  0  0  0  0  0  0  0
   49.3623   56.6340   27.4579 N   0  0  0  0  0  0  0  0  0  0  0  0
  2  1  1  6  0  0  0
  2  3  1  0  0  0  0
  2  5  1  0  0  0  0
  3  4  1  0  0  0  0
  3 17  1  0  0  0  0
  5  6  1  0  0  0  0
  7  6  1  1  0  0  0
  7  8  1  0  0  0  0
  7  9  1  0  0  0  0
 10  9  1  1  0  0  0
 10 11  1  0  0  0  0
 10 12  1  0  0  0  0
 11 16  1  0  0  0  0
 12 13  1  6  0  0  0
 12 14  1  0  0  0  0
 14 15  1  6  0  0  0
 14 16  1  0  0  0  0
 16 27  1  1  0  0  0
 18 19  2  0  0  0  0
 18 23  1  0  0  0  0
 19 20  1  0  0  0  0
 20 21  2  0  0  0  0
 21 22  1  0  0  0  0
 21 27  1  0  0  0  0
 22 23  2  0  0  0  0
 22 25  1  0  0  0  0
 23 24  1  0  0  0  0
 25 26  2  0  0  0  0
 26 27  1  0  0  0  0
M  END
>  <CHROM.1>
-22.60632180,-165.72361813,-163.68538562,169.25257908,179.75000749,54.57178367
10.47069264,48.27620631,56.68036735,30.28816157,-2.46316642,0.99025596,-0.93595447

>  <Name>
ligand

>  <RI>
0

>  <Rbt.Current_Directory>
/home/itssahil/PROJECTS/Mol_Feturizer/New_Systems/rnas/2GIS

>  <Rbt.Executable>
rbdock ($Id: //depot/dev/client3/rdock/2013.1/src/exe/rbdock.cxx#4 $)

>  <Rbt.Library>
libRbt.so (2013.1, Build901 2013/11/27)

>  <Rbt.Parameter_File>
/export/apps/rDock/src/rDock_2013.1_src/data/scripts/dock_solv.prm

>  <Rbt.Receptor>
prm/pocket_docking_4.prm

>  <SCORE>
-16.9587

>  <SCORE.INTER>
-11.6006

>  <SCORE.INTER.CONST>
1

>  <SCORE.INTER.POLAR>
0

>  <SCORE.INTER.ROT>
7

>  <SCORE.INTER.SOLV>
14.9149

>  <SCORE.INTER.VDW>
-20.972

>  <SCORE.INTER.norm>
-0.429652

>  <SCORE.INTRA>
-5.35809

>  <SCORE.INTRA.DIHEDRAL>
-4.35333

>  <SCORE.INTRA.DIHEDRAL.0>
9.40024

>  <SCORE.INTRA.POLAR>
0

>  <SCORE.INTRA.POLAR.0>
0

>  <SCORE.INTRA.REPUL>
0

>  <SCORE.INTRA.REPUL.0>
0

>  <SCORE.INTRA.SOLV>
-3.03811

>  <SCORE.INTRA.SOLV.lig_0>
-47.1049

>  <SCORE.INTRA.VDW>
-1.66237

>  <SCORE.INTRA.VDW.0>
-1.50278

>  <SCORE.INTRA.norm>
-0.198448

>  <SCORE.RESTR>
0

>  <SCORE.RESTR.CAVITY>
0

>  <SCORE.RESTR.norm>
0

>  <SCORE.SYSTEM>
0

>  <SCORE.SYSTEM.CONST>
0

>  <SCORE.SYSTEM.DIHEDRAL>
0

>  <SCORE.SYSTEM.SOLV>
0

>  <SCORE.SYSTEM.norm>
0

>  <SCORE.heavy>
27

>  <SCORE.norm>
-0.628099

>  <RMSD>
6.937

$$$$
ligand
 OpenBabel11021811433D
libRbt.so/2013.1/901 2013/11/27
 27 29  0  0  0  0  0  0  0  0999 V2000
   48.8427   55.7499   32.2832 N   0  0  0  0  0  0  0  0  0  0  0  0
   49.2430   56.0674   33.6576 C   0  0  2  0  0  0  0  0  0  0  0  0
   48.0756   55.8172   34.5957 C   0  0  0  0  0  0  0  0  0  0  0  0
   46.9369   56.1227   34.2528 O   0  0  0  0  0  0  0  0  0  0  0  0
   49.6988   57.5359   33.7697 C   0  0  0  0  0  0  0  0  0  0  0  0
   48.5900   58.4473   33.2459 C   0  0  0  0  0  0  0  0  0  0  0  0
   49.1578   59.8544   32.2058 S   0  0  2  0  0  0  0  0  0  0  0  0
   47.6497   60.8333   31.9233 C   0  0  0  0  0  0  0  0  0  0  0  0
   49.2668   58.9190   30.6657 C   0  0  0  0  0  0  0  0  0  0  0  0
   48.0938   59.1706   29.7024 C   0  0  1  0  0  0  0  0  0  0  0  0
   48.5263   58.8829   28.3397 O   0  0  0  0  0  0  0  0  0  0  0  0
   47.1227   58.0780   30.0692 C   0  0  1  0  0  0  0  0  0  0  0  0
   46.1457   58.5839   30.9792 O   0  0  0  0  0  0  0  0  0  0  0  0
   46.4706   57.7036   28.7439 C   0  0  1  0  0  0  0  0  0  0  0  0
   45.2237   58.3623   28.5548 O   0  0  0  0  0  0  0  0  0  0  0  0
   47.4906   58.1149   27.6203 C   0  0  2  0  0  0  0  0  0  0  0  0
   48.2726   55.3676   35.7248 O   0  0  0  0  0  0  0  0  0  0  0  0
   51.2864   54.5034   27.9819 N   0  0  0  0  0  0  0  0  0  0  0  0
   50.9599   55.4407   28.8786 C   0  0  0  0  0  0  0  0  0  0  0  0
   49.9596   56.2804   28.6628 N   0  0  0  0  0  0  0  0  0  0  0  0
   49.2522   56.2477   27.5215 C   0  0  0  0  0  0  0  0  0  0  0  0
   49.5698   55.2805   26.5336 C   0  0  0  0  0  0  0  0  0  0  0  0
   50.6352   54.3876   26.8129 C   0  0  0  0  0  0  0  0  0  0  0  0
   50.9984   53.4205   25.9028 N   0  0  0  0  0  0  0  0  0  0  0  0
   48.7230   55.4648   25.5011 N   0  0  0  0  0  0  0  0  0  0  0  0
   47.9306   56.4600   25.7729 C   0  0  0  0  0  0  0  0  0  0  0  0
   48.2080   56.9773   27.0076 N   0  0  0  0  0  0  0  0  0  0  0  0
  2  1  1  6  0  0  0
  2  3  1  0  0  0  0
  2  5  1  0  0  0  0
  3  4  1  0  0  0  0
  3 17  1  0  0  0  0
  5  6  1  0  0  0  0
  7  6  1  1  0  0  0
  7  8  1  0  0  0  0
  7  9  1  0  0  0  0
 10  9  1  1  0  0  0
 10 11  1  0  0  0  0
 10 12  1  0  0  0  0
 11 16  1  0  0  0  0
 12 13  1  1  0  0  0
 12 14  1  0  0  0  0
 14 15  1  6  0  0  0
 14 16  1  0  0  0  0
 16 27  1  1  0  0  0
 18 19  2  0  0  0  0
 18 23  1  0  0  0  0
 19 20  1  0  0  0  0
 20 21  2  0  0  0  0
 21 22  1  0  0  0  0
 21 27  1  0  0  0  0
 22 23  2  0  0  0  0
 22 25  1  0  0  0  0
 23 24  1  0  0  0  0
 25 26  2  0  0  0  0
 26 27  1  0  0  0  0
M  END
>  <CHROM.1>
-39.77348430,54.95230338,-138.37638513,-173.41117500,102.80032962,155.27453830
37.09133730,48.57468490,57.15322294,30.08773964,-1.87559749,1.00742935,-1.60126116

>  <Name>
ligand

>  <RI>
0

>  <Rbt.Current_Directory>
/home/itssahil/PROJECTS/Mol_Feturizer/New_Systems/rnas/2GIS

>  <Rbt.Executable>
rbdock ($Id: //depot/dev/client3/rdock/2013.1/src/exe/rbdock.cxx#4 $)

>  <Rbt.Library>
libRbt.so (2013.1, Build901 2013/11/27)

>  <Rbt.Parameter_File>
/export/apps/rDock/src/rDock_2013.1_src/data/scripts/dock_solv.prm

>  <Rbt.Receptor>
prm/pocket_docking_3.prm

>  <SCORE>
-13.0093

>  <SCORE.INTER>
-16.7325

>  <SCORE.INTER.CONST>
1

>  <SCORE.INTER.POLAR>
0

>  <SCORE.INTER.ROT>
7

>  <SCORE.INTER.SOLV>
8.32182

>  <SCORE.INTER.VDW>
-22.1956

>  <SCORE.INTER.norm>
-0.619723

>  <SCORE.INTRA>
3.72323

>  <SCORE.INTRA.DIHEDRAL>
4.68418

>  <SCORE.INTRA.DIHEDRAL.0>
9.40024

>  <SCORE.INTRA.POLAR>
0

>  <SCORE.INTRA.POLAR.0>
0

>  <SCORE.INTRA.REPUL>
0

>  <SCORE.INTRA.REPUL.0>
0

>  <SCORE.INTRA.SOLV>
0.340934

>  <SCORE.INTRA.SOLV.lig_0>
-47.1049

>  <SCORE.INTRA.VDW>
1.21067

>  <SCORE.INTRA.VDW.0>
-1.50278

>  <SCORE.INTRA.norm>
0.137897

>  <SCORE.RESTR>
0

>  <SCORE.RESTR.CAVITY>
0

>  <SCORE.RESTR.norm>
0

>  <SCORE.SYSTEM>
0

>  <SCORE.SYSTEM.CONST>
0

>  <SCORE.SYSTEM.DIHEDRAL>
0

>  <SCORE.SYSTEM.SOLV>
0

>  <SCORE.SYSTEM.norm>
0

>  <SCORE.heavy>
27

>  <SCORE.norm>
-0.481826

>  <RMSD>
6.943

$$$$
ligand
 OpenBabel11021811433D
libRbt.so/2013.1/901 2013/11/27
 27 29  0  0  0  0  0  0  0  0999 V2000
   47.0181   54.4130   36.1404 N   0  0  0  0  0  0  0  0  0  0  0  0
   48.2296   54.0958   36.9031 C   0  0  2  0  0  0  0  0  0  0  0  0
   47.8779   53.9450   38.3724 C   0  0  0  0  0  0  0  0  0  0  0  0
   47.6000   52.8385   38.8262 O   0  0  0  0  0  0  0  0  0  0  0  0
   49.2906   55.2008   36.7298 C   0  0  0  0  0  0  0  0  0  0  0  0
   49.8621   55.1306   35.3145 C   0  0  0  0  0  0  0  0  0  0  0  0
   48.8112   55.8847   34.0064 S   0  0  2  0  0  0  0  0  0  0  0  0
   48.7907   54.6378   32.6810 C   0  0  0  0  0  0  0  0  0  0  0  0
   50.0643   57.0313   33.3950 C   0  0  0  0  0  0  0  0  0  0  0  0
   49.5261   58.0562   32.3816 C   0  0  1  0  0  0  0  0  0  0  0  0
   48.6919   57.3669   31.4040 O   0  0  0  0  0  0  0  0  0  0  0  0
   48.5864   58.8872   33.2169 C   0  0  1  0  0  0  0  0  0  0  0  0
   49.2525   60.0676   33.6658 O   0  0  0  0  0  0  0  0  0  0  0  0
   47.4586   59.2460   32.2573 C   0  0  1  0  0  0  0  0  0  0  0  0
   47.6355   60.5343   31.6797 O   0  0  0  0  0  0  0  0  0  0  0  0
   47.4582   58.1353   31.1445 C   0  0  2  0  0  0  0  0  0  0  0  0
   47.8080   54.9370   39.0984 O   0  0  0  0  0  0  0  0  0  0  0  0
   45.5454   53.3883   29.9659 N   0  0  0  0  0  0  0  0  0  0  0  0
   46.7170   53.9147   29.5927 C   0  0  0  0  0  0  0  0  0  0  0  0
   47.0820   55.1261   29.9818 N   0  0  0  0  0  0  0  0  0  0  0  0
   46.2781   55.8896   30.7401 C   0  0  0  0  0  0  0  0  0  0  0  0
   45.0190   55.3806   31.1497 C   0  0  0  0  0  0  0  0  0  0  0  0
   44.6753   54.0714   30.7276 C   0  0  0  0  0  0  0  0  0  0  0  0
   43.4712   53.5099   31.0890 N   0  0  0  0  0  0  0  0  0  0  0  0
   44.4183   56.3354   31.8878 N   0  0  0  0  0  0  0  0  0  0  0  0
   45.1964   57.3759   31.9525 C   0  0  0  0  0  0  0  0  0  0  0  0
   46.3587   57.1553   31.2675 N   0  0  0  0  0  0  0  0  0  0  0  0
  2  1  1  6  0  0  0
  2  3  1  0  0  0  0
  2  5  1  0  0  0  0
  3  4  1  0  0  0  0
  3 17  1  0  0  0  0
  5  6  1  0  0  0  0
  7  6  1  1  0  0  0
  7  8  1  0  0  0  0
  7  9  1  0  0  0  0
 10  9  1  1  0  0  0
 10 11  1  0  0  0  0
 10 12  1  0  0  0  0
 11 16  1  0  0  0  0
 12 13  1  6  0  0  0
 12 14  1  0  0  0  0
 14 15  1  6  0  0  0
 14 16  1  0  0  0  0
 16 27  1  1  0  0  0
 18 19  2  0  0  0  0
 18 23  1  0  0  0  0
 19 20  1  0  0  0  0
 20 21  2  0  0  0  0
 21 22  1  0  0  0  0
 21 27  1  0  0  0  0
 22 23  2  0  0  0  0
 22 25  1  0  0  0  0
 23 24  1  0  0  0  0
 25 26  2  0  0  0  0
 26 27  1  0  0  0  0
M  END
>  <CHROM.1>
92.35369445,-71.54068431,79.24450179,-132.97522000,-171.10726895,-45.87421956
-45.83453731,47.48438544,56.04671112,33.28510177,1.10515182,0.90907253,2.24200759

>  <Name>
ligand

>  <RI>
0

>  <Rbt.Current_Directory>
/home/itssahil/PROJECTS/Mol_Feturizer/New_Systems/rnas/2GIS

>  <Rbt.Executable>
rbdock ($Id: //depot/dev/client3/rdock/2013.1/src/exe/rbdock.cxx#4 $)

>  <Rbt.Library>
libRbt.so (2013.1, Build901 2013/11/27)

>  <Rbt.Parameter_File>
/export/apps/rDock/src/rDock_2013.1_src/data/scripts/dock_solv.prm

>  <Rbt.Receptor>
prm/pocket_docking_5.prm

>  <SCORE>
-14.6265

>  <SCORE.INTER>
-13.4176

>  <SCORE.INTER.CONST>
1

>  <SCORE.INTER.POLAR>
0

>  <SCORE.INTER.ROT>
7

>  <SCORE.INTER.SOLV>
11.0085

>  <SCORE.INTER.VDW>
-20.8812

>  <SCORE.INTER.norm>
-0.496948

>  <SCORE.INTRA>
-1.23312

>  <SCORE.INTRA.DIHEDRAL>
1.1726

>  <SCORE.INTRA.DIHEDRAL.0>
9.40024

>  <SCORE.INTRA.POLAR>
0

>  <SCORE.INTRA.POLAR.0>
0

>  <SCORE.INTRA.REPUL>
0

>  <SCORE.INTRA.REPUL.0>
0

>  <SCORE.INTRA.SOLV>
-0.488004

>  <SCORE.INTRA.SOLV.lig_0>
-47.1049

>  <SCORE.INTRA.VDW>
-1.57542

>  <SCORE.INTRA.VDW.0>
-1.50278

>  <SCORE.INTRA.norm>
-0.0456712

>  <SCORE.RESTR>
0.0242101

>  <SCORE.RESTR.CAVITY>
0.0242101

>  <SCORE.RESTR.norm>
0.000896669

>  <SCORE.SYSTEM>
0

>  <SCORE.SYSTEM.CONST>
0

>  <SCORE.SYSTEM.DIHEDRAL>
0

>  <SCORE.SYSTEM.SOLV>
0

>  <SCORE.SYSTEM.norm>
0

>  <SCORE.heavy>
27

>  <SCORE.norm>
-0.541722

>  <RMSD>
6.944

$$$$
ligand
 OpenBabel11021811433D
libRbt.so/2013.1/901 2013/11/27
 27 29  0  0  0  0  0  0  0  0999 V2000
   47.0193   54.0979   34.4147 N   0  0  0  0  0  0  0  0  0  0  0  0
   47.0083   55.5631   34.3588 C   0  0  2  0  0  0  0  0  0  0  0  0
   45.6095   56.0465   34.0197 C   0  0  0  0  0  0  0  0  0  0  0  0
   44.8313   55.3050   33.4264 O   0  0  0  0  0  0  0  0  0  0  0  0
   48.0095   56.0782   33.3056 C   0  0  0  0  0  0  0  0  0  0  0  0
   48.1910   57.5853   33.4803 C   0  0  0  0  0  0  0  0  0  0  0  0
   48.9598   58.4529   32.0518 S   0  0  2  0  0  0  0  0  0  0  0  0
   48.8167   60.2170   32.4758 C   0  0  0  0  0  0  0  0  0  0  0  0
   47.5617   58.2438   30.9291 C   0  0  0  0  0  0  0  0  0  0  0  0
   47.7881   58.8547   29.5354 C   0  0  1  0  0  0  0  0  0  0  0  0
   49.0153   58.3072   28.9687 O   0  0  0  0  0  0  0  0  0  0  0  0
   46.6596   58.2668   28.7278 C   0  0  1  0  0  0  0  0  0  0  0  0
   45.5721   59.1903   28.6714 O   0  0  0  0  0  0  0  0  0  0  0  0
   47.2611   58.0694   27.3419 C   0  0  1  0  0  0  0  0  0  0  0  0
   46.9533   59.1470   26.4652 O   0  0  0  0  0  0  0  0  0  0  0  0
   48.8151   57.9510   27.5500 C   0  0  2  0  0  0  0  0  0  0  0  0
   45.2722   57.2015   34.2806 O   0  0  0  0  0  0  0  0  0  0  0  0
   50.6128   53.6067   29.8902 N   0  0  0  0  0  0  0  0  0  0  0  0
   50.2070   54.7413   30.4708 C   0  0  0  0  0  0  0  0  0  0  0  0
   49.7563   55.7583   29.7532 N   0  0  0  0  0  0  0  0  0  0  0  0
   49.7181   55.7057   28.4116 C   0  0  0  0  0  0  0  0  0  0  0  0
   50.1513   54.5286   27.7490 C   0  0  0  0  0  0  0  0  0  0  0  0
   50.6079   53.4557   28.5556 C   0  0  0  0  0  0  0  0  0  0  0  0
   51.0409   52.2808   27.9830 N   0  0  0  0  0  0  0  0  0  0  0  0
   50.0146   54.7374   26.4243 N   0  0  0  0  0  0  0  0  0  0  0  0
   49.5474   55.9356   26.2282 C   0  0  0  0  0  0  0  0  0  0  0  0
   49.3407   56.5761   27.4182 N   0  0  0  0  0  0  0  0  0  0  0  0
  2  1  1  6  0  0  0
  2  3  1  0  0  0  0
  2  5  1  0  0  0  0
  3  4  1  0  0  0  0
  3 17  1  0  0  0  0
  5  6  1  0  0  0  0
  7  6  1  1  0  0  0
  7  8  1  0  0  0  0
  7  9  1  0  0  0  0
 10  9  1  1  0  0  0
 10 11  1  0  0  0  0
 10 12  1  0  0  0  0
 11 16  1  0  0  0  0
 12 13  1  6  0  0  0
 12 14  1  0  0  0  0
 14 15  1  6  0  0  0
 14 16  1  0  0  0  0
 16 27  1  1  0  0  0
 18 19  2  0  0  0  0
 18 23  1  0  0  0  0
 19 20  1  0  0  0  0
 20 21  2  0  0  0  0
 21 22  1  0  0  0  0
 21 27  1  0  0  0  0
 22 23  2  0  0  0  0
 22 25  1  0  0  0  0
 23 24  1  0  0  0  0
 25 26  2  0  0  0  0
 26 27  1  0  0  0  0
M  END
>  <CHROM.1>
-23.85083063,-168.00565255,-163.52610827,172.32611564,-179.90933366,54.81190803
10.51580151,48.26929266,56.67686951,30.24428328,-2.44278239,0.99437573,-0.96738897

>  <Name>
ligand

>  <RI>
0

>  <Rbt.Current_Directory>
/home/itssahil/PROJECTS/Mol_Feturizer/New_Systems/rnas/2GIS

>  <Rbt.Executable>
rbdock ($Id: //depot/dev/client3/rdock/2013.1/src/exe/rbdock.cxx#4 $)

>  <Rbt.Library>
libRbt.so (2013.1, Build901 2013/11/27)

>  <Rbt.Parameter_File>
/export/apps/rDock/src/rDock_2013.1_src/data/scripts/dock_solv.prm

>  <Rbt.Receptor>
prm/pocket_docking_4.prm

>  <SCORE>
-17.0467

>  <SCORE.INTER>
-11.5493

>  <SCORE.INTER.CONST>
1

>  <SCORE.INTER.POLAR>
0

>  <SCORE.INTER.ROT>
7

>  <SCORE.INTER.SOLV>
15.0893

>  <SCORE.INTER.VDW>
-20.996

>  <SCORE.INTER.norm>
-0.427753

>  <SCORE.INTRA>
-5.49737

>  <SCORE.INTRA.DIHEDRAL>
-4.57034

>  <SCORE.INTRA.DIHEDRAL.0>
9.40024

>  <SCORE.INTRA.POLAR>
0

>  <SCORE.INTRA.POLAR.0>
0

>  <SCORE.INTRA.REPUL>
0

>  <SCORE.INTRA.REPUL.0>
0

>  <SCORE.INTRA.SOLV>
-3.04485

>  <SCORE.INTRA.SOLV.lig_0>
-47.1049

>  <SCORE.INTRA.VDW>
-1.68977

>  <SCORE.INTRA.VDW.0>
-1.50278

>  <SCORE.INTRA.norm>
-0.203606

>  <SCORE.RESTR>
0

>  <SCORE.RESTR.CAVITY>
0

>  <SCORE.RESTR.norm>
0

>  <SCORE.SYSTEM>
0

>  <SCORE.SYSTEM.CONST>
0

>  <SCORE.SYSTEM.DIHEDRAL>
0

>  <SCORE.SYSTEM.SOLV>
0

>  <SCORE.SYSTEM.norm>
0

>  <SCORE.heavy>
27

>  <SCORE.norm>
-0.631359

>  <RMSD>
6.945

$$$$
ligand
 OpenBabel11021811433D
libRbt.so/2013.1/901 2013/11/27
 27 29  0  0  0  0  0  0  0  0999 V2000
   47.7014   53.4041   35.2597 N   0  0  0  0  0  0  0  0  0  0  0  0
   48.7182   54.2363   35.9104 C   0  0  2  0  0  0  0  0  0  0  0  0
   48.3598   54.4218   37.3742 C   0  0  0  0  0  0  0  0  0  0  0  0
   47.2621   54.0591   37.7876 O   0  0  0  0  0  0  0  0  0  0  0  0
   48.8249   55.6105   35.2197 C   0  0  0  0  0  0  0  0  0  0  0  0
   49.4709   55.4334   33.8464 C   0  0  0  0  0  0  0  0  0  0  0  0
   49.6756   56.9798   32.8712 S   0  0  2  0  0  0  0  0  0  0  0  0
   49.8966   58.2730   34.1326 C   0  0  0  0  0  0  0  0  0  0  0  0
   47.9285   57.1782   32.4626 C   0  0  0  0  0  0  0  0  0  0  0  0
   47.5930   58.5314   31.8119 C   0  0  1  0  0  0  0  0  0  0  0  0
   48.2653   58.6190   30.5207 O   0  0  0  0  0  0  0  0  0  0  0  0
   46.1233   58.3977   31.5065 C   0  0  1  0  0  0  0  0  0  0  0  0
   45.3553   59.0011   32.5481 O   0  0  0  0  0  0  0  0  0  0  0  0
   45.9458   59.1657   30.2026 C   0  0  1  0  0  0  0  0  0  0  0  0
   45.4922   60.4965   30.4215 O   0  0  0  0  0  0  0  0  0  0  0  0
   47.3519   59.1683   29.4991 C   0  0  2  0  0  0  0  0  0  0  0  0
   49.1405   54.9924   38.1363 O   0  0  0  0  0  0  0  0  0  0  0  0
   47.5040   54.2239   27.7351 N   0  0  0  0  0  0  0  0  0  0  0  0
   47.3923   54.6382   29.0020 C   0  0  0  0  0  0  0  0  0  0  0  0
   47.3472   55.9264   29.3031 N   0  0  0  0  0  0  0  0  0  0  0  0
   47.4444   56.8710   28.3531 C   0  0  0  0  0  0  0  0  0  0  0  0
   47.5785   56.4813   26.9957 C   0  0  0  0  0  0  0  0  0  0  0  0
   47.6027   55.0918   26.7148 C   0  0  0  0  0  0  0  0  0  0  0  0
   47.7274   54.6386   25.4207 N   0  0  0  0  0  0  0  0  0  0  0  0
   47.6583   57.6070   26.2585 N   0  0  0  0  0  0  0  0  0  0  0  0
   47.5935   58.6386   27.0483 C   0  0  0  0  0  0  0  0  0  0  0  0
   47.4559   58.2446   28.3501 N   0  0  0  0  0  0  0  0  0  0  0  0
  2  1  1  6  0  0  0
  2  3  1  0  0  0  0
  2  5  1  0  0  0  0
  3  4  1  0  0  0  0
  3 17  1  0  0  0  0
  5  6  1  0  0  0  0
  7  6  1  1  0  0  0
  7  8  1  0  0  0  0
  7  9  1  0  0  0  0
 10  9  1  6  0  0  0
 10 11  1  0  0  0  0
 10 12  1  0  0  0  0
 11 16  1  0  0  0  0
 12 13  1  1  0  0  0
 12 14  1  0  0  0  0
 14 15  1  1  0  0  0
 14 16  1  0  0  0  0
 16 27  1  6  0  0  0
 18 19  2  0  0  0  0
 18 23  1  0  0  0  0
 19 20  1  0  0  0  0
 20 21  2  0  0  0  0
 21 22  1  0  0  0  0
 21 27  1  0  0  0  0
 22 23  2  0  0  0  0
 22 25  1  0  0  0  0
 23 24  1  0  0  0  0
 25 26  2  0  0  0  0
 26 27  1  0  0  0  0
M  END
>  <CHROM.1>
-9.77514010,-70.94708179,179.85653279,30.29051271,170.32219043,64.60181352
45.26908840,47.80851812,56.72080994,31.48861761,-1.01909169,1.30210681,-1.87782845

>  <Name>
ligand

>  <RI>
0

>  <Rbt.Current_Directory>
/home/itssahil/PROJECTS/Mol_Feturizer/New_Systems/rnas/2GIS

>  <Rbt.Executable>
rbdock ($Id: //depot/dev/client3/rdock/2013.1/src/exe/rbdock.cxx#4 $)

>  <Rbt.Library>
libRbt.so (2013.1, Build901 2013/11/27)

>  <Rbt.Parameter_File>
/export/apps/rDock/src/rDock_2013.1_src/data/scripts/dock_solv.prm

>  <Rbt.Receptor>
prm/pocket_docking_8.prm

>  <SCORE>
-15.8189

>  <SCORE.INTER>
-11.9683

>  <SCORE.INTER.CONST>
1

>  <SCORE.INTER.POLAR>
0

>  <SCORE.INTER.ROT>
7

>  <SCORE.INTER.SOLV>
12.1058

>  <SCORE.INTER.VDW>
-20.2808

>  <SCORE.INTER.norm>
-0.44327

>  <SCORE.INTRA>
-3.85059

>  <SCORE.INTRA.DIHEDRAL>
-4.45977

>  <SCORE.INTRA.DIHEDRAL.0>
9.40024

>  <SCORE.INTRA.POLAR>
0

>  <SCORE.INTRA.POLAR.0>
0

>  <SCORE.INTRA.REPUL>
0

>  <SCORE.INTRA.REPUL.0>
0

>  <SCORE.INTRA.SOLV>
-2.46226

>  <SCORE.INTRA.SOLV.lig_0>
-47.1049

>  <SCORE.INTRA.VDW>
-0.389574

>  <SCORE.INTRA.VDW.0>
-1.50278

>  <SCORE.INTRA.norm>
-0.142614

>  <SCORE.RESTR>
0

>  <SCORE.RESTR.CAVITY>
0

>  <SCORE.RESTR.norm>
0

>  <SCORE.SYSTEM>
0

>  <SCORE.SYSTEM.CONST>
0

>  <SCORE.SYSTEM.DIHEDRAL>
0

>  <SCORE.SYSTEM.SOLV>
0

>  <SCORE.SYSTEM.norm>
0

>  <SCORE.heavy>
27

>  <SCORE.norm>
-0.585884

>  <RMSD>
6.967

$$$$
ligand
 OpenBabel11021811433D
libRbt.so/2013.1/901 2013/11/27
 27 29  0  0  0  0  0  0  0  0999 V2000
   48.3804   53.4219   33.1705 N   0  0  0  0  0  0  0  0  0  0  0  0
   48.7310   54.7266   33.7403 C   0  0  2  0  0  0  0  0  0  0  0  0
   48.1848   54.8254   35.1535 C   0  0  0  0  0  0  0  0  0  0  0  0
   48.9548   54.9569   36.1008 O   0  0  0  0  0  0  0  0  0  0  0  0
   48.1620   55.8712   32.8782 C   0  0  0  0  0  0  0  0  0  0  0  0
   48.6517   57.2083   33.4322 C   0  0  0  0  0  0  0  0  0  0  0  0
   49.2628   58.4020   32.1729 S   0  0  2  0  0  0  0  0  0  0  0  0
   49.3402   59.9863   33.0651 C   0  0  0  0  0  0  0  0  0  0  0  0
   47.6953   58.5671   31.2929 C   0  0  0  0  0  0  0  0  0  0  0  0
   47.8427   59.0997   29.8570 C   0  0  1  0  0  0  0  0  0  0  0  0
   48.9810   58.4466   29.2211 O   0  0  0  0  0  0  0  0  0  0  0  0
   46.6156   58.5541   29.1729 C   0  0  1  0  0  0  0  0  0  0  0  0
   45.5879   59.5452   29.1589 O   0  0  0  0  0  0  0  0  0  0  0  0
   47.0855   58.2561   27.7545 C   0  0  1  0  0  0  0  0  0  0  0  0
   46.7744   59.3124   26.8534 O   0  0  0  0  0  0  0  0  0  0  0  0
   48.6408   58.0428   27.8423 C   0  0  2  0  0  0  0  0  0  0  0  0
   46.9767   54.7106   35.3609 O   0  0  0  0  0  0  0  0  0  0  0  0
   50.5451   53.7562   30.2046 N   0  0  0  0  0  0  0  0  0  0  0  0
   50.2956   54.9505   30.7527 C   0  0  0  0  0  0  0  0  0  0  0  0
   49.7939   55.9446   30.0369 N   0  0  0  0  0  0  0  0  0  0  0  0
   49.5453   55.8059   28.7242 C   0  0  0  0  0  0  0  0  0  0  0  0
   49.8069   54.5621   28.0943 C   0  0  0  0  0  0  0  0  0  0  0  0
   50.3252   53.5179   28.9012 C   0  0  0  0  0  0  0  0  0  0  0  0
   50.6007   52.2823   28.3599 N   0  0  0  0  0  0  0  0  0  0  0  0
   49.4777   54.6913   26.7935 N   0  0  0  0  0  0  0  0  0  0  0  0
   49.0504   55.9014   26.5806 C   0  0  0  0  0  0  0  0  0  0  0  0
   49.0654   56.6312   27.7366 N   0  0  0  0  0  0  0  0  0  0  0  0
  2  1  1  6  0  0  0
  2  3  1  0  0  0  0
  2  5  1  0  0  0  0
  3  4  1  0  0  0  0
  3 17  1  0  0  0  0
  5  6  1  0  0  0  0
  7  6  1  1  0  0  0
  7  8  1  0  0  0  0
  7  9  1  0  0  0  0
 10  9  1  1  0  0  0
 10 11  1  0  0  0  0
 10 12  1  0  0  0  0
 11 16  1  0  0  0  0
 12 13  1  6  0  0  0
 12 14  1  0  0  0  0
 14 15  1  6  0  0  0
 14 16  1  0  0  0  0
 16 27  1  1  0  0  0
 18 19  2  0  0  0  0
 18 23  1  0  0  0  0
 19 20  1  0  0  0  0
 20 21  2  0  0  0  0
 21 22  1  0  0  0  0
 21 27  1  0  0  0  0
 22 23  2  0  0  0  0
 22 25  1  0  0  0  0
 23 24  1  0  0  0  0
 25 26  2  0  0  0  0
 26 27  1  0  0  0  0
M  END
>  <CHROM.1>
117.60580297,-175.00107796,134.78224855,165.49337416,-159.63439493,42.46186543
6.16556029,48.66296307,56.52626889,30.60177321,-1.46209156,1.16644459,-1.37268409

>  <Name>
ligand

>  <RI>
0

>  <Rbt.Current_Directory>
/home/itssahil/PROJECTS/Mol_Feturizer/New_Systems/rnas/2GIS

>  <Rbt.Executable>
rbdock ($Id: //depot/dev/client3/rdock/2013.1/src/exe/rbdock.cxx#4 $)

>  <Rbt.Library>
libRbt.so (2013.1, Build901 2013/11/27)

>  <Rbt.Parameter_File>
/export/apps/rDock/src/rDock_2013.1_src/data/scripts/dock_solv.prm

>  <Rbt.Receptor>
prm/pocket_docking_2.prm

>  <SCORE>
-9.70041

>  <SCORE.INTER>
-8.44462

>  <SCORE.INTER.CONST>
1

>  <SCORE.INTER.POLAR>
0

>  <SCORE.INTER.ROT>
7

>  <SCORE.INTER.SOLV>
16.5712

>  <SCORE.INTER.VDW>
-19.4202

>  <SCORE.INTER.norm>
-0.312764

>  <SCORE.INTRA>
-2.3367

>  <SCORE.INTRA.DIHEDRAL>
1.60963

>  <SCORE.INTRA.DIHEDRAL.0>
9.40024

>  <SCORE.INTRA.POLAR>
0

>  <SCORE.INTRA.POLAR.0>
0

>  <SCORE.INTRA.REPUL>
0

>  <SCORE.INTRA.REPUL.0>
0

>  <SCORE.INTRA.SOLV>
-2.45444

>  <SCORE.INTRA.SOLV.lig_0>
-47.1049

>  <SCORE.INTRA.VDW>
-1.91429

>  <SCORE.INTRA.VDW.0>
-1.50278

>  <SCORE.INTRA.norm>
-0.0865443

>  <SCORE.RESTR>
1.08091

>  <SCORE.RESTR.CAVITY>
1.08091

>  <SCORE.RESTR.norm>
0.0400335

>  <SCORE.SYSTEM>
0

>  <SCORE.SYSTEM.CONST>
0

>  <SCORE.SYSTEM.DIHEDRAL>
0

>  <SCORE.SYSTEM.SOLV>
0

>  <SCORE.SYSTEM.norm>
0

>  <SCORE.heavy>
27

>  <SCORE.norm>
-0.359274

>  <RMSD>
6.998

$$$$
ligand
 OpenBabel11021811433D
libRbt.so/2013.1/901 2013/11/27
 27 29  0  0  0  0  0  0  0  0999 V2000
   48.1837   54.3636   32.9735 N   0  0  0  0  0  0  0  0  0  0  0  0
   48.8684   55.0546   34.0706 C   0  0  2  0  0  0  0  0  0  0  0  0
   48.1394   54.7819   35.3742 C   0  0  0  0  0  0  0  0  0  0  0  0
   46.9233   54.6127   35.3731 O   0  0  0  0  0  0  0  0  0  0  0  0
   48.9249   56.5732   33.8105 C   0  0  0  0  0  0  0  0  0  0  0  0
   49.9551   56.8575   32.7184 C   0  0  0  0  0  0  0  0  0  0  0  0
   49.9487   58.5766   32.0633 S   0  0  2  0  0  0  0  0  0  0  0  0
   49.6974   59.6119   33.5388 C   0  0  0  0  0  0  0  0  0  0  0  0
   48.2768   58.5142   31.3853 C   0  0  0  0  0  0  0  0  0  0  0  0
   48.1896   58.9378   29.9088 C   0  0  1  0  0  0  0  0  0  0  0  0
   49.1566   58.1683   29.1344 O   0  0  0  0  0  0  0  0  0  0  0  0
   46.8311   58.4311   29.4977 C   0  0  1  0  0  0  0  0  0  0  0  0
   45.8730   59.4858   29.5883 O   0  0  0  0  0  0  0  0  0  0  0  0
   47.0188   58.0074   28.0462 C   0  0  1  0  0  0  0  0  0  0  0  0
   46.6068   59.0192   27.1346 O   0  0  0  0  0  0  0  0  0  0  0  0
   48.5504   57.6964   27.8737 C   0  0  2  0  0  0  0  0  0  0  0  0
   48.7527   54.7925   36.4417 O   0  0  0  0  0  0  0  0  0  0  0  0
   50.5778   53.4505   30.2068 N   0  0  0  0  0  0  0  0  0  0  0  0
   50.4901   54.6914   30.6983 C   0  0  0  0  0  0  0  0  0  0  0  0
   49.9329   55.6694   30.0017 N   0  0  0  0  0  0  0  0  0  0  0  0
   49.4622   55.4645   28.7604 C   0  0  0  0  0  0  0  0  0  0  0  0
   49.5454   54.1682   28.1902 C   0  0  0  0  0  0  0  0  0  0  0  0
   50.1313   53.1450   28.9775 C   0  0  0  0  0  0  0  0  0  0  0  0
   50.2434   51.8616   28.4916 N   0  0  0  0  0  0  0  0  0  0  0  0
   49.0124   54.2361   26.9539 N   0  0  0  0  0  0  0  0  0  0  0  0
   48.6241   55.4562   26.7241 C   0  0  0  0  0  0  0  0  0  0  0  0
   48.8718   56.2555   27.8052 N   0  0  0  0  0  0  0  0  0  0  0  0
  2  1  1  6  0  0  0
  2  3  1  0  0  0  0
  2  5  1  0  0  0  0
  3  4  1  0  0  0  0
  3 17  1  0  0  0  0
  5  6  1  0  0  0  0
  7  6  1  1  0  0  0
  7  8  1  0  0  0  0
  7  9  1  0  0  0  0
 10  9  1  1  0  0  0
 10 11  1  0  0  0  0
 10 12  1  0  0  0  0
 11 16  1  0  0  0  0
 12 13  1  6  0  0  0
 12 14  1  0  0  0  0
 14 15  1  6  0  0  0
 14 16  1  0  0  0  0
 16 27  1  1  0  0  0
 18 19  2  0  0  0  0
 18 23  1  0  0  0  0
 19 20  1  0  0  0  0
 20 21  2  0  0  0  0
 21 22  1  0  0  0  0
 21 27  1  0  0  0  0
 22 23  2  0  0  0  0
 22 25  1  0  0  0  0
 23 24  1  0  0  0  0
 25 26  2  0  0  0  0
 26 27  1  0  0  0  0
M  END
>  <CHROM.1>
-31.70815776,-73.62566622,169.57860156,40.18488634,-127.73995369,52.35386478
7.08814972,48.78537224,56.39281634,30.71722004,-1.40581046,1.25583922,-1.58734465

>  <Name>
ligand

>  <RI>
0

>  <Rbt.Current_Directory>
/home/itssahil/PROJECTS/Mol_Feturizer/New_Systems/rnas/2GIS

>  <Rbt.Executable>
rbdock ($Id: //depot/dev/client3/rdock/2013.1/src/exe/rbdock.cxx#4 $)

>  <Rbt.Library>
libRbt.so (2013.1, Build901 2013/11/27)

>  <Rbt.Parameter_File>
/export/apps/rDock/src/rDock_2013.1_src/data/scripts/dock_solv.prm

>  <Rbt.Receptor>
prm/pocket_docking_2.prm

>  <SCORE>
-10.4265

>  <SCORE.INTER>
-9.88203

>  <SCORE.INTER.CONST>
1

>  <SCORE.INTER.POLAR>
0

>  <SCORE.INTER.ROT>
7

>  <SCORE.INTER.SOLV>
15.4855

>  <SCORE.INTER.VDW>
-20.0165

>  <SCORE.INTER.norm>
-0.366001

>  <SCORE.INTRA>
-1.89323

>  <SCORE.INTRA.DIHEDRAL>
-0.191287

>  <SCORE.INTRA.DIHEDRAL.0>
9.40024

>  <SCORE.INTRA.POLAR>
0

>  <SCORE.INTRA.POLAR.0>
0

>  <SCORE.INTRA.REPUL>
0

>  <SCORE.INTRA.REPUL.0>
0

>  <SCORE.INTRA.SOLV>
-1.54579

>  <SCORE.INTRA.SOLV.lig_0>
-47.1049

>  <SCORE.INTRA.VDW>
-1.02469

>  <SCORE.INTRA.VDW.0>
-1.50278

>  <SCORE.INTRA.norm>
-0.0701196

>  <SCORE.RESTR>
1.34879

>  <SCORE.RESTR.CAVITY>
1.34879

>  <SCORE.RESTR.norm>
0.0499551

>  <SCORE.SYSTEM>
0

>  <SCORE.SYSTEM.CONST>
0

>  <SCORE.SYSTEM.DIHEDRAL>
0

>  <SCORE.SYSTEM.SOLV>
0

>  <SCORE.SYSTEM.norm>
0

>  <SCORE.heavy>
27

>  <SCORE.norm>
-0.386166

>  <RMSD>
7.017

$$$$
ligand
 OpenBabel11021811433D
libRbt.so/2013.1/901 2013/11/27
 27 29  0  0  0  0  0  0  0  0999 V2000
   49.3589   54.0102   34.1315 N   0  0  0  0  0  0  0  0  0  0  0  0
   49.5840   55.1080   35.0772 C   0  0  2  0  0  0  0  0  0  0  0  0
   48.7114   54.9071   36.3034 C   0  0  0  0  0  0  0  0  0  0  0  0
   47.5253   54.6187   36.1715 O   0  0  0  0  0  0  0  0  0  0  0  0
   49.2638   56.4674   34.4241 C   0  0  0  0  0  0  0  0  0  0  0  0
   50.2468   56.7198   33.2819 C   0  0  0  0  0  0  0  0  0  0  0  0
   49.9107   58.2231   32.2763 S   0  0  2  0  0  0  0  0  0  0  0  0
   49.5569   59.5122   33.5113 C   0  0  0  0  0  0  0  0  0  0  0  0
   48.2436   57.7459   31.7745 C   0  0  0  0  0  0  0  0  0  0  0  0
   47.6255   58.6730   30.7137 C   0  0  1  0  0  0  0  0  0  0  0  0
   48.3625   58.5252   29.4639 O   0  0  0  0  0  0  0  0  0  0  0  0
   46.2742   58.0499   30.4749 C   0  0  1  0  0  0  0  0  0  0  0  0
   45.2870   58.7183   31.2605 O   0  0  0  0  0  0  0  0  0  0  0  0
   46.0180   58.2813   28.9909 C   0  0  1  0  0  0  0  0  0  0  0  0
   45.2157   59.4331   28.7584 O   0  0  0  0  0  0  0  0  0  0  0  0
   47.4310   58.4458   28.3212 C   0  0  2  0  0  0  0  0  0  0  0  0
   49.1720   55.0942   37.4297 O   0  0  0  0  0  0  0  0  0  0  0  0
   48.0305   53.2359   28.0404 N   0  0  0  0  0  0  0  0  0  0  0  0
   47.5338   53.9493   29.0570 C   0  0  0  0  0  0  0  0  0  0  0  0
   47.4223   55.2663   28.9835 N   0  0  0  0  0  0  0  0  0  0  0  0
   47.8331   55.9440   27.8989 C   0  0  0  0  0  0  0  0  0  0  0  0
   48.3801   55.2328   26.8002 C   0  0  0  0  0  0  0  0  0  0  0  0
   48.4633   53.8218   26.9120 C   0  0  0  0  0  0  0  0  0  0  0  0
   48.9800   53.0648   25.8846 N   0  0  0  0  0  0  0  0  0  0  0  0
   48.7109   56.1380   25.8577 N   0  0  0  0  0  0  0  0  0  0  0  0
   48.4216   57.3297   26.2919 C   0  0  0  0  0  0  0  0  0  0  0  0
   47.8728   57.2700   27.5426 N   0  0  0  0  0  0  0  0  0  0  0  0
  2  1  1  6  0  0  0
  2  3  1  0  0  0  0
  2  5  1  0  0  0  0
  3  4  1  0  0  0  0
  3 17  1  0  0  0  0
  5  6  1  0  0  0  0
  7  6  1  1  0  0  0
  7  8  1  0  0  0  0
  7  9  1  0  0  0  0
 10  9  1  1  0  0  0
 10 11  1  0  0  0  0
 10 12  1  0  0  0  0
 11 16  1  0  0  0  0
 12 13  1  1  0  0  0
 12 14  1  0  0  0  0
 14 15  1  1  0  0  0
 14 16  1  0  0  0  0
 16 27  1  6  0  0  0
 18 19  2  0  0  0  0
 18 23  1  0  0  0  0
 19 20  1  0  0  0  0
 20 21  2  0  0  0  0
 21 22  1  0  0  0  0
 21 27  1  0  0  0  0
 22 23  2  0  0  0  0
 22 25  1  0  0  0  0
 23 24  1  0  0  0  0
 25 26  2  0  0  0  0
 26 27  1  0  0  0  0
M  END
>  <CHROM.1>
-46.70605745,-64.77006768,174.16354693,45.12848644,-171.74017304,67.31633996
67.11168573,48.19416606,56.57067672,30.76813772,-1.05769239,1.25214928,-2.04012215

>  <Name>
ligand

>  <RI>
0

>  <Rbt.Current_Directory>
/home/itssahil/PROJECTS/Mol_Feturizer/New_Systems/rnas/2GIS

>  <Rbt.Executable>
rbdock ($Id: //depot/dev/client3/rdock/2013.1/src/exe/rbdock.cxx#4 $)

>  <Rbt.Library>
libRbt.so (2013.1, Build901 2013/11/27)

>  <Rbt.Parameter_File>
/export/apps/rDock/src/rDock_2013.1_src/data/scripts/dock_solv.prm

>  <Rbt.Receptor>
prm/pocket_docking_4.prm

>  <SCORE>
-16.6611

>  <SCORE.INTER>
-12.372

>  <SCORE.INTER.CONST>
1

>  <SCORE.INTER.POLAR>
0

>  <SCORE.INTER.ROT>
7

>  <SCORE.INTER.SOLV>
10.9524

>  <SCORE.INTER.VDW>
-20.1654

>  <SCORE.INTER.norm>
-0.458221

>  <SCORE.INTRA>
-4.28913

>  <SCORE.INTRA.DIHEDRAL>
-5.07571

>  <SCORE.INTRA.DIHEDRAL.0>
9.40024

>  <SCORE.INTRA.POLAR>
0

>  <SCORE.INTRA.POLAR.0>
0

>  <SCORE.INTRA.REPUL>
0

>  <SCORE.INTRA.REPUL.0>
0

>  <SCORE.INTRA.SOLV>
-2.36832

>  <SCORE.INTRA.SOLV.lig_0>
-47.1049

>  <SCORE.INTRA.VDW>
-0.567111

>  <SCORE.INTRA.VDW.0>
-1.50278

>  <SCORE.INTRA.norm>
-0.158857

>  <SCORE.RESTR>
0

>  <SCORE.RESTR.CAVITY>
0

>  <SCORE.RESTR.norm>
0

>  <SCORE.SYSTEM>
0

>  <SCORE.SYSTEM.CONST>
0

>  <SCORE.SYSTEM.DIHEDRAL>
0

>  <SCORE.SYSTEM.SOLV>
0

>  <SCORE.SYSTEM.norm>
0

>  <SCORE.heavy>
27

>  <SCORE.norm>
-0.617077

>  <RMSD>
7.029

$$$$
ligand
 OpenBabel11021811433D
libRbt.so/2013.1/901 2013/11/27
 27 29  0  0  0  0  0  0  0  0999 V2000
   49.9882   59.0405   32.4700 N   0  0  0  0  0  0  0  0  0  0  0  0
   49.1991   58.5048   33.5837 C   0  0  2  0  0  0  0  0  0  0  0  0
   49.8121   57.1987   34.0566 C   0  0  0  0  0  0  0  0  0  0  0  0
   50.5802   56.5812   33.3244 O   0  0  0  0  0  0  0  0  0  0  0  0
   47.7364   58.2715   33.1557 C   0  0  0  0  0  0  0  0  0  0  0  0
   47.7081   57.3138   31.9655 C   0  0  0  0  0  0  0  0  0  0  0  0
   46.2062   56.2583   31.8444 S   0  0  2  0  0  0  0  0  0  0  0  0
   44.8345   57.3956   32.2144 C   0  0  0  0  0  0  0  0  0  0  0  0
   46.4243   55.4361   33.4366 C   0  0  0  0  0  0  0  0  0  0  0  0
   45.5491   54.1832   33.6131 C   0  0  1  0  0  0  0  0  0  0  0  0
   46.0923   53.3711   34.6959 O   0  0  0  0  0  0  0  0  0  0  0  0
   44.2538   54.7533   34.1314 C   0  0  1  0  0  0  0  0  0  0  0  0
   43.3349   54.9266   33.0524 O   0  0  0  0  0  0  0  0  0  0  0  0
   43.7437   53.6916   35.0980 C   0  0  1  0  0  0  0  0  0  0  0  0
   42.7932   52.8249   34.4898 O   0  0  0  0  0  0  0  0  0  0  0  0
   45.0072   52.8840   35.5706 C   0  0  2  0  0  0  0  0  0  0  0  0
   49.4934   56.7227   35.1464 O   0  0  0  0  0  0  0  0  0  0  0  0
   48.8586   54.4282   38.7900 N   0  0  0  0  0  0  0  0  0  0  0  0
   48.9180   54.2587   37.4645 C   0  0  0  0  0  0  0  0  0  0  0  0
   47.8558   53.8805   36.7710 N   0  0  0  0  0  0  0  0  0  0  0  0
   46.6835   53.6198   37.3728 C   0  0  0  0  0  0  0  0  0  0  0  0
   46.5746   53.7715   38.7790 C   0  0  0  0  0  0  0  0  0  0  0  0
   47.7304   54.1974   39.4812 C   0  0  0  0  0  0  0  0  0  0  0  0
   47.6992   54.3695   40.8469 N   0  0  0  0  0  0  0  0  0  0  0  0
   45.3122   53.4478   39.1234 N   0  0  0  0  0  0  0  0  0  0  0  0
   44.6536   53.1065   38.0547 C   0  0  0  0  0  0  0  0  0  0  0  0
   45.4477   53.1989   36.9457 N   0  0  0  0  0  0  0  0  0  0  0  0
  2  1  1  6  0  0  0
  2  3  1  0  0  0  0
  2  5  1  0  0  0  0
  3  4  1  0  0  0  0
  3 17  1  0  0  0  0
  5  6  1  0  0  0  0
  7  6  1  1  0  0  0
  7  8  1  0  0  0  0
  7  9  1  0  0  0  0
 10  9  1  1  0  0  0
 10 11  1  0  0  0  0
 10 12  1  0  0  0  0
 11 16  1  0  0  0  0
 12 13  1  6  0  0  0
 12 14  1  0  0  0  0
 14 15  1  6  0  0  0
 14 16  1  0  0  0  0
 16 27  1  1  0  0  0
 18 19  2  0  0  0  0
 18 23  1  0  0  0  0
 19 20  1  0  0  0  0
 20 21  2  0  0  0  0
 21 22  1  0  0  0  0
 21 27  1  0  0  0  0
 22 23  2  0  0  0  0
 22 25  1  0  0  0  0
 23 24  1  0  0  0  0
 25 26  2  0  0  0  0
 26 27  1  0  0  0  0
M  END
>  <CHROM.1>
-18.94220278,57.88921522,149.94644286,43.18638127,-165.72707828,161.82260056
-11.00975852,46.71645180,55.17865619,35.13029671,-1.28771640,0.48303193,2.03858990

>  <Name>
ligand

>  <RI>
0

>  <Rbt.Current_Directory>
/home/itssahil/PROJECTS/Mol_Feturizer/New_Systems/rnas/2GIS

>  <Rbt.Executable>
rbdock ($Id: //depot/dev/client3/rdock/2013.1/src/exe/rbdock.cxx#4 $)

>  <Rbt.Library>
libRbt.so (2013.1, Build901 2013/11/27)

>  <Rbt.Parameter_File>
/export/apps/rDock/src/rDock_2013.1_src/data/scripts/dock_solv.prm

>  <Rbt.Receptor>
prm/pocket_docking_7.prm

>  <SCORE>
-16.8306

>  <SCORE.INTER>
-15.4195

>  <SCORE.INTER.CONST>
1

>  <SCORE.INTER.POLAR>
0

>  <SCORE.INTER.ROT>
7

>  <SCORE.INTER.SOLV>
11.4903

>  <SCORE.INTER.VDW>
-22.3764

>  <SCORE.INTER.norm>
-0.571092

>  <SCORE.INTRA>
-1.41116

>  <SCORE.INTRA.DIHEDRAL>
-1.05768

>  <SCORE.INTRA.DIHEDRAL.0>
9.40024

>  <SCORE.INTRA.POLAR>
0

>  <SCORE.INTRA.POLAR.0>
0

>  <SCORE.INTRA.REPUL>
0

>  <SCORE.INTRA.REPUL.0>
0

>  <SCORE.INTRA.SOLV>
-2.04873

>  <SCORE.INTRA.SOLV.lig_0>
-47.1049

>  <SCORE.INTRA.VDW>
0.142046

>  <SCORE.INTRA.VDW.0>
-1.50278

>  <SCORE.INTRA.norm>
-0.0522652

>  <SCORE.RESTR>
0

>  <SCORE.RESTR.CAVITY>
0

>  <SCORE.RESTR.norm>
0

>  <SCORE.SYSTEM>
0

>  <SCORE.SYSTEM.CONST>
0

>  <SCORE.SYSTEM.DIHEDRAL>
0

>  <SCORE.SYSTEM.SOLV>
0

>  <SCORE.SYSTEM.norm>
0

>  <SCORE.heavy>
27

>  <SCORE.norm>
-0.623357

>  <RMSD>
7.032

$$$$
ligand
 OpenBabel11021811433D
libRbt.so/2013.1/901 2013/11/27
 27 29  0  0  0  0  0  0  0  0999 V2000
   48.1196   53.4988   34.8960 N   0  0  0  0  0  0  0  0  0  0  0  0
   48.8801   54.4303   35.7350 C   0  0  2  0  0  0  0  0  0  0  0  0
   48.2419   54.5096   37.1104 C   0  0  0  0  0  0  0  0  0  0  0  0
   48.8589   55.0136   38.0447 O   0  0  0  0  0  0  0  0  0  0  0  0
   48.9225   55.8327   35.0962 C   0  0  0  0  0  0  0  0  0  0  0  0
   49.8563   55.8057   33.8870 C   0  0  0  0  0  0  0  0  0  0  0  0
   49.9572   57.3792   32.9393 S   0  0  2  0  0  0  0  0  0  0  0  0
   49.8945   58.6718   34.2189 C   0  0  0  0  0  0  0  0  0  0  0  0
   48.2455   57.3646   32.3661 C   0  0  0  0  0  0  0  0  0  0  0  0
   47.8162   58.6626   31.6603 C   0  0  1  0  0  0  0  0  0  0  0  0
   48.5681   58.8007   30.4184 O   0  0  0  0  0  0  0  0  0  0  0  0
   46.3955   58.3656   31.2546 C   0  0  1  0  0  0  0  0  0  0  0  0
   45.4933   58.8998   32.2238 O   0  0  0  0  0  0  0  0  0  0  0  0
   46.2331   59.0880   29.9229 C   0  0  1  0  0  0  0  0  0  0  0  0
   45.6255   60.3654   30.0763 O   0  0  0  0  0  0  0  0  0  0  0  0
   47.6787   59.2309   29.3212 C   0  0  2  0  0  0  0  0  0  0  0  0
   47.1327   54.0136   37.3090 O   0  0  0  0  0  0  0  0  0  0  0  0
   50.5249   55.2378   27.4406 N   0  0  0  0  0  0  0  0  0  0  0  0
   50.6249   55.8211   28.6401 C   0  0  0  0  0  0  0  0  0  0  0  0
   49.8231   56.8140   28.9913 N   0  0  0  0  0  0  0  0  0  0  0  0
   48.8979   57.2987   28.1467 C   0  0  0  0  0  0  0  0  0  0  0  0
   48.7629   56.7222   26.8576 C   0  0  0  0  0  0  0  0  0  0  0  0
   49.6280   55.6481   26.5289 C   0  0  0  0  0  0  0  0  0  0  0  0
   49.5530   55.0370   25.2974 N   0  0  0  0  0  0  0  0  0  0  0  0
   47.7791   57.3868   26.2192 N   0  0  0  0  0  0  0  0  0  0  0  0
   47.3155   58.3163   27.0024 C   0  0  0  0  0  0  0  0  0  0  0  0
   47.9646   58.3047   28.2055 N   0  0  0  0  0  0  0  0  0  0  0  0
  2  1  1  6  0  0  0
  2  3  1  0  0  0  0
  2  5  1  0  0  0  0
  3  4  1  0  0  0  0
  3 17  1  0  0  0  0
  5  6  1  0  0  0  0
  7  6  1  1  0  0  0
  7  8  1  0  0  0  0
  7  9  1  0  0  0  0
 10  9  1  1  0  0  0
 10 11  1  0  0  0  0
 10 12  1  0  0  0  0
 11 16  1  0  0  0  0
 12 13  1  1  0  0  0
 12 14  1  0  0  0  0
 14 15  1  1  0  0  0
 14 16  1  0  0  0  0
 16 27  1  6  0  0  0
 18 19  2  0  0  0  0
 18 23  1  0  0  0  0
 19 20  1  0  0  0  0
 20 21  2  0  0  0  0
 21 22  1  0  0  0  0
 21 27  1  0  0  0  0
 22 23  2  0  0  0  0
 22 25  1  0  0  0  0
 23 24  1  0  0  0  0
 25 26  2  0  0  0  0
 26 27  1  0  0  0  0
M  END
>  <CHROM.1>
165.36155120,-72.61470594,176.72832427,37.75708239,171.66743404,66.04988876
-3.13260880,48.44047268,56.95027013,31.31870774,-1.56751594,0.93629359,-1.34360481

>  <Name>
ligand

>  <RI>
0

>  <Rbt.Current_Directory>
/home/itssahil/PROJECTS/Mol_Feturizer/New_Systems/rnas/2GIS

>  <Rbt.Executable>
rbdock ($Id: //depot/dev/client3/rdock/2013.1/src/exe/rbdock.cxx#4 $)

>  <Rbt.Library>
libRbt.so (2013.1, Build901 2013/11/27)

>  <Rbt.Parameter_File>
/export/apps/rDock/src/rDock_2013.1_src/data/scripts/dock_solv.prm

>  <Rbt.Receptor>
prm/pocket_docking_4.prm

>  <SCORE>
-18.1208

>  <SCORE.INTER>
-14.4489

>  <SCORE.INTER.CONST>
1

>  <SCORE.INTER.POLAR>
0

>  <SCORE.INTER.ROT>
7

>  <SCORE.INTER.SOLV>
12.2333

>  <SCORE.INTER.VDW>
-21.977

>  <SCORE.INTER.norm>
-0.535145

>  <SCORE.INTRA>
-3.67195

>  <SCORE.INTRA.DIHEDRAL>
-4.77605

>  <SCORE.INTRA.DIHEDRAL.0>
9.40024

>  <SCORE.INTRA.POLAR>
0

>  <SCORE.INTRA.POLAR.0>
0

>  <SCORE.INTRA.REPUL>
0

>  <SCORE.INTRA.REPUL.0>
0

>  <SCORE.INTRA.SOLV>
-2.42421

>  <SCORE.INTRA.SOLV.lig_0>
-47.1049

>  <SCORE.INTRA.VDW>
-0.0718172

>  <SCORE.INTRA.VDW.0>
-1.50278

>  <SCORE.INTRA.norm>
-0.135998

>  <SCORE.RESTR>
0

>  <SCORE.RESTR.CAVITY>
0

>  <SCORE.RESTR.norm>
0

>  <SCORE.SYSTEM>
0

>  <SCORE.SYSTEM.CONST>
0

>  <SCORE.SYSTEM.DIHEDRAL>
0

>  <SCORE.SYSTEM.SOLV>
0

>  <SCORE.SYSTEM.norm>
0

>  <SCORE.heavy>
27

>  <SCORE.norm>
-0.671143

>  <RMSD>
7.036

$$$$
ligand
 OpenBabel11021811433D
libRbt.so/2013.1/901 2013/11/27
 27 29  0  0  0  0  0  0  0  0999 V2000
   47.6334   53.4308   35.0921 N   0  0  0  0  0  0  0  0  0  0  0  0
   48.6227   54.2534   35.7953 C   0  0  2  0  0  0  0  0  0  0  0  0
   48.2015   54.4243   37.2440 C   0  0  0  0  0  0  0  0  0  0  0  0
   48.9394   55.0085   38.0324 O   0  0  0  0  0  0  0  0  0  0  0  0
   48.7625   55.6345   35.1246 C   0  0  0  0  0  0  0  0  0  0  0  0
   49.5243   55.4791   33.8092 C   0  0  0  0  0  0  0  0  0  0  0  0
   49.7367   57.0276   32.8389 S   0  0  2  0  0  0  0  0  0  0  0  0
   49.9001   58.3248   34.1048 C   0  0  0  0  0  0  0  0  0  0  0  0
   48.0003   57.2004   32.3765 C   0  0  0  0  0  0  0  0  0  0  0  0
   47.6703   58.5385   31.6926 C   0  0  1  0  0  0  0  0  0  0  0  0
   48.4740   58.6660   30.4823 O   0  0  0  0  0  0  0  0  0  0  0  0
   46.2511   58.3332   31.2288 C   0  0  1  0  0  0  0  0  0  0  0  0
   45.3451   58.8924   32.1802 O   0  0  0  0  0  0  0  0  0  0  0  0
   46.1785   59.0981   29.9130 C   0  0  1  0  0  0  0  0  0  0  0  0
   45.6377   60.4035   30.0807 O   0  0  0  0  0  0  0  0  0  0  0  0
   47.6509   59.1743   29.3670 C   0  0  2  0  0  0  0  0  0  0  0  0
   47.1513   53.9243   37.6477 O   0  0  0  0  0  0  0  0  0  0  0  0
   50.6566   55.3993   27.2941 N   0  0  0  0  0  0  0  0  0  0  0  0
   50.7989   56.0002   28.4806 C   0  0  0  0  0  0  0  0  0  0  0  0
   49.9493   56.9303   28.8870 N   0  0  0  0  0  0  0  0  0  0  0  0
   48.9286   57.3326   28.1120 C   0  0  0  0  0  0  0  0  0  0  0  0
   48.7443   56.7349   26.8388 C   0  0  0  0  0  0  0  0  0  0  0  0
   49.6649   55.7289   26.4504 C   0  0  0  0  0  0  0  0  0  0  0  0
   49.5473   55.1020   25.2302 N   0  0  0  0  0  0  0  0  0  0  0  0
   47.6664   57.3139   26.2731 N   0  0  0  0  0  0  0  0  0  0  0  0
   47.1901   58.2117   27.0852 C   0  0  0  0  0  0  0  0  0  0  0  0
   47.9256   58.2628   28.2366 N   0  0  0  0  0  0  0  0  0  0  0  0
  2  1  1  6  0  0  0
  2  3  1  0  0  0  0
  2  5  1  0  0  0  0
  3  4  1  0  0  0  0
  3 17  1  0  0  0  0
  5  6  1  0  0  0  0
  7  6  1  1  0  0  0
  7  8  1  0  0  0  0
  7  9  1  0  0  0  0
 10  9  1  6  0  0  0
 10 11  1  0  0  0  0
 10 12  1  0  0  0  0
 11 16  1  0  0  0  0
 12 13  1  1  0  0  0
 12 14  1  0  0  0  0
 14 15  1  1  0  0  0
 14 16  1  0  0  0  0
 16 27  1  6  0  0  0
 18 19  2  0  0  0  0
 18 23  1  0  0  0  0
 19 20  1  0  0  0  0
 20 21  2  0  0  0  0
 21 22  1  0  0  0  0
 21 27  1  0  0  0  0
 22 23  2  0  0  0  0
 22 25  1  0  0  0  0
 23 24  1  0  0  0  0
 25 26  2  0  0  0  0
 26 27  1  0  0  0  0
M  END
>  <CHROM.1>
175.20225854,-73.53870373,178.02616101,33.67434014,171.30030267,59.34675874
-13.33138807,48.35762417,56.87179108,31.31884897,-1.59850311,0.88629357,-1.30311585

>  <Name>
ligand

>  <RI>
0

>  <Rbt.Current_Directory>
/home/itssahil/PROJECTS/Mol_Feturizer/New_Systems/rnas/2GIS

>  <Rbt.Executable>
rbdock ($Id: //depot/dev/client3/rdock/2013.1/src/exe/rbdock.cxx#4 $)

>  <Rbt.Library>
libRbt.so (2013.1, Build901 2013/11/27)

>  <Rbt.Parameter_File>
/export/apps/rDock/src/rDock_2013.1_src/data/scripts/dock_solv.prm

>  <Rbt.Receptor>
prm/pocket_docking_4.prm

>  <SCORE>
-18.5911

>  <SCORE.INTER>
-15.2421

>  <SCORE.INTER.CONST>
1

>  <SCORE.INTER.POLAR>
0

>  <SCORE.INTER.ROT>
7

>  <SCORE.INTER.SOLV>
11.8229

>  <SCORE.INTER.VDW>
-22.369

>  <SCORE.INTER.norm>
-0.564523

>  <SCORE.INTRA>
-3.34897

>  <SCORE.INTRA.DIHEDRAL>
-4.56974

>  <SCORE.INTRA.DIHEDRAL.0>
9.40024

>  <SCORE.INTRA.POLAR>
0

>  <SCORE.INTRA.POLAR.0>
0

>  <SCORE.INTRA.REPUL>
0

>  <SCORE.INTRA.REPUL.0>
0

>  <SCORE.INTRA.SOLV>
-2.44641

>  <SCORE.INTRA.SOLV.lig_0>
-47.1049

>  <SCORE.INTRA.VDW>
0.159108

>  <SCORE.INTRA.VDW.0>
-1.50278

>  <SCORE.INTRA.norm>
-0.124036

>  <SCORE.RESTR>
0

>  <SCORE.RESTR.CAVITY>
0

>  <SCORE.RESTR.norm>
0

>  <SCORE.SYSTEM>
0

>  <SCORE.SYSTEM.CONST>
0

>  <SCORE.SYSTEM.DIHEDRAL>
0

>  <SCORE.SYSTEM.SOLV>
0

>  <SCORE.SYSTEM.norm>
0

>  <SCORE.heavy>
27

>  <SCORE.norm>
-0.688558

>  <RMSD>
7.073

$$$$
ligand
 OpenBabel11021811433D
libRbt.so/2013.1/901 2013/11/27
 27 29  0  0  0  0  0  0  0  0999 V2000
   47.5728   53.3170   35.0879 N   0  0  0  0  0  0  0  0  0  0  0  0
   48.5095   54.1706   35.8255 C   0  0  2  0  0  0  0  0  0  0  0  0
   48.0238   54.3390   37.2541 C   0  0  0  0  0  0  0  0  0  0  0  0
   46.9009   53.9556   37.5694 O   0  0  0  0  0  0  0  0  0  0  0  0
   48.6398   55.5508   35.1510 C   0  0  0  0  0  0  0  0  0  0  0  0
   49.4276   55.4017   33.8503 C   0  0  0  0  0  0  0  0  0  0  0  0
   49.6916   56.9611   32.9107 S   0  0  2  0  0  0  0  0  0  0  0  0
   49.7733   58.2453   34.1977 C   0  0  0  0  0  0  0  0  0  0  0  0
   47.9855   57.1328   32.3465 C   0  0  0  0  0  0  0  0  0  0  0  0
   47.6845   58.4882   31.6835 C   0  0  1  0  0  0  0  0  0  0  0  0
   48.4853   58.6139   30.4712 O   0  0  0  0  0  0  0  0  0  0  0  0
   46.2586   58.3235   31.2239 C   0  0  1  0  0  0  0  0  0  0  0  0
   45.3706   58.8904   32.1876 O   0  0  0  0  0  0  0  0  0  0  0  0
   46.1982   59.1088   29.9195 C   0  0  1  0  0  0  0  0  0  0  0  0
   45.6896   60.4241   30.1085 O   0  0  0  0  0  0  0  0  0  0  0  0
   47.6695   59.1577   29.3673 C   0  0  2  0  0  0  0  0  0  0  0  0
   48.7266   54.9160   38.0841 O   0  0  0  0  0  0  0  0  0  0  0  0
   50.6391   55.4194   27.1790 N   0  0  0  0  0  0  0  0  0  0  0  0
   50.8122   56.0129   28.3651 C   0  0  0  0  0  0  0  0  0  0  0  0
   49.9685   56.9339   28.8032 N   0  0  0  0  0  0  0  0  0  0  0  0
   48.9225   57.3343   28.0617 C   0  0  0  0  0  0  0  0  0  0  0  0
   48.7049   56.7443   26.7901 C   0  0  0  0  0  0  0  0  0  0  0  0
   49.6206   55.7479   26.3674 C   0  0  0  0  0  0  0  0  0  0  0  0
   49.4714   55.1288   25.1466 N   0  0  0  0  0  0  0  0  0  0  0  0
   47.6066   57.3195   26.2608 N   0  0  0  0  0  0  0  0  0  0  0  0
   47.1483   58.2080   27.0932 C   0  0  0  0  0  0  0  0  0  0  0  0
   47.9170   58.2562   28.2226 N   0  0  0  0  0  0  0  0  0  0  0  0
  2  1  1  6  0  0  0
  2  3  1  0  0  0  0
  2  5  1  0  0  0  0
  3  4  1  0  0  0  0
  3 17  1  0  0  0  0
  5  6  1  0  0  0  0
  7  6  1  1  0  0  0
  7  8  1  0  0  0  0
  7  9  1  0  0  0  0
 10  9  1  6  0  0  0
 10 11  1  0  0  0  0
 10 12  1  0  0  0  0
 11 16  1  0  0  0  0
 12 13  1  1  0  0  0
 12 14  1  0  0  0  0
 14 15  1  1  0  0  0
 14 16  1  0  0  0  0
 16 27  1  6  0  0  0
 18 19  2  0  0  0  0
 18 23  1  0  0  0  0
 19 20  1  0  0  0  0
 20 21  2  0  0  0  0
 21 22  1  0  0  0  0
 21 27  1  0  0  0  0
 22 23  2  0  0  0  0
 22 25  1  0  0  0  0
 23 24  1  0  0  0  0
 25 26  2  0  0  0  0
 26 27  1  0  0  0  0
M  END
>  <CHROM.1>
-10.29702290,-72.03515385,-179.61440578,31.09637879,170.13249465,63.72646455
-15.64374645,48.30711829,56.84248745,31.31049802,-1.62652049,0.90160823,-1.27909029

>  <Name>
ligand

>  <RI>
0

>  <Rbt.Current_Directory>
/home/itssahil/PROJECTS/Mol_Feturizer/New_Systems/rnas/2GIS

>  <Rbt.Executable>
rbdock ($Id: //depot/dev/client3/rdock/2013.1/src/exe/rbdock.cxx#4 $)

>  <Rbt.Library>
libRbt.so (2013.1, Build901 2013/11/27)

>  <Rbt.Parameter_File>
/export/apps/rDock/src/rDock_2013.1_src/data/scripts/dock_solv.prm

>  <Rbt.Receptor>
prm/pocket_docking_4.prm

>  <SCORE>
-18.4968

>  <SCORE.INTER>
-15.2817

>  <SCORE.INTER.CONST>
1

>  <SCORE.INTER.POLAR>
0

>  <SCORE.INTER.ROT>
7

>  <SCORE.INTER.SOLV>
12.0156

>  <SCORE.INTER.VDW>
-22.4596

>  <SCORE.INTER.norm>
-0.565987

>  <SCORE.INTRA>
-3.21512

>  <SCORE.INTRA.DIHEDRAL>
-4.49006

>  <SCORE.INTRA.DIHEDRAL.0>
9.40024

>  <SCORE.INTRA.POLAR>
0

>  <SCORE.INTRA.POLAR.0>
0

>  <SCORE.INTRA.REPUL>
0

>  <SCORE.INTRA.REPUL.0>
0

>  <SCORE.INTRA.SOLV>
-2.4819

>  <SCORE.INTRA.SOLV.lig_0>
-47.1049

>  <SCORE.INTRA.VDW>
0.270856

>  <SCORE.INTRA.VDW.0>
-1.50278

>  <SCORE.INTRA.norm>
-0.119079

>  <SCORE.RESTR>
0

>  <SCORE.RESTR.CAVITY>
0

>  <SCORE.RESTR.norm>
0

>  <SCORE.SYSTEM>
0

>  <SCORE.SYSTEM.CONST>
0

>  <SCORE.SYSTEM.DIHEDRAL>
0

>  <SCORE.SYSTEM.SOLV>
0

>  <SCORE.SYSTEM.norm>
0

>  <SCORE.heavy>
27

>  <SCORE.norm>
-0.685066

>  <RMSD>
7.089

$$$$
ligand
 OpenBabel11021811433D
libRbt.so/2013.1/901 2013/11/27
 27 29  0  0  0  0  0  0  0  0999 V2000
   41.7154   53.9210   30.9126 N   0  0  0  0  0  0  0  0  0  0  0  0
   42.7251   54.3653   29.9467 C   0  0  2  0  0  0  0  0  0  0  0  0
   43.1747   53.1844   29.1047 C   0  0  0  0  0  0  0  0  0  0  0  0
   42.5133   52.8394   28.1295 O   0  0  0  0  0  0  0  0  0  0  0  0
   43.9382   54.9849   30.6688 C   0  0  0  0  0  0  0  0  0  0  0  0
   43.4569   56.1096   31.5843 C   0  0  0  0  0  0  0  0  0  0  0  0
   44.7270   56.7842   32.7315 S   0  0  2  0  0  0  0  0  0  0  0  0
   46.1773   57.0680   31.6693 C   0  0  0  0  0  0  0  0  0  0  0  0
   45.1505   55.2040   33.4947 C   0  0  0  0  0  0  0  0  0  0  0  0
   46.6645   54.9664   33.6305 C   0  0  1  0  0  0  0  0  0  0  0  0
   47.0832   55.3210   34.9817 O   0  0  0  0  0  0  0  0  0  0  0  0
   46.7742   53.4659   33.5423 C   0  0  1  0  0  0  0  0  0  0  0  0
   47.0958   53.0816   32.2053 O   0  0  0  0  0  0  0  0  0  0  0  0
   47.9222   53.1237   34.4839 C   0  0  1  0  0  0  0  0  0  0  0  0
   49.1566   52.9735   33.7923 O   0  0  0  0  0  0  0  0  0  0  0  0
   48.0075   54.3033   35.5199 C   0  0  2  0  0  0  0  0  0  0  0  0
   44.1654   52.5308   29.4319 O   0  0  0  0  0  0  0  0  0  0  0  0
   48.5607   54.5707   40.7357 N   0  0  0  0  0  0  0  0  0  0  0  0
   49.3775   55.0657   39.7992 C   0  0  0  0  0  0  0  0  0  0  0  0
   49.1026   54.9403   38.5105 N   0  0  0  0  0  0  0  0  0  0  0  0
   48.0097   54.2830   38.0887 C   0  0  0  0  0  0  0  0  0  0  0  0
   47.1200   53.7278   39.0440 C   0  0  0  0  0  0  0  0  0  0  0  0
   47.4414   53.9019   40.4139 C   0  0  0  0  0  0  0  0  0  0  0  0
   46.6232   53.3933   41.3977 N   0  0  0  0  0  0  0  0  0  0  0  0
   46.1217   53.1281   38.3652 N   0  0  0  0  0  0  0  0  0  0  0  0
   46.3334   53.2635   37.0888 C   0  0  0  0  0  0  0  0  0  0  0  0
   47.4803   53.9716   36.8601 N   0  0  0  0  0  0  0  0  0  0  0  0
  2  1  1  1  0  0  0
  2  3  1  0  0  0  0
  2  5  1  0  0  0  0
  3  4  1  0  0  0  0
  3 17  1  0  0  0  0
  5  6  1  0  0  0  0
  7  6  1  6  0  0  0
  7  8  1  0  0  0  0
  7  9  1  0  0  0  0
 10  9  1  1  0  0  0
 10 11  1  0  0  0  0
 10 12  1  0  0  0  0
 11 16  1  0  0  0  0
 12 13  1  6  0  0  0
 12 14  1  0  0  0  0
 14 15  1  6  0  0  0
 14 16  1  0  0  0  0
 16 27  1  1  0  0  0
 18 19  2  0  0  0  0
 18 23  1  0  0  0  0
 19 20  1  0  0  0  0
 20 21  2  0  0  0  0
 21 22  1  0  0  0  0
 21 27  1  0  0  0  0
 22 23  2  0  0  0  0
 22 25  1  0  0  0  0
 23 24  1  0  0  0  0
 25 26  2  0  0  0  0
 26 27  1  0  0  0  0
M  END
>  <CHROM.1>
83.00514444,-55.09052087,170.47420136,47.78286265,134.30335326,97.60070469
-109.17635722,46.07389927,54.35506377,34.43439605,2.14869588,0.66345312,-1.93441838

>  <Name>
ligand

>  <RI>
0

>  <Rbt.Current_Directory>
/home/itssahil/PROJECTS/Mol_Feturizer/New_Systems/rnas/2GIS

>  <Rbt.Executable>
rbdock ($Id: //depot/dev/client3/rdock/2013.1/src/exe/rbdock.cxx#4 $)

>  <Rbt.Library>
libRbt.so (2013.1, Build901 2013/11/27)

>  <Rbt.Parameter_File>
/export/apps/rDock/src/rDock_2013.1_src/data/scripts/dock_solv.prm

>  <Rbt.Receptor>
prm/pocket_docking_8.prm

>  <SCORE>
-12.3379

>  <SCORE.INTER>
-13.7396

>  <SCORE.INTER.CONST>
1

>  <SCORE.INTER.POLAR>
0

>  <SCORE.INTER.ROT>
7

>  <SCORE.INTER.SOLV>
7.39316

>  <SCORE.INTER.VDW>
-19.8908

>  <SCORE.INTER.norm>
-0.508874

>  <SCORE.INTRA>
1.40175

>  <SCORE.INTRA.DIHEDRAL>
0.841924

>  <SCORE.INTRA.DIHEDRAL.0>
9.40024

>  <SCORE.INTRA.POLAR>
0

>  <SCORE.INTRA.POLAR.0>
0

>  <SCORE.INTRA.REPUL>
0

>  <SCORE.INTRA.REPUL.0>
0

>  <SCORE.INTRA.SOLV>
-2.04063

>  <SCORE.INTRA.SOLV.lig_0>
-47.1049

>  <SCORE.INTRA.VDW>
2.0011

>  <SCORE.INTRA.VDW.0>
-1.50278

>  <SCORE.INTRA.norm>
0.0519167

>  <SCORE.RESTR>
0

>  <SCORE.RESTR.CAVITY>
0

>  <SCORE.RESTR.norm>
0

>  <SCORE.SYSTEM>
0

>  <SCORE.SYSTEM.CONST>
0

>  <SCORE.SYSTEM.DIHEDRAL>
0

>  <SCORE.SYSTEM.SOLV>
0

>  <SCORE.SYSTEM.norm>
0

>  <SCORE.heavy>
27

>  <SCORE.norm>
-0.456958

>  <RMSD>
7.142

$$$$
ligand
 OpenBabel11021811433D
libRbt.so/2013.1/901 2013/11/27
 27 29  0  0  0  0  0  0  0  0999 V2000
   42.7459   52.6344   36.9676 N   0  0  0  0  0  0  0  0  0  0  0  0
   43.7158   53.5504   36.3592 C   0  0  2  0  0  0  0  0  0  0  0  0
   43.1199   54.1561   35.1009 C   0  0  0  0  0  0  0  0  0  0  0  0
   41.9016   54.1834   34.9509 O   0  0  0  0  0  0  0  0  0  0  0  0
   45.0248   52.8122   36.0152 C   0  0  0  0  0  0  0  0  0  0  0  0
   46.1459   53.8349   35.8364 C   0  0  0  0  0  0  0  0  0  0  0  0
   47.7660   53.1384   35.3122 S   0  0  2  0  0  0  0  0  0  0  0  0
   48.9764   54.3957   35.8281 C   0  0  0  0  0  0  0  0  0  0  0  0
   47.5792   53.5246   33.5588 C   0  0  0  0  0  0  0  0  0  0  0  0
   47.8073   55.0085   33.2224 C   0  0  1  0  0  0  0  0  0  0  0  0
   49.1283   55.1640   32.6244 O   0  0  0  0  0  0  0  0  0  0  0  0
   46.8177   55.2531   32.1123 C   0  0  1  0  0  0  0  0  0  0  0  0
   45.6231   55.8250   32.6457 O   0  0  0  0  0  0  0  0  0  0  0  0
   47.5234   56.2506   31.2019 C   0  0  1  0  0  0  0  0  0  0  0  0
   47.1297   57.5917   31.4685 O   0  0  0  0  0  0  0  0  0  0  0  0
   49.0638   56.0644   31.4562 C   0  0  2  0  0  0  0  0  0  0  0  0
   43.8545   54.5632   34.2006 O   0  0  0  0  0  0  0  0  0  0  0  0
   49.6405   51.6796   28.6237 N   0  0  0  0  0  0  0  0  0  0  0  0
   48.7728   51.9049   29.6165 C   0  0  0  0  0  0  0  0  0  0  0  0
   48.7243   53.0738   30.2358 N   0  0  0  0  0  0  0  0  0  0  0  0
   49.5655   54.0709   29.9156 C   0  0  0  0  0  0  0  0  0  0  0  0
   50.5136   53.8752   28.8787 C   0  0  0  0  0  0  0  0  0  0  0  0
   50.5187   52.6156   28.2279 C   0  0  0  0  0  0  0  0  0  0  0  0
   51.4084   52.3540   27.2102 N   0  0  0  0  0  0  0  0  0  0  0  0
   51.2261   55.0136   28.7630 N   0  0  0  0  0  0  0  0  0  0  0  0
   50.8001   55.8736   29.6412 C   0  0  0  0  0  0  0  0  0  0  0  0
   49.7737   55.3483   30.3758 N   0  0  0  0  0  0  0  0  0  0  0  0
  2  1  1  6  0  0  0
  2  3  1  0  0  0  0
  2  5  1  0  0  0  0
  3  4  1  0  0  0  0
  3 17  1  0  0  0  0
  5  6  1  0  0  0  0
  7  6  1  1  0  0  0
  7  8  1  0  0  0  0
  7  9  1  0  0  0  0
 10  9  1  6  0  0  0
 10 11  1  0  0  0  0
 10 12  1  0  0  0  0
 11 16  1  0  0  0  0
 12 13  1  1  0  0  0
 12 14  1  0  0  0  0
 14 15  1  1  0  0  0
 14 16  1  0  0  0  0
 16 27  1  6  0  0  0
 18 19  2  0  0  0  0
 18 23  1  0  0  0  0
 19 20  1  0  0  0  0
 20 21  2  0  0  0  0
 21 22  1  0  0  0  0
 21 27  1  0  0  0  0
 22 23  2  0  0  0  0
 22 25  1  0  0  0  0
 23 24  1  0  0  0  0
 25 26  2  0  0  0  0
 26 27  1  0  0  0  0
M  END
>  <CHROM.1>
21.78570902,-161.10356971,-176.18836458,-157.98631502,76.36513689,103.06786692
52.60838433,47.51468314,54.19736481,32.46492174,-2.85263488,0.78847369,-0.38380628

>  <Name>
ligand

>  <RI>
0

>  <Rbt.Current_Directory>
/home/itssahil/PROJECTS/Mol_Feturizer/New_Systems/rnas/2GIS

>  <Rbt.Executable>
rbdock ($Id: //depot/dev/client3/rdock/2013.1/src/exe/rbdock.cxx#4 $)

>  <Rbt.Library>
libRbt.so (2013.1, Build901 2013/11/27)

>  <Rbt.Parameter_File>
/export/apps/rDock/src/rDock_2013.1_src/data/scripts/dock_solv.prm

>  <Rbt.Receptor>
prm/pocket_docking_7.prm

>  <SCORE>
-10.5391

>  <SCORE.INTER>
-10.7966

>  <SCORE.INTER.CONST>
1

>  <SCORE.INTER.POLAR>
0

>  <SCORE.INTER.ROT>
7

>  <SCORE.INTER.SOLV>
9.5915

>  <SCORE.INTER.VDW>
-18.6616

>  <SCORE.INTER.norm>
-0.399874

>  <SCORE.INTRA>
0.257508

>  <SCORE.INTRA.DIHEDRAL>
3.08793

>  <SCORE.INTRA.DIHEDRAL.0>
9.40024

>  <SCORE.INTRA.POLAR>
0

>  <SCORE.INTRA.POLAR.0>
0

>  <SCORE.INTRA.REPUL>
0

>  <SCORE.INTRA.REPUL.0>
0

>  <SCORE.INTRA.SOLV>
-2.74627

>  <SCORE.INTRA.SOLV.lig_0>
-47.1049

>  <SCORE.INTRA.VDW>
0.0866769

>  <SCORE.INTRA.VDW.0>
-1.50278

>  <SCORE.INTRA.norm>
0.00953734

>  <SCORE.RESTR>
0

>  <SCORE.RESTR.CAVITY>
0

>  <SCORE.RESTR.norm>
0

>  <SCORE.SYSTEM>
0

>  <SCORE.SYSTEM.CONST>
0

>  <SCORE.SYSTEM.DIHEDRAL>
0

>  <SCORE.SYSTEM.SOLV>
0

>  <SCORE.SYSTEM.norm>
0

>  <SCORE.heavy>
27

>  <SCORE.norm>
-0.390337

>  <RMSD>
7.155

$$$$
ligand
 OpenBabel11021811433D
libRbt.so/2013.1/901 2013/11/27
 27 29  0  0  0  0  0  0  0  0999 V2000
   48.1451   53.0145   40.4593 N   0  0  0  0  0  0  0  0  0  0  0  0
   47.5090   54.2311   39.9443 C   0  0  2  0  0  0  0  0  0  0  0  0
   46.0004   54.0604   39.9625 C   0  0  0  0  0  0  0  0  0  0  0  0
   45.4988   52.9992   39.6022 O   0  0  0  0  0  0  0  0  0  0  0  0
   47.9842   54.5317   38.5088 C   0  0  0  0  0  0  0  0  0  0  0  0
   47.6806   53.3287   37.6170 C   0  0  0  0  0  0  0  0  0  0  0  0
   48.1276   53.5343   35.8444 S   0  0  2  0  0  0  0  0  0  0  0  0
   49.5523   54.6663   35.8753 C   0  0  0  0  0  0  0  0  0  0  0  0
   46.7825   54.6685   35.4407 C   0  0  0  0  0  0  0  0  0  0  0  0
   46.0700   54.3402   34.1172 C   0  0  1  0  0  0  0  0  0  0  0  0
   45.2417   55.4755   33.7276 O   0  0  0  0  0  0  0  0  0  0  0  0
   47.2075   54.2978   33.1294 C   0  0  1  0  0  0  0  0  0  0  0  0
   47.6313   52.9481   32.9364 O   0  0  0  0  0  0  0  0  0  0  0  0
   46.6027   54.8533   31.8459 C   0  0  1  0  0  0  0  0  0  0  0  0
   46.1711   53.8216   30.9662 O   0  0  0  0  0  0  0  0  0  0  0  0
   45.3888   55.7511   32.2846 C   0  0  2  0  0  0  0  0  0  0  0  0
   45.2733   55.0030   40.2766 O   0  0  0  0  0  0  0  0  0  0  0  0
   48.8724   59.6801   32.1858 N   0  0  0  0  0  0  0  0  0  0  0  0
   49.1185   58.3703   32.2993 C   0  0  0  0  0  0  0  0  0  0  0  0
   48.1366   57.4825   32.2909 N   0  0  0  0  0  0  0  0  0  0  0  0
   46.8511   57.8616   32.2011 C   0  0  0  0  0  0  0  0  0  0  0  0
   46.5386   59.2410   32.0931 C   0  0  0  0  0  0  0  0  0  0  0  0
   47.6208   60.1570   32.0859 C   0  0  0  0  0  0  0  0  0  0  0  0
   47.3946   61.5111   31.9808 N   0  0  0  0  0  0  0  0  0  0  0  0
   45.1966   59.3466   32.0220 N   0  0  0  0  0  0  0  0  0  0  0  0
   44.6721   58.1579   32.0864 C   0  0  0  0  0  0  0  0  0  0  0  0
   45.6454   57.2037   32.1922 N   0  0  0  0  0  0  0  0  0  0  0  0
  2  1  1  6  0  0  0
  2  3  1  0  0  0  0
  2  5  1  0  0  0  0
  3  4  1  0  0  0  0
  3 17  1  0  0  0  0
  5  6  1  0  0  0  0
  7  6  1  1  0  0  0
  7  8  1  0  0  0  0
  7  9  1  0  0  0  0
 10  9  1  1  0  0  0
 10 11  1  0  0  0  0
 10 12  1  0  0  0  0
 11 16  1  0  0  0  0
 12 13  1  6  0  0  0
 12 14  1  0  0  0  0
 14 15  1  6  0  0  0
 14 16  1  0  0  0  0
 16 27  1  1  0  0  0
 18 19  2  0  0  0  0
 18 23  1  0  0  0  0
 19 20  1  0  0  0  0
 20 21  2  0  0  0  0
 21 22  1  0  0  0  0
 21 27  1  0  0  0  0
 22 23  2  0  0  0  0
 22 25  1  0  0  0  0
 23 24  1  0  0  0  0
 25 26  2  0  0  0  0
 26 27  1  0  0  0  0
M  END
>  <CHROM.1>
-42.35846704,57.16014261,177.88570501,30.13467329,-135.61350954,-166.31829777
90.56941118,46.96935867,55.73583228,34.71567474,-1.19159068,-1.51325092,-0.59724008

>  <Name>
ligand

>  <RI>
0

>  <Rbt.Current_Directory>
/home/itssahil/PROJECTS/Mol_Feturizer/New_Systems/rnas/2GIS

>  <Rbt.Executable>
rbdock ($Id: //depot/dev/client3/rdock/2013.1/src/exe/rbdock.cxx#4 $)

>  <Rbt.Library>
libRbt.so (2013.1, Build901 2013/11/27)

>  <Rbt.Parameter_File>
/export/apps/rDock/src/rDock_2013.1_src/data/scripts/dock_solv.prm

>  <Rbt.Receptor>
prm/pocket_docking_8.prm

>  <SCORE>
-11.4396

>  <SCORE.INTER>
-11.3065

>  <SCORE.INTER.CONST>
1

>  <SCORE.INTER.POLAR>
0

>  <SCORE.INTER.ROT>
7

>  <SCORE.INTER.SOLV>
19.0331

>  <SCORE.INTER.VDW>
-22.1487

>  <SCORE.INTER.norm>
-0.418759

>  <SCORE.INTRA>
-0.133141

>  <SCORE.INTRA.DIHEDRAL>
-0.150307

>  <SCORE.INTRA.DIHEDRAL.0>
9.40024

>  <SCORE.INTRA.POLAR>
0

>  <SCORE.INTRA.POLAR.0>
0

>  <SCORE.INTRA.REPUL>
0

>  <SCORE.INTRA.REPUL.0>
0

>  <SCORE.INTRA.SOLV>
-2.1163

>  <SCORE.INTRA.SOLV.lig_0>
-47.1049

>  <SCORE.INTRA.VDW>
1.00016

>  <SCORE.INTRA.VDW.0>
-1.50278

>  <SCORE.INTRA.norm>
-0.00493116

>  <SCORE.RESTR>
0

>  <SCORE.RESTR.CAVITY>
0

>  <SCORE.RESTR.norm>
0

>  <SCORE.SYSTEM>
0

>  <SCORE.SYSTEM.CONST>
0

>  <SCORE.SYSTEM.DIHEDRAL>
0

>  <SCORE.SYSTEM.SOLV>
0

>  <SCORE.SYSTEM.norm>
0

>  <SCORE.heavy>
27

>  <SCORE.norm>
-0.42369

>  <RMSD>
7.174

$$$$
ligand
 OpenBabel11021811433D
libRbt.so/2013.1/901 2013/11/27
 27 29  0  0  0  0  0  0  0  0999 V2000
   49.7747   54.9058   34.2291 N   0  0  0  0  0  0  0  0  0  0  0  0
   48.8221   55.8983   34.7363 C   0  0  2  0  0  0  0  0  0  0  0  0
   47.4811   55.2316   34.9865 C   0  0  0  0  0  0  0  0  0  0  0  0
   46.4784   55.6323   34.4022 O   0  0  0  0  0  0  0  0  0  0  0  0
   48.6515   57.0563   33.7328 C   0  0  0  0  0  0  0  0  0  0  0  0
   49.9969   57.7537   33.5375 C   0  0  0  0  0  0  0  0  0  0  0  0
   50.0191   59.0675   32.2500 S   0  0  2  0  0  0  0  0  0  0  0  0
   48.5955   60.1215   32.6681 C   0  0  0  0  0  0  0  0  0  0  0  0
   49.3298   58.0488   30.9287 C   0  0  0  0  0  0  0  0  0  0  0  0
   48.4518   58.8304   29.9361 C   0  0  1  0  0  0  0  0  0  0  0  0
   48.9972   58.6749   28.5925 O   0  0  0  0  0  0  0  0  0  0  0  0
   47.1603   58.0538   29.9524 C   0  0  1  0  0  0  0  0  0  0  0  0
   46.2374   58.6676   30.8525 O   0  0  0  0  0  0  0  0  0  0  0  0
   46.6512   58.1540   28.5197 C   0  0  1  0  0  0  0  0  0  0  0  0
   45.6958   59.1965   28.3617 O   0  0  0  0  0  0  0  0  0  0  0  0
   47.9144   58.4194   27.6219 C   0  0  2  0  0  0  0  0  0  0  0  0
   47.3820   54.3315   35.8207 O   0  0  0  0  0  0  0  0  0  0  0  0
   51.5885   54.7711   26.7430 N   0  0  0  0  0  0  0  0  0  0  0  0
   51.6093   55.7516   27.6526 C   0  0  0  0  0  0  0  0  0  0  0  0
   50.5974   56.5958   27.7773 N   0  0  0  0  0  0  0  0  0  0  0  0
   49.5227   56.5237   26.9748 C   0  0  0  0  0  0  0  0  0  0  0  0
   49.4605   55.5095   25.9850 C   0  0  0  0  0  0  0  0  0  0  0  0
   50.5563   54.6140   25.8981 C   0  0  0  0  0  0  0  0  0  0  0  0
   50.5649   53.6026   24.9639 N   0  0  0  0  0  0  0  0  0  0  0  0
   48.2953   55.6609   25.3244 N   0  0  0  0  0  0  0  0  0  0  0  0
   47.6543   56.6788   25.8198 C   0  0  0  0  0  0  0  0  0  0  0  0
   48.3615   57.2455   26.8433 N   0  0  0  0  0  0  0  0  0  0  0  0
  2  1  1  6  0  0  0
  2  3  1  0  0  0  0
  2  5  1  0  0  0  0
  3  4  1  0  0  0  0
  3 17  1  0  0  0  0
  5  6  1  0  0  0  0
  7  6  1  1  0  0  0
  7  8  1  0  0  0  0
  7  9  1  0  0  0  0
 10  9  1  1  0  0  0
 10 11  1  0  0  0  0
 10 12  1  0  0  0  0
 11 16  1  0  0  0  0
 12 13  1  1  0  0  0
 12 14  1  0  0  0  0
 14 15  1  1  0  0  0
 14 16  1  0  0  0  0
 16 27  1  1  0  0  0
 18 19  2  0  0  0  0
 18 23  1  0  0  0  0
 19 20  1  0  0  0  0
 20 21  2  0  0  0  0
 21 22  1  0  0  0  0
 21 27  1  0  0  0  0
 22 23  2  0  0  0  0
 22 25  1  0  0  0  0
 23 24  1  0  0  0  0
 25 26  2  0  0  0  0
 26 27  1  0  0  0  0
M  END
>  <CHROM.1>
-120.97146381,-61.29815805,174.54766765,50.55847826,147.24008317,122.12874321
0.29729068,48.74094109,56.99628392,30.03996955,-1.85332110,1.01967930,-1.41583719

>  <Name>
ligand

>  <RI>
0

>  <Rbt.Current_Directory>
/home/itssahil/PROJECTS/Mol_Feturizer/New_Systems/rnas/2GIS

>  <Rbt.Executable>
rbdock ($Id: //depot/dev/client3/rdock/2013.1/src/exe/rbdock.cxx#4 $)

>  <Rbt.Library>
libRbt.so (2013.1, Build901 2013/11/27)

>  <Rbt.Parameter_File>
/export/apps/rDock/src/rDock_2013.1_src/data/scripts/dock_solv.prm

>  <Rbt.Receptor>
prm/pocket_docking_4.prm

>  <SCORE>
-16.651

>  <SCORE.INTER>
-17.5877

>  <SCORE.INTER.CONST>
1

>  <SCORE.INTER.POLAR>
0

>  <SCORE.INTER.ROT>
7

>  <SCORE.INTER.SOLV>
11.3059

>  <SCORE.INTER.VDW>
-23.7604

>  <SCORE.INTER.norm>
-0.651395

>  <SCORE.INTRA>
0.861748

>  <SCORE.INTRA.DIHEDRAL>
0.595312

>  <SCORE.INTRA.DIHEDRAL.0>
9.40024

>  <SCORE.INTRA.POLAR>
0

>  <SCORE.INTRA.POLAR.0>
0

>  <SCORE.INTRA.REPUL>
0

>  <SCORE.INTRA.REPUL.0>
0

>  <SCORE.INTRA.SOLV>
-2.06174

>  <SCORE.INTRA.SOLV.lig_0>
-47.1049

>  <SCORE.INTRA.VDW>
1.59496

>  <SCORE.INTRA.VDW.0>
-1.50278

>  <SCORE.INTRA.norm>
0.0319166

>  <SCORE.RESTR>
0.0748698

>  <SCORE.RESTR.CAVITY>
0.0748698

>  <SCORE.RESTR.norm>
0.00277295

>  <SCORE.SYSTEM>
0

>  <SCORE.SYSTEM.CONST>
0

>  <SCORE.SYSTEM.DIHEDRAL>
0

>  <SCORE.SYSTEM.SOLV>
0

>  <SCORE.SYSTEM.norm>
0

>  <SCORE.heavy>
27

>  <SCORE.norm>
-0.616706

>  <RMSD>
7.186

$$$$
ligand
 OpenBabel11021811433D
libRbt.so/2013.1/901 2013/11/27
 27 29  0  0  0  0  0  0  0  0999 V2000
   47.8781   53.8337   34.9601 N   0  0  0  0  0  0  0  0  0  0  0  0
   48.9948   54.2395   35.8194 C   0  0  2  0  0  0  0  0  0  0  0  0
   48.6687   53.9068   37.2645 C   0  0  0  0  0  0  0  0  0  0  0  0
   47.8928   52.9910   37.5229 O   0  0  0  0  0  0  0  0  0  0  0  0
   49.2721   55.7496   35.6799 C   0  0  0  0  0  0  0  0  0  0  0  0
   49.3445   56.1120   34.1973 C   0  0  0  0  0  0  0  0  0  0  0  0
   48.1622   57.4105   33.6491 S   0  0  2  0  0  0  0  0  0  0  0  0
   46.5444   56.5774   33.6789 C   0  0  0  0  0  0  0  0  0  0  0  0
   48.5775   57.3156   31.8949 C   0  0  0  0  0  0  0  0  0  0  0  0
   48.0455   58.4978   31.0663 C   0  0  1  0  0  0  0  0  0  0  0  0
   48.5665   58.4002   29.7077 O   0  0  0  0  0  0  0  0  0  0  0  0
   46.5717   58.1979   30.9683 C   0  0  1  0  0  0  0  0  0  0  0  0
   45.8626   58.9201   31.9754 O   0  0  0  0  0  0  0  0  0  0  0  0
   46.1843   58.6997   29.5827 C   0  0  1  0  0  0  0  0  0  0  0  0
   45.6291   60.0091   29.6224 O   0  0  0  0  0  0  0  0  0  0  0  0
   47.5017   58.6822   28.7246 C   0  0  2  0  0  0  0  0  0  0  0  0
   49.1293   54.5920   38.1778 O   0  0  0  0  0  0  0  0  0  0  0  0
   46.7006   53.6037   27.6531 N   0  0  0  0  0  0  0  0  0  0  0  0
   46.4691   54.2440   28.8044 C   0  0  0  0  0  0  0  0  0  0  0  0
   46.7016   55.5411   28.9290 N   0  0  0  0  0  0  0  0  0  0  0  0
   47.2099   56.2616   27.9156 C   0  0  0  0  0  0  0  0  0  0  0  0
   47.4855   55.6241   26.6787 C   0  0  0  0  0  0  0  0  0  0  0  0
   47.2035   54.2381   26.5814 C   0  0  0  0  0  0  0  0  0  0  0  0
   47.4422   53.5528   25.4113 N   0  0  0  0  0  0  0  0  0  0  0  0
   47.9847   56.5587   25.8453 N   0  0  0  0  0  0  0  0  0  0  0  0
   48.0434   57.6983   26.4699 C   0  0  0  0  0  0  0  0  0  0  0  0
   47.5736   57.5754   27.7479 N   0  0  0  0  0  0  0  0  0  0  0  0
  2  1  1  6  0  0  0
  2  3  1  0  0  0  0
  2  5  1  0  0  0  0
  3  4  1  0  0  0  0
  3 17  1  0  0  0  0
  5  6  1  0  0  0  0
  7  6  1  1  0  0  0
  7  8  1  0  0  0  0
  7  9  1  0  0  0  0
 10  9  1  1  0  0  0
 10 11  1  0  0  0  0
 10 12  1  0  0  0  0
 11 16  1  0  0  0  0
 12 13  1  1  0  0  0
 12 14  1  0  0  0  0
 14 15  1  1  0  0  0
 14 16  1  0  0  0  0
 16 27  1  6  0  0  0
 18 19  2  0  0  0  0
 18 23  1  0  0  0  0
 19 20  1  0  0  0  0
 20 21  2  0  0  0  0
 21 22  1  0  0  0  0
 21 27  1  0  0  0  0
 22 23  2  0  0  0  0
 22 25  1  0  0  0  0
 23 24  1  0  0  0  0
 25 26  2  0  0  0  0
 26 27  1  0  0  0  0
M  END
>  <CHROM.1>
26.49066604,-48.62714964,122.78322297,-72.06169976,-165.96204479,173.46965281
71.77470783,47.63895495,56.34377569,31.23428082,-0.64014033,1.39520980,-2.31945865

>  <Name>
ligand

>  <RI>
0

>  <Rbt.Current_Directory>
/home/itssahil/PROJECTS/Mol_Feturizer/New_Systems/rnas/2GIS

>  <Rbt.Executable>
rbdock ($Id: //depot/dev/client3/rdock/2013.1/src/exe/rbdock.cxx#4 $)

>  <Rbt.Library>
libRbt.so (2013.1, Build901 2013/11/27)

>  <Rbt.Parameter_File>
/export/apps/rDock/src/rDock_2013.1_src/data/scripts/dock_solv.prm

>  <Rbt.Receptor>
prm/pocket_docking_6.prm

>  <SCORE>
-12.2147

>  <SCORE.INTER>
-12.7293

>  <SCORE.INTER.CONST>
1

>  <SCORE.INTER.POLAR>
0

>  <SCORE.INTER.ROT>
7

>  <SCORE.INTER.SOLV>
10.6941

>  <SCORE.INTER.VDW>
-20.3176

>  <SCORE.INTER.norm>
-0.471456

>  <SCORE.INTRA>
0.514573

>  <SCORE.INTRA.DIHEDRAL>
1.30585

>  <SCORE.INTRA.DIHEDRAL.0>
9.40024

>  <SCORE.INTRA.POLAR>
0

>  <SCORE.INTRA.POLAR.0>
0

>  <SCORE.INTRA.REPUL>
0

>  <SCORE.INTRA.REPUL.0>
0

>  <SCORE.INTRA.SOLV>
-0.286444

>  <SCORE.INTRA.SOLV.lig_0>
-47.1049

>  <SCORE.INTRA.VDW>
0.00486859

>  <SCORE.INTRA.VDW.0>
-1.50278

>  <SCORE.INTRA.norm>
0.0190583

>  <SCORE.RESTR>
0

>  <SCORE.RESTR.CAVITY>
0

>  <SCORE.RESTR.norm>
0

>  <SCORE.SYSTEM>
0

>  <SCORE.SYSTEM.CONST>
0

>  <SCORE.SYSTEM.DIHEDRAL>
0

>  <SCORE.SYSTEM.SOLV>
0

>  <SCORE.SYSTEM.norm>
0

>  <SCORE.heavy>
27

>  <SCORE.norm>
-0.452398

>  <RMSD>
7.211

$$$$
ligand
 OpenBabel11021811433D
libRbt.so/2013.1/901 2013/11/27
 27 29  0  0  0  0  0  0  0  0999 V2000
   50.1174   55.1300   35.0841 N   0  0  0  0  0  0  0  0  0  0  0  0
   48.6686   55.0126   34.8911 C   0  0  2  0  0  0  0  0  0  0  0  0
   48.3005   53.5527   34.6951 C   0  0  0  0  0  0  0  0  0  0  0  0
   47.5522   52.9963   35.4939 O   0  0  0  0  0  0  0  0  0  0  0  0
   48.2104   55.8360   33.6709 C   0  0  0  0  0  0  0  0  0  0  0  0
   48.5941   57.3001   33.8804 C   0  0  0  0  0  0  0  0  0  0  0  0
   47.8348   58.4865   32.6970 S   0  0  2  0  0  0  0  0  0  0  0  0
   46.0894   57.9772   32.6177 C   0  0  0  0  0  0  0  0  0  0  0  0
   48.4971   57.7152   31.2053 C   0  0  0  0  0  0  0  0  0  0  0  0
   48.1914   58.4956   29.9151 C   0  0  1  0  0  0  0  0  0  0  0  0
   49.2218   58.2025   28.9255 O   0  0  0  0  0  0  0  0  0  0  0  0
   46.9346   57.8310   29.4151 C   0  0  1  0  0  0  0  0  0  0  0  0
   45.7923   58.5798   29.8312 O   0  0  0  0  0  0  0  0  0  0  0  0
   47.0732   57.8728   27.8982 C   0  0  1  0  0  0  0  0  0  0  0  0
   46.3812   58.9769   27.3267 O   0  0  0  0  0  0  0  0  0  0  0  0
   48.6140   57.9701   27.6002 C   0  0  2  0  0  0  0  0  0  0  0  0
   48.7992   52.9055   33.7741 O   0  0  0  0  0  0  0  0  0  0  0  0
   51.3385   53.6091   28.6678 N   0  0  0  0  0  0  0  0  0  0  0  0
   50.9852   54.5818   29.5152 C   0  0  0  0  0  0  0  0  0  0  0  0
   50.2763   55.6236   29.1097 N   0  0  0  0  0  0  0  0  0  0  0  0
   49.9102   55.7637   27.8249 C   0  0  0  0  0  0  0  0  0  0  0  0
   50.2735   54.7650   26.8853 C   0  0  0  0  0  0  0  0  0  0  0  0
   51.0155   53.6562   27.3650 C   0  0  0  0  0  0  0  0  0  0  0  0
   51.4008   52.6465   26.5119 N   0  0  0  0  0  0  0  0  0  0  0  0
   49.7922   55.1458   25.6851 N   0  0  0  0  0  0  0  0  0  0  0  0
   49.1802   56.2864   25.8142 C   0  0  0  0  0  0  0  0  0  0  0  0
   49.2172   56.7120   27.1129 N   0  0  0  0  0  0  0  0  0  0  0  0
  2  1  1  6  0  0  0
  2  3  1  0  0  0  0
  2  5  1  0  0  0  0
  3  4  1  0  0  0  0
  3 17  1  0  0  0  0
  5  6  1  0  0  0  0
  7  6  1  1  0  0  0
  7  8  1  0  0  0  0
  7  9  1  0  0  0  0
 10  9  1  1  0  0  0
 10 11  1  0  0  0  0
 10 12  1  0  0  0  0
 11 16  1  0  0  0  0
 12 13  1  6  0  0  0
 12 14  1  0  0  0  0
 14 15  1  1  0  0  0
 14 16  1  0  0  0  0
 16 27  1  1  0  0  0
 18 19  2  0  0  0  0
 18 23  1  0  0  0  0
 19 20  1  0  0  0  0
 20 21  2  0  0  0  0
 21 22  1  0  0  0  0
 21 27  1  0  0  0  0
 22 23  2  0  0  0  0
 22 25  1  0  0  0  0
 23 24  1  0  0  0  0
 25 26  2  0  0  0  0
 26 27  1  0  0  0  0
M  END
>  <CHROM.1>
118.22121692,-58.63600008,-168.13852058,45.17116548,-174.85307368,153.51027134
15.53882379,48.71633051,56.20696439,30.32296657,-1.88007843,0.97384797,-1.23756526

>  <Name>
ligand

>  <RI>
0

>  <Rbt.Current_Directory>
/home/itssahil/PROJECTS/Mol_Feturizer/New_Systems/rnas/2GIS

>  <Rbt.Executable>
rbdock ($Id: //depot/dev/client3/rdock/2013.1/src/exe/rbdock.cxx#4 $)

>  <Rbt.Library>
libRbt.so (2013.1, Build901 2013/11/27)

>  <Rbt.Parameter_File>
/export/apps/rDock/src/rDock_2013.1_src/data/scripts/dock_solv.prm

>  <Rbt.Receptor>
prm/pocket_docking_4.prm

>  <SCORE>
-12.5636

>  <SCORE.INTER>
-10.3725

>  <SCORE.INTER.CONST>
1

>  <SCORE.INTER.POLAR>
0

>  <SCORE.INTER.ROT>
7

>  <SCORE.INTER.SOLV>
13.6003

>  <SCORE.INTER.VDW>
-19.7151

>  <SCORE.INTER.norm>
-0.384166

>  <SCORE.INTRA>
-2.19113

>  <SCORE.INTRA.DIHEDRAL>
-3.12738

>  <SCORE.INTRA.DIHEDRAL.0>
9.40024

>  <SCORE.INTRA.POLAR>
0

>  <SCORE.INTRA.POLAR.0>
0

>  <SCORE.INTRA.REPUL>
0

>  <SCORE.INTRA.REPUL.0>
0

>  <SCORE.INTRA.SOLV>
-2.04849

>  <SCORE.INTRA.SOLV.lig_0>
-47.1049

>  <SCORE.INTRA.VDW>
0.396807

>  <SCORE.INTRA.VDW.0>
-1.50278

>  <SCORE.INTRA.norm>
-0.0811528

>  <SCORE.RESTR>
0

>  <SCORE.RESTR.CAVITY>
0

>  <SCORE.RESTR.norm>
0

>  <SCORE.SYSTEM>
0

>  <SCORE.SYSTEM.CONST>
0

>  <SCORE.SYSTEM.DIHEDRAL>
0

>  <SCORE.SYSTEM.SOLV>
0

>  <SCORE.SYSTEM.norm>
0

>  <SCORE.heavy>
27

>  <SCORE.norm>
-0.465318

>  <RMSD>
7.215

$$$$
ligand
 OpenBabel11021811433D
libRbt.so/2013.1/901 2013/11/27
 27 29  0  0  0  0  0  0  0  0999 V2000
   50.5571   56.4149   33.2450 N   0  0  0  0  0  0  0  0  0  0  0  0
   49.5830   56.3226   34.3371 C   0  0  2  0  0  0  0  0  0  0  0  0
   49.6362   54.9331   34.9470 C   0  0  0  0  0  0  0  0  0  0  0  0
   49.4662   53.9452   34.2380 O   0  0  0  0  0  0  0  0  0  0  0  0
   48.1583   56.6155   33.8261 C   0  0  0  0  0  0  0  0  0  0  0  0
   48.0345   58.1053   33.5102 C   0  0  0  0  0  0  0  0  0  0  0  0
   48.9152   58.6607   31.9935 S   0  0  2  0  0  0  0  0  0  0  0  0
   48.6763   60.4648   31.9782 C   0  0  0  0  0  0  0  0  0  0  0  0
   47.6434   58.1250   30.8297 C   0  0  0  0  0  0  0  0  0  0  0  0
   47.8470   58.6559   29.4001 C   0  0  1  0  0  0  0  0  0  0  0  0
   49.1201   58.1641   28.8860 O   0  0  0  0  0  0  0  0  0  0  0  0
   46.7779   57.9327   28.6221 C   0  0  1  0  0  0  0  0  0  0  0  0
   45.6266   58.7670   28.4905 O   0  0  0  0  0  0  0  0  0  0  0  0
   47.4147   57.6878   27.2597 C   0  0  1  0  0  0  0  0  0  0  0  0
   47.0429   58.6781   26.3081 O   0  0  0  0  0  0  0  0  0  0  0  0
   48.9696   57.6994   27.4927 C   0  0  2  0  0  0  0  0  0  0  0  0
   49.7859   54.7941   36.1611 O   0  0  0  0  0  0  0  0  0  0  0  0
   48.3793   52.4810   27.5363 N   0  0  0  0  0  0  0  0  0  0  0  0
   47.4222   53.4138   27.5913 C   0  0  0  0  0  0  0  0  0  0  0  0
   47.7158   54.7039   27.5523 N   0  0  0  0  0  0  0  0  0  0  0  0
   48.9879   55.1306   27.4889 C   0  0  0  0  0  0  0  0  0  0  0  0
   50.0392   54.1793   27.4429 C   0  0  0  0  0  0  0  0  0  0  0  0
   49.6802   52.8078   27.4668 C   0  0  0  0  0  0  0  0  0  0  0  0
   50.6461   51.8277   27.4220 N   0  0  0  0  0  0  0  0  0  0  0  0
   51.1998   54.8625   27.3869 N   0  0  0  0  0  0  0  0  0  0  0  0
   50.9442   56.1380   27.4041 C   0  0  0  0  0  0  0  0  0  0  0  0
   49.5967   56.3616   27.4611 N   0  0  0  0  0  0  0  0  0  0  0  0
  2  1  1  6  0  0  0
  2  3  1  0  0  0  0
  2  5  1  0  0  0  0
  3  4  1  0  0  0  0
  3 17  1  0  0  0  0
  5  6  1  0  0  0  0
  7  6  1  1  0  0  0
  7  8  1  0  0  0  0
  7  9  1  0  0  0  0
 10  9  1  1  0  0  0
 10 11  1  0  0  0  0
 10 12  1  0  0  0  0
 11 16  1  0  0  0  0
 12 13  1  6  0  0  0
 12 14  1  0  0  0  0
 14 15  1  6  0  0  0
 14 16  1  0  0  0  0
 16 27  1  1  0  0  0
 18 19  2  0  0  0  0
 18 23  1  0  0  0  0
 19 20  1  0  0  0  0
 20 21  2  0  0  0  0
 21 22  1  0  0  0  0
 21 27  1  0  0  0  0
 22 23  2  0  0  0  0
 22 25  1  0  0  0  0
 23 24  1  0  0  0  0
 25 26  2  0  0  0  0
 26 27  1  0  0  0  0
M  END
>  <CHROM.1>
-56.22023200,-71.62730450,72.85850532,-175.89205844,168.38802322,60.98727611
101.07362850,48.78795734,56.39499828,30.03157799,-1.41751136,1.18657444,-1.90070968

>  <Name>
ligand

>  <RI>
0

>  <Rbt.Current_Directory>
/home/itssahil/PROJECTS/Mol_Feturizer/New_Systems/rnas/2GIS

>  <Rbt.Executable>
rbdock ($Id: //depot/dev/client3/rdock/2013.1/src/exe/rbdock.cxx#4 $)

>  <Rbt.Library>
libRbt.so (2013.1, Build901 2013/11/27)

>  <Rbt.Parameter_File>
/export/apps/rDock/src/rDock_2013.1_src/data/scripts/dock_solv.prm

>  <Rbt.Receptor>
prm/pocket_docking_4.prm

>  <SCORE>
-13.96

>  <SCORE.INTER>
-10.0378

>  <SCORE.INTER.CONST>
1

>  <SCORE.INTER.POLAR>
0

>  <SCORE.INTER.ROT>
7

>  <SCORE.INTER.SOLV>
18.7415

>  <SCORE.INTER.VDW>
-21.2057

>  <SCORE.INTER.norm>
-0.371769

>  <SCORE.INTRA>
-3.92224

>  <SCORE.INTRA.DIHEDRAL>
-4.61062

>  <SCORE.INTRA.DIHEDRAL.0>
9.40024

>  <SCORE.INTRA.POLAR>
0

>  <SCORE.INTRA.POLAR.0>
0

>  <SCORE.INTRA.REPUL>
0

>  <SCORE.INTRA.REPUL.0>
0

>  <SCORE.INTRA.SOLV>
-0.848302

>  <SCORE.INTRA.SOLV.lig_0>
-47.1049

>  <SCORE.INTRA.VDW>
-1.19278

>  <SCORE.INTRA.VDW.0>
-1.50278

>  <SCORE.INTRA.norm>
-0.145268

>  <SCORE.RESTR>
0

>  <SCORE.RESTR.CAVITY>
0

>  <SCORE.RESTR.norm>
0

>  <SCORE.SYSTEM>
0

>  <SCORE.SYSTEM.CONST>
0

>  <SCORE.SYSTEM.DIHEDRAL>
0

>  <SCORE.SYSTEM.SOLV>
0

>  <SCORE.SYSTEM.norm>
0

>  <SCORE.heavy>
27

>  <SCORE.norm>
-0.517038

>  <RMSD>
7.215

$$$$
ligand
 OpenBabel11021811433D
libRbt.so/2013.1/901 2013/11/27
 27 29  0  0  0  0  0  0  0  0999 V2000
   40.9104   53.3007   36.4508 N   0  0  0  0  0  0  0  0  0  0  0  0
   42.0047   52.9894   35.5259 C   0  0  2  0  0  0  0  0  0  0  0  0
   42.0578   51.4904   35.2904 C   0  0  0  0  0  0  0  0  0  0  0  0
   42.0256   51.0479   34.1456 O   0  0  0  0  0  0  0  0  0  0  0  0
   43.3537   53.4785   36.0896 C   0  0  0  0  0  0  0  0  0  0  0  0
   44.4408   53.2793   35.0345 C   0  0  0  0  0  0  0  0  0  0  0  0
   44.3030   54.3614   33.5531 S   0  0  2  0  0  0  0  0  0  0  0  0
   43.1212   53.4909   32.4771 C   0  0  0  0  0  0  0  0  0  0  0  0
   45.8777   53.8749   32.8167 C   0  0  0  0  0  0  0  0  0  0  0  0
   47.1074   54.3830   33.5891 C   0  0  1  0  0  0  0  0  0  0  0  0
   48.3035   53.7404   33.0568 O   0  0  0  0  0  0  0  0  0  0  0  0
   47.1901   55.8278   33.1683 C   0  0  1  0  0  0  0  0  0  0  0  0
   46.5572   56.6539   34.1458 O   0  0  0  0  0  0  0  0  0  0  0  0
   48.6861   56.1131   33.1199 C   0  0  1  0  0  0  0  0  0  0  0  0
   49.1539   56.7265   34.3155 O   0  0  0  0  0  0  0  0  0  0  0  0
   49.3912   54.7257   32.8964 C   0  0  2  0  0  0  0  0  0  0  0  0
   42.0691   50.7126   36.2448 O   0  0  0  0  0  0  0  0  0  0  0  0
   50.0230   56.5995   28.0311 N   0  0  0  0  0  0  0  0  0  0  0  0
   49.4313   57.2003   29.0694 C   0  0  0  0  0  0  0  0  0  0  0  0
   49.3592   56.6137   30.2539 N   0  0  0  0  0  0  0  0  0  0  0  0
   49.8477   55.3786   30.4542 C   0  0  0  0  0  0  0  0  0  0  0  0
   50.4719   54.6947   29.3794 C   0  0  0  0  0  0  0  0  0  0  0  0
   50.5457   55.3666   28.1331 C   0  0  0  0  0  0  0  0  0  0  0  0
   51.1400   54.7667   27.0455 N   0  0  0  0  0  0  0  0  0  0  0  0
   50.8650   53.4907   29.8409 N   0  0  0  0  0  0  0  0  0  0  0  0
   50.5266   53.3834   31.0925 C   0  0  0  0  0  0  0  0  0  0  0  0
   49.9011   54.5196   31.5247 N   0  0  0  0  0  0  0  0  0  0  0  0
  2  1  1  1  0  0  0
  2  3  1  0  0  0  0
  2  5  1  0  0  0  0
  3  4  1  0  0  0  0
  3 17  1  0  0  0  0
  5  6  1  0  0  0  0
  7  6  1  1  0  0  0
  7  8  1  0  0  0  0
  7  9  1  0  0  0  0
 10  9  1  6  0  0  0
 10 11  1  0  0  0  0
 10 12  1  0  0  0  0
 11 16  1  0  0  0  0
 12 13  1  1  0  0  0
 12 14  1  0  0  0  0
 14 15  1  1  0  0  0
 14 16  1  0  0  0  0
 16 27  1  6  0  0  0
 18 19  2  0  0  0  0
 18 23  1  0  0  0  0
 19 20  1  0  0  0  0
 20 21  2  0  0  0  0
 21 22  1  0  0  0  0
 21 27  1  0  0  0  0
 22 23  2  0  0  0  0
 22 25  1  0  0  0  0
 23 24  1  0  0  0  0
 25 26  2  0  0  0  0
 26 27  1  0  0  0  0
M  END
>  <CHROM.1>
125.86020820,-173.68381247,68.48308356,-83.78252707,-69.94208482,169.85217086
114.26228739,46.76341831,54.34774585,32.61445041,-2.86380924,-0.62968921
-2.22452801

>  <Name>
ligand

>  <RI>
0

>  <Rbt.Current_Directory>
/home/itssahil/PROJECTS/Mol_Feturizer/New_Systems/rnas/2GIS

>  <Rbt.Executable>
rbdock ($Id: //depot/dev/client3/rdock/2013.1/src/exe/rbdock.cxx#4 $)

>  <Rbt.Library>
libRbt.so (2013.1, Build901 2013/11/27)

>  <Rbt.Parameter_File>
/export/apps/rDock/src/rDock_2013.1_src/data/scripts/dock_solv.prm

>  <Rbt.Receptor>
prm/pocket_docking_8.prm

>  <SCORE>
-13.1652

>  <SCORE.INTER>
-8.2887

>  <SCORE.INTER.CONST>
1

>  <SCORE.INTER.POLAR>
0

>  <SCORE.INTER.ROT>
7

>  <SCORE.INTER.SOLV>
6.36212

>  <SCORE.INTER.VDW>
-15.9132

>  <SCORE.INTER.norm>
-0.306989

>  <SCORE.INTRA>
-4.87653

>  <SCORE.INTRA.DIHEDRAL>
-4.7316

>  <SCORE.INTRA.DIHEDRAL.0>
9.40024

>  <SCORE.INTRA.POLAR>
0

>  <SCORE.INTRA.POLAR.0>
0

>  <SCORE.INTRA.REPUL>
0

>  <SCORE.INTRA.REPUL.0>
0

>  <SCORE.INTRA.SOLV>
-2.64364

>  <SCORE.INTRA.SOLV.lig_0>
-47.1049

>  <SCORE.INTRA.VDW>
-1.18891

>  <SCORE.INTRA.VDW.0>
-1.50278

>  <SCORE.INTRA.norm>
-0.180612

>  <SCORE.RESTR>
0

>  <SCORE.RESTR.CAVITY>
0

>  <SCORE.RESTR.norm>
0

>  <SCORE.SYSTEM>
0

>  <SCORE.SYSTEM.CONST>
0

>  <SCORE.SYSTEM.DIHEDRAL>
0

>  <SCORE.SYSTEM.SOLV>
0

>  <SCORE.SYSTEM.norm>
0

>  <SCORE.heavy>
27

>  <SCORE.norm>
-0.487601

>  <RMSD>
7.215

$$$$
ligand
 OpenBabel11021811433D
libRbt.so/2013.1/901 2013/11/27
 27 29  0  0  0  0  0  0  0  0999 V2000
   43.5083   53.1191   37.9879 N   0  0  0  0  0  0  0  0  0  0  0  0
   43.4724   53.6054   36.6051 C   0  0  2  0  0  0  0  0  0  0  0  0
   42.0483   53.5416   36.0826 C   0  0  0  0  0  0  0  0  0  0  0  0
   41.3550   52.5543   36.3107 O   0  0  0  0  0  0  0  0  0  0  0  0
   44.3983   52.7636   35.7046 C   0  0  0  0  0  0  0  0  0  0  0  0
   44.4520   53.3919   34.3128 C   0  0  0  0  0  0  0  0  0  0  0  0
   45.2751   55.0349   34.2257 S   0  0  2  0  0  0  0  0  0  0  0  0
   44.4813   55.8533   32.8072 C   0  0  0  0  0  0  0  0  0  0  0  0
   46.8071   54.4393   33.4795 C   0  0  0  0  0  0  0  0  0  0  0  0
   47.9981   55.3966   33.6592 C   0  0  1  0  0  0  0  0  0  0  0  0
   49.1956   54.7771   33.1033 O   0  0  0  0  0  0  0  0  0  0  0  0
   47.6518   56.5347   32.7338 C   0  0  1  0  0  0  0  0  0  0  0  0
   47.0283   57.5862   33.4716 O   0  0  0  0  0  0  0  0  0  0  0  0
   49.0000   56.9932   32.1919 C   0  0  1  0  0  0  0  0  0  0  0  0
   49.5168   58.1064   32.9118 O   0  0  0  0  0  0  0  0  0  0  0  0
   49.9656   55.7583   32.3133 C   0  0  2  0  0  0  0  0  0  0  0  0
   41.6054   54.4480   35.3768 O   0  0  0  0  0  0  0  0  0  0  0  0
   50.1578   56.0167   27.0714 N   0  0  0  0  0  0  0  0  0  0  0  0
   49.7979   56.9806   27.9260 C   0  0  0  0  0  0  0  0  0  0  0  0
   49.8144   56.7813   29.2345 N   0  0  0  0  0  0  0  0  0  0  0  0
   50.1616   55.5936   29.7572 C   0  0  0  0  0  0  0  0  0  0  0  0
   50.5377   54.5354   28.8905 C   0  0  0  0  0  0  0  0  0  0  0  0
   50.5253   54.7971   27.4971 C   0  0  0  0  0  0  0  0  0  0  0  0
   50.8810   53.8193   26.5954 N   0  0  0  0  0  0  0  0  0  0  0  0
   50.8311   53.4683   29.6600 N   0  0  0  0  0  0  0  0  0  0  0  0
   50.6576   53.7842   30.9100 C   0  0  0  0  0  0  0  0  0  0  0  0
   50.2503   55.0837   31.0295 N   0  0  0  0  0  0  0  0  0  0  0  0
  2  1  1  1  0  0  0
  2  3  1  0  0  0  0
  2  5  1  0  0  0  0
  3  4  1  0  0  0  0
  3 17  1  0  0  0  0
  5  6  1  0  0  0  0
  7  6  1  6  0  0  0
  7  8  1  0  0  0  0
  7  9  1  0  0  0  0
 10  9  1  6  0  0  0
 10 11  1  0  0  0  0
 10 12  1  0  0  0  0
 11 16  1  0  0  0  0
 12 13  1  1  0  0  0
 12 14  1  0  0  0  0
 14 15  1  1  0  0  0
 14 16  1  0  0  0  0
 16 27  1  6  0  0  0
 18 19  2  0  0  0  0
 18 23  1  0  0  0  0
 19 20  1  0  0  0  0
 20 21  2  0  0  0  0
 21 22  1  0  0  0  0
 21 27  1  0  0  0  0
 22 23  2  0  0  0  0
 22 25  1  0  0  0  0
 23 24  1  0  0  0  0
 25 26  2  0  0  0  0
 26 27  1  0  0  0  0
M  END
>  <CHROM.1>
-43.26996611,-173.86003073,67.18262435,-152.15048507,-159.84674213,176.08968288
136.26125146,47.25737481,55.00339621,32.48105977,-2.82460145,-0.71877685
-2.44217927

>  <Name>
ligand

>  <RI>
0

>  <Rbt.Current_Directory>
/home/itssahil/PROJECTS/Mol_Feturizer/New_Systems/rnas/2GIS

>  <Rbt.Executable>
rbdock ($Id: //depot/dev/client3/rdock/2013.1/src/exe/rbdock.cxx#4 $)

>  <Rbt.Library>
libRbt.so (2013.1, Build901 2013/11/27)

>  <Rbt.Parameter_File>
/export/apps/rDock/src/rDock_2013.1_src/data/scripts/dock_solv.prm

>  <Rbt.Receptor>
prm/pocket_docking_8.prm

>  <SCORE>
-12.6566

>  <SCORE.INTER>
-9.87201

>  <SCORE.INTER.CONST>
1

>  <SCORE.INTER.POLAR>
0

>  <SCORE.INTER.ROT>
7

>  <SCORE.INTER.SOLV>
6.25109

>  <SCORE.INTER.VDW>
-16.9317

>  <SCORE.INTER.norm>
-0.36563

>  <SCORE.INTRA>
-2.78461

>  <SCORE.INTRA.DIHEDRAL>
-1.14126

>  <SCORE.INTRA.DIHEDRAL.0>
9.40024

>  <SCORE.INTRA.POLAR>
0

>  <SCORE.INTRA.POLAR.0>
0

>  <SCORE.INTRA.REPUL>
0

>  <SCORE.INTRA.REPUL.0>
0

>  <SCORE.INTRA.SOLV>
-2.7143

>  <SCORE.INTRA.SOLV.lig_0>
-47.1049

>  <SCORE.INTRA.VDW>
-0.856833

>  <SCORE.INTRA.VDW.0>
-1.50278

>  <SCORE.INTRA.norm>
-0.103134

>  <SCORE.RESTR>
0

>  <SCORE.RESTR.CAVITY>
0

>  <SCORE.RESTR.norm>
0

>  <SCORE.SYSTEM>
0

>  <SCORE.SYSTEM.CONST>
0

>  <SCORE.SYSTEM.DIHEDRAL>
0

>  <SCORE.SYSTEM.SOLV>
0

>  <SCORE.SYSTEM.norm>
0

>  <SCORE.heavy>
27

>  <SCORE.norm>
-0.468764

>  <RMSD>
7.220

$$$$
ligand
 OpenBabel11021811433D
libRbt.so/2013.1/901 2013/11/27
 27 29  0  0  0  0  0  0  0  0999 V2000
   49.8280   54.7611   36.2716 N   0  0  0  0  0  0  0  0  0  0  0  0
   48.7425   54.8464   35.2896 C   0  0  2  0  0  0  0  0  0  0  0  0
   48.2334   53.4509   34.9751 C   0  0  0  0  0  0  0  0  0  0  0  0
   48.6993   52.8277   34.0253 O   0  0  0  0  0  0  0  0  0  0  0  0
   49.2272   55.5305   33.9958 C   0  0  0  0  0  0  0  0  0  0  0  0
   49.3700   57.0313   34.2445 C   0  0  0  0  0  0  0  0  0  0  0  0
   49.7371   58.0417   32.7517 S   0  0  2  0  0  0  0  0  0  0  0  0
   49.4066   59.7511   33.2816 C   0  0  0  0  0  0  0  0  0  0  0  0
   48.2116   57.6419   31.8731 C   0  0  0  0  0  0  0  0  0  0  0  0
   47.9875   58.4826   30.6042 C   0  0  1  0  0  0  0  0  0  0  0  0
   49.1552   58.3601   29.7391 O   0  0  0  0  0  0  0  0  0  0  0  0
   46.8751   57.7420   29.9074 C   0  0  1  0  0  0  0  0  0  0  0  0
   45.6205   58.3485   30.2183 O   0  0  0  0  0  0  0  0  0  0  0  0
   47.1926   57.9074   28.4264 C   0  0  1  0  0  0  0  0  0  0  0  0
   46.4666   58.9809   27.8390 O   0  0  0  0  0  0  0  0  0  0  0  0
   48.7402   58.1696   28.3351 C   0  0  2  0  0  0  0  0  0  0  0  0
   47.3103   52.9654   35.6293 O   0  0  0  0  0  0  0  0  0  0  0  0
   49.8706   54.8491   24.4264 N   0  0  0  0  0  0  0  0  0  0  0  0
   48.9921   55.8578   24.4156 C   0  0  0  0  0  0  0  0  0  0  0  0
   48.8213   56.6326   25.4752 N   0  0  0  0  0  0  0  0  0  0  0  0
   49.4985   56.4186   26.6153 C   0  0  0  0  0  0  0  0  0  0  0  0
   50.4314   55.3519   26.6804 C   0  0  0  0  0  0  0  0  0  0  0  0
   50.5983   54.5586   25.5172 C   0  0  0  0  0  0  0  0  0  0  0  0
   51.4881   53.5080   25.5049 N   0  0  0  0  0  0  0  0  0  0  0  0
   50.9626   55.3553   27.9193 N   0  0  0  0  0  0  0  0  0  0  0  0
   50.4287   56.3205   28.6089 C   0  0  0  0  0  0  0  0  0  0  0  0
   49.5231   57.0123   27.8536 N   0  0  0  0  0  0  0  0  0  0  0  0
  2  1  1  1  0  0  0
  2  3  1  0  0  0  0
  2  5  1  0  0  0  0
  3  4  1  0  0  0  0
  3 17  1  0  0  0  0
  5  6  1  0  0  0  0
  7  6  1  1  0  0  0
  7  8  1  0  0  0  0
  7  9  1  0  0  0  0
 10  9  1  1  0  0  0
 10 11  1  0  0  0  0
 10 12  1  0  0  0  0
 11 16  1  0  0  0  0
 12 13  1  6  0  0  0
 12 14  1  0  0  0  0
 14 15  1  1  0  0  0
 14 16  1  0  0  0  0
 16 27  1  1  0  0  0
 18 19  2  0  0  0  0
 18 23  1  0  0  0  0
 19 20  1  0  0  0  0
 20 21  2  0  0  0  0
 21 22  1  0  0  0  0
 21 27  1  0  0  0  0
 22 23  2  0  0  0  0
 22 25  1  0  0  0  0
 23 24  1  0  0  0  0
 25 26  2  0  0  0  0
 26 27  1  0  0  0  0
M  END
>  <CHROM.1>
-92.88162057,-74.37719973,-172.65506391,165.44371624,170.73610438,54.58552276
179.25034776,48.93127688,56.42684427,30.25060155,-1.79878146,1.16884675,-1.28580154

>  <Name>
ligand

>  <RI>
0

>  <Rbt.Current_Directory>
/home/itssahil/PROJECTS/Mol_Feturizer/New_Systems/rnas/2GIS

>  <Rbt.Executable>
rbdock ($Id: //depot/dev/client3/rdock/2013.1/src/exe/rbdock.cxx#4 $)

>  <Rbt.Library>
libRbt.so (2013.1, Build901 2013/11/27)

>  <Rbt.Parameter_File>
/export/apps/rDock/src/rDock_2013.1_src/data/scripts/dock_solv.prm

>  <Rbt.Receptor>
prm/pocket_docking_6.prm

>  <SCORE>
-18.3543

>  <SCORE.INTER>
-14.919

>  <SCORE.INTER.CONST>
1

>  <SCORE.INTER.POLAR>
0

>  <SCORE.INTER.ROT>
7

>  <SCORE.INTER.SOLV>
13.5243

>  <SCORE.INTER.VDW>
-22.7208

>  <SCORE.INTER.norm>
-0.552557

>  <SCORE.INTRA>
-3.43528

>  <SCORE.INTRA.DIHEDRAL>
-4.86927

>  <SCORE.INTRA.DIHEDRAL.0>
9.40024

>  <SCORE.INTRA.POLAR>
0

>  <SCORE.INTRA.POLAR.0>
0

>  <SCORE.INTRA.REPUL>
0

>  <SCORE.INTRA.REPUL.0>
0

>  <SCORE.INTRA.SOLV>
-2.55552

>  <SCORE.INTRA.SOLV.lig_0>
-47.1049

>  <SCORE.INTRA.VDW>
0.277122

>  <SCORE.INTRA.VDW.0>
-1.50278

>  <SCORE.INTRA.norm>
-0.127232

>  <SCORE.RESTR>
0

>  <SCORE.RESTR.CAVITY>
0

>  <SCORE.RESTR.norm>
0

>  <SCORE.SYSTEM>
0

>  <SCORE.SYSTEM.CONST>
0

>  <SCORE.SYSTEM.DIHEDRAL>
0

>  <SCORE.SYSTEM.SOLV>
0

>  <SCORE.SYSTEM.norm>
0

>  <SCORE.heavy>
27

>  <SCORE.norm>
-0.679789

>  <RMSD>
7.254

$$$$
ligand
 OpenBabel11021811433D
libRbt.so/2013.1/901 2013/11/27
 27 29  0  0  0  0  0  0  0  0999 V2000
   49.6772   54.6139   36.1726 N   0  0  0  0  0  0  0  0  0  0  0  0
   48.5667   54.7900   35.2314 C   0  0  2  0  0  0  0  0  0  0  0  0
   47.9585   53.4372   34.9070 C   0  0  0  0  0  0  0  0  0  0  0  0
   48.5198   52.6867   34.1137 O   0  0  0  0  0  0  0  0  0  0  0  0
   49.0504   55.4706   33.9353 C   0  0  0  0  0  0  0  0  0  0  0  0
   49.3068   56.9514   34.2113 C   0  0  0  0  0  0  0  0  0  0  0  0
   49.7018   57.9679   32.7297 S   0  0  2  0  0  0  0  0  0  0  0  0
   49.4532   59.6817   33.2893 C   0  0  0  0  0  0  0  0  0  0  0  0
   48.1505   57.6494   31.8632 C   0  0  0  0  0  0  0  0  0  0  0  0
   47.9761   58.4773   30.5781 C   0  0  1  0  0  0  0  0  0  0  0  0
   49.1507   58.2976   29.7325 O   0  0  0  0  0  0  0  0  0  0  0  0
   46.8469   57.7673   29.8765 C   0  0  1  0  0  0  0  0  0  0  0  0
   45.6115   58.4250   30.1591 O   0  0  0  0  0  0  0  0  0  0  0  0
   47.1915   57.8970   28.3979 C   0  0  1  0  0  0  0  0  0  0  0  0
   46.5146   58.9871   27.7831 O   0  0  0  0  0  0  0  0  0  0  0  0
   48.7489   58.1001   28.3256 C   0  0  2  0  0  0  0  0  0  0  0  0
   46.8717   53.1146   35.3871 O   0  0  0  0  0  0  0  0  0  0  0  0
   49.9289   54.7687   24.4409 N   0  0  0  0  0  0  0  0  0  0  0  0
   49.1093   55.8246   24.3933 C   0  0  0  0  0  0  0  0  0  0  0  0
   48.9177   56.5951   25.4525 N   0  0  0  0  0  0  0  0  0  0  0  0
   49.5124   56.3302   26.6274 C   0  0  0  0  0  0  0  0  0  0  0  0
   50.3799   55.2127   26.7316 C   0  0  0  0  0  0  0  0  0  0  0  0
   50.5728   54.4253   25.5684 C   0  0  0  0  0  0  0  0  0  0  0  0
   51.4029   53.3271   25.5930 N   0  0  0  0  0  0  0  0  0  0  0  0
   50.8351   55.1718   27.9998 N   0  0  0  0  0  0  0  0  0  0  0  0
   50.3142   56.1569   28.6710 C   0  0  0  0  0  0  0  0  0  0  0  0
   49.4949   56.9069   27.8739 N   0  0  0  0  0  0  0  0  0  0  0  0
  2  1  1  1  0  0  0
  2  3  1  0  0  0  0
  2  5  1  0  0  0  0
  3  4  1  0  0  0  0
  3 17  1  0  0  0  0
  5  6  1  0  0  0  0
  7  6  1  1  0  0  0
  7  8  1  0  0  0  0
  7  9  1  0  0  0  0
 10  9  1  1  0  0  0
 10 11  1  0  0  0  0
 10 12  1  0  0  0  0
 11 16  1  0  0  0  0
 12 13  1  6  0  0  0
 12 14  1  0  0  0  0
 14 15  1  1  0  0  0
 14 16  1  0  0  0  0
 16 27  1  1  0  0  0
 18 19  2  0  0  0  0
 18 23  1  0  0  0  0
 19 20  1  0  0  0  0
 20 21  2  0  0  0  0
 21 22  1  0  0  0  0
 21 27  1  0  0  0  0
 22 23  2  0  0  0  0
 22 25  1  0  0  0  0
 23 24  1  0  0  0  0
 25 26  2  0  0  0  0
 26 27  1  0  0  0  0
M  END
>  <CHROM.1>
-77.87972280,-74.00183506,-173.11640975,163.54499792,173.11970842,52.71849413
-177.49140079,48.86968152,56.36668937,30.23455244,-1.87293761,1.18901049
-1.22097293

>  <Name>
ligand

>  <RI>
0

>  <Rbt.Current_Directory>
/home/itssahil/PROJECTS/Mol_Feturizer/New_Systems/rnas/2GIS

>  <Rbt.Executable>
rbdock ($Id: //depot/dev/client3/rdock/2013.1/src/exe/rbdock.cxx#4 $)

>  <Rbt.Library>
libRbt.so (2013.1, Build901 2013/11/27)

>  <Rbt.Parameter_File>
/export/apps/rDock/src/rDock_2013.1_src/data/scripts/dock_solv.prm

>  <Rbt.Receptor>
prm/pocket_docking_5.prm

>  <SCORE>
-18.0591

>  <SCORE.INTER>
-14.3372

>  <SCORE.INTER.CONST>
1

>  <SCORE.INTER.POLAR>
0

>  <SCORE.INTER.ROT>
7

>  <SCORE.INTER.SOLV>
12.4917

>  <SCORE.INTER.VDW>
-21.9887

>  <SCORE.INTER.norm>
-0.531009

>  <SCORE.INTRA>
-3.72184

>  <SCORE.INTRA.DIHEDRAL>
-4.82519

>  <SCORE.INTRA.DIHEDRAL.0>
9.40024

>  <SCORE.INTRA.POLAR>
0

>  <SCORE.INTRA.POLAR.0>
0

>  <SCORE.INTRA.REPUL>
0

>  <SCORE.INTRA.REPUL.0>
0

>  <SCORE.INTRA.SOLV>
-2.54759

>  <SCORE.INTRA.SOLV.lig_0>
-47.1049

>  <SCORE.INTRA.VDW>
-0.0354524

>  <SCORE.INTRA.VDW.0>
-1.50278

>  <SCORE.INTRA.norm>
-0.137846

>  <SCORE.RESTR>
0

>  <SCORE.RESTR.CAVITY>
0

>  <SCORE.RESTR.norm>
0

>  <SCORE.SYSTEM>
0

>  <SCORE.SYSTEM.CONST>
0

>  <SCORE.SYSTEM.DIHEDRAL>
0

>  <SCORE.SYSTEM.SOLV>
0

>  <SCORE.SYSTEM.norm>
0

>  <SCORE.heavy>
27

>  <SCORE.norm>
-0.668855

>  <RMSD>
7.256

$$$$
ligand
 OpenBabel11021811433D
libRbt.so/2013.1/901 2013/11/27
 27 29  0  0  0  0  0  0  0  0999 V2000
   49.8839   56.2724   34.5644 N   0  0  0  0  0  0  0  0  0  0  0  0
   48.5946   55.5859   34.6917 C   0  0  2  0  0  0  0  0  0  0  0  0
   48.5745   54.7807   35.9787 C   0  0  0  0  0  0  0  0  0  0  0  0
   47.5030   54.4453   36.4756 O   0  0  0  0  0  0  0  0  0  0  0  0
   48.3493   54.6544   33.4879 C   0  0  0  0  0  0  0  0  0  0  0  0
   46.8518   54.3765   33.3650 C   0  0  0  0  0  0  0  0  0  0  0  0
   45.8229   55.8240   32.8850 S   0  0  2  0  0  0  0  0  0  0  0  0
   44.1462   55.1377   32.7117 C   0  0  0  0  0  0  0  0  0  0  0  0
   46.3635   55.8775   31.1635 C   0  0  0  0  0  0  0  0  0  0  0  0
   45.8036   57.0735   30.3739 C   0  0  1  0  0  0  0  0  0  0  0  0
   46.8130   57.5342   29.4275 O   0  0  0  0  0  0  0  0  0  0  0  0
   44.7142   56.4432   29.5449 C   0  0  1  0  0  0  0  0  0  0  0  0
   43.4532   56.6123   30.1930 O   0  0  0  0  0  0  0  0  0  0  0  0
   44.7477   57.2235   28.2366 C   0  0  1  0  0  0  0  0  0  0  0  0
   43.7792   58.2654   28.2086 O   0  0  0  0  0  0  0  0  0  0  0  0
   46.1999   57.8135   28.1138 C   0  0  2  0  0  0  0  0  0  0  0  0
   49.6263   54.5164   36.5615 O   0  0  0  0  0  0  0  0  0  0  0  0
   47.4705   53.3449   25.6646 N   0  0  0  0  0  0  0  0  0  0  0  0
   46.5225   53.5305   26.5897 C   0  0  0  0  0  0  0  0  0  0  0  0
   46.2965   54.7253   27.1129 N   0  0  0  0  0  0  0  0  0  0  0  0
   47.0306   55.7937   26.7612 C   0  0  0  0  0  0  0  0  0  0  0  0
   48.0575   55.6441   25.7940 C   0  0  0  0  0  0  0  0  0  0  0  0
   48.2534   54.3520   25.2442 C   0  0  0  0  0  0  0  0  0  0  0  0
   49.2292   54.1314   24.2982 N   0  0  0  0  0  0  0  0  0  0  0  0
   48.6347   56.8510   25.6281 N   0  0  0  0  0  0  0  0  0  0  0  0
   48.0555   57.7114   26.4132 C   0  0  0  0  0  0  0  0  0  0  0  0
   47.0558   57.1163   27.1312 N   0  0  0  0  0  0  0  0  0  0  0  0
  2  1  1  6  0  0  0
  2  3  1  0  0  0  0
  2  5  1  0  0  0  0
  3  4  1  0  0  0  0
  3 17  1  0  0  0  0
  5  6  1  0  0  0  0
  7  6  1  1  0  0  0
  7  8  1  0  0  0  0
  7  9  1  0  0  0  0
 10  9  1  1  0  0  0
 10 11  1  0  0  0  0
 10 12  1  0  0  0  0
 11 16  1  0  0  0  0
 12 13  1  1  0  0  0
 12 14  1  0  0  0  0
 14 15  1  1  0  0  0
 14 16  1  0  0  0  0
 16 27  1  6  0  0  0
 18 19  2  0  0  0  0
 18 23  1  0  0  0  0
 19 20  1  0  0  0  0
 20 21  2  0  0  0  0
 21 22  1  0  0  0  0
 21 27  1  0  0  0  0
 22 23  2  0  0  0  0
 22 25  1  0  0  0  0
 23 24  1  0  0  0  0
 25 26  2  0  0  0  0
 26 27  1  0  0  0  0
M  END
>  <CHROM.1>
159.26769632,-158.81356035,67.81131756,176.04469097,-175.22941603,144.46353189
82.54765843,46.86619626,55.77906762,30.14034639,-1.48849747,0.47544433,-1.53277546

>  <Name>
ligand

>  <RI>
0

>  <Rbt.Current_Directory>
/home/itssahil/PROJECTS/Mol_Feturizer/New_Systems/rnas/2GIS

>  <Rbt.Executable>
rbdock ($Id: //depot/dev/client3/rdock/2013.1/src/exe/rbdock.cxx#4 $)

>  <Rbt.Library>
libRbt.so (2013.1, Build901 2013/11/27)

>  <Rbt.Parameter_File>
/export/apps/rDock/src/rDock_2013.1_src/data/scripts/dock_solv.prm

>  <Rbt.Receptor>
prm/pocket_docking_5.prm

>  <SCORE>
-10.977

>  <SCORE.INTER>
-7.99513

>  <SCORE.INTER.CONST>
1

>  <SCORE.INTER.POLAR>
0

>  <SCORE.INTER.ROT>
7

>  <SCORE.INTER.SOLV>
12.6189

>  <SCORE.INTER.VDW>
-17.8031

>  <SCORE.INTER.norm>
-0.296116

>  <SCORE.INTRA>
-2.98189

>  <SCORE.INTRA.DIHEDRAL>
-0.634507

>  <SCORE.INTRA.DIHEDRAL.0>
9.40024

>  <SCORE.INTRA.POLAR>
0

>  <SCORE.INTRA.POLAR.0>
0

>  <SCORE.INTRA.REPUL>
0

>  <SCORE.INTRA.REPUL.0>
0

>  <SCORE.INTRA.SOLV>
-2.60058

>  <SCORE.INTRA.SOLV.lig_0>
-47.1049

>  <SCORE.INTRA.VDW>
-1.36434

>  <SCORE.INTRA.VDW.0>
-1.50278

>  <SCORE.INTRA.norm>
-0.11044

>  <SCORE.RESTR>
0

>  <SCORE.RESTR.CAVITY>
0

>  <SCORE.RESTR.norm>
0

>  <SCORE.SYSTEM>
0

>  <SCORE.SYSTEM.CONST>
0

>  <SCORE.SYSTEM.DIHEDRAL>
0

>  <SCORE.SYSTEM.SOLV>
0

>  <SCORE.SYSTEM.norm>
0

>  <SCORE.heavy>
27

>  <SCORE.norm>
-0.406556

>  <RMSD>
7.280

$$$$
ligand
 OpenBabel11021811433D
libRbt.so/2013.1/901 2013/11/27
 27 29  0  0  0  0  0  0  0  0999 V2000
   50.0701   54.5657   35.5974 N   0  0  0  0  0  0  0  0  0  0  0  0
   49.2611   55.7282   35.2179 C   0  0  2  0  0  0  0  0  0  0  0  0
   47.8501   55.2765   34.8856 C   0  0  0  0  0  0  0  0  0  0  0  0
   47.1518   54.7586   35.7525 O   0  0  0  0  0  0  0  0  0  0  0  0
   49.8782   56.4520   34.0046 C   0  0  0  0  0  0  0  0  0  0  0  0
   49.3052   57.8658   33.9185 C   0  0  0  0  0  0  0  0  0  0  0  0
   49.6004   58.7356   32.3246 S   0  0  2  0  0  0  0  0  0  0  0  0
   48.7169   60.3156   32.5119 C   0  0  0  0  0  0  0  0  0  0  0  0
   48.4113   57.7764   31.3630 C   0  0  0  0  0  0  0  0  0  0  0  0
   47.9330   58.4841   30.0834 C   0  0  1  0  0  0  0  0  0  0  0  0
   49.0034   58.4534   29.0934 O   0  0  0  0  0  0  0  0  0  0  0  0
   46.8648   57.5537   29.5689 C   0  0  1  0  0  0  0  0  0  0  0  0
   45.5799   58.0105   29.9919 O   0  0  0  0  0  0  0  0  0  0  0  0
   46.9902   57.6498   28.0534 C   0  0  1  0  0  0  0  0  0  0  0  0
   46.0609   58.5718   27.4958 O   0  0  0  0  0  0  0  0  0  0  0  0
   48.4663   58.1067   27.7625 C   0  0  2  0  0  0  0  0  0  0  0  0
   47.4243   55.3690   33.7341 O   0  0  0  0  0  0  0  0  0  0  0  0
   49.5746   54.6433   23.9733 N   0  0  0  0  0  0  0  0  0  0  0  0
   48.5621   55.5163   24.0140 C   0  0  0  0  0  0  0  0  0  0  0  0
   48.4133   56.3503   25.0311 N   0  0  0  0  0  0  0  0  0  0  0  0
   49.2530   56.3326   26.0794 C   0  0  0  0  0  0  0  0  0  0  0  0
   50.3344   55.4146   26.0890 C   0  0  0  0  0  0  0  0  0  0  0  0
   50.4691   54.5528   24.9712 C   0  0  0  0  0  0  0  0  0  0  0  0
   51.4961   53.6379   24.9091 N   0  0  0  0  0  0  0  0  0  0  0  0
   51.0112   55.6000   27.2399 N   0  0  0  0  0  0  0  0  0  0  0  0
   50.4312   56.5392   27.9282 C   0  0  0  0  0  0  0  0  0  0  0  0
   49.3452   57.0306   27.2588 N   0  0  0  0  0  0  0  0  0  0  0  0
  2  1  1  6  0  0  0
  2  3  1  0  0  0  0
  2  5  1  0  0  0  0
  3  4  1  0  0  0  0
  3 17  1  0  0  0  0
  5  6  1  0  0  0  0
  7  6  1  1  0  0  0
  7  8  1  0  0  0  0
  7  9  1  0  0  0  0
 10  9  1  1  0  0  0
 10 11  1  0  0  0  0
 10 12  1  0  0  0  0
 11 16  1  0  0  0  0
 12 13  1  6  0  0  0
 12 14  1  0  0  0  0
 14 15  1  1  0  0  0
 14 16  1  0  0  0  0
 16 27  1  1  0  0  0
 18 19  2  0  0  0  0
 18 23  1  0  0  0  0
 19 20  1  0  0  0  0
 20 21  2  0  0  0  0
 21 22  1  0  0  0  0
 21 27  1  0  0  0  0
 22 23  2  0  0  0  0
 22 25  1  0  0  0  0
 23 24  1  0  0  0  0
 25 26  2  0  0  0  0
 26 27  1  0  0  0  0
M  END
>  <CHROM.1>
63.06240789,-161.73156845,-165.72674276,176.54931190,158.38839629,73.71466027
177.97231294,48.77732984,56.77791470,29.82584881,-1.73975289,0.97904295,-1.52077857

>  <Name>
ligand

>  <RI>
0

>  <Rbt.Current_Directory>
/home/itssahil/PROJECTS/Mol_Feturizer/New_Systems/rnas/2GIS

>  <Rbt.Executable>
rbdock ($Id: //depot/dev/client3/rdock/2013.1/src/exe/rbdock.cxx#4 $)

>  <Rbt.Library>
libRbt.so (2013.1, Build901 2013/11/27)

>  <Rbt.Parameter_File>
/export/apps/rDock/src/rDock_2013.1_src/data/scripts/dock_solv.prm

>  <Rbt.Receptor>
prm/pocket_docking_6.prm

>  <SCORE>
-17.5744

>  <SCORE.INTER>
-14.9918

>  <SCORE.INTER.CONST>
1

>  <SCORE.INTER.POLAR>
0

>  <SCORE.INTER.ROT>
7

>  <SCORE.INTER.SOLV>
13.7554

>  <SCORE.INTER.VDW>
-22.8463

>  <SCORE.INTER.norm>
-0.555253

>  <SCORE.INTRA>
-2.58254

>  <SCORE.INTRA.DIHEDRAL>
-2.944

>  <SCORE.INTRA.DIHEDRAL.0>
9.40024

>  <SCORE.INTRA.POLAR>
0

>  <SCORE.INTRA.POLAR.0>
0

>  <SCORE.INTRA.REPUL>
0

>  <SCORE.INTRA.REPUL.0>
0

>  <SCORE.INTRA.SOLV>
-3.1182

>  <SCORE.INTRA.SOLV.lig_0>
-47.1049

>  <SCORE.INTRA.VDW>
0.448558

>  <SCORE.INTRA.VDW.0>
-1.50278

>  <SCORE.INTRA.norm>
-0.0956498

>  <SCORE.RESTR>
0

>  <SCORE.RESTR.CAVITY>
0

>  <SCORE.RESTR.norm>
0

>  <SCORE.SYSTEM>
0

>  <SCORE.SYSTEM.CONST>
0

>  <SCORE.SYSTEM.DIHEDRAL>
0

>  <SCORE.SYSTEM.SOLV>
0

>  <SCORE.SYSTEM.norm>
0

>  <SCORE.heavy>
27

>  <SCORE.norm>
-0.650902

>  <RMSD>
7.295

$$$$
ligand
 OpenBabel11021811433D
libRbt.so/2013.1/901 2013/11/27
 27 29  0  0  0  0  0  0  0  0999 V2000
   49.0327   53.2400   33.9866 N   0  0  0  0  0  0  0  0  0  0  0  0
   49.3711   54.6113   34.3804 C   0  0  2  0  0  0  0  0  0  0  0  0
   48.4074   55.0819   35.4552 C   0  0  0  0  0  0  0  0  0  0  0  0
   48.8354   55.4363   36.5501 O   0  0  0  0  0  0  0  0  0  0  0  0
   49.3065   55.5609   33.1676 C   0  0  0  0  0  0  0  0  0  0  0  0
   49.6182   56.9844   33.6273 C   0  0  0  0  0  0  0  0  0  0  0  0
   49.7672   58.2282   32.2800 S   0  0  2  0  0  0  0  0  0  0  0  0
   49.3638   59.8078   33.0889 C   0  0  0  0  0  0  0  0  0  0  0  0
   48.1989   57.8290   31.4801 C   0  0  0  0  0  0  0  0  0  0  0  0
   47.9394   58.6263   30.1901 C   0  0  1  0  0  0  0  0  0  0  0  0
   49.0768   58.4629   29.2921 O   0  0  0  0  0  0  0  0  0  0  0  0
   46.7989   57.8715   29.5571 C   0  0  1  0  0  0  0  0  0  0  0  0
   45.5599   58.4998   29.8871 O   0  0  0  0  0  0  0  0  0  0  0  0
   47.0683   57.9817   28.0614 C   0  0  1  0  0  0  0  0  0  0  0  0
   46.3317   59.0402   27.4603 O   0  0  0  0  0  0  0  0  0  0  0  0
   48.6141   58.2267   27.9101 C   0  0  2  0  0  0  0  0  0  0  0  0
   47.1928   55.0499   35.2564 O   0  0  0  0  0  0  0  0  0  0  0  0
   49.4461   54.6368   24.1682 N   0  0  0  0  0  0  0  0  0  0  0  0
   48.5514   55.6311   24.1645 C   0  0  0  0  0  0  0  0  0  0  0  0
   48.4632   56.4810   25.1755 N   0  0  0  0  0  0  0  0  0  0  0  0
   49.2455   56.3611   26.2609 C   0  0  0  0  0  0  0  0  0  0  0  0
   50.2004   55.3137   26.3178 C   0  0  0  0  0  0  0  0  0  0  0  0
   50.2757   54.4376   25.2055 C   0  0  0  0  0  0  0  0  0  0  0  0
   51.1804   53.3999   25.1883 N   0  0  0  0  0  0  0  0  0  0  0  0
   50.8423   55.4162   27.4987 N   0  0  0  0  0  0  0  0  0  0  0  0
   50.3552   56.4238   28.1618 C   0  0  0  0  0  0  0  0  0  0  0  0
   49.3716   57.0462   27.4447 N   0  0  0  0  0  0  0  0  0  0  0  0
  2  1  1  6  0  0  0
  2  3  1  0  0  0  0
  2  5  1  0  0  0  0
  3  4  1  0  0  0  0
  3 17  1  0  0  0  0
  5  6  1  0  0  0  0
  7  6  1  1  0  0  0
  7  8  1  0  0  0  0
  7  9  1  0  0  0  0
 10  9  1  1  0  0  0
 10 11  1  0  0  0  0
 10 12  1  0  0  0  0
 11 16  1  0  0  0  0
 12 13  1  6  0  0  0
 12 14  1  0  0  0  0
 14 15  1  1  0  0  0
 14 16  1  0  0  0  0
 16 27  1  1  0  0  0
 18 19  2  0  0  0  0
 18 23  1  0  0  0  0
 19 20  1  0  0  0  0
 20 21  2  0  0  0  0
 21 22  1  0  0  0  0
 21 27  1  0  0  0  0
 22 23  2  0  0  0  0
 22 25  1  0  0  0  0
 23 24  1  0  0  0  0
 25 26  2  0  0  0  0
 26 27  1  0  0  0  0
M  END
>  <CHROM.1>
121.21975746,178.09682548,173.61697466,154.70829223,-176.76509832,53.71822362
174.97778550,48.82873192,56.63293132,29.91552209,-1.70096162,1.07797461,-1.48316535

>  <Name>
ligand

>  <RI>
0

>  <Rbt.Current_Directory>
/home/itssahil/PROJECTS/Mol_Feturizer/New_Systems/rnas/2GIS

>  <Rbt.Executable>
rbdock ($Id: //depot/dev/client3/rdock/2013.1/src/exe/rbdock.cxx#4 $)

>  <Rbt.Library>
libRbt.so (2013.1, Build901 2013/11/27)

>  <Rbt.Parameter_File>
/export/apps/rDock/src/rDock_2013.1_src/data/scripts/dock_solv.prm

>  <Rbt.Receptor>
prm/pocket_docking_5.prm

>  <SCORE>
-16.493

>  <SCORE.INTER>
-12.9259

>  <SCORE.INTER.CONST>
1

>  <SCORE.INTER.POLAR>
0

>  <SCORE.INTER.ROT>
7

>  <SCORE.INTER.SOLV>
12.3514

>  <SCORE.INTER.VDW>
-21.0011

>  <SCORE.INTER.norm>
-0.478738

>  <SCORE.INTRA>
-3.56703

>  <SCORE.INTRA.DIHEDRAL>
-4.78479

>  <SCORE.INTRA.DIHEDRAL.0>
9.40024

>  <SCORE.INTRA.POLAR>
0

>  <SCORE.INTRA.POLAR.0>
0

>  <SCORE.INTRA.REPUL>
0

>  <SCORE.INTRA.REPUL.0>
0

>  <SCORE.INTRA.SOLV>
-3.12425

>  <SCORE.INTRA.SOLV.lig_0>
-47.1049

>  <SCORE.INTRA.VDW>
0.387492

>  <SCORE.INTRA.VDW.0>
-1.50278

>  <SCORE.INTRA.norm>
-0.132112

>  <SCORE.RESTR>
0

>  <SCORE.RESTR.CAVITY>
0

>  <SCORE.RESTR.norm>
0

>  <SCORE.SYSTEM>
0

>  <SCORE.SYSTEM.CONST>
0

>  <SCORE.SYSTEM.DIHEDRAL>
0

>  <SCORE.SYSTEM.SOLV>
0

>  <SCORE.SYSTEM.norm>
0

>  <SCORE.heavy>
27

>  <SCORE.norm>
-0.610851

>  <RMSD>
7.301

$$$$
ligand
 OpenBabel11021811433D
libRbt.so/2013.1/901 2013/11/27
 27 29  0  0  0  0  0  0  0  0999 V2000
   47.4296   57.6353   32.3559 N   0  0  0  0  0  0  0  0  0  0  0  0
   48.7925   58.1603   32.2256 C   0  0  2  0  0  0  0  0  0  0  0  0
   48.7471   59.5304   31.5730 C   0  0  0  0  0  0  0  0  0  0  0  0
   48.0471   59.7145   30.5812 O   0  0  0  0  0  0  0  0  0  0  0  0
   49.6675   57.2091   31.3850 C   0  0  0  0  0  0  0  0  0  0  0  0
   48.9557   56.9046   30.0676 C   0  0  0  0  0  0  0  0  0  0  0  0
   49.5273   55.3861   29.2006 S   0  0  2  0  0  0  0  0  0  0  0  0
   51.1629   55.8400   28.5440 C   0  0  0  0  0  0  0  0  0  0  0  0
   48.4876   55.5997   27.7404 C   0  0  0  0  0  0  0  0  0  0  0  0
   48.6134   54.4582   26.7166 C   0  0  1  0  0  0  0  0  0  0  0  0
   47.9247   53.2796   27.2299 O   0  0  0  0  0  0  0  0  0  0  0  0
   47.7819   54.9548   25.5619 C   0  0  1  0  0  0  0  0  0  0  0  0
   48.6245   55.5729   24.5889 O   0  0  0  0  0  0  0  0  0  0  0  0
   47.1503   53.6909   24.9914 C   0  0  1  0  0  0  0  0  0  0  0  0
   47.8799   53.1808   23.8814 O   0  0  0  0  0  0  0  0  0  0  0  0
   47.1234   52.6447   26.1647 C   0  0  2  0  0  0  0  0  0  0  0  0
   49.4582   60.4425   31.9954 O   0  0  0  0  0  0  0  0  0  0  0  0
   43.9377   53.1700   30.3068 N   0  0  0  0  0  0  0  0  0  0  0  0
   45.2185   53.5421   30.2066 C   0  0  0  0  0  0  0  0  0  0  0  0
   45.9009   53.3644   29.0864 N   0  0  0  0  0  0  0  0  0  0  0  0
   45.3461   52.7739   28.0150 C   0  0  0  0  0  0  0  0  0  0  0  0
   43.9941   52.3489   28.0774 C   0  0  0  0  0  0  0  0  0  0  0  0
   43.2935   52.5760   29.2889 C   0  0  0  0  0  0  0  0  0  0  0  0
   41.9777   52.1932   29.4221 N   0  0  0  0  0  0  0  0  0  0  0  0
   43.6904   51.7931   26.8874 N   0  0  0  0  0  0  0  0  0  0  0  0
   44.7381   51.8364   26.1175 C   0  0  0  0  0  0  0  0  0  0  0  0
   45.7865   52.4353   26.7588 N   0  0  0  0  0  0  0  0  0  0  0  0
  2  1  1  6  0  0  0
  2  3  1  0  0  0  0
  2  5  1  0  0  0  0
  3  4  1  0  0  0  0
  3 17  1  0  0  0  0
  5  6  1  0  0  0  0
  7  6  1  1  0  0  0
  7  8  1  0  0  0  0
  7  9  1  0  0  0  0
 10  9  1  1  0  0  0
 10 11  1  0  0  0  0
 10 12  1  0  0  0  0
 11 16  1  0  0  0  0
 12 13  1  6  0  0  0
 12 14  1  0  0  0  0
 14 15  1  6  0  0  0
 14 16  1  0  0  0  0
 16 27  1  1  0  0  0
 18 19  2  0  0  0  0
 18 23  1  0  0  0  0
 19 20  1  0  0  0  0
 20 21  2  0  0  0  0
 21 22  1  0  0  0  0
 21 27  1  0  0  0  0
 22 23  2  0  0  0  0
 22 25  1  0  0  0  0
 23 24  1  0  0  0  0
 25 26  2  0  0  0  0
 26 27  1  0  0  0  0
M  END
>  <CHROM.1>
-45.63727282,51.93634476,-159.92604372,-72.69657089,-177.68270683,73.87908022
1.33002625,47.21599231,54.92670771,28.49779917,0.94482804,0.58228544,0.99084516

>  <Name>
ligand

>  <RI>
0

>  <Rbt.Current_Directory>
/home/itssahil/PROJECTS/Mol_Feturizer/New_Systems/rnas/2GIS

>  <Rbt.Executable>
rbdock ($Id: //depot/dev/client3/rdock/2013.1/src/exe/rbdock.cxx#4 $)

>  <Rbt.Library>
libRbt.so (2013.1, Build901 2013/11/27)

>  <Rbt.Parameter_File>
/export/apps/rDock/src/rDock_2013.1_src/data/scripts/dock_solv.prm

>  <Rbt.Receptor>
prm/pocket_docking_7.prm

>  <SCORE>
-14.1526

>  <SCORE.INTER>
-10.5381

>  <SCORE.INTER.CONST>
1

>  <SCORE.INTER.POLAR>
0

>  <SCORE.INTER.ROT>
7

>  <SCORE.INTER.SOLV>
7.26081

>  <SCORE.INTER.VDW>
-17.7123

>  <SCORE.INTER.norm>
-0.390299

>  <SCORE.INTRA>
-3.61452

>  <SCORE.INTRA.DIHEDRAL>
-3.67194

>  <SCORE.INTRA.DIHEDRAL.0>
9.40024

>  <SCORE.INTRA.POLAR>
0

>  <SCORE.INTRA.POLAR.0>
0

>  <SCORE.INTRA.REPUL>
0

>  <SCORE.INTRA.REPUL.0>
0

>  <SCORE.INTRA.SOLV>
-2.23817

>  <SCORE.INTRA.SOLV.lig_0>
-47.1049

>  <SCORE.INTRA.VDW>
-0.659468

>  <SCORE.INTRA.VDW.0>
-1.50278

>  <SCORE.INTRA.norm>
-0.133871

>  <SCORE.RESTR>
0

>  <SCORE.RESTR.CAVITY>
0

>  <SCORE.RESTR.norm>
0

>  <SCORE.SYSTEM>
0

>  <SCORE.SYSTEM.CONST>
0

>  <SCORE.SYSTEM.DIHEDRAL>
0

>  <SCORE.SYSTEM.SOLV>
0

>  <SCORE.SYSTEM.norm>
0

>  <SCORE.heavy>
27

>  <SCORE.norm>
-0.524171

>  <RMSD>
7.311

$$$$
ligand
 OpenBabel11021811433D
libRbt.so/2013.1/901 2013/11/27
 27 29  0  0  0  0  0  0  0  0999 V2000
   49.8948   54.5002   35.7886 N   0  0  0  0  0  0  0  0  0  0  0  0
   49.0537   55.6032   35.3133 C   0  0  2  0  0  0  0  0  0  0  0  0
   47.6688   55.0770   34.9807 C   0  0  0  0  0  0  0  0  0  0  0  0
   46.8613   55.7985   34.4020 O   0  0  0  0  0  0  0  0  0  0  0  0
   49.6741   56.2673   34.0680 C   0  0  0  0  0  0  0  0  0  0  0  0
   49.1867   57.7124   33.9742 C   0  0  0  0  0  0  0  0  0  0  0  0
   49.5980   58.5780   32.4039 S   0  0  2  0  0  0  0  0  0  0  0  0
   48.8549   60.2278   32.5997 C   0  0  0  0  0  0  0  0  0  0  0  0
   48.3522   57.7454   31.3973 C   0  0  0  0  0  0  0  0  0  0  0  0
   47.9600   58.5212   30.1279 C   0  0  1  0  0  0  0  0  0  0  0  0
   49.0611   58.4610   29.1734 O   0  0  0  0  0  0  0  0  0  0  0  0
   46.8595   57.6715   29.5462 C   0  0  1  0  0  0  0  0  0  0  0  0
   45.5885   58.1878   29.9419 O   0  0  0  0  0  0  0  0  0  0  0  0
   47.0433   57.8098   28.0399 C   0  0  1  0  0  0  0  0  0  0  0  0
   46.1879   58.8018   27.4842 O   0  0  0  0  0  0  0  0  0  0  0  0
   48.5522   58.1898   27.8143 C   0  0  2  0  0  0  0  0  0  0  0  0
   47.3291   53.9511   35.3450 O   0  0  0  0  0  0  0  0  0  0  0  0
   49.4814   54.6711   24.0279 N   0  0  0  0  0  0  0  0  0  0  0  0
   48.5000   55.5784   24.0795 C   0  0  0  0  0  0  0  0  0  0  0  0
   48.3959   56.4222   25.0941 N   0  0  0  0  0  0  0  0  0  0  0  0
   49.2511   56.3813   26.1291 C   0  0  0  0  0  0  0  0  0  0  0  0
   50.3006   55.4269   26.1268 C   0  0  0  0  0  0  0  0  0  0  0  0
   50.3881   54.5553   25.0120 C   0  0  0  0  0  0  0  0  0  0  0  0
   51.3822   53.6055   24.9389 N   0  0  0  0  0  0  0  0  0  0  0  0
   51.0016   55.5950   27.2659 N   0  0  0  0  0  0  0  0  0  0  0  0
   50.4650   56.5571   27.9579 C   0  0  0  0  0  0  0  0  0  0  0  0
   49.3858   57.0818   27.3029 N   0  0  0  0  0  0  0  0  0  0  0  0
  2  1  1  6  0  0  0
  2  3  1  0  0  0  0
  2  5  1  0  0  0  0
  3  4  1  0  0  0  0
  3 17  1  0  0  0  0
  5  6  1  0  0  0  0
  7  6  1  1  0  0  0
  7  8  1  0  0  0  0
  7  9  1  0  0  0  0
 10  9  1  1  0  0  0
 10 11  1  0  0  0  0
 10 12  1  0  0  0  0
 11 16  1  0  0  0  0
 12 13  1  6  0  0  0
 12 14  1  0  0  0  0
 14 15  1  1  0  0  0
 14 16  1  0  0  0  0
 16 27  1  1  0  0  0
 18 19  2  0  0  0  0
 18 23  1  0  0  0  0
 19 20  1  0  0  0  0
 20 21  2  0  0  0  0
 21 22  1  0  0  0  0
 21 27  1  0  0  0  0
 22 23  2  0  0  0  0
 22 25  1  0  0  0  0
 23 24  1  0  0  0  0
 25 26  2  0  0  0  0
 26 27  1  0  0  0  0
M  END
>  <CHROM.1>
-170.48727919,-154.61005478,-170.27088238,178.71553972,157.76800351,71.88286837
174.09466795,48.73603322,56.75894845,29.88234528,-1.77538563,1.04807397,-1.45288145

>  <Name>
ligand

>  <RI>
0

>  <Rbt.Current_Directory>
/home/itssahil/PROJECTS/Mol_Feturizer/New_Systems/rnas/2GIS

>  <Rbt.Executable>
rbdock ($Id: //depot/dev/client3/rdock/2013.1/src/exe/rbdock.cxx#4 $)

>  <Rbt.Library>
libRbt.so (2013.1, Build901 2013/11/27)

>  <Rbt.Parameter_File>
/export/apps/rDock/src/rDock_2013.1_src/data/scripts/dock_solv.prm

>  <Rbt.Receptor>
prm/pocket_docking_7.prm

>  <SCORE>
-17.6776

>  <SCORE.INTER>
-14.9191

>  <SCORE.INTER.CONST>
1

>  <SCORE.INTER.POLAR>
0

>  <SCORE.INTER.ROT>
7

>  <SCORE.INTER.SOLV>
13.3966

>  <SCORE.INTER.VDW>
-22.6783

>  <SCORE.INTER.norm>
-0.552559

>  <SCORE.INTRA>
-2.75854

>  <SCORE.INTRA.DIHEDRAL>
-2.403

>  <SCORE.INTRA.DIHEDRAL.0>
9.40024

>  <SCORE.INTRA.POLAR>
0

>  <SCORE.INTRA.POLAR.0>
0

>  <SCORE.INTRA.REPUL>
0

>  <SCORE.INTRA.REPUL.0>
0

>  <SCORE.INTRA.SOLV>
-3.09517

>  <SCORE.INTRA.SOLV.lig_0>
-47.1049

>  <SCORE.INTRA.VDW>
-0.00945675

>  <SCORE.INTRA.VDW.0>
-1.50278

>  <SCORE.INTRA.norm>
-0.102168

>  <SCORE.RESTR>
0

>  <SCORE.RESTR.CAVITY>
0

>  <SCORE.RESTR.norm>
0

>  <SCORE.SYSTEM>
0

>  <SCORE.SYSTEM.CONST>
0

>  <SCORE.SYSTEM.DIHEDRAL>
0

>  <SCORE.SYSTEM.SOLV>
0

>  <SCORE.SYSTEM.norm>
0

>  <SCORE.heavy>
27

>  <SCORE.norm>
-0.654728

>  <RMSD>
7.316

$$$$
ligand
 OpenBabel11021811433D
libRbt.so/2013.1/901 2013/11/27
 27 29  0  0  0  0  0  0  0  0999 V2000
   48.2385   53.4748   39.3048 N   0  0  0  0  0  0  0  0  0  0  0  0
   47.8074   53.2724   37.9181 C   0  0  2  0  0  0  0  0  0  0  0  0
   48.5709   54.2173   37.0073 C   0  0  0  0  0  0  0  0  0  0  0  0
   49.0091   55.2754   37.4499 O   0  0  0  0  0  0  0  0  0  0  0  0
   46.2921   53.5178   37.7745 C   0  0  0  0  0  0  0  0  0  0  0  0
   45.8619   53.1815   36.3474 C   0  0  0  0  0  0  0  0  0  0  0  0
   44.0863   53.4829   35.9724 S   0  0  2  0  0  0  0  0  0  0  0  0
   43.2261   52.0752   36.7409 C   0  0  0  0  0  0  0  0  0  0  0  0
   44.1646   52.9522   34.2487 C   0  0  0  0  0  0  0  0  0  0  0  0
   43.0020   53.4725   33.3857 C   0  0  1  0  0  0  0  0  0  0  0  0
   43.0024   54.9305   33.4146 O   0  0  0  0  0  0  0  0  0  0  0  0
   43.4239   53.0848   31.9918 C   0  0  1  0  0  0  0  0  0  0  0  0
   42.8046   51.8521   31.6235 O   0  0  0  0  0  0  0  0  0  0  0  0
   42.9050   54.2212   31.1195 C   0  0  1  0  0  0  0  0  0  0  0  0
   41.6508   53.9103   30.5238 O   0  0  0  0  0  0  0  0  0  0  0  0
   42.7759   55.4741   32.0607 C   0  0  2  0  0  0  0  0  0  0  0  0
   48.6983   53.9575   35.8106 O   0  0  0  0  0  0  0  0  0  0  0  0
   45.5637   58.4585   28.7587 N   0  0  0  0  0  0  0  0  0  0  0  0
   44.5992   57.5829   28.4553 C   0  0  0  0  0  0  0  0  0  0  0  0
   43.9620   56.9071   29.3984 N   0  0  0  0  0  0  0  0  0  0  0  0
   44.2792   57.0479   30.6960 C   0  0  0  0  0  0  0  0  0  0  0  0
   45.3054   57.9543   31.0668 C   0  0  0  0  0  0  0  0  0  0  0  0
   45.9489   58.6727   30.0275 C   0  0  0  0  0  0  0  0  0  0  0  0
   46.9519   59.5721   30.3115 N   0  0  0  0  0  0  0  0  0  0  0  0
   45.4247   57.9022   32.4085 N   0  0  0  0  0  0  0  0  0  0  0  0
   44.5707   57.0409   32.8787 C   0  0  0  0  0  0  0  0  0  0  0  0
   43.8343   56.4875   31.8685 N   0  0  0  0  0  0  0  0  0  0  0  0
  2  1  1  1  0  0  0
  2  3  1  0  0  0  0
  2  5  1  0  0  0  0
  3  4  1  0  0  0  0
  3 17  1  0  0  0  0
  5  6  1  0  0  0  0
  7  6  1  1  0  0  0
  7  8  1  0  0  0  0
  7  9  1  0  0  0  0
 10  9  1  1  0  0  0
 10 11  1  0  0  0  0
 10 12  1  0  0  0  0
 11 16  1  0  0  0  0
 12 13  1  6  0  0  0
 12 14  1  0  0  0  0
 14 15  1  1  0  0  0
 14 16  1  0  0  0  0
 16 27  1  6  0  0  0
 18 19  2  0  0  0  0
 18 23  1  0  0  0  0
 19 20  1  0  0  0  0
 20 21  2  0  0  0  0
 21 22  1  0  0  0  0
 21 27  1  0  0  0  0
 22 23  2  0  0  0  0
 22 25  1  0  0  0  0
 23 24  1  0  0  0  0
 25 26  2  0  0  0  0
 26 27  1  0  0  0  0
M  END
>  <CHROM.1>
-26.40413487,-175.18664414,-177.57909187,-77.17178561,-160.33201457,59.05879679
162.50884583,44.98454812,55.02445736,33.47520429,-1.20567049,-0.61745384
-0.88931450

>  <Name>
ligand

>  <RI>
0

>  <Rbt.Current_Directory>
/home/itssahil/PROJECTS/Mol_Feturizer/New_Systems/rnas/2GIS

>  <Rbt.Executable>
rbdock ($Id: //depot/dev/client3/rdock/2013.1/src/exe/rbdock.cxx#4 $)

>  <Rbt.Library>
libRbt.so (2013.1, Build901 2013/11/27)

>  <Rbt.Parameter_File>
/export/apps/rDock/src/rDock_2013.1_src/data/scripts/dock_solv.prm

>  <Rbt.Receptor>
prm/pocket_docking_8.prm

>  <SCORE>
-17.9398

>  <SCORE.INTER>
-13.932

>  <SCORE.INTER.CONST>
1

>  <SCORE.INTER.POLAR>
0

>  <SCORE.INTER.ROT>
7

>  <SCORE.INTER.SOLV>
14.033

>  <SCORE.INTER.VDW>
-22.2324

>  <SCORE.INTER.norm>
-0.516001

>  <SCORE.INTRA>
-4.00779

>  <SCORE.INTRA.DIHEDRAL>
-4.1263

>  <SCORE.INTRA.DIHEDRAL.0>
9.40024

>  <SCORE.INTRA.POLAR>
0

>  <SCORE.INTRA.POLAR.0>
0

>  <SCORE.INTRA.REPUL>
0

>  <SCORE.INTRA.REPUL.0>
0

>  <SCORE.INTRA.SOLV>
-3.16605

>  <SCORE.INTRA.SOLV.lig_0>
-47.1049

>  <SCORE.INTRA.VDW>
-0.36162

>  <SCORE.INTRA.VDW.0>
-1.50278

>  <SCORE.INTRA.norm>
-0.148437

>  <SCORE.RESTR>
0

>  <SCORE.RESTR.CAVITY>
0

>  <SCORE.RESTR.norm>
0

>  <SCORE.SYSTEM>
0

>  <SCORE.SYSTEM.CONST>
0

>  <SCORE.SYSTEM.DIHEDRAL>
0

>  <SCORE.SYSTEM.SOLV>
0

>  <SCORE.SYSTEM.norm>
0

>  <SCORE.heavy>
27

>  <SCORE.norm>
-0.664438

>  <RMSD>
7.323

$$$$
ligand
 OpenBabel11021811433D
libRbt.so/2013.1/901 2013/11/27
 27 29  0  0  0  0  0  0  0  0999 V2000
   43.3414   52.6905   34.0065 N   0  0  0  0  0  0  0  0  0  0  0  0
   44.3628   52.7600   35.0562 C   0  0  2  0  0  0  0  0  0  0  0  0
   43.7776   53.4255   36.2890 C   0  0  0  0  0  0  0  0  0  0  0  0
   44.2920   53.2405   37.3884 O   0  0  0  0  0  0  0  0  0  0  0  0
   45.5944   53.5499   34.5701 C   0  0  0  0  0  0  0  0  0  0  0  0
   46.6478   53.5686   35.6767 C   0  0  0  0  0  0  0  0  0  0  0  0
   48.3457   54.0248   35.1350 S   0  0  2  0  0  0  0  0  0  0  0  0
   49.1624   54.5846   36.6620 C   0  0  0  0  0  0  0  0  0  0  0  0
   47.8867   55.5994   34.3809 C   0  0  0  0  0  0  0  0  0  0  0  0
   49.0687   56.3504   33.7439 C   0  0  1  0  0  0  0  0  0  0  0  0
   49.7280   55.4737   32.7828 O   0  0  0  0  0  0  0  0  0  0  0  0
   48.3839   57.4181   32.9300 C   0  0  1  0  0  0  0  0  0  0  0  0
   48.3424   58.6388   33.6696 O   0  0  0  0  0  0  0  0  0  0  0  0
   49.2713   57.5717   31.7010 C   0  0  1  0  0  0  0  0  0  0  0  0
   50.1863   58.6534   31.8320 O   0  0  0  0  0  0  0  0  0  0  0  0
   50.0419   56.2104   31.5424 C   0  0  2  0  0  0  0  0  0  0  0  0
   42.7510   54.0995   36.2017 O   0  0  0  0  0  0  0  0  0  0  0  0
   51.1133   53.0020   27.5249 N   0  0  0  0  0  0  0  0  0  0  0  0
   51.9816   53.6240   28.3301 C   0  0  0  0  0  0  0  0  0  0  0  0
   51.5679   54.3952   29.3232 N   0  0  0  0  0  0  0  0  0  0  0  0
   50.2607   54.6114   29.5437 C   0  0  0  0  0  0  0  0  0  0  0  0
   49.3013   53.9849   28.7074 C   0  0  0  0  0  0  0  0  0  0  0  0
   49.7862   53.1514   27.6681 C   0  0  0  0  0  0  0  0  0  0  0  0
   48.9143   52.5079   26.8187 N   0  0  0  0  0  0  0  0  0  0  0  0
   48.0815   54.3663   29.1363 N   0  0  0  0  0  0  0  0  0  0  0  0
   48.2188   55.1720   30.1483 C   0  0  0  0  0  0  0  0  0  0  0  0
   49.5404   55.3547   30.4467 N   0  0  0  0  0  0  0  0  0  0  0  0
  2  1  1  6  0  0  0
  2  3  1  0  0  0  0
  2  5  1  0  0  0  0
  3  4  1  0  0  0  0
  3 17  1  0  0  0  0
  5  6  1  0  0  0  0
  7  6  1  1  0  0  0
  7  8  1  0  0  0  0
  7  9  1  0  0  0  0
 10  9  1  6  0  0  0
 10 11  1  0  0  0  0
 10 12  1  0  0  0  0
 11 16  1  0  0  0  0
 12 13  1  1  0  0  0
 12 14  1  0  0  0  0
 14 15  1  1  0  0  0
 14 16  1  0  0  0  0
 16 27  1  6  0  0  0
 18 19  2  0  0  0  0
 18 23  1  0  0  0  0
 19 20  1  0  0  0  0
 20 21  2  0  0  0  0
 21 22  1  0  0  0  0
 21 27  1  0  0  0  0
 22 23  2  0  0  0  0
 22 25  1  0  0  0  0
 23 24  1  0  0  0  0
 25 26  2  0  0  0  0
 26 27  1  0  0  0  0
M  END
>  <CHROM.1>
158.35336275,-178.54604499,163.00173914,158.62835600,-178.93157960,55.01733737
-107.78802300,48.10650685,54.74705682,32.52248069,2.47891638,0.72104489,0.96025860

>  <Name>
ligand

>  <RI>
0

>  <Rbt.Current_Directory>
/home/itssahil/PROJECTS/Mol_Feturizer/New_Systems/rnas/2GIS

>  <Rbt.Executable>
rbdock ($Id: //depot/dev/client3/rdock/2013.1/src/exe/rbdock.cxx#4 $)

>  <Rbt.Library>
libRbt.so (2013.1, Build901 2013/11/27)

>  <Rbt.Parameter_File>
/export/apps/rDock/src/rDock_2013.1_src/data/scripts/dock_solv.prm

>  <Rbt.Receptor>
prm/pocket_docking_6.prm

>  <SCORE>
-14.2845

>  <SCORE.INTER>
-10.7578

>  <SCORE.INTER.CONST>
1

>  <SCORE.INTER.POLAR>
0

>  <SCORE.INTER.ROT>
7

>  <SCORE.INTER.SOLV>
11.1559

>  <SCORE.INTER.VDW>
-19.1572

>  <SCORE.INTER.norm>
-0.398438

>  <SCORE.INTRA>
-3.52668

>  <SCORE.INTRA.DIHEDRAL>
-4.30203

>  <SCORE.INTRA.DIHEDRAL.0>
9.40024

>  <SCORE.INTRA.POLAR>
0

>  <SCORE.INTRA.POLAR.0>
0

>  <SCORE.INTRA.REPUL>
0

>  <SCORE.INTRA.REPUL.0>
0

>  <SCORE.INTRA.SOLV>
-3.12389

>  <SCORE.INTRA.SOLV.lig_0>
-47.1049

>  <SCORE.INTRA.VDW>
0.186279

>  <SCORE.INTRA.VDW.0>
-1.50278

>  <SCORE.INTRA.norm>
-0.130618

>  <SCORE.RESTR>
0

>  <SCORE.RESTR.CAVITY>
0

>  <SCORE.RESTR.norm>
0

>  <SCORE.SYSTEM>
0

>  <SCORE.SYSTEM.CONST>
0

>  <SCORE.SYSTEM.DIHEDRAL>
0

>  <SCORE.SYSTEM.SOLV>
0

>  <SCORE.SYSTEM.norm>
0

>  <SCORE.heavy>
27

>  <SCORE.norm>
-0.529056

>  <RMSD>
7.333

$$$$
ligand
 OpenBabel11021811433D
libRbt.so/2013.1/901 2013/11/27
 27 29  0  0  0  0  0  0  0  0999 V2000
   45.5039   54.3356   34.3044 N   0  0  0  0  0  0  0  0  0  0  0  0
   46.5972   53.3659   34.4241 C   0  0  2  0  0  0  0  0  0  0  0  0
   46.9930   53.2265   35.8832 C   0  0  0  0  0  0  0  0  0  0  0  0
   46.9377   54.2000   36.6294 O   0  0  0  0  0  0  0  0  0  0  0  0
   47.8163   53.8099   33.5913 C   0  0  0  0  0  0  0  0  0  0  0  0
   48.2432   55.2091   34.0326 C   0  0  0  0  0  0  0  0  0  0  0  0
   49.3470   56.0982   32.8599 S   0  0  2  0  0  0  0  0  0  0  0  0
   49.4280   57.7906   33.5243 C   0  0  0  0  0  0  0  0  0  0  0  0
   48.1177   56.2896   31.5518 C   0  0  0  0  0  0  0  0  0  0  0  0
   48.5201   57.3018   30.4652 C   0  0  1  0  0  0  0  0  0  0  0  0
   49.8213   56.9272   29.9235 O   0  0  0  0  0  0  0  0  0  0  0  0
   47.5206   57.0288   29.3707 C   0  0  1  0  0  0  0  0  0  0  0  0
   46.4358   57.9524   29.4642 O   0  0  0  0  0  0  0  0  0  0  0  0
   48.3069   57.2614   28.0864 C   0  0  1  0  0  0  0  0  0  0  0  0
   48.1026   58.5682   27.5617 O   0  0  0  0  0  0  0  0  0  0  0  0
   49.8203   57.0413   28.4515 C   0  0  2  0  0  0  0  0  0  0  0  0
   47.4301   52.1567   36.3078 O   0  0  0  0  0  0  0  0  0  0  0  0
   49.6414   51.7926   28.4400 N   0  0  0  0  0  0  0  0  0  0  0  0
   48.8475   52.6374   29.1071 C   0  0  0  0  0  0  0  0  0  0  0  0
   48.9952   53.9486   29.0017 N   0  0  0  0  0  0  0  0  0  0  0  0
   49.9682   54.4849   28.2468 C   0  0  0  0  0  0  0  0  0  0  0  0
   50.8447   53.6293   27.5311 C   0  0  0  0  0  0  0  0  0  0  0  0
   50.6395   52.2320   27.6561 C   0  0  0  0  0  0  0  0  0  0  0  0
   51.4489   51.3405   26.9886 N   0  0  0  0  0  0  0  0  0  0  0  0
   51.7181   54.4114   26.8657 N   0  0  0  0  0  0  0  0  0  0  0  0
   51.4535   55.6590   27.1222 C   0  0  0  0  0  0  0  0  0  0  0  0
   50.3813   55.7640   27.9639 N   0  0  0  0  0  0  0  0  0  0  0  0
  2  1  1  1  0  0  0
  2  3  1  0  0  0  0
  2  5  1  0  0  0  0
  3  4  1  0  0  0  0
  3 17  1  0  0  0  0
  5  6  1  0  0  0  0
  7  6  1  1  0  0  0
  7  8  1  0  0  0  0
  7  9  1  0  0  0  0
 10  9  1  1  0  0  0
 10 11  1  0  0  0  0
 10 12  1  0  0  0  0
 11 16  1  0  0  0  0
 12 13  1  1  0  0  0
 12 14  1  0  0  0  0
 14 15  1  1  0  0  0
 14 16  1  0  0  0  0
 16 27  1  6  0  0  0
 18 19  2  0  0  0  0
 18 23  1  0  0  0  0
 19 20  1  0  0  0  0
 20 21  2  0  0  0  0
 21 22  1  0  0  0  0
 21 27  1  0  0  0  0
 22 23  2  0  0  0  0
 22 25  1  0  0  0  0
 23 24  1  0  0  0  0
 25 26  2  0  0  0  0
 26 27  1  0  0  0  0
M  END
>  <CHROM.1>
-34.26409112,56.25991935,-163.19920685,170.60325455,165.98744355,54.88852889
54.34295537,48.82362253,55.08727038,30.76418332,2.54978374,-1.12389139,2.59592205

>  <Name>
ligand

>  <RI>
0

>  <Rbt.Current_Directory>
/home/itssahil/PROJECTS/Mol_Feturizer/New_Systems/rnas/2GIS

>  <Rbt.Executable>
rbdock ($Id: //depot/dev/client3/rdock/2013.1/src/exe/rbdock.cxx#4 $)

>  <Rbt.Library>
libRbt.so (2013.1, Build901 2013/11/27)

>  <Rbt.Parameter_File>
/export/apps/rDock/src/rDock_2013.1_src/data/scripts/dock_solv.prm

>  <Rbt.Receptor>
prm/pocket_docking_4.prm

>  <SCORE>
-11.7276

>  <SCORE.INTER>
-7.26076

>  <SCORE.INTER.CONST>
1

>  <SCORE.INTER.POLAR>
0

>  <SCORE.INTER.ROT>
7

>  <SCORE.INTER.SOLV>
12.98

>  <SCORE.INTER.VDW>
-17.4338

>  <SCORE.INTER.norm>
-0.268917

>  <SCORE.INTRA>
-4.46683

>  <SCORE.INTRA.DIHEDRAL>
-5.05849

>  <SCORE.INTRA.DIHEDRAL.0>
9.40024

>  <SCORE.INTRA.POLAR>
0

>  <SCORE.INTRA.POLAR.0>
0

>  <SCORE.INTRA.REPUL>
0

>  <SCORE.INTRA.REPUL.0>
0

>  <SCORE.INTRA.SOLV>
-1.9189

>  <SCORE.INTRA.SOLV.lig_0>
-47.1049

>  <SCORE.INTRA.VDW>
-0.978126

>  <SCORE.INTRA.VDW.0>
-1.50278

>  <SCORE.INTRA.norm>
-0.165438

>  <SCORE.RESTR>
0

>  <SCORE.RESTR.CAVITY>
0

>  <SCORE.RESTR.norm>
0

>  <SCORE.SYSTEM>
0

>  <SCORE.SYSTEM.CONST>
0

>  <SCORE.SYSTEM.DIHEDRAL>
0

>  <SCORE.SYSTEM.SOLV>
0

>  <SCORE.SYSTEM.norm>
0

>  <SCORE.heavy>
27

>  <SCORE.norm>
-0.434355

>  <RMSD>
7.378

$$$$
ligand
 OpenBabel11021811433D
libRbt.so/2013.1/901 2013/11/27
 27 29  0  0  0  0  0  0  0  0999 V2000
   50.0005   54.8011   35.2573 N   0  0  0  0  0  0  0  0  0  0  0  0
   49.1419   55.9030   34.8116 C   0  0  2  0  0  0  0  0  0  0  0  0
   47.8061   55.3489   34.3489 C   0  0  0  0  0  0  0  0  0  0  0  0
   46.8243   56.0838   34.2909 O   0  0  0  0  0  0  0  0  0  0  0  0
   49.8090   56.6869   33.6638 C   0  0  0  0  0  0  0  0  0  0  0  0
   49.0851   58.0197   33.4789 C   0  0  0  0  0  0  0  0  0  0  0  0
   49.5332   58.9506   31.9568 S   0  0  2  0  0  0  0  0  0  0  0  0
   48.6055   60.5096   32.1016 C   0  0  0  0  0  0  0  0  0  0  0  0
   48.4721   58.0091   30.8403 C   0  0  0  0  0  0  0  0  0  0  0  0
   48.3091   58.6501   29.4512 C   0  0  1  0  0  0  0  0  0  0  0  0
   49.2829   58.0628   28.5382 O   0  0  0  0  0  0  0  0  0  0  0  0
   46.9626   58.1400   29.0062 C   0  0  1  0  0  0  0  0  0  0  0  0
   45.9580   59.1147   29.2883 O   0  0  0  0  0  0  0  0  0  0  0  0
   47.1164   57.9561   27.5015 C   0  0  1  0  0  0  0  0  0  0  0  0
   46.6215   59.0726   26.7714 O   0  0  0  0  0  0  0  0  0  0  0  0
   48.6538   57.7589   27.2376 C   0  0  2  0  0  0  0  0  0  0  0  0
   47.6871   54.1507   34.0920 O   0  0  0  0  0  0  0  0  0  0  0  0
   52.3417   54.0213   27.3451 N   0  0  0  0  0  0  0  0  0  0  0  0
   52.4439   55.2849   27.7717 C   0  0  0  0  0  0  0  0  0  0  0  0
   51.4194   56.1201   27.7003 N   0  0  0  0  0  0  0  0  0  0  0  0
   50.2454   55.7437   27.1671 C   0  0  0  0  0  0  0  0  0  0  0  0
   50.0925   54.4173   26.6878 C   0  0  0  0  0  0  0  0  0  0  0  0
   51.2079   53.5495   26.8012 C   0  0  0  0  0  0  0  0  0  0  0  0
   51.1328   52.2473   26.3603 N   0  0  0  0  0  0  0  0  0  0  0  0
   48.8382   54.3039   26.2071 N   0  0  0  0  0  0  0  0  0  0  0  0
   48.2248   55.4428   26.3449 C   0  0  0  0  0  0  0  0  0  0  0  0
   49.0426   56.3654   26.9358 N   0  0  0  0  0  0  0  0  0  0  0  0
  2  1  1  6  0  0  0
  2  3  1  0  0  0  0
  2  5  1  0  0  0  0
  3  4  1  0  0  0  0
  3 17  1  0  0  0  0
  5  6  1  0  0  0  0
  7  6  1  1  0  0  0
  7  8  1  0  0  0  0
  7  9  1  0  0  0  0
 10  9  1  1  0  0  0
 10 11  1  0  0  0  0
 10 12  1  0  0  0  0
 11 16  1  0  0  0  0
 12 13  1  6  0  0  0
 12 14  1  0  0  0  0
 14 15  1  6  0  0  0
 14 16  1  0  0  0  0
 16 27  1  1  0  0  0
 18 19  2  0  0  0  0
 18 23  1  0  0  0  0
 19 20  1  0  0  0  0
 20 21  2  0  0  0  0
 21 22  1  0  0  0  0
 21 27  1  0  0  0  0
 22 23  2  0  0  0  0
 22 25  1  0  0  0  0
 23 24  1  0  0  0  0
 25 26  2  0  0  0  0
 26 27  1  0  0  0  0
M  END
>  <CHROM.1>
159.67060351,-165.04692146,-168.97234395,-176.05915603,167.92030273,94.83293797
-38.44333370,49.02767216,56.64836172,29.88375281,-1.95494793,1.01246105,-1.47639276

>  <Name>
ligand

>  <RI>
0

>  <Rbt.Current_Directory>
/home/itssahil/PROJECTS/Mol_Feturizer/New_Systems/rnas/2GIS

>  <Rbt.Executable>
rbdock ($Id: //depot/dev/client3/rdock/2013.1/src/exe/rbdock.cxx#4 $)

>  <Rbt.Library>
libRbt.so (2013.1, Build901 2013/11/27)

>  <Rbt.Parameter_File>
/export/apps/rDock/src/rDock_2013.1_src/data/scripts/dock_solv.prm

>  <Rbt.Receptor>
prm/pocket_docking_7.prm

>  <SCORE>
-17.0826

>  <SCORE.INTER>
-14.3214

>  <SCORE.INTER.CONST>
1

>  <SCORE.INTER.POLAR>
0

>  <SCORE.INTER.ROT>
7

>  <SCORE.INTER.SOLV>
16.0854

>  <SCORE.INTER.VDW>
-23.1761

>  <SCORE.INTER.norm>
-0.530421

>  <SCORE.INTRA>
-2.7612

>  <SCORE.INTRA.DIHEDRAL>
-1.15314

>  <SCORE.INTRA.DIHEDRAL.0>
9.40024

>  <SCORE.INTRA.POLAR>
0

>  <SCORE.INTRA.POLAR.0>
0

>  <SCORE.INTRA.REPUL>
0

>  <SCORE.INTRA.REPUL.0>
0

>  <SCORE.INTRA.SOLV>
-3.0605

>  <SCORE.INTRA.SOLV.lig_0>
-47.1049

>  <SCORE.INTRA.VDW>
-0.654383

>  <SCORE.INTRA.VDW.0>
-1.50278

>  <SCORE.INTRA.norm>
-0.102267

>  <SCORE.RESTR>
0

>  <SCORE.RESTR.CAVITY>
0

>  <SCORE.RESTR.norm>
0

>  <SCORE.SYSTEM>
0

>  <SCORE.SYSTEM.CONST>
0

>  <SCORE.SYSTEM.DIHEDRAL>
0

>  <SCORE.SYSTEM.SOLV>
0

>  <SCORE.SYSTEM.norm>
0

>  <SCORE.heavy>
27

>  <SCORE.norm>
-0.632688

>  <RMSD>
7.397

$$$$
ligand
 OpenBabel11021811433D
libRbt.so/2013.1/901 2013/11/27
 27 29  0  0  0  0  0  0  0  0999 V2000
   49.7823   54.5691   36.3637 N   0  0  0  0  0  0  0  0  0  0  0  0
   48.8654   54.9643   35.2899 C   0  0  2  0  0  0  0  0  0  0  0  0
   48.3927   53.7275   34.5468 C   0  0  0  0  0  0  0  0  0  0  0  0
   49.1634   53.1265   33.8036 O   0  0  0  0  0  0  0  0  0  0  0  0
   49.5564   55.9320   34.3086 C   0  0  0  0  0  0  0  0  0  0  0  0
   48.5641   56.3359   33.2192 C   0  0  0  0  0  0  0  0  0  0  0  0
   49.2605   57.3759   31.8710 S   0  0  2  0  0  0  0  0  0  0  0  0
   49.1289   59.0751   32.5093 C   0  0  0  0  0  0  0  0  0  0  0  0
   47.8122   57.2876   30.7970 C   0  0  0  0  0  0  0  0  0  0  0  0
   47.9071   58.1863   29.5519 C   0  0  1  0  0  0  0  0  0  0  0  0
   49.0838   57.8065   28.7786 O   0  0  0  0  0  0  0  0  0  0  0  0
   46.7164   57.7511   28.7368 C   0  0  1  0  0  0  0  0  0  0  0  0
   45.6195   58.6343   28.9721 O   0  0  0  0  0  0  0  0  0  0  0  0
   47.1934   57.8693   27.2945 C   0  0  1  0  0  0  0  0  0  0  0  0
   46.7980   59.0990   26.6979 O   0  0  0  0  0  0  0  0  0  0  0  0
   48.7608   57.7537   27.3389 C   0  0  2  0  0  0  0  0  0  0  0  0
   47.2210   53.3602   34.6364 O   0  0  0  0  0  0  0  0  0  0  0  0
   51.5850   53.4446   28.3572 N   0  0  0  0  0  0  0  0  0  0  0  0
   51.3557   54.4836   29.1676 C   0  0  0  0  0  0  0  0  0  0  0  0
   50.6029   55.5025   28.7837 N   0  0  0  0  0  0  0  0  0  0  0  0
   50.0651   55.5510   27.5537 C   0  0  0  0  0  0  0  0  0  0  0  0
   50.2917   54.4790   26.6528 C   0  0  0  0  0  0  0  0  0  0  0  0
   51.0871   53.3983   27.1107 C   0  0  0  0  0  0  0  0  0  0  0  0
   51.3472   52.3215   26.2931 N   0  0  0  0  0  0  0  0  0  0  0  0
   49.6524   54.7755   25.5036 N   0  0  0  0  0  0  0  0  0  0  0  0
   49.0693   55.9318   25.6269 C   0  0  0  0  0  0  0  0  0  0  0  0
   49.2857   56.4535   26.8720 N   0  0  0  0  0  0  0  0  0  0  0  0
  2  1  1  1  0  0  0
  2  3  1  0  0  0  0
  2  5  1  0  0  0  0
  3  4  1  0  0  0  0
  3 17  1  0  0  0  0
  5  6  1  0  0  0  0
  7  6  1  1  0  0  0
  7  8  1  0  0  0  0
  7  9  1  0  0  0  0
 10  9  1  1  0  0  0
 10 11  1  0  0  0  0
 10 12  1  0  0  0  0
 11 16  1  0  0  0  0
 12 13  1  6  0  0  0
 12 14  1  0  0  0  0
 14 15  1  1  0  0  0
 14 16  1  0  0  0  0
 16 27  1  1  0  0  0
 18 19  2  0  0  0  0
 18 23  1  0  0  0  0
 19 20  1  0  0  0  0
 20 21  2  0  0  0  0
 21 22  1  0  0  0  0
 21 27  1  0  0  0  0
 22 23  2  0  0  0  0
 22 25  1  0  0  0  0
 23 24  1  0  0  0  0
 25 26  2  0  0  0  0
 26 27  1  0  0  0  0
M  END
>  <CHROM.1>
-72.34334632,-179.14791076,-174.83155162,-86.07717222,173.69191499,58.56673360
-8.04296560,48.99996040,56.00811187,30.03994502,-1.64769308,0.99133127,-1.36933971

>  <Name>
ligand

>  <RI>
0

>  <Rbt.Current_Directory>
/home/itssahil/PROJECTS/Mol_Feturizer/New_Systems/rnas/2GIS

>  <Rbt.Executable>
rbdock ($Id: //depot/dev/client3/rdock/2013.1/src/exe/rbdock.cxx#4 $)

>  <Rbt.Library>
libRbt.so (2013.1, Build901 2013/11/27)

>  <Rbt.Parameter_File>
/export/apps/rDock/src/rDock_2013.1_src/data/scripts/dock_solv.prm

>  <Rbt.Receptor>
prm/pocket_docking_5.prm

>  <SCORE>
-15.1107

>  <SCORE.INTER>
-10.2684

>  <SCORE.INTER.CONST>
1

>  <SCORE.INTER.POLAR>
0

>  <SCORE.INTER.ROT>
7

>  <SCORE.INTER.SOLV>
15.8503

>  <SCORE.INTER.VDW>
-20.3957

>  <SCORE.INTER.norm>
-0.380312

>  <SCORE.INTRA>
-4.84224

>  <SCORE.INTRA.DIHEDRAL>
-5.16974

>  <SCORE.INTRA.DIHEDRAL.0>
9.40024

>  <SCORE.INTRA.POLAR>
0

>  <SCORE.INTRA.POLAR.0>
0

>  <SCORE.INTRA.REPUL>
0

>  <SCORE.INTRA.REPUL.0>
0

>  <SCORE.INTRA.SOLV>
-3.11803

>  <SCORE.INTRA.SOLV.lig_0>
-47.1049

>  <SCORE.INTRA.VDW>
-0.69835

>  <SCORE.INTRA.VDW.0>
-1.50278

>  <SCORE.INTRA.norm>
-0.179342

>  <SCORE.RESTR>
0

>  <SCORE.RESTR.CAVITY>
0

>  <SCORE.RESTR.norm>
0

>  <SCORE.SYSTEM>
0

>  <SCORE.SYSTEM.CONST>
0

>  <SCORE.SYSTEM.DIHEDRAL>
0

>  <SCORE.SYSTEM.SOLV>
0

>  <SCORE.SYSTEM.norm>
0

>  <SCORE.heavy>
27

>  <SCORE.norm>
-0.559654

>  <RMSD>
7.401

$$$$
ligand
 OpenBabel11021811433D
libRbt.so/2013.1/901 2013/11/27
 27 29  0  0  0  0  0  0  0  0999 V2000
   45.4101   53.4548   38.0760 N   0  0  0  0  0  0  0  0  0  0  0  0
   45.7734   53.4553   36.6554 C   0  0  2  0  0  0  0  0  0  0  0  0
   44.7843   52.6039   35.8795 C   0  0  0  0  0  0  0  0  0  0  0  0
   44.6729   52.7463   34.6651 O   0  0  0  0  0  0  0  0  0  0  0  0
   47.2019   52.9110   36.4555 C   0  0  0  0  0  0  0  0  0  0  0  0
   47.6660   53.2287   35.0348 C   0  0  0  0  0  0  0  0  0  0  0  0
   47.8109   55.0195   34.6396 S   0  0  2  0  0  0  0  0  0  0  0  0
   46.1398   55.4890   34.0926 C   0  0  0  0  0  0  0  0  0  0  0  0
   48.6519   54.7964   33.0579 C   0  0  0  0  0  0  0  0  0  0  0  0
   49.1365   56.1108   32.4218 C   0  0  1  0  0  0  0  0  0  0  0  0
   50.3461   55.8492   31.6503 O   0  0  0  0  0  0  0  0  0  0  0  0
   48.0572   56.4093   31.4132 C   0  0  1  0  0  0  0  0  0  0  0  0
   47.1154   57.3273   31.9691 O   0  0  0  0  0  0  0  0  0  0  0  0
   48.8047   57.0533   30.2522 C   0  0  1  0  0  0  0  0  0  0  0  0
   48.7569   58.4744   30.3058 O   0  0  0  0  0  0  0  0  0  0  0  0
   50.2894   56.5449   30.3493 C   0  0  2  0  0  0  0  0  0  0  0  0
   44.0471   51.8150   36.4712 O   0  0  0  0  0  0  0  0  0  0  0  0
   49.7066   51.6388   28.5683 N   0  0  0  0  0  0  0  0  0  0  0  0
   49.1242   52.1971   29.6352 C   0  0  0  0  0  0  0  0  0  0  0  0
   49.3497   53.4605   29.9595 N   0  0  0  0  0  0  0  0  0  0  0  0
   50.1970   54.2246   29.2506 C   0  0  0  0  0  0  0  0  0  0  0  0
   50.8499   53.6731   28.1185 C   0  0  0  0  0  0  0  0  0  0  0  0
   50.5653   52.3225   27.7943 C   0  0  0  0  0  0  0  0  0  0  0  0
   51.1591   51.7205   26.7077 N   0  0  0  0  0  0  0  0  0  0  0  0
   51.6360   54.6359   27.5969 N   0  0  0  0  0  0  0  0  0  0  0  0
   51.5232   55.7138   28.3164 C   0  0  0  0  0  0  0  0  0  0  0  0
   50.6452   55.5195   29.3462 N   0  0  0  0  0  0  0  0  0  0  0  0
  2  1  1  1  0  0  0
  2  3  1  0  0  0  0
  2  5  1  0  0  0  0
  3  4  1  0  0  0  0
  3 17  1  0  0  0  0
  5  6  1  0  0  0  0
  7  6  1  6  0  0  0
  7  8  1  0  0  0  0
  7  9  1  0  0  0  0
 10  9  1  6  0  0  0
 10 11  1  0  0  0  0
 10 12  1  0  0  0  0
 11 16  1  0  0  0  0
 12 13  1  1  0  0  0
 12 14  1  0  0  0  0
 14 15  1  1  0  0  0
 14 16  1  0  0  0  0
 16 27  1  6  0  0  0
 18 19  2  0  0  0  0
 18 23  1  0  0  0  0
 19 20  1  0  0  0  0
 20 21  2  0  0  0  0
 21 22  1  0  0  0  0
 21 27  1  0  0  0  0
 22 23  2  0  0  0  0
 22 25  1  0  0  0  0
 23 24  1  0  0  0  0
 25 26  2  0  0  0  0
 26 27  1  0  0  0  0
M  END
>  <CHROM.1>
160.37170599,-166.75635737,63.37553118,-86.76356340,-172.92369033,148.87729019
45.05155999,48.39056087,54.44818605,32.02680780,3.07891013,0.99884832,0.19931086

>  <Name>
ligand

>  <RI>
0

>  <Rbt.Current_Directory>
/home/itssahil/PROJECTS/Mol_Feturizer/New_Systems/rnas/2GIS

>  <Rbt.Executable>
rbdock ($Id: //depot/dev/client3/rdock/2013.1/src/exe/rbdock.cxx#4 $)

>  <Rbt.Library>
libRbt.so (2013.1, Build901 2013/11/27)

>  <Rbt.Parameter_File>
/export/apps/rDock/src/rDock_2013.1_src/data/scripts/dock_solv.prm

>  <Rbt.Receptor>
prm/pocket_docking_5.prm

>  <SCORE>
-14.1934

>  <SCORE.INTER>
-10.8691

>  <SCORE.INTER.CONST>
1

>  <SCORE.INTER.POLAR>
0

>  <SCORE.INTER.ROT>
7

>  <SCORE.INTER.SOLV>
12.1294

>  <SCORE.INTER.VDW>
-19.5559

>  <SCORE.INTER.norm>
-0.402559

>  <SCORE.INTRA>
-3.32886

>  <SCORE.INTRA.DIHEDRAL>
-1.27168

>  <SCORE.INTRA.DIHEDRAL.0>
9.40024

>  <SCORE.INTRA.POLAR>
0

>  <SCORE.INTRA.POLAR.0>
0

>  <SCORE.INTRA.REPUL>
0

>  <SCORE.INTRA.REPUL.0>
0

>  <SCORE.INTRA.SOLV>
-2.39927

>  <SCORE.INTRA.SOLV.lig_0>
-47.1049

>  <SCORE.INTRA.VDW>
-1.49338

>  <SCORE.INTRA.VDW.0>
-1.50278

>  <SCORE.INTRA.norm>
-0.123291

>  <SCORE.RESTR>
0.00451755

>  <SCORE.RESTR.CAVITY>
0.00451755

>  <SCORE.RESTR.norm>
0.000167317

>  <SCORE.SYSTEM>
0

>  <SCORE.SYSTEM.CONST>
0

>  <SCORE.SYSTEM.DIHEDRAL>
0

>  <SCORE.SYSTEM.SOLV>
0

>  <SCORE.SYSTEM.norm>
0

>  <SCORE.heavy>
27

>  <SCORE.norm>
-0.525683

>  <RMSD>
7.451

$$$$
ligand
 OpenBabel11021811433D
libRbt.so/2013.1/901 2013/11/27
 27 29  0  0  0  0  0  0  0  0999 V2000
   42.1274   53.3605   33.1043 N   0  0  0  0  0  0  0  0  0  0  0  0
   43.5648   53.5059   33.3545 C   0  0  2  0  0  0  0  0  0  0  0  0
   43.8269   53.4509   34.8490 C   0  0  0  0  0  0  0  0  0  0  0  0
   43.0893   54.0536   35.6237 O   0  0  0  0  0  0  0  0  0  0  0  0
   44.0885   54.8374   32.7802 C   0  0  0  0  0  0  0  0  0  0  0  0
   45.6067   54.8920   32.9430 C   0  0  0  0  0  0  0  0  0  0  0  0
   46.3974   56.4617   32.3997 S   0  0  2  0  0  0  0  0  0  0  0  0
   45.3058   57.7594   33.0603 C   0  0  0  0  0  0  0  0  0  0  0  0
   45.8411   56.3697   30.6848 C   0  0  0  0  0  0  0  0  0  0  0  0
   46.4025   57.4878   29.7894 C   0  0  1  0  0  0  0  0  0  0  0  0
   47.8500   57.3391   29.6925 O   0  0  0  0  0  0  0  0  0  0  0  0
   45.8566   57.1306   28.4307 C   0  0  1  0  0  0  0  0  0  0  0  0
   44.6671   57.8778   28.1750 O   0  0  0  0  0  0  0  0  0  0  0  0
   46.9620   57.5461   27.4679 C   0  0  1  0  0  0  0  0  0  0  0  0
   46.7318   58.8351   26.9111 O   0  0  0  0  0  0  0  0  0  0  0  0
   48.2969   57.5318   28.2986 C   0  0  2  0  0  0  0  0  0  0  0  0
   44.8133   52.8564   35.2843 O   0  0  0  0  0  0  0  0  0  0  0  0
   48.9238   52.3209   28.1116 N   0  0  0  0  0  0  0  0  0  0  0  0
   47.8315   53.0016   28.4757 C   0  0  0  0  0  0  0  0  0  0  0  0
   47.8077   54.3250   28.4572 N   0  0  0  0  0  0  0  0  0  0  0  0
   48.8887   55.0396   28.1036 C   0  0  0  0  0  0  0  0  0  0  0  0
   50.0758   54.3629   27.7228 C   0  0  0  0  0  0  0  0  0  0  0  0
   50.0526   52.9453   27.7375 C   0  0  0  0  0  0  0  0  0  0  0  0
   51.1665   52.2205   27.3775 N   0  0  0  0  0  0  0  0  0  0  0  0
   50.9967   55.3006   27.4233 N   0  0  0  0  0  0  0  0  0  0  0  0
   50.4757   56.4799   27.5976 C   0  0  0  0  0  0  0  0  0  0  0  0
   49.1766   56.3795   28.0114 N   0  0  0  0  0  0  0  0  0  0  0  0
  2  1  1  1  0  0  0
  2  3  1  0  0  0  0
  2  5  1  0  0  0  0
  3  4  1  0  0  0  0
  3 17  1  0  0  0  0
  5  6  1  0  0  0  0
  7  6  1  1  0  0  0
  7  8  1  0  0  0  0
  7  9  1  0  0  0  0
 10  9  1  1  0  0  0
 10 11  1  0  0  0  0
 10 12  1  0  0  0  0
 11 16  1  0  0  0  0
 12 13  1  6  0  0  0
 12 14  1  0  0  0  0
 14 15  1  1  0  0  0
 14 16  1  0  0  0  0
 16 27  1  6  0  0  0
 18 19  2  0  0  0  0
 18 23  1  0  0  0  0
 19 20  1  0  0  0  0
 20 21  2  0  0  0  0
 21 22  1  0  0  0  0
 21 27  1  0  0  0  0
 22 23  2  0  0  0  0
 22 25  1  0  0  0  0
 23 24  1  0  0  0  0
 25 26  2  0  0  0  0
 26 27  1  0  0  0  0
M  END
>  <CHROM.1>
-42.80206588,-174.70886965,-176.53981364,43.58532029,-175.03906418,64.71198840
56.45849003,46.81235633,55.41986735,30.25031282,-2.62498623,0.76036419,-0.53332470

>  <Name>
ligand

>  <RI>
0

>  <Rbt.Current_Directory>
/home/itssahil/PROJECTS/Mol_Feturizer/New_Systems/rnas/2GIS

>  <Rbt.Executable>
rbdock ($Id: //depot/dev/client3/rdock/2013.1/src/exe/rbdock.cxx#4 $)

>  <Rbt.Library>
libRbt.so (2013.1, Build901 2013/11/27)

>  <Rbt.Parameter_File>
/export/apps/rDock/src/rDock_2013.1_src/data/scripts/dock_solv.prm

>  <Rbt.Receptor>
prm/pocket_docking_8.prm

>  <SCORE>
-9.30356

>  <SCORE.INTER>
-4.38236

>  <SCORE.INTER.CONST>
1

>  <SCORE.INTER.POLAR>
0

>  <SCORE.INTER.ROT>
7

>  <SCORE.INTER.SOLV>
11.5467

>  <SCORE.INTER.VDW>
-15.0371

>  <SCORE.INTER.norm>
-0.16231

>  <SCORE.INTRA>
-4.92119

>  <SCORE.INTRA.DIHEDRAL>
-5.4533

>  <SCORE.INTRA.DIHEDRAL.0>
9.40024

>  <SCORE.INTRA.POLAR>
0

>  <SCORE.INTRA.POLAR.0>
0

>  <SCORE.INTRA.REPUL>
0

>  <SCORE.INTRA.REPUL.0>
0

>  <SCORE.INTRA.SOLV>
-3.12611

>  <SCORE.INTRA.SOLV.lig_0>
-47.1049

>  <SCORE.INTRA.VDW>
-0.631487

>  <SCORE.INTRA.VDW.0>
-1.50278

>  <SCORE.INTRA.norm>
-0.182266

>  <SCORE.RESTR>
0

>  <SCORE.RESTR.CAVITY>
0

>  <SCORE.RESTR.norm>
0

>  <SCORE.SYSTEM>
0

>  <SCORE.SYSTEM.CONST>
0

>  <SCORE.SYSTEM.DIHEDRAL>
0

>  <SCORE.SYSTEM.SOLV>
0

>  <SCORE.SYSTEM.norm>
0

>  <SCORE.heavy>
27

>  <SCORE.norm>
-0.344576

>  <RMSD>
7.454

$$$$
ligand
 OpenBabel11021811433D
libRbt.so/2013.1/901 2013/11/27
 27 29  0  0  0  0  0  0  0  0999 V2000
   49.2375   54.8588   36.8196 N   0  0  0  0  0  0  0  0  0  0  0  0
   48.5989   55.1061   35.5230 C   0  0  2  0  0  0  0  0  0  0  0  0
   47.1542   54.6418   35.5732 C   0  0  0  0  0  0  0  0  0  0  0  0
   46.8599   53.6180   36.1838 O   0  0  0  0  0  0  0  0  0  0  0  0
   49.3468   54.3681   34.3948 C   0  0  0  0  0  0  0  0  0  0  0  0
   48.7645   54.7900   33.0466 C   0  0  0  0  0  0  0  0  0  0  0  0
   49.4359   56.3587   32.3592 S   0  0  2  0  0  0  0  0  0  0  0  0
   48.9834   57.6141   33.5966 C   0  0  0  0  0  0  0  0  0  0  0  0
   48.1397   56.5942   31.1251 C   0  0  0  0  0  0  0  0  0  0  0  0
   48.4785   57.6552   30.0637 C   0  0  1  0  0  0  0  0  0  0  0  0
   49.6365   57.2096   29.2972 O   0  0  0  0  0  0  0  0  0  0  0  0
   47.3026   57.5729   29.1247 C   0  0  1  0  0  0  0  0  0  0  0  0
   46.3477   58.5818   29.4548 O   0  0  0  0  0  0  0  0  0  0  0  0
   47.9066   57.8421   27.7520 C   0  0  1  0  0  0  0  0  0  0  0  0
   47.7648   59.2028   27.3612 O   0  0  0  0  0  0  0  0  0  0  0  0
   49.4260   57.4509   27.8560 C   0  0  2  0  0  0  0  0  0  0  0  0
   46.2846   55.2523   34.9513 O   0  0  0  0  0  0  0  0  0  0  0  0
   52.1813   52.9805   27.9221 N   0  0  0  0  0  0  0  0  0  0  0  0
   52.1879   53.9598   28.8331 C   0  0  0  0  0  0  0  0  0  0  0  0
   51.4223   55.0311   28.6970 N   0  0  0  0  0  0  0  0  0  0  0  0
   50.6318   55.1946   27.6234 C   0  0  0  0  0  0  0  0  0  0  0  0
   50.6010   54.1896   26.6227 C   0  0  0  0  0  0  0  0  0  0  0  0
   51.4213   53.0496   26.8170 C   0  0  0  0  0  0  0  0  0  0  0  0
   51.4412   52.0320   25.8896 N   0  0  0  0  0  0  0  0  0  0  0  0
   49.7420   54.5974   25.6673 N   0  0  0  0  0  0  0  0  0  0  0  0
   49.2596   55.7598   25.9965 C   0  0  0  0  0  0  0  0  0  0  0  0
   49.7692   56.1742   27.1955 N   0  0  0  0  0  0  0  0  0  0  0  0
  2  1  1  1  0  0  0
  2  3  1  0  0  0  0
  2  5  1  0  0  0  0
  3  4  1  0  0  0  0
  3 17  1  0  0  0  0
  5  6  1  0  0  0  0
  7  6  1  1  0  0  0
  7  8  1  0  0  0  0
  7  9  1  0  0  0  0
 10  9  1  1  0  0  0
 10 11  1  0  0  0  0
 10 12  1  0  0  0  0
 11 16  1  0  0  0  0
 12 13  1  1  0  0  0
 12 14  1  0  0  0  0
 14 15  1  1  0  0  0
 14 16  1  0  0  0  0
 16 27  1  6  0  0  0
 18 19  2  0  0  0  0
 18 23  1  0  0  0  0
 19 20  1  0  0  0  0
 20 21  2  0  0  0  0
 21 22  1  0  0  0  0
 21 27  1  0  0  0  0
 22 23  2  0  0  0  0
 22 25  1  0  0  0  0
 23 24  1  0  0  0  0
 25 26  2  0  0  0  0
 26 27  1  0  0  0  0
M  END
>  <CHROM.1>
-38.10954708,-172.85654363,83.43267713,-61.52073194,-166.28120882,63.74641746
-26.92023671,49.14100844,55.70320335,30.40505020,-2.02227657,0.92855901,-1.20080730

>  <Name>
ligand

>  <RI>
0

>  <Rbt.Current_Directory>
/home/itssahil/PROJECTS/Mol_Feturizer/New_Systems/rnas/2GIS

>  <Rbt.Executable>
rbdock ($Id: //depot/dev/client3/rdock/2013.1/src/exe/rbdock.cxx#4 $)

>  <Rbt.Library>
libRbt.so (2013.1, Build901 2013/11/27)

>  <Rbt.Parameter_File>
/export/apps/rDock/src/rDock_2013.1_src/data/scripts/dock_solv.prm

>  <Rbt.Receptor>
prm/pocket_docking_4.prm

>  <SCORE>
-11.8511

>  <SCORE.INTER>
-8.15113

>  <SCORE.INTER.CONST>
1

>  <SCORE.INTER.POLAR>
0

>  <SCORE.INTER.ROT>
7

>  <SCORE.INTER.SOLV>
14.0941

>  <SCORE.INTER.VDW>
-18.3988

>  <SCORE.INTER.norm>
-0.301894

>  <SCORE.INTRA>
-3.71032

>  <SCORE.INTRA.DIHEDRAL>
-2.91898

>  <SCORE.INTRA.DIHEDRAL.0>
9.40024

>  <SCORE.INTRA.POLAR>
0

>  <SCORE.INTRA.POLAR.0>
0

>  <SCORE.INTRA.REPUL>
0

>  <SCORE.INTRA.REPUL.0>
0

>  <SCORE.INTRA.SOLV>
-2.65415

>  <SCORE.INTRA.SOLV.lig_0>
-47.1049

>  <SCORE.INTRA.VDW>
-0.923757

>  <SCORE.INTRA.VDW.0>
-1.50278

>  <SCORE.INTRA.norm>
-0.137419

>  <SCORE.RESTR>
0.0103668

>  <SCORE.RESTR.CAVITY>
0.0103668

>  <SCORE.RESTR.norm>
0.000383954

>  <SCORE.SYSTEM>
0

>  <SCORE.SYSTEM.CONST>
0

>  <SCORE.SYSTEM.DIHEDRAL>
0

>  <SCORE.SYSTEM.SOLV>
0

>  <SCORE.SYSTEM.norm>
0

>  <SCORE.heavy>
27

>  <SCORE.norm>
-0.438929

>  <RMSD>
7.519

$$$$
ligand
 OpenBabel11021811433D
libRbt.so/2013.1/901 2013/11/27
 27 29  0  0  0  0  0  0  0  0999 V2000
   46.5426   58.1976   32.5222 N   0  0  0  0  0  0  0  0  0  0  0  0
   46.3656   56.8431   31.9893 C   0  0  2  0  0  0  0  0  0  0  0  0
   45.9339   56.9232   30.5359 C   0  0  0  0  0  0  0  0  0  0  0  0
   45.2626   57.8749   30.1470 O   0  0  0  0  0  0  0  0  0  0  0  0
   45.3131   56.0668   32.8057 C   0  0  0  0  0  0  0  0  0  0  0  0
   45.2514   54.6251   32.3036 C   0  0  0  0  0  0  0  0  0  0  0  0
   43.9420   53.5838   33.0689 S   0  0  2  0  0  0  0  0  0  0  0  0
   42.4701   54.6541   33.0715 C   0  0  0  0  0  0  0  0  0  0  0  0
   44.5202   53.7723   34.7686 C   0  0  0  0  0  0  0  0  0  0  0  0
   43.7303   52.9349   35.7893 C   0  0  1  0  0  0  0  0  0  0  0  0
   44.6264   52.5244   36.8642 O   0  0  0  0  0  0  0  0  0  0  0  0
   42.7925   53.9476   36.3947 C   0  0  1  0  0  0  0  0  0  0  0  0
   41.5226   53.8804   35.7455 O   0  0  0  0  0  0  0  0  0  0  0  0
   42.6688   53.5125   37.8498 C   0  0  1  0  0  0  0  0  0  0  0  0
   41.5090   52.7198   38.0757 O   0  0  0  0  0  0  0  0  0  0  0  0
   43.9712   52.6944   38.1763 C   0  0  2  0  0  0  0  0  0  0  0  0
   46.1997   56.0062   29.7585 O   0  0  0  0  0  0  0  0  0  0  0  0
   48.9040   54.3717   38.8361 N   0  0  0  0  0  0  0  0  0  0  0  0
   48.4108   53.6598   37.8169 C   0  0  0  0  0  0  0  0  0  0  0  0
   47.1324   53.3193   37.7706 N   0  0  0  0  0  0  0  0  0  0  0  0
   46.2848   53.6460   38.7601 C   0  0  0  0  0  0  0  0  0  0  0  0
   46.7640   54.3888   39.8696 C   0  0  0  0  0  0  0  0  0  0  0  0
   48.1350   54.7501   39.8703 C   0  0  0  0  0  0  0  0  0  0  0  0
   48.6705   55.4736   40.9121 N   0  0  0  0  0  0  0  0  0  0  0  0
   45.7255   54.5775   40.7080 N   0  0  0  0  0  0  0  0  0  0  0  0
   44.6670   54.0088   40.2094 C   0  0  0  0  0  0  0  0  0  0  0  0
   44.9520   53.4237   39.0071 N   0  0  0  0  0  0  0  0  0  0  0  0
  2  1  1  1  0  0  0
  2  3  1  0  0  0  0
  2  5  1  0  0  0  0
  3  4  1  0  0  0  0
  3 17  1  0  0  0  0
  5  6  1  0  0  0  0
  7  6  1  6  0  0  0
  7  8  1  0  0  0  0
  7  9  1  0  0  0  0
 10  9  1  6  0  0  0
 10 11  1  0  0  0  0
 10 12  1  0  0  0  0
 11 16  1  0  0  0  0
 12 13  1  6  0  0  0
 12 14  1  0  0  0  0
 14 15  1  6  0  0  0
 14 16  1  0  0  0  0
 16 27  1  1  0  0  0
 18 19  2  0  0  0  0
 18 23  1  0  0  0  0
 19 20  1  0  0  0  0
 20 21  2  0  0  0  0
 21 22  1  0  0  0  0
 21 27  1  0  0  0  0
 22 23  2  0  0  0  0
 22 25  1  0  0  0  0
 23 24  1  0  0  0  0
 25 26  2  0  0  0  0
 26 27  1  0  0  0  0
M  END
>  <CHROM.1>
-30.80204572,-174.79550139,-174.97729977,44.44496116,-175.56362608,147.52017501
-13.29524605,45.13690926,54.49683204,35.80959184,-1.68716662,0.42623842,1.88939736

>  <Name>
ligand

>  <RI>
0

>  <Rbt.Current_Directory>
/home/itssahil/PROJECTS/Mol_Feturizer/New_Systems/rnas/2GIS

>  <Rbt.Executable>
rbdock ($Id: //depot/dev/client3/rdock/2013.1/src/exe/rbdock.cxx#4 $)

>  <Rbt.Library>
libRbt.so (2013.1, Build901 2013/11/27)

>  <Rbt.Parameter_File>
/export/apps/rDock/src/rDock_2013.1_src/data/scripts/dock_solv.prm

>  <Rbt.Receptor>
prm/pocket_docking_8.prm

>  <SCORE>
-11.0115

>  <SCORE.INTER>
-8.74369

>  <SCORE.INTER.CONST>
1

>  <SCORE.INTER.POLAR>
0

>  <SCORE.INTER.ROT>
7

>  <SCORE.INTER.SOLV>
13.1897

>  <SCORE.INTER.VDW>
-18.4924

>  <SCORE.INTER.norm>
-0.32384

>  <SCORE.INTRA>
-2.26779

>  <SCORE.INTRA.DIHEDRAL>
-2.83574

>  <SCORE.INTRA.DIHEDRAL.0>
9.40024

>  <SCORE.INTRA.POLAR>
0

>  <SCORE.INTRA.POLAR.0>
0

>  <SCORE.INTRA.REPUL>
0

>  <SCORE.INTRA.REPUL.0>
0

>  <SCORE.INTRA.SOLV>
-2.82544

>  <SCORE.INTRA.SOLV.lig_0>
-47.1049

>  <SCORE.INTRA.VDW>
0.562801

>  <SCORE.INTRA.VDW.0>
-1.50278

>  <SCORE.INTRA.norm>
-0.0839923

>  <SCORE.RESTR>
0

>  <SCORE.RESTR.CAVITY>
0

>  <SCORE.RESTR.norm>
0

>  <SCORE.SYSTEM>
0

>  <SCORE.SYSTEM.CONST>
0

>  <SCORE.SYSTEM.DIHEDRAL>
0

>  <SCORE.SYSTEM.SOLV>
0

>  <SCORE.SYSTEM.norm>
0

>  <SCORE.heavy>
27

>  <SCORE.norm>
-0.407833

>  <RMSD>
7.538

$$$$
ligand
 OpenBabel11021811433D
libRbt.so/2013.1/901 2013/11/27
 27 29  0  0  0  0  0  0  0  0999 V2000
   44.9152   53.6612   36.0503 N   0  0  0  0  0  0  0  0  0  0  0  0
   45.6707   53.7406   34.7962 C   0  0  2  0  0  0  0  0  0  0  0  0
   47.0129   53.0522   34.9692 C   0  0  0  0  0  0  0  0  0  0  0  0
   47.3450   52.6237   36.0708 O   0  0  0  0  0  0  0  0  0  0  0  0
   45.8858   55.2091   34.3788 C   0  0  0  0  0  0  0  0  0  0  0  0
   46.2024   55.2653   32.8851 C   0  0  0  0  0  0  0  0  0  0  0  0
   46.7287   56.9123   32.2569 S   0  0  2  0  0  0  0  0  0  0  0  0
   45.2899   57.9838   32.5632 C   0  0  0  0  0  0  0  0  0  0  0  0
   46.5152   56.5240   30.5069 C   0  0  0  0  0  0  0  0  0  0  0  0
   46.8929   57.6797   29.5641 C   0  0  1  0  0  0  0  0  0  0  0  0
   48.3361   57.6709   29.3539 O   0  0  0  0  0  0  0  0  0  0  0  0
   46.2801   57.2538   28.2547 C   0  0  1  0  0  0  0  0  0  0  0  0
   45.0069   57.8786   28.0899 O   0  0  0  0  0  0  0  0  0  0  0  0
   47.2610   57.7621   27.2054 C   0  0  1  0  0  0  0  0  0  0  0  0
   46.8631   59.0154   26.6619 O   0  0  0  0  0  0  0  0  0  0  0  0
   48.6517   57.8881   27.9281 C   0  0  2  0  0  0  0  0  0  0  0  0
   47.7981   52.9777   34.0237 O   0  0  0  0  0  0  0  0  0  0  0  0
   50.4811   54.5137   24.3437 N   0  0  0  0  0  0  0  0  0  0  0  0
   49.4770   55.3869   24.2088 C   0  0  0  0  0  0  0  0  0  0  0  0
   49.1321   56.1968   25.1974 N   0  0  0  0  0  0  0  0  0  0  0  0
   49.7539   56.1532   26.3872 C   0  0  0  0  0  0  0  0  0  0  0  0
   50.8161   55.2337   26.5836 C   0  0  0  0  0  0  0  0  0  0  0  0
   51.1667   54.3984   25.4929 C   0  0  0  0  0  0  0  0  0  0  0  0
   52.1893   53.4838   25.6086 N   0  0  0  0  0  0  0  0  0  0  0  0
   51.2576   55.3910   27.8475 N   0  0  0  0  0  0  0  0  0  0  0  0
   50.5528   56.3145   28.4329 C   0  0  0  0  0  0  0  0  0  0  0  0
   49.6147   56.8230   27.5783 N   0  0  0  0  0  0  0  0  0  0  0  0
  2  1  1  1  0  0  0
  2  3  1  0  0  0  0
  2  5  1  0  0  0  0
  3  4  1  0  0  0  0
  3 17  1  0  0  0  0
  5  6  1  0  0  0  0
  7  6  1  1  0  0  0
  7  8  1  0  0  0  0
  7  9  1  0  0  0  0
 10  9  1  1  0  0  0
 10 11  1  0  0  0  0
 10 12  1  0  0  0  0
 11 16  1  0  0  0  0
 12 13  1  6  0  0  0
 12 14  1  0  0  0  0
 14 15  1  1  0  0  0
 14 16  1  0  0  0  0
 16 27  1  6  0  0  0
 18 19  2  0  0  0  0
 18 23  1  0  0  0  0
 19 20  1  0  0  0  0
 20 21  2  0  0  0  0
 21 22  1  0  0  0  0
 21 27  1  0  0  0  0
 22 23  2  0  0  0  0
 22 25  1  0  0  0  0
 23 24  1  0  0  0  0
 25 26  2  0  0  0  0
 26 27  1  0  0  0  0
M  END
>  <CHROM.1>
-5.01996112,-159.72799574,-171.51717492,-62.11165694,-178.76566331,82.83530920
145.76562008,47.90757767,55.88556263,29.75203452,-2.12780710,0.76249878,-0.99627734

>  <Name>
ligand

>  <RI>
0

>  <Rbt.Current_Directory>
/home/itssahil/PROJECTS/Mol_Feturizer/New_Systems/rnas/2GIS

>  <Rbt.Executable>
rbdock ($Id: //depot/dev/client3/rdock/2013.1/src/exe/rbdock.cxx#4 $)

>  <Rbt.Library>
libRbt.so (2013.1, Build901 2013/11/27)

>  <Rbt.Parameter_File>
/export/apps/rDock/src/rDock_2013.1_src/data/scripts/dock_solv.prm

>  <Rbt.Receptor>
prm/pocket_docking_8.prm

>  <SCORE>
-13.4102

>  <SCORE.INTER>
-10.2764

>  <SCORE.INTER.CONST>
1

>  <SCORE.INTER.POLAR>
0

>  <SCORE.INTER.ROT>
7

>  <SCORE.INTER.SOLV>
11.5967

>  <SCORE.INTER.VDW>
-18.9832

>  <SCORE.INTER.norm>
-0.380607

>  <SCORE.INTRA>
-3.14018

>  <SCORE.INTRA.DIHEDRAL>
-2.51432

>  <SCORE.INTRA.DIHEDRAL.0>
9.40024

>  <SCORE.INTRA.POLAR>
0

>  <SCORE.INTRA.POLAR.0>
0

>  <SCORE.INTRA.REPUL>
0

>  <SCORE.INTRA.REPUL.0>
0

>  <SCORE.INTRA.SOLV>
-3.14492

>  <SCORE.INTRA.SOLV.lig_0>
-47.1049

>  <SCORE.INTRA.VDW>
-0.310553

>  <SCORE.INTRA.VDW.0>
-1.50278

>  <SCORE.INTRA.norm>
-0.116303

>  <SCORE.RESTR>
0.00634567

>  <SCORE.RESTR.CAVITY>
0.00634567

>  <SCORE.RESTR.norm>
0.000235025

>  <SCORE.SYSTEM>
0

>  <SCORE.SYSTEM.CONST>
0

>  <SCORE.SYSTEM.DIHEDRAL>
0

>  <SCORE.SYSTEM.SOLV>
0

>  <SCORE.SYSTEM.norm>
0

>  <SCORE.heavy>
27

>  <SCORE.norm>
-0.496675

>  <RMSD>
7.684

$$$$
ligand
 OpenBabel11021811433D
libRbt.so/2013.1/901 2013/11/27
 27 29  0  0  0  0  0  0  0  0999 V2000
   46.6200   53.7298   38.1819 N   0  0  0  0  0  0  0  0  0  0  0  0
   48.0744   53.8525   38.3224 C   0  0  2  0  0  0  0  0  0  0  0  0
   48.3960   54.6871   39.5493 C   0  0  0  0  0  0  0  0  0  0  0  0
   47.4928   55.0526   40.2965 O   0  0  0  0  0  0  0  0  0  0  0  0
   48.6924   54.5044   37.0695 C   0  0  0  0  0  0  0  0  0  0  0  0
   48.1974   53.7691   35.8249 C   0  0  0  0  0  0  0  0  0  0  0  0
   48.9774   54.2925   34.2431 S   0  0  2  0  0  0  0  0  0  0  0  0
   48.7058   56.0912   34.1892 C   0  0  0  0  0  0  0  0  0  0  0  0
   47.6492   53.7013   33.1729 C   0  0  0  0  0  0  0  0  0  0  0  0
   48.0286   53.6515   31.6827 C   0  0  1  0  0  0  0  0  0  0  0  0
   47.0319   52.8668   30.9633 O   0  0  0  0  0  0  0  0  0  0  0  0
   47.8305   55.0790   31.2418 C   0  0  1  0  0  0  0  0  0  0  0  0
   49.0784   55.7723   31.2702 O   0  0  0  0  0  0  0  0  0  0  0  0
   47.3236   54.9561   29.8101 C   0  0  1  0  0  0  0  0  0  0  0  0
   48.3695   55.1022   28.8566 O   0  0  0  0  0  0  0  0  0  0  0  0
   46.6658   53.5325   29.6973 C   0  0  2  0  0  0  0  0  0  0  0  0
   49.5515   55.0534   39.7648 O   0  0  0  0  0  0  0  0  0  0  0  0
   42.2151   56.2667   30.2420 N   0  0  0  0  0  0  0  0  0  0  0  0
   43.4702   56.7133   30.3614 C   0  0  0  0  0  0  0  0  0  0  0  0
   44.5065   55.9106   30.1774 N   0  0  0  0  0  0  0  0  0  0  0  0
   44.3412   54.6077   29.8955 C   0  0  0  0  0  0  0  0  0  0  0  0
   43.0287   54.0837   29.7726 C   0  0  0  0  0  0  0  0  0  0  0  0
   41.9472   54.9816   29.9578 C   0  0  0  0  0  0  0  0  0  0  0  0
   40.6456   54.5456   29.8508 N   0  0  0  0  0  0  0  0  0  0  0  0
   43.1431   52.7698   29.4937 N   0  0  0  0  0  0  0  0  0  0  0  0
   44.4038   52.4528   29.4463 C   0  0  0  0  0  0  0  0  0  0  0  0
   45.1881   53.5477   29.6812 N   0  0  0  0  0  0  0  0  0  0  0  0
  2  1  1  6  0  0  0
  2  3  1  0  0  0  0
  2  5  1  0  0  0  0
  3  4  1  0  0  0  0
  3 17  1  0  0  0  0
  5  6  1  0  0  0  0
  7  6  1  1  0  0  0
  7  8  1  0  0  0  0
  7  9  1  0  0  0  0
 10  9  1  1  0  0  0
 10 11  1  0  0  0  0
 10 12  1  0  0  0  0
 11 16  1  0  0  0  0
 12 13  1  6  0  0  0
 12 14  1  0  0  0  0
 14 15  1  6  0  0  0
 14 16  1  0  0  0  0
 16 27  1  1  0  0  0
 18 19  2  0  0  0  0
 18 23  1  0  0  0  0
 19 20  1  0  0  0  0
 20 21  2  0  0  0  0
 21 22  1  0  0  0  0
 21 27  1  0  0  0  0
 22 23  2  0  0  0  0
 22 25  1  0  0  0  0
 23 24  1  0  0  0  0
 25 26  2  0  0  0  0
 26 27  1  0  0  0  0
M  END
>  <CHROM.1>
5.44768398,-50.94088255,-173.55162487,-54.71356616,-166.79253049,166.16110412
105.67198204,46.50895158,54.50496581,32.86273561,1.08662911,-0.02203246,1.55216415

>  <Name>
ligand

>  <RI>
0

>  <Rbt.Current_Directory>
/home/itssahil/PROJECTS/Mol_Feturizer/New_Systems/rnas/2GIS

>  <Rbt.Executable>
rbdock ($Id: //depot/dev/client3/rdock/2013.1/src/exe/rbdock.cxx#4 $)

>  <Rbt.Library>
libRbt.so (2013.1, Build901 2013/11/27)

>  <Rbt.Parameter_File>
/export/apps/rDock/src/rDock_2013.1_src/data/scripts/dock_solv.prm

>  <Rbt.Receptor>
prm/pocket_docking_7.prm

>  <SCORE>
-14.4183

>  <SCORE.INTER>
-12.0732

>  <SCORE.INTER.CONST>
1

>  <SCORE.INTER.POLAR>
0

>  <SCORE.INTER.ROT>
7

>  <SCORE.INTER.SOLV>
10.539

>  <SCORE.INTER.VDW>
-19.8284

>  <SCORE.INTER.norm>
-0.447155

>  <SCORE.INTRA>
-2.34516

>  <SCORE.INTRA.DIHEDRAL>
-3.42357

>  <SCORE.INTRA.DIHEDRAL.0>
9.40024

>  <SCORE.INTRA.POLAR>
0

>  <SCORE.INTRA.POLAR.0>
0

>  <SCORE.INTRA.REPUL>
0

>  <SCORE.INTRA.REPUL.0>
0

>  <SCORE.INTRA.SOLV>
-2.00592

>  <SCORE.INTRA.SOLV.lig_0>
-47.1049

>  <SCORE.INTRA.VDW>
0.369585

>  <SCORE.INTRA.VDW.0>
-1.50278

>  <SCORE.INTRA.norm>
-0.0868578

>  <SCORE.RESTR>
0

>  <SCORE.RESTR.CAVITY>
0

>  <SCORE.RESTR.norm>
0

>  <SCORE.SYSTEM>
0

>  <SCORE.SYSTEM.CONST>
0

>  <SCORE.SYSTEM.DIHEDRAL>
0

>  <SCORE.SYSTEM.SOLV>
0

>  <SCORE.SYSTEM.norm>
0

>  <SCORE.heavy>
27

>  <SCORE.norm>
-0.534013

>  <RMSD>
7.788

$$$$
ligand
 OpenBabel11021811433D
libRbt.so/2013.1/901 2013/11/27
 27 29  0  0  0  0  0  0  0  0999 V2000
   46.7087   59.1596   31.5433 N   0  0  0  0  0  0  0  0  0  0  0  0
   48.0144   58.5399   31.7906 C   0  0  2  0  0  0  0  0  0  0  0  0
   48.7276   59.2882   32.9026 C   0  0  0  0  0  0  0  0  0  0  0  0
   48.7609   60.5155   32.8929 O   0  0  0  0  0  0  0  0  0  0  0  0
   48.8776   58.5539   30.5132 C   0  0  0  0  0  0  0  0  0  0  0  0
   48.1774   57.7412   29.4251 C   0  0  0  0  0  0  0  0  0  0  0  0
   48.9899   57.7769   27.7750 S   0  0  2  0  0  0  0  0  0  0  0  0
   47.7867   56.9730   26.6713 C   0  0  0  0  0  0  0  0  0  0  0  0
   50.1353   56.4198   28.0991 C   0  0  0  0  0  0  0  0  0  0  0  0
   49.4420   55.0714   28.3603 C   0  0  1  0  0  0  0  0  0  0  0  0
   49.5145   54.2565   27.1530 O   0  0  0  0  0  0  0  0  0  0  0  0
   50.3589   54.4147   29.3601 C   0  0  1  0  0  0  0  0  0  0  0  0
   49.8667   54.6300   30.6830 O   0  0  0  0  0  0  0  0  0  0  0  0
   50.2944   52.9347   29.0037 C   0  0  1  0  0  0  0  0  0  0  0  0
   49.3635   52.2278   29.8150 O   0  0  0  0  0  0  0  0  0  0  0  0
   49.8749   52.8650   27.4900 C   0  0  2  0  0  0  0  0  0  0  0  0
   49.3278   58.6688   33.7813 O   0  0  0  0  0  0  0  0  0  0  0  0
   51.6416   52.5008   22.5576 N   0  0  0  0  0  0  0  0  0  0  0  0
   50.4353   52.9085   22.9673 C   0  0  0  0  0  0  0  0  0  0  0  0
   50.1298   52.9688   24.2538 N   0  0  0  0  0  0  0  0  0  0  0  0
   51.0061   52.5926   25.1997 C   0  0  0  0  0  0  0  0  0  0  0  0
   52.2938   52.1392   24.8141 C   0  0  0  0  0  0  0  0  0  0  0  0
   52.5871   52.1089   23.4273 C   0  0  0  0  0  0  0  0  0  0  0  0
   53.8172   51.6836   22.9783 N   0  0  0  0  0  0  0  0  0  0  0  0
   52.9651   51.8250   25.9401 N   0  0  0  0  0  0  0  0  0  0  0  0
   52.1966   52.0391   26.9677 C   0  0  0  0  0  0  0  0  0  0  0  0
   50.9790   52.5177   26.5710 N   0  0  0  0  0  0  0  0  0  0  0  0
  2  1  1  6  0  0  0
  2  3  1  0  0  0  0
  2  5  1  0  0  0  0
  3  4  1  0  0  0  0
  3 17  1  0  0  0  0
  5  6  1  0  0  0  0
  7  6  1  1  0  0  0
  7  8  1  0  0  0  0
  7  9  1  0  0  0  0
 10  9  1  6  0  0  0
 10 11  1  0  0  0  0
 10 12  1  0  0  0  0
 11 16  1  0  0  0  0
 12 13  1  1  0  0  0
 12 14  1  0  0  0  0
 14 15  1  1  0  0  0
 14 16  1  0  0  0  0
 16 27  1  6  0  0  0
 18 19  2  0  0  0  0
 18 23  1  0  0  0  0
 19 20  1  0  0  0  0
 20 21  2  0  0  0  0
 21 22  1  0  0  0  0
 21 27  1  0  0  0  0
 22 23  2  0  0  0  0
 22 25  1  0  0  0  0
 23 24  1  0  0  0  0
 25 26  2  0  0  0  0
 26 27  1  0  0  0  0
M  END
>  <CHROM.1>
-46.10464839,-61.58757657,174.56005206,-170.74809610,63.18644305,101.41513819
-54.59672484,49.98075746,55.14941274,27.99425645,2.41845278,-1.12182245,1.63081301

>  <Name>
ligand

>  <RI>
0

>  <Rbt.Current_Directory>
/home/itssahil/PROJECTS/Mol_Feturizer/New_Systems/rnas/2GIS

>  <Rbt.Executable>
rbdock ($Id: //depot/dev/client3/rdock/2013.1/src/exe/rbdock.cxx#4 $)

>  <Rbt.Library>
libRbt.so (2013.1, Build901 2013/11/27)

>  <Rbt.Parameter_File>
/export/apps/rDock/src/rDock_2013.1_src/data/scripts/dock_solv.prm

>  <Rbt.Receptor>
prm/pocket_docking_8.prm

>  <SCORE>
-14.8052

>  <SCORE.INTER>
-13.0886

>  <SCORE.INTER.CONST>
1

>  <SCORE.INTER.POLAR>
0

>  <SCORE.INTER.ROT>
7

>  <SCORE.INTER.SOLV>
6.61816

>  <SCORE.INTER.VDW>
-19.1984

>  <SCORE.INTER.norm>
-0.484762

>  <SCORE.INTRA>
-1.71665

>  <SCORE.INTRA.DIHEDRAL>
-1.07935

>  <SCORE.INTRA.DIHEDRAL.0>
9.40024

>  <SCORE.INTRA.POLAR>
0

>  <SCORE.INTRA.POLAR.0>
0

>  <SCORE.INTRA.REPUL>
0

>  <SCORE.INTRA.REPUL.0>
0

>  <SCORE.INTRA.SOLV>
-2.16567

>  <SCORE.INTRA.SOLV.lig_0>
-47.1049

>  <SCORE.INTRA.VDW>
-0.0941415

>  <SCORE.INTRA.VDW.0>
-1.50278

>  <SCORE.INTRA.norm>
-0.0635796

>  <SCORE.RESTR>
0

>  <SCORE.RESTR.CAVITY>
0

>  <SCORE.RESTR.norm>
0

>  <SCORE.SYSTEM>
0

>  <SCORE.SYSTEM.CONST>
0

>  <SCORE.SYSTEM.DIHEDRAL>
0

>  <SCORE.SYSTEM.SOLV>
0

>  <SCORE.SYSTEM.norm>
0

>  <SCORE.heavy>
27

>  <SCORE.norm>
-0.548342

>  <RMSD>
8.024

$$$$
ligand
 OpenBabel11021811433D
libRbt.so/2013.1/901 2013/11/27
 27 29  0  0  0  0  0  0  0  0999 V2000
   48.4444   57.6712   32.4787 N   0  0  0  0  0  0  0  0  0  0  0  0
   49.2067   58.6047   31.6437 C   0  0  2  0  0  0  0  0  0  0  0  0
   49.1411   59.9954   32.2493 C   0  0  0  0  0  0  0  0  0  0  0  0
   49.5439   60.1859   33.3934 O   0  0  0  0  0  0  0  0  0  0  0  0
   48.6503   58.6331   30.2062 C   0  0  0  0  0  0  0  0  0  0  0  0
   48.6651   57.2164   29.6339 C   0  0  0  0  0  0  0  0  0  0  0  0
   47.8544   57.0252   27.9937 S   0  0  2  0  0  0  0  0  0  0  0  0
   46.1890   57.7166   28.2394 C   0  0  0  0  0  0  0  0  0  0  0  0
   47.5300   55.2561   28.1485 C   0  0  0  0  0  0  0  0  0  0  0  0
   46.6637   54.6823   27.0139 C   0  0  1  0  0  0  0  0  0  0  0  0
   47.4184   54.7308   25.7669 O   0  0  0  0  0  0  0  0  0  0  0  0
   46.5603   53.2241   27.3801 C   0  0  1  0  0  0  0  0  0  0  0  0
   45.3400   52.9864   28.0824 O   0  0  0  0  0  0  0  0  0  0  0  0
   46.5480   52.5059   26.0363 C   0  0  1  0  0  0  0  0  0  0  0  0
   45.2274   52.2015   25.6029 O   0  0  0  0  0  0  0  0  0  0  0  0
   47.2576   53.4696   25.0164 C   0  0  2  0  0  0  0  0  0  0  0  0
   48.6270   60.9215   31.6216 O   0  0  0  0  0  0  0  0  0  0  0  0
   51.8864   51.4934   26.5165 N   0  0  0  0  0  0  0  0  0  0  0  0
   50.8078   51.7184   27.2748 C   0  0  0  0  0  0  0  0  0  0  0  0
   49.6921   52.2070   26.7563 N   0  0  0  0  0  0  0  0  0  0  0  0
   49.6070   52.5276   25.4547 C   0  0  0  0  0  0  0  0  0  0  0  0
   50.7295   52.3204   24.6125 C   0  0  0  0  0  0  0  0  0  0  0  0
   51.8979   51.7768   25.2037 C   0  0  0  0  0  0  0  0  0  0  0  0
   53.0252   51.5452   24.4480 N   0  0  0  0  0  0  0  0  0  0  0  0
   50.3839   52.7224   23.3731 N   0  0  0  0  0  0  0  0  0  0  0  0
   49.1593   53.1610   23.3937 C   0  0  0  0  0  0  0  0  0  0  0  0
   48.6293   53.0597   24.6499 N   0  0  0  0  0  0  0  0  0  0  0  0
  2  1  1  1  0  0  0
  2  3  1  0  0  0  0
  2  5  1  0  0  0  0
  3  4  1  0  0  0  0
  3 17  1  0  0  0  0
  5  6  1  0  0  0  0
  7  6  1  1  0  0  0
  7  8  1  0  0  0  0
  7  9  1  0  0  0  0
 10  9  1  1  0  0  0
 10 11  1  0  0  0  0
 10 12  1  0  0  0  0
 11 16  1  0  0  0  0
 12 13  1  6  0  0  0
 12 14  1  0  0  0  0
 14 15  1  6  0  0  0
 14 16  1  0  0  0  0
 16 27  1  1  0  0  0
 18 19  2  0  0  0  0
 18 23  1  0  0  0  0
 19 20  1  0  0  0  0
 20 21  2  0  0  0  0
 21 22  1  0  0  0  0
 21 27  1  0  0  0  0
 22 23  2  0  0  0  0
 22 25  1  0  0  0  0
 23 24  1  0  0  0  0
 25 26  2  0  0  0  0
 26 27  1  0  0  0  0
M  END
>  <CHROM.1>
58.40130582,-56.39952511,173.22198948,-54.02626131,172.52045786,67.51587564
74.04803789,48.58067273,54.98647331,27.58538458,-1.67504258,0.07625982,-2.38864187

>  <Name>
ligand

>  <RI>
0

>  <Rbt.Current_Directory>
/home/itssahil/PROJECTS/Mol_Feturizer/New_Systems/rnas/2GIS

>  <Rbt.Executable>
rbdock ($Id: //depot/dev/client3/rdock/2013.1/src/exe/rbdock.cxx#4 $)

>  <Rbt.Library>
libRbt.so (2013.1, Build901 2013/11/27)

>  <Rbt.Parameter_File>
/export/apps/rDock/src/rDock_2013.1_src/data/scripts/dock_solv.prm

>  <Rbt.Receptor>
prm/pocket_docking_6.prm

>  <SCORE>
-16.1634

>  <SCORE.INTER>
-12.4292

>  <SCORE.INTER.CONST>
1

>  <SCORE.INTER.POLAR>
0

>  <SCORE.INTER.ROT>
7

>  <SCORE.INTER.SOLV>
9.58914

>  <SCORE.INTER.VDW>
-19.7492

>  <SCORE.INTER.norm>
-0.46034

>  <SCORE.INTRA>
-3.73419

>  <SCORE.INTRA.DIHEDRAL>
-5.20678

>  <SCORE.INTRA.DIHEDRAL.0>
9.40024

>  <SCORE.INTRA.POLAR>
0

>  <SCORE.INTRA.POLAR.0>
0

>  <SCORE.INTRA.REPUL>
0

>  <SCORE.INTRA.REPUL.0>
0

>  <SCORE.INTRA.SOLV>
-2.35058

>  <SCORE.INTRA.SOLV.lig_0>
-47.1049

>  <SCORE.INTRA.VDW>
0.0444931

>  <SCORE.INTRA.VDW.0>
-1.50278

>  <SCORE.INTRA.norm>
-0.138303

>  <SCORE.RESTR>
0

>  <SCORE.RESTR.CAVITY>
0

>  <SCORE.RESTR.norm>
0

>  <SCORE.SYSTEM>
0

>  <SCORE.SYSTEM.CONST>
0

>  <SCORE.SYSTEM.DIHEDRAL>
0

>  <SCORE.SYSTEM.SOLV>
0

>  <SCORE.SYSTEM.norm>
0

>  <SCORE.heavy>
27

>  <SCORE.norm>
-0.598643

>  <RMSD>
8.234

$$$$
ligand
 OpenBabel11021811433D
libRbt.so/2013.1/901 2013/11/27
 27 29  0  0  0  0  0  0  0  0999 V2000
   47.7846   59.6502   31.8909 N   0  0  0  0  0  0  0  0  0  0  0  0
   48.2422   58.2573   31.8714 C   0  0  2  0  0  0  0  0  0  0  0  0
   49.6909   58.1938   32.3214 C   0  0  0  0  0  0  0  0  0  0  0  0
   50.4030   59.1907   32.2389 O   0  0  0  0  0  0  0  0  0  0  0  0
   48.1065   57.6563   30.4581 C   0  0  0  0  0  0  0  0  0  0  0  0
   48.8577   58.5392   29.4627 C   0  0  0  0  0  0  0  0  0  0  0  0
   48.2746   58.4286   27.7214 S   0  0  2  0  0  0  0  0  0  0  0  0
   46.4606   58.4838   27.8573 C   0  0  0  0  0  0  0  0  0  0  0  0
   48.5625   56.6560   27.5381 C   0  0  0  0  0  0  0  0  0  0  0  0
   47.7988   56.0214   26.3628 C   0  0  1  0  0  0  0  0  0  0  0  0
   48.4113   56.4490   25.1103 O   0  0  0  0  0  0  0  0  0  0  0  0
   48.1258   54.5572   26.5063 C   0  0  1  0  0  0  0  0  0  0  0  0
   47.0757   53.8932   27.2098 O   0  0  0  0  0  0  0  0  0  0  0  0
   48.2041   54.0540   25.0702 C   0  0  1  0  0  0  0  0  0  0  0  0
   46.9866   53.4525   24.6456 O   0  0  0  0  0  0  0  0  0  0  0  0
   48.5417   55.3075   24.1830 C   0  0  2  0  0  0  0  0  0  0  0  0
   50.1737   57.1299   32.7098 O   0  0  0  0  0  0  0  0  0  0  0  0
   53.6644   55.1437   25.3291 N   0  0  0  0  0  0  0  0  0  0  0  0
   52.6327   55.0571   26.1760 C   0  0  0  0  0  0  0  0  0  0  0  0
   51.3823   55.0945   25.7432 N   0  0  0  0  0  0  0  0  0  0  0  0
   51.0971   55.2536   24.4402 C   0  0  0  0  0  0  0  0  0  0  0  0
   52.1576   55.3643   23.5046 C   0  0  0  0  0  0  0  0  0  0  0  0
   53.4816   55.2995   24.0076 C   0  0  0  0  0  0  0  0  0  0  0  0
   54.5613   55.3965   23.1588 N   0  0  0  0  0  0  0  0  0  0  0  0
   51.6051   55.5173   22.2845 N   0  0  0  0  0  0  0  0  0  0  0  0
   50.3095   55.5179   22.4009 C   0  0  0  0  0  0  0  0  0  0  0  0
   49.9400   55.3534   23.7068 N   0  0  0  0  0  0  0  0  0  0  0  0
  2  1  1  6  0  0  0
  2  3  1  0  0  0  0
  2  5  1  0  0  0  0
  3  4  1  0  0  0  0
  3 17  1  0  0  0  0
  5  6  1  0  0  0  0
  7  6  1  1  0  0  0
  7  8  1  0  0  0  0
  7  9  1  0  0  0  0
 10  9  1  1  0  0  0
 10 11  1  0  0  0  0
 10 12  1  0  0  0  0
 11 16  1  0  0  0  0
 12 13  1  1  0  0  0
 12 14  1  0  0  0  0
 14 15  1  6  0  0  0
 14 16  1  0  0  0  0
 16 27  1  1  0  0  0
 18 19  2  0  0  0  0
 18 23  1  0  0  0  0
 19 20  1  0  0  0  0
 20 21  2  0  0  0  0
 21 22  1  0  0  0  0
 21 27  1  0  0  0  0
 22 23  2  0  0  0  0
 22 25  1  0  0  0  0
 23 24  1  0  0  0  0
 25 26  2  0  0  0  0
 26 27  1  0  0  0  0
M  END
>  <CHROM.1>
-22.23633120,55.22890599,-155.73803947,44.59560563,161.49716652,72.12251352
60.85175718,49.58231249,56.37920375,26.93794583,-1.88044089,-0.07466672,-2.02175859

>  <Name>
ligand

>  <RI>
0

>  <Rbt.Current_Directory>
/home/itssahil/PROJECTS/Mol_Feturizer/New_Systems/rnas/2GIS

>  <Rbt.Executable>
rbdock ($Id: //depot/dev/client3/rdock/2013.1/src/exe/rbdock.cxx#4 $)

>  <Rbt.Library>
libRbt.so (2013.1, Build901 2013/11/27)

>  <Rbt.Parameter_File>
/export/apps/rDock/src/rDock_2013.1_src/data/scripts/dock_solv.prm

>  <Rbt.Receptor>
prm/pocket_docking_8.prm

>  <SCORE>
-14.9888

>  <SCORE.INTER>
-12.4924

>  <SCORE.INTER.CONST>
1

>  <SCORE.INTER.POLAR>
0

>  <SCORE.INTER.ROT>
7

>  <SCORE.INTER.SOLV>
9.77485

>  <SCORE.INTER.VDW>
-19.8532

>  <SCORE.INTER.norm>
-0.462682

>  <SCORE.INTRA>
-2.4964

>  <SCORE.INTRA.DIHEDRAL>
-3.25016

>  <SCORE.INTRA.DIHEDRAL.0>
9.40024

>  <SCORE.INTRA.POLAR>
0

>  <SCORE.INTRA.POLAR.0>
0

>  <SCORE.INTRA.REPUL>
0

>  <SCORE.INTRA.REPUL.0>
0

>  <SCORE.INTRA.SOLV>
-1.89925

>  <SCORE.INTRA.SOLV.lig_0>
-47.1049

>  <SCORE.INTRA.VDW>
0.0782986

>  <SCORE.INTRA.VDW.0>
-1.50278

>  <SCORE.INTRA.norm>
-0.0924594

>  <SCORE.RESTR>
0

>  <SCORE.RESTR.CAVITY>
0

>  <SCORE.RESTR.norm>
0

>  <SCORE.SYSTEM>
0

>  <SCORE.SYSTEM.CONST>
0

>  <SCORE.SYSTEM.DIHEDRAL>
0

>  <SCORE.SYSTEM.SOLV>
0

>  <SCORE.SYSTEM.norm>
0

>  <SCORE.heavy>
27

>  <SCORE.norm>
-0.555142

>  <RMSD>
8.242

$$$$
ligand
 OpenBabel11021811433D
libRbt.so/2013.1/901 2013/11/27
 27 29  0  0  0  0  0  0  0  0999 V2000
   41.9011   51.5635   34.6418 N   0  0  0  0  0  0  0  0  0  0  0  0
   42.4094   52.5815   35.5666 C   0  0  2  0  0  0  0  0  0  0  0  0
   42.1304   53.9631   35.0020 C   0  0  0  0  0  0  0  0  0  0  0  0
   41.2675   54.6716   35.5127 O   0  0  0  0  0  0  0  0  0  0  0  0
   43.9239   52.4059   35.7955 C   0  0  0  0  0  0  0  0  0  0  0  0
   44.3620   53.2932   36.9597 C   0  0  0  0  0  0  0  0  0  0  0  0
   43.6681   52.8332   38.6002 S   0  0  2  0  0  0  0  0  0  0  0  0
   42.0499   53.6648   38.6457 C   0  0  0  0  0  0  0  0  0  0  0  0
   44.6815   53.9769   39.5613 C   0  0  0  0  0  0  0  0  0  0  0  0
   46.0484   53.4015   39.9706 C   0  0  1  0  0  0  0  0  0  0  0  0
   46.7990   53.0556   38.7690 O   0  0  0  0  0  0  0  0  0  0  0  0
   46.7467   54.5966   40.5667 C   0  0  1  0  0  0  0  0  0  0  0  0
   46.6051   54.5815   41.9874 O   0  0  0  0  0  0  0  0  0  0  0  0
   48.2069   54.4035   40.1765 C   0  0  1  0  0  0  0  0  0  0  0  0
   48.9640   53.7953   41.2165 O   0  0  0  0  0  0  0  0  0  0  0  0
   48.2024   53.4972   38.8917 C   0  0  2  0  0  0  0  0  0  0  0  0
   42.7214   54.3523   33.9945 O   0  0  0  0  0  0  0  0  0  0  0  0
   47.4350   53.9658   33.7174 N   0  0  0  0  0  0  0  0  0  0  0  0
   46.9133   53.0519   34.5431 C   0  0  0  0  0  0  0  0  0  0  0  0
   47.1801   53.0640   35.8396 N   0  0  0  0  0  0  0  0  0  0  0  0
   48.0110   53.9737   36.3747 C   0  0  0  0  0  0  0  0  0  0  0  0
   48.6004   54.9552   35.5370 C   0  0  0  0  0  0  0  0  0  0  0  0
   48.2726   54.9187   34.1581 C   0  0  0  0  0  0  0  0  0  0  0  0
   48.8041   55.8412   33.2849 N   0  0  0  0  0  0  0  0  0  0  0  0
   49.3828   55.7313   36.3133 N   0  0  0  0  0  0  0  0  0  0  0  0
   49.3256   55.3017   37.5398 C   0  0  0  0  0  0  0  0  0  0  0  0
   48.4907   54.2235   37.6373 N   0  0  0  0  0  0  0  0  0  0  0  0
  2  1  1  6  0  0  0
  2  3  1  0  0  0  0
  2  5  1  0  0  0  0
  3  4  1  0  0  0  0
  3 17  1  0  0  0  0
  5  6  1  0  0  0  0
  7  6  1  6  0  0  0
  7  8  1  0  0  0  0
  7  9  1  0  0  0  0
 10  9  1  6  0  0  0
 10 11  1  0  0  0  0
 10 12  1  0  0  0  0
 11 16  1  0  0  0  0
 12 13  1  1  0  0  0
 12 14  1  0  0  0  0
 14 15  1  1  0  0  0
 14 16  1  0  0  0  0
 16 27  1  6  0  0  0
 18 19  2  0  0  0  0
 18 23  1  0  0  0  0
 19 20  1  0  0  0  0
 20 21  2  0  0  0  0
 21 22  1  0  0  0  0
 21 27  1  0  0  0  0
 22 23  2  0  0  0  0
 22 25  1  0  0  0  0
 23 24  1  0  0  0  0
 25 26  2  0  0  0  0
 26 27  1  0  0  0  0
M  END
>  <CHROM.1>
108.02647928,-168.92168058,65.84563179,-85.14705849,-87.06912223,60.04471962
-34.02210778,45.86132305,53.85634196,37.19568200,2.63207501,-0.22740550,-1.50171865

>  <Name>
ligand

>  <RI>
0

>  <Rbt.Current_Directory>
/home/itssahil/PROJECTS/Mol_Feturizer/New_Systems/rnas/2GIS

>  <Rbt.Executable>
rbdock ($Id: //depot/dev/client3/rdock/2013.1/src/exe/rbdock.cxx#4 $)

>  <Rbt.Library>
libRbt.so (2013.1, Build901 2013/11/27)

>  <Rbt.Parameter_File>
/export/apps/rDock/src/rDock_2013.1_src/data/scripts/dock_solv.prm

>  <Rbt.Receptor>
prm/pocket_docking_8.prm

>  <SCORE>
-19.639

>  <SCORE.INTER>
-14.3863

>  <SCORE.INTER.CONST>
1

>  <SCORE.INTER.POLAR>
0

>  <SCORE.INTER.ROT>
7

>  <SCORE.INTER.SOLV>
8.98654

>  <SCORE.INTER.VDW>
-20.853

>  <SCORE.INTER.norm>
-0.532826

>  <SCORE.INTRA>
-5.25271

>  <SCORE.INTRA.DIHEDRAL>
-3.79488

>  <SCORE.INTRA.DIHEDRAL.0>
9.40024

>  <SCORE.INTRA.POLAR>
0

>  <SCORE.INTRA.POLAR.0>
0

>  <SCORE.INTRA.REPUL>
0

>  <SCORE.INTRA.REPUL.0>
0

>  <SCORE.INTRA.SOLV>
-2.66689

>  <SCORE.INTRA.SOLV.lig_0>
-47.1049

>  <SCORE.INTRA.VDW>
-2.02182

>  <SCORE.INTRA.VDW.0>
-1.50278

>  <SCORE.INTRA.norm>
-0.194545

>  <SCORE.RESTR>
0

>  <SCORE.RESTR.CAVITY>
0

>  <SCORE.RESTR.norm>
0

>  <SCORE.SYSTEM>
0

>  <SCORE.SYSTEM.CONST>
0

>  <SCORE.SYSTEM.DIHEDRAL>
0

>  <SCORE.SYSTEM.SOLV>
0

>  <SCORE.SYSTEM.norm>
0

>  <SCORE.heavy>
27

>  <SCORE.norm>
-0.727371

>  <RMSD>
8.321

$$$$
ligand
 OpenBabel11021811433D
libRbt.so/2013.1/901 2013/11/27
 27 29  0  0  0  0  0  0  0  0999 V2000
   45.8613   53.6136   37.6000 N   0  0  0  0  0  0  0  0  0  0  0  0
   47.2415   53.2512   37.9372 C   0  0  2  0  0  0  0  0  0  0  0  0
   47.4816   53.4935   39.4167 C   0  0  0  0  0  0  0  0  0  0  0  0
   47.1635   54.5663   39.9221 O   0  0  0  0  0  0  0  0  0  0  0  0
   48.2430   54.0745   37.1029 C   0  0  0  0  0  0  0  0  0  0  0  0
   48.0887   53.7076   35.6277 C   0  0  0  0  0  0  0  0  0  0  0  0
   49.3539   54.4293   34.5040 S   0  0  2  0  0  0  0  0  0  0  0  0
   48.8438   56.1666   34.3203 C   0  0  0  0  0  0  0  0  0  0  0  0
   48.6952   53.7043   32.9876 C   0  0  0  0  0  0  0  0  0  0  0  0
   49.6667   53.7681   31.7963 C   0  0  1  0  0  0  0  0  0  0  0  0
   49.2453   52.8048   30.7857 O   0  0  0  0  0  0  0  0  0  0  0  0
   49.3885   55.1298   31.2135 C   0  0  1  0  0  0  0  0  0  0  0  0
   50.3408   56.0719   31.7077 O   0  0  0  0  0  0  0  0  0  0  0  0
   49.5659   54.9325   29.7131 C   0  0  1  0  0  0  0  0  0  0  0  0
   50.8623   55.3180   29.2711 O   0  0  0  0  0  0  0  0  0  0  0  0
   49.3186   53.4042   29.4384 C   0  0  2  0  0  0  0  0  0  0  0  0
   48.0523   52.6429   40.0999 O   0  0  0  0  0  0  0  0  0  0  0  0
   46.6418   51.9821   25.1496 N   0  0  0  0  0  0  0  0  0  0  0  0
   47.9631   52.1510   25.2716 C   0  0  0  0  0  0  0  0  0  0  0  0
   48.5087   52.4959   26.4272 N   0  0  0  0  0  0  0  0  0  0  0  0
   47.7563   52.7222   27.5167 C   0  0  0  0  0  0  0  0  0  0  0  0
   46.3484   52.5698   27.4336 C   0  0  0  0  0  0  0  0  0  0  0  0
   45.8066   52.1801   26.1826 C   0  0  0  0  0  0  0  0  0  0  0  0
   44.4492   52.0094   26.0272 N   0  0  0  0  0  0  0  0  0  0  0  0
   45.8389   52.8560   28.6483 N   0  0  0  0  0  0  0  0  0  0  0  0
   46.8101   53.1755   29.4528 C   0  0  0  0  0  0  0  0  0  0  0  0
   48.0148   53.1051   28.8102 N   0  0  0  0  0  0  0  0  0  0  0  0
  2  1  1  6  0  0  0
  2  3  1  0  0  0  0
  2  5  1  0  0  0  0
  3  4  1  0  0  0  0
  3 17  1  0  0  0  0
  5  6  1  0  0  0  0
  7  6  1  1  0  0  0
  7  8  1  0  0  0  0
  7  9  1  0  0  0  0
 10  9  1  1  0  0  0
 10 11  1  0  0  0  0
 10 12  1  0  0  0  0
 11 16  1  0  0  0  0
 12 13  1  1  0  0  0
 12 14  1  0  0  0  0
 14 15  1  1  0  0  0
 14 16  1  0  0  0  0
 16 27  1  1  0  0  0
 18 19  2  0  0  0  0
 18 23  1  0  0  0  0
 19 20  1  0  0  0  0
 20 21  2  0  0  0  0
 21 22  1  0  0  0  0
 21 27  1  0  0  0  0
 22 23  2  0  0  0  0
 22 25  1  0  0  0  0
 23 24  1  0  0  0  0
 25 26  2  0  0  0  0
 26 27  1  0  0  0  0
M  END
>  <CHROM.1>
-49.37126753,-64.90438302,-172.32687367,-76.34508647,-165.56909980,161.68531743
-139.45067373,48.09439978,53.65200932,31.92212299,1.51294849,0.55234358,1.49447324

>  <Name>
ligand

>  <RI>
0

>  <Rbt.Current_Directory>
/home/itssahil/PROJECTS/Mol_Feturizer/New_Systems/rnas/2GIS

>  <Rbt.Executable>
rbdock ($Id: //depot/dev/client3/rdock/2013.1/src/exe/rbdock.cxx#4 $)

>  <Rbt.Library>
libRbt.so (2013.1, Build901 2013/11/27)

>  <Rbt.Parameter_File>
/export/apps/rDock/src/rDock_2013.1_src/data/scripts/dock_solv.prm

>  <Rbt.Receptor>
prm/pocket_docking_6.prm

>  <SCORE>
-16.5352

>  <SCORE.INTER>
-13.0218

>  <SCORE.INTER.CONST>
1

>  <SCORE.INTER.POLAR>
0

>  <SCORE.INTER.ROT>
7

>  <SCORE.INTER.SOLV>
17.5063

>  <SCORE.INTER.VDW>
-22.7833

>  <SCORE.INTER.norm>
-0.482287

>  <SCORE.INTRA>
-3.51346

>  <SCORE.INTRA.DIHEDRAL>
-3.49424

>  <SCORE.INTRA.DIHEDRAL.0>
9.40024

>  <SCORE.INTRA.POLAR>
0

>  <SCORE.INTRA.POLAR.0>
0

>  <SCORE.INTRA.REPUL>
0

>  <SCORE.INTRA.REPUL.0>
0

>  <SCORE.INTRA.SOLV>
-2.1948

>  <SCORE.INTRA.SOLV.lig_0>
-47.1049

>  <SCORE.INTRA.VDW>
-0.668943

>  <SCORE.INTRA.VDW.0>
-1.50278

>  <SCORE.INTRA.norm>
-0.130128

>  <SCORE.RESTR>
0

>  <SCORE.RESTR.CAVITY>
0

>  <SCORE.RESTR.norm>
0

>  <SCORE.SYSTEM>
0

>  <SCORE.SYSTEM.CONST>
0

>  <SCORE.SYSTEM.DIHEDRAL>
0

>  <SCORE.SYSTEM.SOLV>
0

>  <SCORE.SYSTEM.norm>
0

>  <SCORE.heavy>
27

>  <SCORE.norm>
-0.612416

>  <RMSD>
8.443

$$$$
ligand
 OpenBabel11021811433D
libRbt.so/2013.1/901 2013/11/27
 27 29  0  0  0  0  0  0  0  0999 V2000
   44.6182   57.2961   29.5257 N   0  0  0  0  0  0  0  0  0  0  0  0
   44.7031   56.6297   30.8291 C   0  0  2  0  0  0  0  0  0  0  0  0
   45.0759   57.6457   31.8940 C   0  0  0  0  0  0  0  0  0  0  0  0
   45.5825   58.7161   31.5699 O   0  0  0  0  0  0  0  0  0  0  0  0
   45.7485   55.4970   30.7978 C   0  0  0  0  0  0  0  0  0  0  0  0
   45.2068   54.3366   29.9642 C   0  0  0  0  0  0  0  0  0  0  0  0
   46.3874   52.9537   29.6853 S   0  0  2  0  0  0  0  0  0  0  0  0
   47.4862   53.0101   31.1350 C   0  0  0  0  0  0  0  0  0  0  0  0
   47.3884   53.8064   28.4485 C   0  0  0  0  0  0  0  0  0  0  0  0
   46.6447   54.0807   27.1299 C   0  0  1  0  0  0  0  0  0  0  0  0
   47.5506   54.7477   26.2018 O   0  0  0  0  0  0  0  0  0  0  0  0
   46.4290   52.6957   26.5762 C   0  0  1  0  0  0  0  0  0  0  0  0
   45.1209   52.2360   26.9175 O   0  0  0  0  0  0  0  0  0  0  0  0
   46.5512   52.8777   25.0683 C   0  0  1  0  0  0  0  0  0  0  0  0
   45.2823   53.0218   24.4409 O   0  0  0  0  0  0  0  0  0  0  0  0
   47.4264   54.1657   24.8506 C   0  0  2  0  0  0  0  0  0  0  0  0
   44.9312   57.3757   33.0865 O   0  0  0  0  0  0  0  0  0  0  0  0
   51.5901   50.9666   24.9530 N   0  0  0  0  0  0  0  0  0  0  0  0
   50.4120   50.7970   25.5633 C   0  0  0  0  0  0  0  0  0  0  0  0
   49.4366   51.6825   25.4343 N   0  0  0  0  0  0  0  0  0  0  0  0
   49.5999   52.8034   24.7124 C   0  0  0  0  0  0  0  0  0  0  0  0
   50.8368   53.0351   24.0576 C   0  0  0  0  0  0  0  0  0  0  0  0
   51.8479   52.0523   24.2055 C   0  0  0  0  0  0  0  0  0  0  0  0
   53.0730   52.2074   23.5966 N   0  0  0  0  0  0  0  0  0  0  0  0
   50.7383   54.2159   23.4148 N   0  0  0  0  0  0  0  0  0  0  0  0
   49.5588   54.7206   23.6299 C   0  0  0  0  0  0  0  0  0  0  0  0
   48.8127   53.8901   24.4190 N   0  0  0  0  0  0  0  0  0  0  0  0
  2  1  1  6  0  0  0
  2  3  1  0  0  0  0
  2  5  1  0  0  0  0
  3  4  1  0  0  0  0
  3 17  1  0  0  0  0
  5  6  1  0  0  0  0
  7  6  1  1  0  0  0
  7  8  1  0  0  0  0
  7  9  1  0  0  0  0
 10  9  1  1  0  0  0
 10 11  1  0  0  0  0
 10 12  1  0  0  0  0
 11 16  1  0  0  0  0
 12 13  1  6  0  0  0
 12 14  1  0  0  0  0
 14 15  1  1  0  0  0
 14 16  1  0  0  0  0
 16 27  1  1  0  0  0
 18 19  2  0  0  0  0
 18 23  1  0  0  0  0
 19 20  1  0  0  0  0
 20 21  2  0  0  0  0
 21 22  1  0  0  0  0
 21 27  1  0  0  0  0
 22 23  2  0  0  0  0
 22 25  1  0  0  0  0
 23 24  1  0  0  0  0
 25 26  2  0  0  0  0
 26 27  1  0  0  0  0
M  END
>  <CHROM.1>
-18.69338354,-71.71808288,174.53418097,27.84911477,-66.93700251,-179.00823801
82.77881805,47.55243604,53.97487784,27.32579061,-2.17737692,-0.28611121,-2.27110598

>  <Name>
ligand

>  <RI>
0

>  <Rbt.Current_Directory>
/home/itssahil/PROJECTS/Mol_Feturizer/New_Systems/rnas/2GIS

>  <Rbt.Executable>
rbdock ($Id: //depot/dev/client3/rdock/2013.1/src/exe/rbdock.cxx#4 $)

>  <Rbt.Library>
libRbt.so (2013.1, Build901 2013/11/27)

>  <Rbt.Parameter_File>
/export/apps/rDock/src/rDock_2013.1_src/data/scripts/dock_solv.prm

>  <Rbt.Receptor>
prm/pocket_docking_8.prm

>  <SCORE>
-9.5882

>  <SCORE.INTER>
-6.46301

>  <SCORE.INTER.CONST>
1

>  <SCORE.INTER.POLAR>
0

>  <SCORE.INTER.ROT>
7

>  <SCORE.INTER.SOLV>
9.15831

>  <SCORE.INTER.VDW>
-15.6281

>  <SCORE.INTER.norm>
-0.239371

>  <SCORE.INTRA>
-3.12519

>  <SCORE.INTRA.DIHEDRAL>
-4.18785

>  <SCORE.INTRA.DIHEDRAL.0>
9.40024

>  <SCORE.INTRA.POLAR>
0

>  <SCORE.INTRA.POLAR.0>
0

>  <SCORE.INTRA.REPUL>
0

>  <SCORE.INTRA.REPUL.0>
0

>  <SCORE.INTRA.SOLV>
-2.04908

>  <SCORE.INTRA.SOLV.lig_0>
-47.1049

>  <SCORE.INTRA.VDW>
-0.00672343

>  <SCORE.INTRA.VDW.0>
-1.50278

>  <SCORE.INTRA.norm>
-0.115748

>  <SCORE.RESTR>
0

>  <SCORE.RESTR.CAVITY>
0

>  <SCORE.RESTR.norm>
0

>  <SCORE.SYSTEM>
0

>  <SCORE.SYSTEM.CONST>
0

>  <SCORE.SYSTEM.DIHEDRAL>
0

>  <SCORE.SYSTEM.SOLV>
0

>  <SCORE.SYSTEM.norm>
0

>  <SCORE.heavy>
27

>  <SCORE.norm>
-0.355118

>  <RMSD>
8.482

$$$$
ligand
 OpenBabel11021811433D
libRbt.so/2013.1/901 2013/11/27
 27 29  0  0  0  0  0  0  0  0999 V2000
   48.2248   57.5628   32.3266 N   0  0  0  0  0  0  0  0  0  0  0  0
   49.1187   58.6031   31.8084 C   0  0  2  0  0  0  0  0  0  0  0  0
   48.9092   59.8869   32.5914 C   0  0  0  0  0  0  0  0  0  0  0  0
   48.0593   60.6951   32.2282 O   0  0  0  0  0  0  0  0  0  0  0  0
   48.8551   58.8550   30.3104 C   0  0  0  0  0  0  0  0  0  0  0  0
   49.2099   57.5967   29.5196 C   0  0  0  0  0  0  0  0  0  0  0  0
   48.7941   57.6533   27.7284 S   0  0  2  0  0  0  0  0  0  0  0  0
   46.9759   57.5824   27.6933 C   0  0  0  0  0  0  0  0  0  0  0  0
   49.2225   55.9345   27.3807 C   0  0  0  0  0  0  0  0  0  0  0  0
   48.1163   55.1550   26.6488 C   0  0  1  0  0  0  0  0  0  0  0  0
   48.0359   55.6231   25.2699 O   0  0  0  0  0  0  0  0  0  0  0  0
   48.6824   53.7598   26.5812 C   0  0  1  0  0  0  0  0  0  0  0  0
   48.1657   52.9750   27.6562 O   0  0  0  0  0  0  0  0  0  0  0  0
   48.1841   53.2236   25.2448 C   0  0  1  0  0  0  0  0  0  0  0  0
   47.0072   52.4368   25.3879 O   0  0  0  0  0  0  0  0  0  0  0  0
   47.9037   54.4811   24.3436 C   0  0  2  0  0  0  0  0  0  0  0  0
   49.6312   60.1518   33.5529 O   0  0  0  0  0  0  0  0  0  0  0  0
   48.9842   55.3649   19.2807 N   0  0  0  0  0  0  0  0  0  0  0  0
   47.7830   55.1949   19.8439 C   0  0  0  0  0  0  0  0  0  0  0  0
   47.6558   54.9972   21.1466 N   0  0  0  0  0  0  0  0  0  0  0  0
   48.7286   54.9266   21.9519 C   0  0  0  0  0  0  0  0  0  0  0  0
   50.0251   55.0866   21.3989 C   0  0  0  0  0  0  0  0  0  0  0  0
   50.1157   55.3161   20.0027 C   0  0  0  0  0  0  0  0  0  0  0  0
   51.3403   55.4839   19.3961 N   0  0  0  0  0  0  0  0  0  0  0  0
   50.9115   54.9697   22.4077 N   0  0  0  0  0  0  0  0  0  0  0  0
   50.2682   54.7450   23.5158 C   0  0  0  0  0  0  0  0  0  0  0  0
   48.9193   54.7134   23.2953 N   0  0  0  0  0  0  0  0  0  0  0  0
  2  1  1  1  0  0  0
  2  3  1  0  0  0  0
  2  5  1  0  0  0  0
  3  4  1  0  0  0  0
  3 17  1  0  0  0  0
  5  6  1  0  0  0  0
  7  6  1  1  0  0  0
  7  8  1  0  0  0  0
  7  9  1  0  0  0  0
 10  9  1  1  0  0  0
 10 11  1  0  0  0  0
 10 12  1  0  0  0  0
 11 16  1  0  0  0  0
 12 13  1  1  0  0  0
 12 14  1  0  0  0  0
 14 15  1  1  0  0  0
 14 16  1  0  0  0  0
 16 27  1  6  0  0  0
 18 19  2  0  0  0  0
 18 23  1  0  0  0  0
 19 20  1  0  0  0  0
 20 21  2  0  0  0  0
 21 22  1  0  0  0  0
 21 27  1  0  0  0  0
 22 23  2  0  0  0  0
 22 25  1  0  0  0  0
 23 24  1  0  0  0  0
 25 26  2  0  0  0  0
 26 27  1  0  0  0  0
M  END
>  <CHROM.1>
-88.80274468,-64.75838818,173.94466694,-70.45052715,128.61221906,71.92156420
-117.01292224,48.77685840,56.14182124,26.10533028,1.68193797,1.17306090,1.08371665

>  <Name>
ligand

>  <RI>
0

>  <Rbt.Current_Directory>
/home/itssahil/PROJECTS/Mol_Feturizer/New_Systems/rnas/2GIS

>  <Rbt.Executable>
rbdock ($Id: //depot/dev/client3/rdock/2013.1/src/exe/rbdock.cxx#4 $)

>  <Rbt.Library>
libRbt.so (2013.1, Build901 2013/11/27)

>  <Rbt.Parameter_File>
/export/apps/rDock/src/rDock_2013.1_src/data/scripts/dock_solv.prm

>  <Rbt.Receptor>
prm/pocket_docking_8.prm

>  <SCORE>
-13.4366

>  <SCORE.INTER>
-12.8294

>  <SCORE.INTER.CONST>
1

>  <SCORE.INTER.POLAR>
0

>  <SCORE.INTER.ROT>
7

>  <SCORE.INTER.SOLV>
9.68172

>  <SCORE.INTER.VDW>
-20.0469

>  <SCORE.INTER.norm>
-0.475165

>  <SCORE.INTRA>
-0.610959

>  <SCORE.INTRA.DIHEDRAL>
-1.59312

>  <SCORE.INTRA.DIHEDRAL.0>
9.40024

>  <SCORE.INTRA.POLAR>
0

>  <SCORE.INTRA.POLAR.0>
0

>  <SCORE.INTRA.REPUL>
0

>  <SCORE.INTRA.REPUL.0>
0

>  <SCORE.INTRA.SOLV>
-2.46961

>  <SCORE.INTRA.SOLV.lig_0>
-47.1049

>  <SCORE.INTRA.VDW>
1.4204

>  <SCORE.INTRA.VDW.0>
-1.50278

>  <SCORE.INTRA.norm>
-0.0226281

>  <SCORE.RESTR>
0.00385161

>  <SCORE.RESTR.CAVITY>
0.00385161

>  <SCORE.RESTR.norm>
0.000142652

>  <SCORE.SYSTEM>
0

>  <SCORE.SYSTEM.CONST>
0

>  <SCORE.SYSTEM.DIHEDRAL>
0

>  <SCORE.SYSTEM.SOLV>
0

>  <SCORE.SYSTEM.norm>
0

>  <SCORE.heavy>
27

>  <SCORE.norm>
-0.49765

>  <RMSD>
8.890

$$$$
ligand
 OpenBabel11021811433D
libRbt.so/2013.1/901 2013/11/27
 27 29  0  0  0  0  0  0  0  0999 V2000
   48.9820   54.6027   41.0007 N   0  0  0  0  0  0  0  0  0  0  0  0
   47.9863   54.0651   40.0683 C   0  0  2  0  0  0  0  0  0  0  0  0
   47.6515   52.6352   40.4539 C   0  0  0  0  0  0  0  0  0  0  0  0
   46.5231   52.1943   40.2543 O   0  0  0  0  0  0  0  0  0  0  0  0
   48.5137   54.1067   38.6202 C   0  0  0  0  0  0  0  0  0  0  0  0
   47.3880   53.7144   37.6643 C   0  0  0  0  0  0  0  0  0  0  0  0
   47.8252   53.7598   35.8780 S   0  0  2  0  0  0  0  0  0  0  0  0
   48.9102   55.2128   35.7242 C   0  0  0  0  0  0  0  0  0  0  0  0
   46.2481   54.4339   35.3147 C   0  0  0  0  0  0  0  0  0  0  0  0
   46.2151   54.7632   33.8121 C   0  0  1  0  0  0  0  0  0  0  0  0
   45.8223   53.5700   33.0714 O   0  0  0  0  0  0  0  0  0  0  0  0
   45.0539   55.7181   33.7070 C   0  0  1  0  0  0  0  0  0  0  0  0
   45.5302   57.0640   33.7275 O   0  0  0  0  0  0  0  0  0  0  0  0
   44.4320   55.3954   32.3539 C   0  0  1  0  0  0  0  0  0  0  0  0
   44.8851   56.2756   31.3319 O   0  0  0  0  0  0  0  0  0  0  0  0
   44.8364   53.9117   32.0269 C   0  0  2  0  0  0  0  0  0  0  0  0
   48.4880   51.9346   41.0243 O   0  0  0  0  0  0  0  0  0  0  0  0
   41.8312   51.0736   35.2666 N   0  0  0  0  0  0  0  0  0  0  0  0
   42.8154   51.9187   35.5925 C   0  0  0  0  0  0  0  0  0  0  0  0
   43.4830   52.5876   34.6657 N   0  0  0  0  0  0  0  0  0  0  0  0
   43.2223   52.4215   33.3585 C   0  0  0  0  0  0  0  0  0  0  0  0
   42.1967   51.5252   32.9621 C   0  0  0  0  0  0  0  0  0  0  0  0
   41.4930   50.8438   33.9872 C   0  0  0  0  0  0  0  0  0  0  0  0
   40.4828   49.9607   33.6786 N   0  0  0  0  0  0  0  0  0  0  0  0
   42.1438   51.5424   31.6153 N   0  0  0  0  0  0  0  0  0  0  0  0
   43.0494   52.3601   31.1641 C   0  0  0  0  0  0  0  0  0  0  0  0
   43.7406   52.9343   32.1944 N   0  0  0  0  0  0  0  0  0  0  0  0
  2  1  1  1  0  0  0
  2  3  1  0  0  0  0
  2  5  1  0  0  0  0
  3  4  1  0  0  0  0
  3 17  1  0  0  0  0
  5  6  1  0  0  0  0
  7  6  1  1  0  0  0
  7  8  1  0  0  0  0
  7  9  1  0  0  0  0
 10  9  1  1  0  0  0
 10 11  1  0  0  0  0
 10 12  1  0  0  0  0
 11 16  1  0  0  0  0
 12 13  1  6  0  0  0
 12 14  1  0  0  0  0
 14 15  1  6  0  0  0
 14 16  1  0  0  0  0
 16 27  1  1  0  0  0
 18 19  2  0  0  0  0
 18 23  1  0  0  0  0
 19 20  1  0  0  0  0
 20 21  2  0  0  0  0
 21 22  1  0  0  0  0
 21 27  1  0  0  0  0
 22 23  2  0  0  0  0
 22 25  1  0  0  0  0
 23 24  1  0  0  0  0
 25 26  2  0  0  0  0
 26 27  1  0  0  0  0
M  END
>  <CHROM.1>
147.99470012,-172.59747746,178.18848787,-37.61910317,174.82313872,87.11232573
37.74724707,45.38364159,53.42351553,35.28372231,0.67755190,0.68457922,2.11310847

>  <Name>
ligand

>  <RI>
0

>  <Rbt.Current_Directory>
/home/itssahil/PROJECTS/Mol_Feturizer/New_Systems/rnas/2GIS

>  <Rbt.Executable>
rbdock ($Id: //depot/dev/client3/rdock/2013.1/src/exe/rbdock.cxx#4 $)

>  <Rbt.Library>
libRbt.so (2013.1, Build901 2013/11/27)

>  <Rbt.Parameter_File>
/export/apps/rDock/src/rDock_2013.1_src/data/scripts/dock_solv.prm

>  <Rbt.Receptor>
prm/pocket_docking_8.prm

>  <SCORE>
-17.5745

>  <SCORE.INTER>
-14.6252

>  <SCORE.INTER.CONST>
1

>  <SCORE.INTER.POLAR>
0

>  <SCORE.INTER.ROT>
7

>  <SCORE.INTER.SOLV>
10.2443

>  <SCORE.INTER.VDW>
-21.4316

>  <SCORE.INTER.norm>
-0.541675

>  <SCORE.INTRA>
-2.94922

>  <SCORE.INTRA.DIHEDRAL>
-1.41543

>  <SCORE.INTRA.DIHEDRAL.0>
9.40024

>  <SCORE.INTRA.POLAR>
0

>  <SCORE.INTRA.POLAR.0>
0

>  <SCORE.INTRA.REPUL>
0

>  <SCORE.INTRA.REPUL.0>
0

>  <SCORE.INTRA.SOLV>
-3.09076

>  <SCORE.INTRA.SOLV.lig_0>
-47.1049

>  <SCORE.INTRA.VDW>
-0.696128

>  <SCORE.INTRA.VDW.0>
-1.50278

>  <SCORE.INTRA.norm>
-0.10923

>  <SCORE.RESTR>
0

>  <SCORE.RESTR.CAVITY>
0

>  <SCORE.RESTR.norm>
0

>  <SCORE.SYSTEM>
0

>  <SCORE.SYSTEM.CONST>
0

>  <SCORE.SYSTEM.DIHEDRAL>
0

>  <SCORE.SYSTEM.SOLV>
0

>  <SCORE.SYSTEM.norm>
0

>  <SCORE.heavy>
27

>  <SCORE.norm>
-0.650906

>  <RMSD>
9.423

$$$$
ligand
 OpenBabel11021811433D
libRbt.so/2013.1/901 2013/11/27
 27 29  0  0  0  0  0  0  0  0999 V2000
   51.7453   52.1720   22.3087 N   0  0  0  0  0  0  0  0  0  0  0  0
   53.0375   52.7393   21.9105 C   0  0  2  0  0  0  0  0  0  0  0  0
   52.9641   53.2019   20.4663 C   0  0  0  0  0  0  0  0  0  0  0  0
   52.6883   52.3997   19.5786 O   0  0  0  0  0  0  0  0  0  0  0  0
   54.1644   51.6994   22.0702 C   0  0  0  0  0  0  0  0  0  0  0  0
   54.8570   51.9119   23.4155 C   0  0  0  0  0  0  0  0  0  0  0  0
   54.4879   50.6439   24.6961 S   0  0  2  0  0  0  0  0  0  0  0  0
   54.4121   49.0824   23.7644 C   0  0  0  0  0  0  0  0  0  0  0  0
   52.7354   51.0447   24.8593 C   0  0  0  0  0  0  0  0  0  0  0  0
   52.4617   52.2973   25.7097 C   0  0  1  0  0  0  0  0  0  0  0  0
   52.5767   53.4809   24.8655 O   0  0  0  0  0  0  0  0  0  0  0  0
   50.9971   52.1622   26.0381 C   0  0  1  0  0  0  0  0  0  0  0  0
   50.8425   51.5694   27.3278 O   0  0  0  0  0  0  0  0  0  0  0  0
   50.4872   53.5980   26.0490 C   0  0  1  0  0  0  0  0  0  0  0  0
   50.4437   54.1417   27.3632 O   0  0  0  0  0  0  0  0  0  0  0  0
   51.4723   54.4212   25.1412 C   0  0  2  0  0  0  0  0  0  0  0  0
   53.2421   54.3648   20.1726 O   0  0  0  0  0  0  0  0  0  0  0  0
   47.3774   54.4193   21.8528 N   0  0  0  0  0  0  0  0  0  0  0  0
   47.4272   53.9354   23.0987 C   0  0  0  0  0  0  0  0  0  0  0  0
   48.5296   54.0209   23.8265 N   0  0  0  0  0  0  0  0  0  0  0  0
   49.6531   54.5675   23.3333 C   0  0  0  0  0  0  0  0  0  0  0  0
   49.6542   55.0821   22.0114 C   0  0  0  0  0  0  0  0  0  0  0  0
   48.4472   54.9883   21.2733 C   0  0  0  0  0  0  0  0  0  0  0  0
   48.3720   55.4691   19.9853 N   0  0  0  0  0  0  0  0  0  0  0  0
   50.8892   55.5636   21.7666 N   0  0  0  0  0  0  0  0  0  0  0  0
   51.6344   55.3780   22.8166 C   0  0  0  0  0  0  0  0  0  0  0  0
   50.9230   54.7726   23.8149 N   0  0  0  0  0  0  0  0  0  0  0  0
  2  1  1  6  0  0  0
  2  3  1  0  0  0  0
  2  5  1  0  0  0  0
  3  4  1  0  0  0  0
  3 17  1  0  0  0  0
  5  6  1  0  0  0  0
  7  6  1  6  0  0  0
  7  8  1  0  0  0  0
  7  9  1  0  0  0  0
 10  9  1  6  0  0  0
 10 11  1  0  0  0  0
 10 12  1  0  0  0  0
 11 16  1  0  0  0  0
 12 13  1  1  0  0  0
 12 14  1  0  0  0  0
 14 15  1  1  0  0  0
 14 16  1  0  0  0  0
 16 27  1  6  0  0  0
 18 19  2  0  0  0  0
 18 23  1  0  0  0  0
 19 20  1  0  0  0  0
 20 21  2  0  0  0  0
 21 22  1  0  0  0  0
 21 27  1  0  0  0  0
 22 23  2  0  0  0  0
 22 25  1  0  0  0  0
 23 24  1  0  0  0  0
 25 26  2  0  0  0  0
 26 27  1  0  0  0  0
M  END
>  <CHROM.1>
-58.96850588,-96.33919316,107.04028852,37.86457853,-78.40263088,84.66304403
119.15328381,51.55993715,53.12964270,23.40870538,-0.57070530,0.56779168,-1.31383237

>  <Name>
ligand

>  <RI>
0

>  <Rbt.Current_Directory>
/home/itssahil/PROJECTS/Mol_Feturizer/New_Systems/rnas/2GIS

>  <Rbt.Executable>
rbdock ($Id: //depot/dev/client3/rdock/2013.1/src/exe/rbdock.cxx#4 $)

>  <Rbt.Library>
libRbt.so (2013.1, Build901 2013/11/27)

>  <Rbt.Parameter_File>
/export/apps/rDock/src/rDock_2013.1_src/data/scripts/dock_solv.prm

>  <Rbt.Receptor>
prm/blind_docking_80.prm

>  <SCORE>
-7.76235

>  <SCORE.INTER>
-9.33538

>  <SCORE.INTER.CONST>
1

>  <SCORE.INTER.POLAR>
0

>  <SCORE.INTER.ROT>
7

>  <SCORE.INTER.SOLV>
11.7105

>  <SCORE.INTER.VDW>
-18.3938

>  <SCORE.INTER.norm>
-0.345755

>  <SCORE.INTRA>
1.57303

>  <SCORE.INTRA.DIHEDRAL>
5.34812

>  <SCORE.INTRA.DIHEDRAL.0>
9.40024

>  <SCORE.INTRA.POLAR>
0

>  <SCORE.INTRA.POLAR.0>
0

>  <SCORE.INTRA.REPUL>
0

>  <SCORE.INTRA.REPUL.0>
0

>  <SCORE.INTRA.SOLV>
3.62214

>  <SCORE.INTRA.SOLV.lig_0>
-47.1049

>  <SCORE.INTRA.VDW>
-2.9121

>  <SCORE.INTRA.VDW.0>
-1.50278

>  <SCORE.INTRA.norm>
0.0582605

>  <SCORE.RESTR>
0

>  <SCORE.RESTR.CAVITY>
0

>  <SCORE.RESTR.norm>
0

>  <SCORE.SYSTEM>
0

>  <SCORE.SYSTEM.CONST>
0

>  <SCORE.SYSTEM.DIHEDRAL>
0

>  <SCORE.SYSTEM.SOLV>
0

>  <SCORE.SYSTEM.norm>
0

>  <SCORE.heavy>
27

>  <SCORE.norm>
-0.287494

>  <RMSD>
9.612

$$$$
ligand
 OpenBabel11021811433D
libRbt.so/2013.1/901 2013/11/27
 27 29  0  0  0  0  0  0  0  0999 V2000
   52.9907   55.5990   18.0736 N   0  0  0  0  0  0  0  0  0  0  0  0
   51.8319   54.8100   17.6439 C   0  0  2  0  0  0  0  0  0  0  0  0
   51.4953   55.1483   16.2025 C   0  0  0  0  0  0  0  0  0  0  0  0
   50.7803   54.3957   15.5468 O   0  0  0  0  0  0  0  0  0  0  0  0
   50.6134   55.0913   18.5456 C   0  0  0  0  0  0  0  0  0  0  0  0
   50.7956   54.3642   19.8770 C   0  0  0  0  0  0  0  0  0  0  0  0
   49.3305   54.3870   20.9894 S   0  0  2  0  0  0  0  0  0  0  0  0
   49.5693   55.8776   22.0059 C   0  0  0  0  0  0  0  0  0  0  0  0
   49.9215   53.0979   22.1065 C   0  0  0  0  0  0  0  0  0  0  0  0
   51.3675   53.3087   22.5877 C   0  0  1  0  0  0  0  0  0  0  0  0
   51.3478   54.0341   23.8527 O   0  0  0  0  0  0  0  0  0  0  0  0
   51.8146   51.9081   22.9192 C   0  0  1  0  0  0  0  0  0  0  0  0
   52.5359   51.3565   21.8173 O   0  0  0  0  0  0  0  0  0  0  0  0
   52.7354   52.0889   24.1197 C   0  0  1  0  0  0  0  0  0  0  0  0
   54.1063   52.1359   23.7417 O   0  0  0  0  0  0  0  0  0  0  0  0
   52.3034   53.4359   24.8061 C   0  0  2  0  0  0  0  0  0  0  0  0
   51.9877   56.1417   15.6673 O   0  0  0  0  0  0  0  0  0  0  0  0
   47.7739   52.1723   27.1446 N   0  0  0  0  0  0  0  0  0  0  0  0
   48.0385   52.2009   25.8338 C   0  0  0  0  0  0  0  0  0  0  0  0
   49.2402   52.5224   25.3814 N   0  0  0  0  0  0  0  0  0  0  0  0
   50.2343   52.8646   26.2174 C   0  0  0  0  0  0  0  0  0  0  0  0
   49.9984   52.8629   27.6162 C   0  0  0  0  0  0  0  0  0  0  0  0
   48.7033   52.4934   28.0594 C   0  0  0  0  0  0  0  0  0  0  0  0
   48.4015   52.4659   29.4025 N   0  0  0  0  0  0  0  0  0  0  0  0
   51.1428   53.2424   28.2191 N   0  0  0  0  0  0  0  0  0  0  0  0
   52.0434   53.4810   27.3112 C   0  0  0  0  0  0  0  0  0  0  0  0
   51.5404   53.2594   26.0594 N   0  0  0  0  0  0  0  0  0  0  0  0
  2  1  1  1  0  0  0
  2  3  1  0  0  0  0
  2  5  1  0  0  0  0
  3  4  1  0  0  0  0
  3 17  1  0  0  0  0
  5  6  1  0  0  0  0
  7  6  1  6  0  0  0
  7  8  1  0  0  0  0
  7  9  1  0  0  0  0
 10  9  1  1  0  0  0
 10 11  1  0  0  0  0
 10 12  1  0  0  0  0
 11 16  1  0  0  0  0
 12 13  1  6  0  0  0
 12 14  1  0  0  0  0
 14 15  1  6  0  0  0
 14 16  1  0  0  0  0
 16 27  1  1  0  0  0
 18 19  2  0  0  0  0
 18 23  1  0  0  0  0
 19 20  1  0  0  0  0
 20 21  2  0  0  0  0
 21 22  1  0  0  0  0
 21 27  1  0  0  0  0
 22 23  2  0  0  0  0
 22 25  1  0  0  0  0
 23 24  1  0  0  0  0
 25 26  2  0  0  0  0
 26 27  1  0  0  0  0
M  END
>  <CHROM.1>
162.74585731,-76.22434209,-171.61801796,-90.58156360,48.75916285,93.00659611
38.88555911,50.80730735,53.57398998,22.79712132,-1.42300508,-0.23041470,1.83866425

>  <Name>
ligand

>  <RI>
0

>  <Rbt.Current_Directory>
/home/itssahil/PROJECTS/Mol_Feturizer/New_Systems/rnas/2GIS

>  <Rbt.Executable>
rbdock ($Id: //depot/dev/client3/rdock/2013.1/src/exe/rbdock.cxx#4 $)

>  <Rbt.Library>
libRbt.so (2013.1, Build901 2013/11/27)

>  <Rbt.Parameter_File>
/export/apps/rDock/src/rDock_2013.1_src/data/scripts/dock_solv.prm

>  <Rbt.Receptor>
prm/blind_docking_80.prm

>  <SCORE>
-10.5025

>  <SCORE.INTER>
-8.44915

>  <SCORE.INTER.CONST>
1

>  <SCORE.INTER.POLAR>
0

>  <SCORE.INTER.ROT>
7

>  <SCORE.INTER.SOLV>
9.35522

>  <SCORE.INTER.VDW>
-17.0178

>  <SCORE.INTER.norm>
-0.312932

>  <SCORE.INTRA>
-2.29483

>  <SCORE.INTRA.DIHEDRAL>
-0.549102

>  <SCORE.INTRA.DIHEDRAL.0>
9.40024

>  <SCORE.INTRA.POLAR>
0

>  <SCORE.INTRA.POLAR.0>
0

>  <SCORE.INTRA.REPUL>
0

>  <SCORE.INTRA.REPUL.0>
0

>  <SCORE.INTRA.SOLV>
-2.33704

>  <SCORE.INTRA.SOLV.lig_0>
-47.1049

>  <SCORE.INTRA.VDW>
-0.85176

>  <SCORE.INTRA.VDW.0>
-1.50278

>  <SCORE.INTRA.norm>
-0.0849937

>  <SCORE.RESTR>
0.241514

>  <SCORE.RESTR.CAVITY>
0.241514

>  <SCORE.RESTR.norm>
0.00894495

>  <SCORE.SYSTEM>
0

>  <SCORE.SYSTEM.CONST>
0

>  <SCORE.SYSTEM.DIHEDRAL>
0

>  <SCORE.SYSTEM.SOLV>
0

>  <SCORE.SYSTEM.norm>
0

>  <SCORE.heavy>
27

>  <SCORE.norm>
-0.38898

>  <RMSD>
10.115

$$$$
ligand
 OpenBabel11021811433D
libRbt.so/2013.1/901 2013/11/27
 27 29  0  0  0  0  0  0  0  0999 V2000
   43.8879   54.1695   19.2933 N   0  0  0  0  0  0  0  0  0  0  0  0
   44.1246   55.5881   19.5789 C   0  0  2  0  0  0  0  0  0  0  0  0
   43.0835   56.4295   18.8623 C   0  0  0  0  0  0  0  0  0  0  0  0
   42.6432   57.4446   19.3945 O   0  0  0  0  0  0  0  0  0  0  0  0
   45.5377   56.0088   19.1283 C   0  0  0  0  0  0  0  0  0  0  0  0
   46.5716   55.1341   19.8359 C   0  0  0  0  0  0  0  0  0  0  0  0
   48.1931   55.9414   20.1573 S   0  0  2  0  0  0  0  0  0  0  0  0
   48.9661   56.0526   18.5135 C   0  0  0  0  0  0  0  0  0  0  0  0
   49.0033   54.4760   20.8316 C   0  0  0  0  0  0  0  0  0  0  0  0
   50.4174   54.7436   21.3756 C   0  0  1  0  0  0  0  0  0  0  0  0
   50.3122   55.3923   22.6775 O   0  0  0  0  0  0  0  0  0  0  0  0
   50.9379   53.3550   21.6446 C   0  0  1  0  0  0  0  0  0  0  0  0
   51.7271   52.9113   20.5405 O   0  0  0  0  0  0  0  0  0  0  0  0
   51.8063   53.5203   22.8857 C   0  0  1  0  0  0  0  0  0  0  0  0
   53.1834   53.6698   22.5606 O   0  0  0  0  0  0  0  0  0  0  0  0
   51.2708   54.7976   23.6299 C   0  0  2  0  0  0  0  0  0  0  0  0
   42.6312   56.0647   17.7769 O   0  0  0  0  0  0  0  0  0  0  0  0
   47.5543   51.9058   25.9551 N   0  0  0  0  0  0  0  0  0  0  0  0
   47.9951   51.8135   24.6956 C   0  0  0  0  0  0  0  0  0  0  0  0
   48.9588   52.6010   24.2446 N   0  0  0  0  0  0  0  0  0  0  0  0
   49.5113   53.5468   25.0222 C   0  0  0  0  0  0  0  0  0  0  0  0
   49.0673   53.6929   26.3616 C   0  0  0  0  0  0  0  0  0  0  0  0
   48.0473   52.8163   26.8106 C   0  0  0  0  0  0  0  0  0  0  0  0
   47.5683   52.8970   28.0989 N   0  0  0  0  0  0  0  0  0  0  0  0
   49.7721   54.7010   26.9128 N   0  0  0  0  0  0  0  0  0  0  0  0
   50.5934   55.1812   26.0256 C   0  0  0  0  0  0  0  0  0  0  0  0
   50.4795   54.5044   24.8432 N   0  0  0  0  0  0  0  0  0  0  0  0
  2  1  1  6  0  0  0
  2  3  1  0  0  0  0
  2  5  1  0  0  0  0
  3  4  1  0  0  0  0
  3 17  1  0  0  0  0
  5  6  1  0  0  0  0
  7  6  1  6  0  0  0
  7  8  1  0  0  0  0
  7  9  1  0  0  0  0
 10  9  1  1  0  0  0
 10 11  1  0  0  0  0
 10 12  1  0  0  0  0
 11 16  1  0  0  0  0
 12 13  1  6  0  0  0
 12 14  1  0  0  0  0
 14 15  1  6  0  0  0
 14 16  1  0  0  0  0
 16 27  1  1  0  0  0
 18 19  2  0  0  0  0
 18 23  1  0  0  0  0
 19 20  1  0  0  0  0
 20 21  2  0  0  0  0
 21 22  1  0  0  0  0
 21 27  1  0  0  0  0
 22 23  2  0  0  0  0
 22 25  1  0  0  0  0
 23 24  1  0  0  0  0
 25 26  2  0  0  0  0
 26 27  1  0  0  0  0
M  END
>  <CHROM.1>
143.88774637,-57.75182745,-149.54766005,-72.11008618,-174.62423321,77.18050370
70.19529413,48.27216305,54.52851678,22.28089265,2.28656818,0.09641250,-1.27239067

>  <Name>
ligand

>  <RI>
0

>  <Rbt.Current_Directory>
/home/itssahil/PROJECTS/Mol_Feturizer/New_Systems/rnas/2GIS

>  <Rbt.Executable>
rbdock ($Id: //depot/dev/client3/rdock/2013.1/src/exe/rbdock.cxx#4 $)

>  <Rbt.Library>
libRbt.so (2013.1, Build901 2013/11/27)

>  <Rbt.Parameter_File>
/export/apps/rDock/src/rDock_2013.1_src/data/scripts/dock_solv.prm

>  <Rbt.Receptor>
prm/blind_docking_80.prm

>  <SCORE>
-11.6026

>  <SCORE.INTER>
-8.36694

>  <SCORE.INTER.CONST>
1

>  <SCORE.INTER.POLAR>
0

>  <SCORE.INTER.ROT>
7

>  <SCORE.INTER.SOLV>
12.8335

>  <SCORE.INTER.VDW>
-18.1225

>  <SCORE.INTER.norm>
-0.309887

>  <SCORE.INTRA>
-3.33682

>  <SCORE.INTRA.DIHEDRAL>
-1.76636

>  <SCORE.INTRA.DIHEDRAL.0>
9.40024

>  <SCORE.INTRA.POLAR>
0

>  <SCORE.INTRA.POLAR.0>
0

>  <SCORE.INTRA.REPUL>
0

>  <SCORE.INTRA.REPUL.0>
0

>  <SCORE.INTRA.SOLV>
-2.40362

>  <SCORE.INTRA.SOLV.lig_0>
-47.1049

>  <SCORE.INTRA.VDW>
-1.25183

>  <SCORE.INTRA.VDW.0>
-1.50278

>  <SCORE.INTRA.norm>
-0.123586

>  <SCORE.RESTR>
0.101196

>  <SCORE.RESTR.CAVITY>
0.101196

>  <SCORE.RESTR.norm>
0.003748

>  <SCORE.SYSTEM>
0

>  <SCORE.SYSTEM.CONST>
0

>  <SCORE.SYSTEM.DIHEDRAL>
0

>  <SCORE.SYSTEM.SOLV>
0

>  <SCORE.SYSTEM.norm>
0

>  <SCORE.heavy>
27

>  <SCORE.norm>
-0.429725

>  <RMSD>
10.223

$$$$
ligand
 OpenBabel11021811433D
libRbt.so/2013.1/901 2013/11/27
 27 29  0  0  0  0  0  0  0  0999 V2000
   48.4609   52.2217   19.6690 N   0  0  0  0  0  0  0  0  0  0  0  0
   48.6287   53.4428   20.4633 C   0  0  2  0  0  0  0  0  0  0  0  0
   47.2650   54.0187   20.8009 C   0  0  0  0  0  0  0  0  0  0  0  0
   46.2532   53.3480   20.6164 O   0  0  0  0  0  0  0  0  0  0  0  0
   49.4614   54.4868   19.6929 C   0  0  0  0  0  0  0  0  0  0  0  0
   50.8292   53.8922   19.3607 C   0  0  0  0  0  0  0  0  0  0  0  0
   52.1640   54.2743   20.5676 S   0  0  2  0  0  0  0  0  0  0  0  0
   53.5716   54.7740   19.5278 C   0  0  0  0  0  0  0  0  0  0  0  0
   52.5853   52.5574   20.9330 C   0  0  0  0  0  0  0  0  0  0  0  0
   53.2597   52.3616   22.3020 C   0  0  1  0  0  0  0  0  0  0  0  0
   52.4190   52.9536   23.3362 O   0  0  0  0  0  0  0  0  0  0  0  0
   53.1767   50.8703   22.5027 C   0  0  1  0  0  0  0  0  0  0  0  0
   54.4028   50.2586   22.1010 O   0  0  0  0  0  0  0  0  0  0  0  0
   52.9705   50.7108   24.0039 C   0  0  1  0  0  0  0  0  0  0  0  0
   54.1908   50.4522   24.6884 O   0  0  0  0  0  0  0  0  0  0  0  0
   52.3285   52.0558   24.5048 C   0  0  2  0  0  0  0  0  0  0  0  0
   47.1632   55.1791   21.1995 O   0  0  0  0  0  0  0  0  0  0  0  0
   47.5053   54.0659   23.9779 N   0  0  0  0  0  0  0  0  0  0  0  0
   48.6499   54.5414   23.4750 C   0  0  0  0  0  0  0  0  0  0  0  0
   49.8002   53.9169   23.6729 N   0  0  0  0  0  0  0  0  0  0  0  0
   49.8710   52.7985   24.4135 C   0  0  0  0  0  0  0  0  0  0  0  0
   48.6858   52.2631   24.9800 C   0  0  0  0  0  0  0  0  0  0  0  0
   47.4726   52.9518   24.7273 C   0  0  0  0  0  0  0  0  0  0  0  0
   46.2820   52.4897   25.2418 N   0  0  0  0  0  0  0  0  0  0  0  0
   49.0314   51.1570   25.6686 N   0  0  0  0  0  0  0  0  0  0  0  0
   50.3172   50.9823   25.5760 C   0  0  0  0  0  0  0  0  0  0  0  0
   50.8855   51.9614   24.8096 N   0  0  0  0  0  0  0  0  0  0  0  0
  2  1  1  6  0  0  0
  2  3  1  0  0  0  0
  2  5  1  0  0  0  0
  3  4  1  0  0  0  0
  3 17  1  0  0  0  0
  5  6  1  0  0  0  0
  7  6  1  6  0  0  0
  7  8  1  0  0  0  0
  7  9  1  0  0  0  0
 10  9  1  6  0  0  0
 10 11  1  0  0  0  0
 10 12  1  0  0  0  0
 11 16  1  0  0  0  0
 12 13  1  1  0  0  0
 12 14  1  0  0  0  0
 14 15  1  1  0  0  0
 14 16  1  0  0  0  0
 16 27  1  6  0  0  0
 18 19  2  0  0  0  0
 18 23  1  0  0  0  0
 19 20  1  0  0  0  0
 20 21  2  0  0  0  0
 21 22  1  0  0  0  0
 21 27  1  0  0  0  0
 22 23  2  0  0  0  0
 22 25  1  0  0  0  0
 23 24  1  0  0  0  0
 25 26  2  0  0  0  0
 26 27  1  0  0  0  0
M  END
>  <CHROM.1>
12.55078408,-58.90008505,-94.34289991,-133.67748363,-156.28107041,53.95963499
-18.35751314,50.41940052,52.84990339,22.54108969,-2.90693909,-0.25781651
2.02282743

>  <Name>
ligand

>  <RI>
0

>  <Rbt.Current_Directory>
/home/itssahil/PROJECTS/Mol_Feturizer/New_Systems/rnas/2GIS

>  <Rbt.Executable>
rbdock ($Id: //depot/dev/client3/rdock/2013.1/src/exe/rbdock.cxx#4 $)

>  <Rbt.Library>
libRbt.so (2013.1, Build901 2013/11/27)

>  <Rbt.Parameter_File>
/export/apps/rDock/src/rDock_2013.1_src/data/scripts/dock_solv.prm

>  <Rbt.Receptor>
prm/blind_docking_80.prm

>  <SCORE>
-10.2064

>  <SCORE.INTER>
-9.18566

>  <SCORE.INTER.CONST>
1

>  <SCORE.INTER.POLAR>
0

>  <SCORE.INTER.ROT>
7

>  <SCORE.INTER.SOLV>
15.3542

>  <SCORE.INTER.VDW>
-19.5085

>  <SCORE.INTER.norm>
-0.34021

>  <SCORE.INTRA>
-1.02071

>  <SCORE.INTRA.DIHEDRAL>
3.95673

>  <SCORE.INTRA.DIHEDRAL.0>
9.40024

>  <SCORE.INTRA.POLAR>
0

>  <SCORE.INTRA.POLAR.0>
0

>  <SCORE.INTRA.REPUL>
0

>  <SCORE.INTRA.REPUL.0>
0

>  <SCORE.INTRA.SOLV>
-1.79826

>  <SCORE.INTRA.SOLV.lig_0>
-47.1049

>  <SCORE.INTRA.VDW>
-2.09995

>  <SCORE.INTRA.VDW.0>
-1.50278

>  <SCORE.INTRA.norm>
-0.0378043

>  <SCORE.RESTR>
0

>  <SCORE.RESTR.CAVITY>
0

>  <SCORE.RESTR.norm>
0

>  <SCORE.SYSTEM>
0

>  <SCORE.SYSTEM.CONST>
0

>  <SCORE.SYSTEM.DIHEDRAL>
0

>  <SCORE.SYSTEM.SOLV>
0

>  <SCORE.SYSTEM.norm>
0

>  <SCORE.heavy>
27

>  <SCORE.norm>
-0.378014

>  <RMSD>
10.380

$$$$
ligand
 OpenBabel11021811433D
libRbt.so/2013.1/901 2013/11/27
 27 29  0  0  0  0  0  0  0  0999 V2000
   48.8146   55.9853   18.7460 N   0  0  0  0  0  0  0  0  0  0  0  0
   50.1614   55.5088   19.0760 C   0  0  2  0  0  0  0  0  0  0  0  0
   51.0807   55.7256   17.8873 C   0  0  0  0  0  0  0  0  0  0  0  0
   50.9074   55.0865   16.8534 O   0  0  0  0  0  0  0  0  0  0  0  0
   50.1362   54.0139   19.4523 C   0  0  0  0  0  0  0  0  0  0  0  0
   51.5139   53.6032   19.9699 C   0  0  0  0  0  0  0  0  0  0  0  0
   51.9813   54.3119   21.6019 S   0  0  2  0  0  0  0  0  0  0  0  0
   53.6697   53.6947   21.8857 C   0  0  0  0  0  0  0  0  0  0  0  0
   51.0106   53.1578   22.5941 C   0  0  0  0  0  0  0  0  0  0  0  0
   50.0518   53.8434   23.5829 C   0  0  1  0  0  0  0  0  0  0  0  0
   49.1325   54.6980   22.8403 O   0  0  0  0  0  0  0  0  0  0  0  0
   49.2255   52.6924   24.0964 C   0  0  1  0  0  0  0  0  0  0  0  0
   49.7593   52.2285   25.3368 O   0  0  0  0  0  0  0  0  0  0  0  0
   47.8421   53.2956   24.3060 C   0  0  1  0  0  0  0  0  0  0  0  0
   47.6266   53.6866   25.6570 O   0  0  0  0  0  0  0  0  0  0  0  0
   47.7554   54.5398   23.3486 C   0  0  2  0  0  0  0  0  0  0  0  0
   52.0390   56.4934   17.9763 O   0  0  0  0  0  0  0  0  0  0  0  0
   43.0995   53.2076   21.3165 N   0  0  0  0  0  0  0  0  0  0  0  0
   43.4410   53.2716   22.6081 C   0  0  0  0  0  0  0  0  0  0  0  0
   44.6553   53.6440   22.9810 N   0  0  0  0  0  0  0  0  0  0  0  0
   45.6043   53.9414   22.0782 C   0  0  0  0  0  0  0  0  0  0  0  0
   45.2944   53.8744   20.6955 C   0  0  0  0  0  0  0  0  0  0  0  0
   43.9768   53.4905   20.3396 C   0  0  0  0  0  0  0  0  0  0  0  0
   43.6023   53.4065   19.0173 N   0  0  0  0  0  0  0  0  0  0  0  0
   46.4079   54.2132   20.0153 N   0  0  0  0  0  0  0  0  0  0  0  0
   47.3622   54.4692   20.8615 C   0  0  0  0  0  0  0  0  0  0  0  0
   46.9221   54.3228   22.1475 N   0  0  0  0  0  0  0  0  0  0  0  0
  2  1  1  6  0  0  0
  2  3  1  0  0  0  0
  2  5  1  0  0  0  0
  3  4  1  0  0  0  0
  3 17  1  0  0  0  0
  5  6  1  0  0  0  0
  7  6  1  6  0  0  0
  7  8  1  0  0  0  0
  7  9  1  0  0  0  0
 10  9  1  6  0  0  0
 10 11  1  0  0  0  0
 10 12  1  0  0  0  0
 11 16  1  0  0  0  0
 12 13  1  1  0  0  0
 12 14  1  0  0  0  0
 14 15  1  1  0  0  0
 14 16  1  0  0  0  0
 16 27  1  6  0  0  0
 18 19  2  0  0  0  0
 18 23  1  0  0  0  0
 19 20  1  0  0  0  0
 20 21  2  0  0  0  0
 21 22  1  0  0  0  0
 21 27  1  0  0  0  0
 22 23  2  0  0  0  0
 22 25  1  0  0  0  0
 23 24  1  0  0  0  0
 25 26  2  0  0  0  0
 26 27  1  0  0  0  0
M  END
>  <CHROM.1>
-67.18557241,-172.38494115,69.35512287,-177.68531910,-126.49809922,58.84878417
170.20551563,48.54635078,54.10745996,21.40137035,0.33482921,-0.07922885,-1.27933614

>  <Name>
ligand

>  <RI>
0

>  <Rbt.Current_Directory>
/home/itssahil/PROJECTS/Mol_Feturizer/New_Systems/rnas/2GIS

>  <Rbt.Executable>
rbdock ($Id: //depot/dev/client3/rdock/2013.1/src/exe/rbdock.cxx#4 $)

>  <Rbt.Library>
libRbt.so (2013.1, Build901 2013/11/27)

>  <Rbt.Parameter_File>
/export/apps/rDock/src/rDock_2013.1_src/data/scripts/dock_solv.prm

>  <Rbt.Receptor>
prm/blind_docking_80.prm

>  <SCORE>
-17.4865

>  <SCORE.INTER>
-14.3091

>  <SCORE.INTER.CONST>
1

>  <SCORE.INTER.POLAR>
0

>  <SCORE.INTER.ROT>
7

>  <SCORE.INTER.SOLV>
14.2931

>  <SCORE.INTER.VDW>
-22.5704

>  <SCORE.INTER.norm>
-0.529967

>  <SCORE.INTRA>
-3.17734

>  <SCORE.INTRA.DIHEDRAL>
-0.820505

>  <SCORE.INTRA.DIHEDRAL.0>
9.40024

>  <SCORE.INTRA.POLAR>
0

>  <SCORE.INTRA.POLAR.0>
0

>  <SCORE.INTRA.REPUL>
0

>  <SCORE.INTRA.REPUL.0>
0

>  <SCORE.INTRA.SOLV>
-1.88504

>  <SCORE.INTRA.SOLV.lig_0>
-47.1049

>  <SCORE.INTRA.VDW>
-1.82457

>  <SCORE.INTRA.VDW.0>
-1.50278

>  <SCORE.INTRA.norm>
-0.117679

>  <SCORE.RESTR>
0

>  <SCORE.RESTR.CAVITY>
0

>  <SCORE.RESTR.norm>
0

>  <SCORE.SYSTEM>
0

>  <SCORE.SYSTEM.CONST>
0

>  <SCORE.SYSTEM.DIHEDRAL>
0

>  <SCORE.SYSTEM.SOLV>
0

>  <SCORE.SYSTEM.norm>
0

>  <SCORE.heavy>
27

>  <SCORE.norm>
-0.647647

>  <RMSD>
10.809

$$$$
ligand
 OpenBabel11021811433D
libRbt.so/2013.1/901 2013/11/27
 27 29  0  0  0  0  0  0  0  0999 V2000
   55.8430   51.6374   22.7844 N   0  0  0  0  0  0  0  0  0  0  0  0
   54.3917   51.6081   22.9907 C   0  0  2  0  0  0  0  0  0  0  0  0
   53.9203   50.1669   23.0687 C   0  0  0  0  0  0  0  0  0  0  0  0
   53.3613   49.7584   24.0827 O   0  0  0  0  0  0  0  0  0  0  0  0
   53.6610   52.3363   21.8451 C   0  0  0  0  0  0  0  0  0  0  0  0
   52.1528   52.1731   22.0275 C   0  0  0  0  0  0  0  0  0  0  0  0
   51.1206   53.4557   21.2065 S   0  0  2  0  0  0  0  0  0  0  0  0
   52.0914   53.9362   19.7440 C   0  0  0  0  0  0  0  0  0  0  0  0
   51.5264   54.7882   22.3547 C   0  0  0  0  0  0  0  0  0  0  0  0
   50.4601   55.0190   23.4396 C   0  0  1  0  0  0  0  0  0  0  0  0
   49.2472   55.5330   22.8138 O   0  0  0  0  0  0  0  0  0  0  0  0
   50.1340   53.6176   23.8880 C   0  0  1  0  0  0  0  0  0  0  0  0
   50.8846   53.2970   25.0595 O   0  0  0  0  0  0  0  0  0  0  0  0
   48.6454   53.6696   24.2087 C   0  0  1  0  0  0  0  0  0  0  0  0
   48.4024   53.8692   25.5964 O   0  0  0  0  0  0  0  0  0  0  0  0
   48.0555   54.8589   23.3663 C   0  0  2  0  0  0  0  0  0  0  0  0
   54.1524   49.3876   22.1442 O   0  0  0  0  0  0  0  0  0  0  0  0
   43.5526   52.9616   21.4411 N   0  0  0  0  0  0  0  0  0  0  0  0
   43.8559   53.2109   22.7198 C   0  0  0  0  0  0  0  0  0  0  0  0
   45.0326   53.7106   23.0629 N   0  0  0  0  0  0  0  0  0  0  0  0
   45.9825   53.9576   22.1458 C   0  0  0  0  0  0  0  0  0  0  0  0
   45.7132   53.6962   20.7778 C   0  0  0  0  0  0  0  0  0  0  0  0
   44.4338   53.1800   20.4513 C   0  0  0  0  0  0  0  0  0  0  0  0
   44.0997   52.9048   19.1442 N   0  0  0  0  0  0  0  0  0  0  0  0
   46.8186   54.0235   20.0791 N   0  0  0  0  0  0  0  0  0  0  0  0
   47.7318   54.4494   20.9020 C   0  0  0  0  0  0  0  0  0  0  0  0
   47.2696   54.4354   22.1885 N   0  0  0  0  0  0  0  0  0  0  0  0
  2  1  1  6  0  0  0
  2  3  1  0  0  0  0
  2  5  1  0  0  0  0
  3  4  1  0  0  0  0
  3 17  1  0  0  0  0
  5  6  1  0  0  0  0
  7  6  1  1  0  0  0
  7  8  1  0  0  0  0
  7  9  1  0  0  0  0
 10  9  1  6  0  0  0
 10 11  1  0  0  0  0
 10 12  1  0  0  0  0
 11 16  1  0  0  0  0
 12 13  1  1  0  0  0
 12 14  1  0  0  0  0
 14 15  1  1  0  0  0
 14 16  1  0  0  0  0
 16 27  1  6  0  0  0
 18 19  2  0  0  0  0
 18 23  1  0  0  0  0
 19 20  1  0  0  0  0
 20 21  2  0  0  0  0
 21 22  1  0  0  0  0
 21 27  1  0  0  0  0
 22 23  2  0  0  0  0
 22 25  1  0  0  0  0
 23 24  1  0  0  0  0
 25 26  2  0  0  0  0
 26 27  1  0  0  0  0
M  END
>  <CHROM.1>
119.88431770,174.82371999,157.05823525,30.71423606,-98.63028523,-67.45859801
-168.68802867,49.55172733,53.16107431,22.33885177,-0.06242283,0.27573835
-1.84114075

>  <Name>
ligand

>  <RI>
0

>  <Rbt.Current_Directory>
/home/itssahil/PROJECTS/Mol_Feturizer/New_Systems/rnas/2GIS

>  <Rbt.Executable>
rbdock ($Id: //depot/dev/client3/rdock/2013.1/src/exe/rbdock.cxx#4 $)

>  <Rbt.Library>
libRbt.so (2013.1, Build901 2013/11/27)

>  <Rbt.Parameter_File>
/export/apps/rDock/src/rDock_2013.1_src/data/scripts/dock_solv.prm

>  <Rbt.Receptor>
prm/blind_docking_100.prm

>  <SCORE>
-12.5017

>  <SCORE.INTER>
-12.5191

>  <SCORE.INTER.CONST>
1

>  <SCORE.INTER.POLAR>
0

>  <SCORE.INTER.ROT>
7

>  <SCORE.INTER.SOLV>
10.8301

>  <SCORE.INTER.VDW>
-20.2228

>  <SCORE.INTER.norm>
-0.463671

>  <SCORE.INTRA>
0.0174453

>  <SCORE.INTRA.DIHEDRAL>
-0.583188

>  <SCORE.INTRA.DIHEDRAL.0>
9.40024

>  <SCORE.INTRA.POLAR>
0

>  <SCORE.INTRA.POLAR.0>
0

>  <SCORE.INTRA.REPUL>
0

>  <SCORE.INTRA.REPUL.0>
0

>  <SCORE.INTRA.SOLV>
-2.64498

>  <SCORE.INTRA.SOLV.lig_0>
-47.1049

>  <SCORE.INTRA.VDW>
1.63153

>  <SCORE.INTRA.VDW.0>
-1.50278

>  <SCORE.INTRA.norm>
0.00064612

>  <SCORE.RESTR>
0

>  <SCORE.RESTR.CAVITY>
0

>  <SCORE.RESTR.norm>
0

>  <SCORE.SYSTEM>
0

>  <SCORE.SYSTEM.CONST>
0

>  <SCORE.SYSTEM.DIHEDRAL>
0

>  <SCORE.SYSTEM.SOLV>
0

>  <SCORE.SYSTEM.norm>
0

>  <SCORE.heavy>
27

>  <SCORE.norm>
-0.463025

>  <RMSD>
10.957

$$$$
ligand
 OpenBabel11021811433D
libRbt.so/2013.1/901 2013/11/27
 27 29  0  0  0  0  0  0  0  0999 V2000
   54.8658   51.1780   22.8985 N   0  0  0  0  0  0  0  0  0  0  0  0
   53.5423   51.7674   23.1241 C   0  0  2  0  0  0  0  0  0  0  0  0
   52.7670   50.9094   24.1081 C   0  0  0  0  0  0  0  0  0  0  0  0
   53.2371   49.8434   24.4953 O   0  0  0  0  0  0  0  0  0  0  0  0
   52.7608   51.8811   21.8001 C   0  0  0  0  0  0  0  0  0  0  0  0
   53.5832   52.6918   20.7995 C   0  0  0  0  0  0  0  0  0  0  0  0
   52.8989   52.7574   19.0932 S   0  0  2  0  0  0  0  0  0  0  0  0
   54.2573   53.4466   18.0973 C   0  0  0  0  0  0  0  0  0  0  0  0
   51.8748   54.2205   19.3565 C   0  0  0  0  0  0  0  0  0  0  0  0
   50.3832   53.9050   19.5635 C   0  0  1  0  0  0  0  0  0  0  0  0
   50.2241   53.1426   20.7965 O   0  0  0  0  0  0  0  0  0  0  0  0
   49.7912   55.2639   19.8363 C   0  0  1  0  0  0  0  0  0  0  0  0
   49.2441   55.8042   18.6332 O   0  0  0  0  0  0  0  0  0  0  0  0
   48.6841   54.9882   20.8463 C   0  0  1  0  0  0  0  0  0  0  0  0
   47.4096   54.8680   20.2254 O   0  0  0  0  0  0  0  0  0  0  0  0
   49.0751   53.6497   21.5727 C   0  0  2  0  0  0  0  0  0  0  0  0
   51.6400   51.2468   24.4713 O   0  0  0  0  0  0  0  0  0  0  0  0
   48.7747   52.3930   26.6631 N   0  0  0  0  0  0  0  0  0  0  0  0
   48.0213   51.9299   25.6595 C   0  0  0  0  0  0  0  0  0  0  0  0
   48.2213   52.3225   24.4113 N   0  0  0  0  0  0  0  0  0  0  0  0
   49.1667   53.2261   24.1047 C   0  0  0  0  0  0  0  0  0  0  0  0
   49.9821   53.7572   25.1369 C   0  0  0  0  0  0  0  0  0  0  0  0
   49.7479   53.2953   26.4568 C   0  0  0  0  0  0  0  0  0  0  0  0
   50.5020   53.7636   27.5093 N   0  0  0  0  0  0  0  0  0  0  0  0
   50.8347   54.6325   24.5678 N   0  0  0  0  0  0  0  0  0  0  0  0
   50.6015   54.6838   23.2890 C   0  0  0  0  0  0  0  0  0  0  0  0
   49.5871   53.8336   22.9467 N   0  0  0  0  0  0  0  0  0  0  0  0
  2  1  1  6  0  0  0
  2  3  1  0  0  0  0
  2  5  1  0  0  0  0
  3  4  1  0  0  0  0
  3 17  1  0  0  0  0
  5  6  1  0  0  0  0
  7  6  1  1  0  0  0
  7  8  1  0  0  0  0
  7  9  1  0  0  0  0
 10  9  1  1  0  0  0
 10 11  1  0  0  0  0
 10 12  1  0  0  0  0
 11 16  1  0  0  0  0
 12 13  1  6  0  0  0
 12 14  1  0  0  0  0
 14 15  1  6  0  0  0
 14 16  1  0  0  0  0
 16 27  1  1  0  0  0
 18 19  2  0  0  0  0
 18 23  1  0  0  0  0
 19 20  1  0  0  0  0
 20 21  2  0  0  0  0
 21 22  1  0  0  0  0
 21 27  1  0  0  0  0
 22 23  2  0  0  0  0
 22 25  1  0  0  0  0
 23 24  1  0  0  0  0
 25 26  2  0  0  0  0
 26 27  1  0  0  0  0
M  END
>  <CHROM.1>
-5.69484137,-56.28639325,172.84193321,-167.68972968,-101.81388752,64.64794559
-119.02862544,50.92726173,53.13683006,22.36587495,-1.28700360,-0.48665640
1.89944328

>  <Name>
ligand

>  <RI>
0

>  <Rbt.Current_Directory>
/home/itssahil/PROJECTS/Mol_Feturizer/New_Systems/rnas/2GIS

>  <Rbt.Executable>
rbdock ($Id: //depot/dev/client3/rdock/2013.1/src/exe/rbdock.cxx#4 $)

>  <Rbt.Library>
libRbt.so (2013.1, Build901 2013/11/27)

>  <Rbt.Parameter_File>
/export/apps/rDock/src/rDock_2013.1_src/data/scripts/dock_solv.prm

>  <Rbt.Receptor>
prm/blind_docking_80.prm

>  <SCORE>
-15.5527

>  <SCORE.INTER>
-10.8623

>  <SCORE.INTER.CONST>
1

>  <SCORE.INTER.POLAR>
0

>  <SCORE.INTER.ROT>
7

>  <SCORE.INTER.SOLV>
4.7687

>  <SCORE.INTER.VDW>
-17.0977

>  <SCORE.INTER.norm>
-0.402306

>  <SCORE.INTRA>
-4.69046

>  <SCORE.INTRA.DIHEDRAL>
-1.98534

>  <SCORE.INTRA.DIHEDRAL.0>
9.40024

>  <SCORE.INTRA.POLAR>
0

>  <SCORE.INTRA.POLAR.0>
0

>  <SCORE.INTRA.REPUL>
0

>  <SCORE.INTRA.REPUL.0>
0

>  <SCORE.INTRA.SOLV>
-2.18968

>  <SCORE.INTRA.SOLV.lig_0>
-47.1049

>  <SCORE.INTRA.VDW>
-2.60295

>  <SCORE.INTRA.VDW.0>
-1.50278

>  <SCORE.INTRA.norm>
-0.173721

>  <SCORE.RESTR>
0

>  <SCORE.RESTR.CAVITY>
0

>  <SCORE.RESTR.norm>
0

>  <SCORE.SYSTEM>
0

>  <SCORE.SYSTEM.CONST>
0

>  <SCORE.SYSTEM.DIHEDRAL>
0

>  <SCORE.SYSTEM.SOLV>
0

>  <SCORE.SYSTEM.norm>
0

>  <SCORE.heavy>
27

>  <SCORE.norm>
-0.576027

>  <RMSD>
11.021

$$$$
ligand
 OpenBabel11021811433D
libRbt.so/2013.1/901 2013/11/27
 27 29  0  0  0  0  0  0  0  0999 V2000
   46.9291   52.4782   27.9498 N   0  0  0  0  0  0  0  0  0  0  0  0
   47.8283   53.2089   27.0512 C   0  0  2  0  0  0  0  0  0  0  0  0
   47.0161   53.8801   25.9580 C   0  0  0  0  0  0  0  0  0  0  0  0
   45.9446   53.3956   25.6047 O   0  0  0  0  0  0  0  0  0  0  0  0
   48.8661   52.2576   26.4228 C   0  0  0  0  0  0  0  0  0  0  0  0
   49.8569   53.0727   25.5931 C   0  0  0  0  0  0  0  0  0  0  0  0
   50.9927   52.0849   24.5356 S   0  0  2  0  0  0  0  0  0  0  0  0
   52.4438   51.7944   25.5949 C   0  0  0  0  0  0  0  0  0  0  0  0
   51.5623   53.4688   23.5260 C   0  0  0  0  0  0  0  0  0  0  0  0
   51.5581   53.1780   22.0152 C   0  0  1  0  0  0  0  0  0  0  0  0
   50.2696   52.6046   21.6439 O   0  0  0  0  0  0  0  0  0  0  0  0
   51.5876   54.5585   21.4113 C   0  0  1  0  0  0  0  0  0  0  0  0
   52.9299   54.9123   21.0770 O   0  0  0  0  0  0  0  0  0  0  0  0
   50.7429   54.4278   20.1499 C   0  0  1  0  0  0  0  0  0  0  0  0
   51.5395   54.2094   18.9914 O   0  0  0  0  0  0  0  0  0  0  0  0
   49.7744   53.2133   20.3933 C   0  0  2  0  0  0  0  0  0  0  0  0
   47.4568   54.8733   25.3789 O   0  0  0  0  0  0  0  0  0  0  0  0
   44.6522   52.4218   19.5461 N   0  0  0  0  0  0  0  0  0  0  0  0
   45.6828   51.7599   19.0087 C   0  0  0  0  0  0  0  0  0  0  0  0
   46.9327   52.0555   19.3294 N   0  0  0  0  0  0  0  0  0  0  0  0
   47.2193   53.0529   20.1821 C   0  0  0  0  0  0  0  0  0  0  0  0
   46.1604   53.7935   20.7674 C   0  0  0  0  0  0  0  0  0  0  0  0
   44.8363   53.4316   20.4123 C   0  0  0  0  0  0  0  0  0  0  0  0
   43.7579   54.1034   20.9428 N   0  0  0  0  0  0  0  0  0  0  0  0
   46.7141   54.7244   21.5698 N   0  0  0  0  0  0  0  0  0  0  0  0
   48.0095   54.6182   21.5143 C   0  0  0  0  0  0  0  0  0  0  0  0
   48.3770   53.6008   20.6783 N   0  0  0  0  0  0  0  0  0  0  0  0
  2  1  1  1  0  0  0
  2  3  1  0  0  0  0
  2  5  1  0  0  0  0
  3  4  1  0  0  0  0
  3 17  1  0  0  0  0
  5  6  1  0  0  0  0
  7  6  1  1  0  0  0
  7  8  1  0  0  0  0
  7  9  1  0  0  0  0
 10  9  1  1  0  0  0
 10 11  1  0  0  0  0
 10 12  1  0  0  0  0
 11 16  1  0  0  0  0
 12 13  1  6  0  0  0
 12 14  1  0  0  0  0
 14 15  1  6  0  0  0
 14 16  1  0  0  0  0
 16 27  1  1  0  0  0
 18 19  2  0  0  0  0
 18 23  1  0  0  0  0
 19 20  1  0  0  0  0
 20 21  2  0  0  0  0
 21 22  1  0  0  0  0
 21 27  1  0  0  0  0
 22 23  2  0  0  0  0
 22 25  1  0  0  0  0
 23 24  1  0  0  0  0
 25 26  2  0  0  0  0
 26 27  1  0  0  0  0
M  END
>  <CHROM.1>
-27.85198964,-175.05927665,-169.91141754,-90.79125012,-133.12665917,48.80399880
-110.23017388,48.69874165,53.32322820,22.63500959,1.02695552,0.01859509,1.66204193

>  <Name>
ligand

>  <RI>
0

>  <Rbt.Current_Directory>
/home/itssahil/PROJECTS/Mol_Feturizer/New_Systems/rnas/2GIS

>  <Rbt.Executable>
rbdock ($Id: //depot/dev/client3/rdock/2013.1/src/exe/rbdock.cxx#4 $)

>  <Rbt.Library>
libRbt.so (2013.1, Build901 2013/11/27)

>  <Rbt.Parameter_File>
/export/apps/rDock/src/rDock_2013.1_src/data/scripts/dock_solv.prm

>  <Rbt.Receptor>
prm/blind_docking_80.prm

>  <SCORE>
-11.4849

>  <SCORE.INTER>
-9.04126

>  <SCORE.INTER.CONST>
1

>  <SCORE.INTER.POLAR>
0

>  <SCORE.INTER.ROT>
7

>  <SCORE.INTER.SOLV>
14.6895

>  <SCORE.INTER.VDW>
-19.1907

>  <SCORE.INTER.norm>
-0.334861

>  <SCORE.INTRA>
-2.44361

>  <SCORE.INTRA.DIHEDRAL>
0.219228

>  <SCORE.INTRA.DIHEDRAL.0>
9.40024

>  <SCORE.INTRA.POLAR>
0

>  <SCORE.INTRA.POLAR.0>
0

>  <SCORE.INTRA.REPUL>
0

>  <SCORE.INTRA.REPUL.0>
0

>  <SCORE.INTRA.SOLV>
-3.13588

>  <SCORE.INTRA.SOLV.lig_0>
-47.1049

>  <SCORE.INTRA.VDW>
-0.985287

>  <SCORE.INTRA.VDW.0>
-1.50278

>  <SCORE.INTRA.norm>
-0.0905041

>  <SCORE.RESTR>
0

>  <SCORE.RESTR.CAVITY>
0

>  <SCORE.RESTR.norm>
0

>  <SCORE.SYSTEM>
0

>  <SCORE.SYSTEM.CONST>
0

>  <SCORE.SYSTEM.DIHEDRAL>
0

>  <SCORE.SYSTEM.SOLV>
0

>  <SCORE.SYSTEM.norm>
0

>  <SCORE.heavy>
27

>  <SCORE.norm>
-0.425365

>  <RMSD>
11.096

$$$$
ligand
 OpenBabel11021811433D
libRbt.so/2013.1/901 2013/11/27
 27 29  0  0  0  0  0  0  0  0999 V2000
   50.7743   53.3648   26.5152 N   0  0  0  0  0  0  0  0  0  0  0  0
   50.7746   51.9055   26.3726 C   0  0  2  0  0  0  0  0  0  0  0  0
   51.6168   51.5142   25.1714 C   0  0  0  0  0  0  0  0  0  0  0  0
   51.6336   52.2307   24.1745 O   0  0  0  0  0  0  0  0  0  0  0  0
   49.3384   51.3720   26.2007 C   0  0  0  0  0  0  0  0  0  0  0  0
   48.7265   51.9751   24.9372 C   0  0  0  0  0  0  0  0  0  0  0  0
   47.7899   53.5384   25.1891 S   0  0  2  0  0  0  0  0  0  0  0  0
   46.2088   52.9964   25.9092 C   0  0  0  0  0  0  0  0  0  0  0  0
   47.3316   53.7650   23.4578 C   0  0  0  0  0  0  0  0  0  0  0  0
   48.5355   53.8606   22.5045 C   0  0  1  0  0  0  0  0  0  0  0  0
   48.0579   53.8118   21.1274 O   0  0  0  0  0  0  0  0  0  0  0  0
   49.0226   55.2697   22.7252 C   0  0  1  0  0  0  0  0  0  0  0  0
   50.0969   55.2689   23.6657 O   0  0  0  0  0  0  0  0  0  0  0  0
   49.5186   55.7080   21.3528 C   0  0  1  0  0  0  0  0  0  0  0  0
   50.9249   55.5431   21.2130 O   0  0  0  0  0  0  0  0  0  0  0  0
   48.7500   54.8235   20.3045 C   0  0  2  0  0  0  0  0  0  0  0  0
   52.2339   50.4488   25.1672 O   0  0  0  0  0  0  0  0  0  0  0  0
   43.6126   55.4414   19.4064 N   0  0  0  0  0  0  0  0  0  0  0  0
   44.2000   54.5712   20.2350 C   0  0  0  0  0  0  0  0  0  0  0  0
   45.5156   54.5379   20.3778 N   0  0  0  0  0  0  0  0  0  0  0  0
   46.3170   55.3536   19.6731 C   0  0  0  0  0  0  0  0  0  0  0  0
   45.7416   56.2846   18.7706 C   0  0  0  0  0  0  0  0  0  0  0  0
   44.3280   56.3009   18.6625 C   0  0  0  0  0  0  0  0  0  0  0  0
   43.6986   57.1794   17.8093 N   0  0  0  0  0  0  0  0  0  0  0  0
   46.7520   56.9686   18.1975 N   0  0  0  0  0  0  0  0  0  0  0  0
   47.8832   56.5286   18.6654 C   0  0  0  0  0  0  0  0  0  0  0  0
   47.6753   55.5363   19.5826 N   0  0  0  0  0  0  0  0  0  0  0  0
  2  1  1  6  0  0  0
  2  3  1  0  0  0  0
  2  5  1  0  0  0  0
  3  4  1  0  0  0  0
  3 17  1  0  0  0  0
  5  6  1  0  0  0  0
  7  6  1  6  0  0  0
  7  8  1  0  0  0  0
  7  9  1  0  0  0  0
 10  9  1  1  0  0  0
 10 11  1  0  0  0  0
 10 12  1  0  0  0  0
 11 16  1  0  0  0  0
 12 13  1  1  0  0  0
 12 14  1  0  0  0  0
 14 15  1  1  0  0  0
 14 16  1  0  0  0  0
 16 27  1  1  0  0  0
 18 19  2  0  0  0  0
 18 23  1  0  0  0  0
 19 20  1  0  0  0  0
 20 21  2  0  0  0  0
 21 22  1  0  0  0  0
 21 27  1  0  0  0  0
 22 23  2  0  0  0  0
 22 25  1  0  0  0  0
 23 24  1  0  0  0  0
 25 26  2  0  0  0  0
 26 27  1  0  0  0  0
M  END
>  <CHROM.1>
-35.06109133,60.91391670,-91.67308930,-76.78678251,-58.71466841,170.41415439
2.15962667,48.11347299,54.21510548,22.35344940,-0.99935713,0.00804441,-1.04009069

>  <Name>
ligand

>  <RI>
0

>  <Rbt.Current_Directory>
/home/itssahil/PROJECTS/Mol_Feturizer/New_Systems/rnas/2GIS

>  <Rbt.Executable>
rbdock ($Id: //depot/dev/client3/rdock/2013.1/src/exe/rbdock.cxx#4 $)

>  <Rbt.Library>
libRbt.so (2013.1, Build901 2013/11/27)

>  <Rbt.Parameter_File>
/export/apps/rDock/src/rDock_2013.1_src/data/scripts/dock_solv.prm

>  <Rbt.Receptor>
prm/blind_docking_100.prm

>  <SCORE>
-20.2027

>  <SCORE.INTER>
-17.5617

>  <SCORE.INTER.CONST>
1

>  <SCORE.INTER.POLAR>
0

>  <SCORE.INTER.ROT>
7

>  <SCORE.INTER.SOLV>
11.128

>  <SCORE.INTER.VDW>
-23.6838

>  <SCORE.INTER.norm>
-0.650433

>  <SCORE.INTRA>
-2.641

>  <SCORE.INTRA.DIHEDRAL>
-2.62925

>  <SCORE.INTRA.DIHEDRAL.0>
9.40024

>  <SCORE.INTRA.POLAR>
0

>  <SCORE.INTRA.POLAR.0>
0

>  <SCORE.INTRA.REPUL>
0

>  <SCORE.INTRA.REPUL.0>
0

>  <SCORE.INTRA.SOLV>
-0.300624

>  <SCORE.INTRA.SOLV.lig_0>
-47.1049

>  <SCORE.INTRA.VDW>
-1.17606

>  <SCORE.INTRA.VDW.0>
-1.50278

>  <SCORE.INTRA.norm>
-0.0978147

>  <SCORE.RESTR>
0

>  <SCORE.RESTR.CAVITY>
0

>  <SCORE.RESTR.norm>
0

>  <SCORE.SYSTEM>
0

>  <SCORE.SYSTEM.CONST>
0

>  <SCORE.SYSTEM.DIHEDRAL>
0

>  <SCORE.SYSTEM.SOLV>
0

>  <SCORE.SYSTEM.norm>
0

>  <SCORE.heavy>
27

>  <SCORE.norm>
-0.748247

>  <RMSD>
11.121

$$$$
ligand
 OpenBabel11021811433D
libRbt.so/2013.1/901 2013/11/27
 27 29  0  0  0  0  0  0  0  0999 V2000
   52.5635   51.8688   21.6546 N   0  0  0  0  0  0  0  0  0  0  0  0
   53.3191   52.3266   20.4843 C   0  0  2  0  0  0  0  0  0  0  0  0
   54.7695   52.5498   20.8737 C   0  0  0  0  0  0  0  0  0  0  0  0
   55.0486   52.9321   22.0066 O   0  0  0  0  0  0  0  0  0  0  0  0
   52.7212   53.6321   19.9230 C   0  0  0  0  0  0  0  0  0  0  0  0
   51.7181   53.2922   18.8217 C   0  0  0  0  0  0  0  0  0  0  0  0
   51.0480   54.7357   17.8990 S   0  0  2  0  0  0  0  0  0  0  0  0
   52.4383   55.9087   17.8413 C   0  0  0  0  0  0  0  0  0  0  0  0
   50.0788   55.4020   19.2685 C   0  0  0  0  0  0  0  0  0  0  0  0
   48.8893   54.5155   19.6761 C   0  0  1  0  0  0  0  0  0  0  0  0
   49.2854   53.6729   20.7986 O   0  0  0  0  0  0  0  0  0  0  0  0
   47.9068   55.5136   20.2327 C   0  0  1  0  0  0  0  0  0  0  0  0
   46.9600   55.8740   19.2265 O   0  0  0  0  0  0  0  0  0  0  0  0
   47.2181   54.7617   21.3649 C   0  0  1  0  0  0  0  0  0  0  0  0
   45.9795   54.1932   20.9558 O   0  0  0  0  0  0  0  0  0  0  0  0
   48.2198   53.6384   21.8199 C   0  0  2  0  0  0  0  0  0  0  0  0
   55.6642   52.4104   20.0394 O   0  0  0  0  0  0  0  0  0  0  0  0
   49.2684   52.1512   26.7464 N   0  0  0  0  0  0  0  0  0  0  0  0
   48.5131   51.5170   25.8428 C   0  0  0  0  0  0  0  0  0  0  0  0
   48.3490   52.0011   24.6218 N   0  0  0  0  0  0  0  0  0  0  0  0
   48.9070   53.1649   24.2494 C   0  0  0  0  0  0  0  0  0  0  0  0
   49.7054   53.8818   25.1772 C   0  0  0  0  0  0  0  0  0  0  0  0
   49.8716   53.3184   26.4677 C   0  0  0  0  0  0  0  0  0  0  0  0
   50.6352   53.9559   27.4196 N   0  0  0  0  0  0  0  0  0  0  0  0
   50.1356   55.0003   24.5600 N   0  0  0  0  0  0  0  0  0  0  0  0
   49.6621   55.0269   23.3486 C   0  0  0  0  0  0  0  0  0  0  0  0
   48.9021   53.9179   23.1007 N   0  0  0  0  0  0  0  0  0  0  0  0
  2  1  1  1  0  0  0
  2  3  1  0  0  0  0
  2  5  1  0  0  0  0
  3  4  1  0  0  0  0
  3 17  1  0  0  0  0
  5  6  1  0  0  0  0
  7  6  1  1  0  0  0
  7  8  1  0  0  0  0
  7  9  1  0  0  0  0
 10  9  1  1  0  0  0
 10 11  1  0  0  0  0
 10 12  1  0  0  0  0
 11 16  1  0  0  0  0
 12 13  1  6  0  0  0
 12 14  1  0  0  0  0
 14 15  1  6  0  0  0
 14 16  1  0  0  0  0
 16 27  1  1  0  0  0
 18 19  2  0  0  0  0
 18 23  1  0  0  0  0
 19 20  1  0  0  0  0
 20 21  2  0  0  0  0
 21 22  1  0  0  0  0
 21 27  1  0  0  0  0
 22 23  2  0  0  0  0
 22 25  1  0  0  0  0
 23 24  1  0  0  0  0
 25 26  2  0  0  0  0
 26 27  1  0  0  0  0
M  END
>  <CHROM.1>
-32.51207584,-93.29814379,-173.13776626,34.19971789,-67.68048372,96.17746583
-124.31041112,50.35313448,53.81038288,21.72336819,-1.06617343,-0.26550042
1.84714041

>  <Name>
ligand

>  <RI>
0

>  <Rbt.Current_Directory>
/home/itssahil/PROJECTS/Mol_Feturizer/New_Systems/rnas/2GIS

>  <Rbt.Executable>
rbdock ($Id: //depot/dev/client3/rdock/2013.1/src/exe/rbdock.cxx#4 $)

>  <Rbt.Library>
libRbt.so (2013.1, Build901 2013/11/27)

>  <Rbt.Parameter_File>
/export/apps/rDock/src/rDock_2013.1_src/data/scripts/dock_solv.prm

>  <Rbt.Receptor>
prm/blind_docking_80.prm

>  <SCORE>
-10.1911

>  <SCORE.INTER>
-9.29014

>  <SCORE.INTER.CONST>
1

>  <SCORE.INTER.POLAR>
0

>  <SCORE.INTER.ROT>
7

>  <SCORE.INTER.SOLV>
9.91407

>  <SCORE.INTER.VDW>
-17.7648

>  <SCORE.INTER.norm>
-0.344079

>  <SCORE.INTRA>
-0.91819

>  <SCORE.INTRA.DIHEDRAL>
1.45407

>  <SCORE.INTRA.DIHEDRAL.0>
9.40024

>  <SCORE.INTRA.POLAR>
0

>  <SCORE.INTRA.POLAR.0>
0

>  <SCORE.INTRA.REPUL>
0

>  <SCORE.INTRA.REPUL.0>
0

>  <SCORE.INTRA.SOLV>
-2.26939

>  <SCORE.INTRA.SOLV.lig_0>
-47.1049

>  <SCORE.INTRA.VDW>
-0.510532

>  <SCORE.INTRA.VDW.0>
-1.50278

>  <SCORE.INTRA.norm>
-0.0340071

>  <SCORE.RESTR>
0.0172453

>  <SCORE.RESTR.CAVITY>
0.0172453

>  <SCORE.RESTR.norm>
0.000638714

>  <SCORE.SYSTEM>
0

>  <SCORE.SYSTEM.CONST>
0

>  <SCORE.SYSTEM.DIHEDRAL>
0

>  <SCORE.SYSTEM.SOLV>
0

>  <SCORE.SYSTEM.norm>
0

>  <SCORE.heavy>
27

>  <SCORE.norm>
-0.377448

>  <RMSD>
11.161

$$$$
ligand
 OpenBabel11021811433D
libRbt.so/2013.1/901 2013/11/27
 27 29  0  0  0  0  0  0  0  0999 V2000
   52.8579   54.2879   18.4039 N   0  0  0  0  0  0  0  0  0  0  0  0
   51.4555   53.8814   18.2700 C   0  0  2  0  0  0  0  0  0  0  0  0
   51.2721   53.1147   16.9724 C   0  0  0  0  0  0  0  0  0  0  0  0
   50.9131   51.9408   16.9992 O   0  0  0  0  0  0  0  0  0  0  0  0
   50.5252   55.1107   18.2873 C   0  0  0  0  0  0  0  0  0  0  0  0
   50.2472   55.5097   19.7358 C   0  0  0  0  0  0  0  0  0  0  0  0
   49.3496   54.2537   20.7364 S   0  0  2  0  0  0  0  0  0  0  0  0
   47.6027   54.4952   20.2870 C   0  0  0  0  0  0  0  0  0  0  0  0
   49.4418   55.1551   22.2978 C   0  0  0  0  0  0  0  0  0  0  0  0
   48.7625   54.4313   23.4733 C   0  0  1  0  0  0  0  0  0  0  0  0
   49.1461   53.0244   23.4524 O   0  0  0  0  0  0  0  0  0  0  0  0
   49.4487   55.0310   24.6736 C   0  0  1  0  0  0  0  0  0  0  0  0
   48.6549   56.0919   25.2055 O   0  0  0  0  0  0  0  0  0  0  0  0
   49.5291   53.8784   25.6669 C   0  0  1  0  0  0  0  0  0  0  0  0
   48.4652   53.9090   26.6112 O   0  0  0  0  0  0  0  0  0  0  0  0
   49.4751   52.5585   24.8142 C   0  0  2  0  0  0  0  0  0  0  0  0
   51.5428   53.6453   15.8949 O   0  0  0  0  0  0  0  0  0  0  0  0
   53.6389   51.3903   21.8343 N   0  0  0  0  0  0  0  0  0  0  0  0
   52.5749   52.1290   21.5009 C   0  0  0  0  0  0  0  0  0  0  0  0
   51.5993   52.3595   22.3653 N   0  0  0  0  0  0  0  0  0  0  0  0
   51.6212   51.8350   23.6017 C   0  0  0  0  0  0  0  0  0  0  0  0
   52.7221   51.0327   23.9975 C   0  0  0  0  0  0  0  0  0  0  0  0
   53.7548   50.8270   23.0480 C   0  0  0  0  0  0  0  0  0  0  0  0
   54.8559   50.0622   23.3619 N   0  0  0  0  0  0  0  0  0  0  0  0
   52.4964   50.6346   25.2654 N   0  0  0  0  0  0  0  0  0  0  0  0
   51.3563   51.1162   25.6663 C   0  0  0  0  0  0  0  0  0  0  0  0
   50.7754   51.8683   24.6835 N   0  0  0  0  0  0  0  0  0  0  0  0
  2  1  1  6  0  0  0
  2  3  1  0  0  0  0
  2  5  1  0  0  0  0
  3  4  1  0  0  0  0
  3 17  1  0  0  0  0
  5  6  1  0  0  0  0
  7  6  1  6  0  0  0
  7  8  1  0  0  0  0
  7  9  1  0  0  0  0
 10  9  1  6  0  0  0
 10 11  1  0  0  0  0
 10 12  1  0  0  0  0
 11 16  1  0  0  0  0
 12 13  1  1  0  0  0
 12 14  1  0  0  0  0
 14 15  1  1  0  0  0
 14 16  1  0  0  0  0
 16 27  1  6  0  0  0
 18 19  2  0  0  0  0
 18 23  1  0  0  0  0
 19 20  1  0  0  0  0
 20 21  2  0  0  0  0
 21 22  1  0  0  0  0
 21 27  1  0  0  0  0
 22 23  2  0  0  0  0
 22 25  1  0  0  0  0
 23 24  1  0  0  0  0
 25 26  2  0  0  0  0
 26 27  1  0  0  0  0
M  END
>  <CHROM.1>
117.41537795,-83.39202854,-63.29981312,-81.57713573,179.39887677,44.91281441
9.56755319,50.75662325,53.20157509,22.00714057,-1.44309538,-0.70914477,1.77676749

>  <Name>
ligand

>  <RI>
0

>  <Rbt.Current_Directory>
/home/itssahil/PROJECTS/Mol_Feturizer/New_Systems/rnas/2GIS

>  <Rbt.Executable>
rbdock ($Id: //depot/dev/client3/rdock/2013.1/src/exe/rbdock.cxx#4 $)

>  <Rbt.Library>
libRbt.so (2013.1, Build901 2013/11/27)

>  <Rbt.Parameter_File>
/export/apps/rDock/src/rDock_2013.1_src/data/scripts/dock_solv.prm

>  <Rbt.Receptor>
prm/blind_docking_100.prm

>  <SCORE>
-19.9749

>  <SCORE.INTER>
-15.3109

>  <SCORE.INTER.CONST>
1

>  <SCORE.INTER.POLAR>
0

>  <SCORE.INTER.ROT>
7

>  <SCORE.INTER.SOLV>
5.71536

>  <SCORE.INTER.VDW>
-20.3791

>  <SCORE.INTER.norm>
-0.567071

>  <SCORE.INTRA>
-4.66403

>  <SCORE.INTRA.DIHEDRAL>
-2.89117

>  <SCORE.INTRA.DIHEDRAL.0>
9.40024

>  <SCORE.INTRA.POLAR>
0

>  <SCORE.INTRA.POLAR.0>
0

>  <SCORE.INTRA.REPUL>
0

>  <SCORE.INTRA.REPUL.0>
0

>  <SCORE.INTRA.SOLV>
-2.01365

>  <SCORE.INTRA.SOLV.lig_0>
-47.1049

>  <SCORE.INTRA.VDW>
-2.21162

>  <SCORE.INTRA.VDW.0>
-1.50278

>  <SCORE.INTRA.norm>
-0.172742

>  <SCORE.RESTR>
0

>  <SCORE.RESTR.CAVITY>
0

>  <SCORE.RESTR.norm>
0

>  <SCORE.SYSTEM>
0

>  <SCORE.SYSTEM.CONST>
0

>  <SCORE.SYSTEM.DIHEDRAL>
0

>  <SCORE.SYSTEM.SOLV>
0

>  <SCORE.SYSTEM.norm>
0

>  <SCORE.heavy>
27

>  <SCORE.norm>
-0.739813

>  <RMSD>
11.243

$$$$
ligand
 OpenBabel11021811433D
libRbt.so/2013.1/901 2013/11/27
 27 29  0  0  0  0  0  0  0  0999 V2000
   51.1516   55.1829   16.6259 N   0  0  0  0  0  0  0  0  0  0  0  0
   51.5233   55.9901   17.7922 C   0  0  2  0  0  0  0  0  0  0  0  0
   53.0108   56.2910   17.7466 C   0  0  0  0  0  0  0  0  0  0  0  0
   53.8121   55.3898   17.5160 O   0  0  0  0  0  0  0  0  0  0  0  0
   51.1788   55.2519   19.1011 C   0  0  0  0  0  0  0  0  0  0  0  0
   49.6600   55.1662   19.2444 C   0  0  0  0  0  0  0  0  0  0  0  0
   49.0574   53.9540   20.4902 S   0  0  2  0  0  0  0  0  0  0  0  0
   47.2476   54.1416   20.4514 C   0  0  0  0  0  0  0  0  0  0  0  0
   49.4853   54.9430   21.9385 C   0  0  0  0  0  0  0  0  0  0  0  0
   48.9028   54.4001   23.2549 C   0  0  1  0  0  0  0  0  0  0  0  0
   49.2550   52.9910   23.3864 O   0  0  0  0  0  0  0  0  0  0  0  0
   49.7084   55.1286   24.2998 C   0  0  1  0  0  0  0  0  0  0  0  0
   48.9881   56.2743   24.7549 O   0  0  0  0  0  0  0  0  0  0  0  0
   49.8570   54.1129   25.4258 C   0  0  1  0  0  0  0  0  0  0  0  0
   48.8854   54.2998   26.4483 O   0  0  0  0  0  0  0  0  0  0  0  0
   49.6987   52.6958   24.7633 C   0  0  2  0  0  0  0  0  0  0  0  0
   53.4228   57.4227   18.0025 O   0  0  0  0  0  0  0  0  0  0  0  0
   53.7577   51.3582   21.7110 N   0  0  0  0  0  0  0  0  0  0  0  0
   52.7185   52.1391   21.3957 C   0  0  0  0  0  0  0  0  0  0  0  0
   51.7687   52.4094   22.2771 N   0  0  0  0  0  0  0  0  0  0  0  0
   51.7917   51.8853   23.5137 C   0  0  0  0  0  0  0  0  0  0  0  0
   52.8662   51.0395   23.8908 C   0  0  0  0  0  0  0  0  0  0  0  0
   53.8725   50.7916   22.9233 C   0  0  0  0  0  0  0  0  0  0  0  0
   54.9473   49.9832   23.2186 N   0  0  0  0  0  0  0  0  0  0  0  0
   52.6474   50.6518   25.1632 N   0  0  0  0  0  0  0  0  0  0  0  0
   51.5351   51.1793   25.5837 C   0  0  0  0  0  0  0  0  0  0  0  0
   50.9675   51.9536   24.6104 N   0  0  0  0  0  0  0  0  0  0  0  0
  2  1  1  6  0  0  0
  2  3  1  0  0  0  0
  2  5  1  0  0  0  0
  3  4  1  0  0  0  0
  3 17  1  0  0  0  0
  5  6  1  0  0  0  0
  7  6  1  6  0  0  0
  7  8  1  0  0  0  0
  7  9  1  0  0  0  0
 10  9  1  6  0  0  0
 10 11  1  0  0  0  0
 10 12  1  0  0  0  0
 11 16  1  0  0  0  0
 12 13  1  1  0  0  0
 12 14  1  0  0  0  0
 14 15  1  1  0  0  0
 14 16  1  0  0  0  0
 16 27  1  6  0  0  0
 18 19  2  0  0  0  0
 18 23  1  0  0  0  0
 19 20  1  0  0  0  0
 20 21  2  0  0  0  0
 21 22  1  0  0  0  0
 21 27  1  0  0  0  0
 22 23  2  0  0  0  0
 22 25  1  0  0  0  0
 23 24  1  0  0  0  0
 25 26  2  0  0  0  0
 26 27  1  0  0  0  0
M  END
>  <CHROM.1>
-47.22369058,-68.40459160,164.55392855,178.10725727,169.15259160,52.07041286
18.17479034,51.02953438,53.68593212,21.95162026,-1.45940786,-0.56560903,2.09975986

>  <Name>
ligand

>  <RI>
0

>  <Rbt.Current_Directory>
/home/itssahil/PROJECTS/Mol_Feturizer/New_Systems/rnas/2GIS

>  <Rbt.Executable>
rbdock ($Id: //depot/dev/client3/rdock/2013.1/src/exe/rbdock.cxx#4 $)

>  <Rbt.Library>
libRbt.so (2013.1, Build901 2013/11/27)

>  <Rbt.Parameter_File>
/export/apps/rDock/src/rDock_2013.1_src/data/scripts/dock_solv.prm

>  <Rbt.Receptor>
prm/blind_docking_100.prm

>  <SCORE>
-18.3294

>  <SCORE.INTER>
-13.1125

>  <SCORE.INTER.CONST>
1

>  <SCORE.INTER.POLAR>
0

>  <SCORE.INTER.ROT>
7

>  <SCORE.INTER.SOLV>
9.79186

>  <SCORE.INTER.VDW>
-20.2723

>  <SCORE.INTER.norm>
-0.485647

>  <SCORE.INTRA>
-5.21691

>  <SCORE.INTRA.DIHEDRAL>
-4.79639

>  <SCORE.INTRA.DIHEDRAL.0>
9.40024

>  <SCORE.INTRA.POLAR>
0

>  <SCORE.INTRA.POLAR.0>
0

>  <SCORE.INTRA.REPUL>
0

>  <SCORE.INTRA.REPUL.0>
0

>  <SCORE.INTRA.SOLV>
-2.37834

>  <SCORE.INTRA.SOLV.lig_0>
-47.1049

>  <SCORE.INTRA.VDW>
-1.62955

>  <SCORE.INTRA.VDW.0>
-1.50278

>  <SCORE.INTRA.norm>
-0.193219

>  <SCORE.RESTR>
0

>  <SCORE.RESTR.CAVITY>
0

>  <SCORE.RESTR.norm>
0

>  <SCORE.SYSTEM>
0

>  <SCORE.SYSTEM.CONST>
0

>  <SCORE.SYSTEM.DIHEDRAL>
0

>  <SCORE.SYSTEM.SOLV>
0

>  <SCORE.SYSTEM.norm>
0

>  <SCORE.heavy>
27

>  <SCORE.norm>
-0.678866

>  <RMSD>
11.262

$$$$
ligand
 OpenBabel11021811433D
libRbt.so/2013.1/901 2013/11/27
 27 29  0  0  0  0  0  0  0  0999 V2000
   53.1882   53.6174   15.2256 N   0  0  0  0  0  0  0  0  0  0  0  0
   52.7466   52.9360   16.4464 C   0  0  2  0  0  0  0  0  0  0  0  0
   51.2665   53.1956   16.6642 C   0  0  0  0  0  0  0  0  0  0  0  0
   50.7615   54.2402   16.2626 O   0  0  0  0  0  0  0  0  0  0  0  0
   53.5491   53.4264   17.6680 C   0  0  0  0  0  0  0  0  0  0  0  0
   53.2033   52.5588   18.8773 C   0  0  0  0  0  0  0  0  0  0  0  0
   54.1154   52.9676   20.4217 S   0  0  2  0  0  0  0  0  0  0  0  0
   55.8564   52.6348   20.0093 C   0  0  0  0  0  0  0  0  0  0  0  0
   53.6674   51.4611   21.3099 C   0  0  0  0  0  0  0  0  0  0  0  0
   54.5411   51.1864   22.5461 C   0  0  1  0  0  0  0  0  0  0  0  0
   54.3466   52.2589   23.5150 O   0  0  0  0  0  0  0  0  0  0  0  0
   53.8943   49.9638   23.1447 C   0  0  1  0  0  0  0  0  0  0  0  0
   54.5862   48.7908   22.7159 O   0  0  0  0  0  0  0  0  0  0  0  0
   54.0583   50.1577   24.6471 C   0  0  1  0  0  0  0  0  0  0  0  0
   55.1907   49.4633   25.1570 O   0  0  0  0  0  0  0  0  0  0  0  0
   54.2080   51.7059   24.8769 C   0  0  2  0  0  0  0  0  0  0  0  0
   50.5825   52.3917   17.2979 O   0  0  0  0  0  0  0  0  0  0  0  0
   50.5857   55.4908   24.5099 N   0  0  0  0  0  0  0  0  0  0  0  0
   51.6116   55.2565   23.6843 C   0  0  0  0  0  0  0  0  0  0  0  0
   52.4429   54.2470   23.8893 N   0  0  0  0  0  0  0  0  0  0  0  0
   52.3106   53.4361   24.9519 C   0  0  0  0  0  0  0  0  0  0  0  0
   51.2462   53.6529   25.8641 C   0  0  0  0  0  0  0  0  0  0  0  0
   50.3671   54.7327   25.5969 C   0  0  0  0  0  0  0  0  0  0  0  0
   49.3095   55.0021   26.4363 N   0  0  0  0  0  0  0  0  0  0  0  0
   51.3428   52.7150   26.8275 N   0  0  0  0  0  0  0  0  0  0  0  0
   52.3730   51.9590   26.5839 C   0  0  0  0  0  0  0  0  0  0  0  0
   53.0040   52.3542   25.4373 N   0  0  0  0  0  0  0  0  0  0  0  0
  2  1  1  6  0  0  0
  2  3  1  0  0  0  0
  2  5  1  0  0  0  0
  3  4  1  0  0  0  0
  3 17  1  0  0  0  0
  5  6  1  0  0  0  0
  7  6  1  6  0  0  0
  7  8  1  0  0  0  0
  7  9  1  0  0  0  0
 10  9  1  6  0  0  0
 10 11  1  0  0  0  0
 10 12  1  0  0  0  0
 11 16  1  0  0  0  0
 12 13  1  6  0  0  0
 12 14  1  0  0  0  0
 14 15  1  6  0  0  0
 14 16  1  0  0  0  0
 16 27  1  6  0  0  0
 18 19  2  0  0  0  0
 18 23  1  0  0  0  0
 19 20  1  0  0  0  0
 20 21  2  0  0  0  0
 21 22  1  0  0  0  0
 21 27  1  0  0  0  0
 22 23  2  0  0  0  0
 22 25  1  0  0  0  0
 23 24  1  0  0  0  0
 25 26  2  0  0  0  0
 26 27  1  0  0  0  0
M  END
>  <CHROM.1>
-29.55086513,-172.01035363,178.06756995,-63.19322173,163.88623769,63.52507822
-12.66311044,52.85701546,52.62861785,22.06897446,1.53433965,0.78978304,-1.48420376

>  <Name>
ligand

>  <RI>
0

>  <Rbt.Current_Directory>
/home/itssahil/PROJECTS/Mol_Feturizer/New_Systems/rnas/2GIS

>  <Rbt.Executable>
rbdock ($Id: //depot/dev/client3/rdock/2013.1/src/exe/rbdock.cxx#4 $)

>  <Rbt.Library>
libRbt.so (2013.1, Build901 2013/11/27)

>  <Rbt.Parameter_File>
/export/apps/rDock/src/rDock_2013.1_src/data/scripts/dock_solv.prm

>  <Rbt.Receptor>
prm/blind_docking_100.prm

>  <SCORE>
-17.7778

>  <SCORE.INTER>
-12.8531

>  <SCORE.INTER.CONST>
1

>  <SCORE.INTER.POLAR>
0

>  <SCORE.INTER.ROT>
7

>  <SCORE.INTER.SOLV>
13.9259

>  <SCORE.INTER.VDW>
-21.4774

>  <SCORE.INTER.norm>
-0.476041

>  <SCORE.INTRA>
-4.92704

>  <SCORE.INTRA.DIHEDRAL>
-5.71623

>  <SCORE.INTRA.DIHEDRAL.0>
9.40024

>  <SCORE.INTRA.POLAR>
0

>  <SCORE.INTRA.POLAR.0>
0

>  <SCORE.INTRA.REPUL>
0

>  <SCORE.INTRA.REPUL.0>
0

>  <SCORE.INTRA.SOLV>
-3.09294

>  <SCORE.INTRA.SOLV.lig_0>
-47.1049

>  <SCORE.INTRA.VDW>
-0.522452

>  <SCORE.INTRA.VDW.0>
-1.50278

>  <SCORE.INTRA.norm>
-0.182483

>  <SCORE.RESTR>
0.00236396

>  <SCORE.RESTR.CAVITY>
0.00236396

>  <SCORE.RESTR.norm>
8.75539e-05

>  <SCORE.SYSTEM>
0

>  <SCORE.SYSTEM.CONST>
0

>  <SCORE.SYSTEM.DIHEDRAL>
0

>  <SCORE.SYSTEM.SOLV>
0

>  <SCORE.SYSTEM.norm>
0

>  <SCORE.heavy>
27

>  <SCORE.norm>
-0.658436

>  <RMSD>
11.291

$$$$
ligand
 OpenBabel11021811433D
libRbt.so/2013.1/901 2013/11/27
 27 29  0  0  0  0  0  0  0  0999 V2000
   53.2611   53.3606   17.6443 N   0  0  0  0  0  0  0  0  0  0  0  0
   51.8337   53.6152   17.8625 C   0  0  2  0  0  0  0  0  0  0  0  0
   51.4553   54.9460   17.2370 C   0  0  0  0  0  0  0  0  0  0  0  0
   50.7266   54.9742   16.2492 O   0  0  0  0  0  0  0  0  0  0  0  0
   51.5046   53.6326   19.3686 C   0  0  0  0  0  0  0  0  0  0  0  0
   50.0116   53.8995   19.5533 C   0  0  0  0  0  0  0  0  0  0  0  0
   49.2729   53.1951   21.0838 S   0  0  2  0  0  0  0  0  0  0  0  0
   47.5603   53.8107   21.0730 C   0  0  0  0  0  0  0  0  0  0  0  0
   50.0588   54.3537   22.2234 C   0  0  0  0  0  0  0  0  0  0  0  0
   50.0067   53.9084   23.6952 C   0  0  1  0  0  0  0  0  0  0  0  0
   50.9705   52.8337   23.9022 O   0  0  0  0  0  0  0  0  0  0  0  0
   50.5580   55.1067   24.4242 C   0  0  1  0  0  0  0  0  0  0  0  0
   49.4852   55.9190   24.9015 O   0  0  0  0  0  0  0  0  0  0  0  0
   51.3292   54.5052   25.5926 C   0  0  1  0  0  0  0  0  0  0  0  0
   50.5593   54.4835   26.7890 O   0  0  0  0  0  0  0  0  0  0  0  0
   51.7183   53.0452   25.1576 C   0  0  2  0  0  0  0  0  0  0  0  0
   51.9270   55.9946   17.6771 O   0  0  0  0  0  0  0  0  0  0  0  0
   55.7412   49.8122   24.1853 N   0  0  0  0  0  0  0  0  0  0  0  0
   54.4889   49.4831   24.5206 C   0  0  0  0  0  0  0  0  0  0  0  0
   53.5640   50.4090   24.7196 N   0  0  0  0  0  0  0  0  0  0  0  0
   53.8521   51.7176   24.6252 C   0  0  0  0  0  0  0  0  0  0  0  0
   55.1703   52.1170   24.2859 C   0  0  0  0  0  0  0  0  0  0  0  0
   56.1253   51.0933   24.0618 C   0  0  0  0  0  0  0  0  0  0  0  0
   57.4237   51.4049   23.7258 N   0  0  0  0  0  0  0  0  0  0  0  0
   55.1902   53.4646   24.2618 N   0  0  0  0  0  0  0  0  0  0  0  0
   54.0073   53.9134   24.5644 C   0  0  0  0  0  0  0  0  0  0  0  0
   53.1410   52.8808   24.7931 N   0  0  0  0  0  0  0  0  0  0  0  0
  2  1  1  1  0  0  0
  2  3  1  0  0  0  0
  2  5  1  0  0  0  0
  3  4  1  0  0  0  0
  3 17  1  0  0  0  0
  5  6  1  0  0  0  0
  7  6  1  6  0  0  0
  7  8  1  0  0  0  0
  7  9  1  0  0  0  0
 10  9  1  6  0  0  0
 10 11  1  0  0  0  0
 10 12  1  0  0  0  0
 11 16  1  0  0  0  0
 12 13  1  1  0  0  0
 12 14  1  0  0  0  0
 14 15  1  1  0  0  0
 14 16  1  0  0  0  0
 16 27  1  6  0  0  0
 18 19  2  0  0  0  0
 18 23  1  0  0  0  0
 19 20  1  0  0  0  0
 20 21  2  0  0  0  0
 21 22  1  0  0  0  0
 21 27  1  0  0  0  0
 22 23  2  0  0  0  0
 22 25  1  0  0  0  0
 23 24  1  0  0  0  0
 25 26  2  0  0  0  0
 26 27  1  0  0  0  0
M  END
>  <CHROM.1>
111.20767242,-179.97139414,151.95184098,175.05341802,-164.77289319,74.75202711
-80.38172342,52.02331587,53.31621845,22.40685139,-2.13882749,-0.47567780
1.66977031

>  <Name>
ligand

>  <RI>
0

>  <Rbt.Current_Directory>
/home/itssahil/PROJECTS/Mol_Feturizer/New_Systems/rnas/2GIS

>  <Rbt.Executable>
rbdock ($Id: //depot/dev/client3/rdock/2013.1/src/exe/rbdock.cxx#4 $)

>  <Rbt.Library>
libRbt.so (2013.1, Build901 2013/11/27)

>  <Rbt.Parameter_File>
/export/apps/rDock/src/rDock_2013.1_src/data/scripts/dock_solv.prm

>  <Rbt.Receptor>
prm/blind_docking_100.prm

>  <SCORE>
-14.3532

>  <SCORE.INTER>
-11.7126

>  <SCORE.INTER.CONST>
1

>  <SCORE.INTER.POLAR>
0

>  <SCORE.INTER.ROT>
7

>  <SCORE.INTER.SOLV>
9.01648

>  <SCORE.INTER.VDW>
-19.0806

>  <SCORE.INTER.norm>
-0.4338

>  <SCORE.INTRA>
-2.64061

>  <SCORE.INTRA.DIHEDRAL>
-1.63419

>  <SCORE.INTRA.DIHEDRAL.0>
9.40024

>  <SCORE.INTRA.POLAR>
0

>  <SCORE.INTRA.POLAR.0>
0

>  <SCORE.INTRA.REPUL>
0

>  <SCORE.INTRA.REPUL.0>
0

>  <SCORE.INTRA.SOLV>
-3.19289

>  <SCORE.INTRA.SOLV.lig_0>
-47.1049

>  <SCORE.INTRA.VDW>
-0.227066

>  <SCORE.INTRA.VDW.0>
-1.50278

>  <SCORE.INTRA.norm>
-0.0978002

>  <SCORE.RESTR>
0

>  <SCORE.RESTR.CAVITY>
0

>  <SCORE.RESTR.norm>
0

>  <SCORE.SYSTEM>
0

>  <SCORE.SYSTEM.CONST>
0

>  <SCORE.SYSTEM.DIHEDRAL>
0

>  <SCORE.SYSTEM.SOLV>
0

>  <SCORE.SYSTEM.norm>
0

>  <SCORE.heavy>
27

>  <SCORE.norm>
-0.531601

>  <RMSD>
11.299

$$$$
ligand
 OpenBabel11021811433D
libRbt.so/2013.1/901 2013/11/27
 27 29  0  0  0  0  0  0  0  0999 V2000
   54.7382   51.3083   21.3370 N   0  0  0  0  0  0  0  0  0  0  0  0
   53.7037   51.9700   20.5359 C   0  0  2  0  0  0  0  0  0  0  0  0
   54.1096   51.9556   19.0729 C   0  0  0  0  0  0  0  0  0  0  0  0
   55.2274   52.3415   18.7427 O   0  0  0  0  0  0  0  0  0  0  0  0
   53.4930   53.4231   21.0061 C   0  0  0  0  0  0  0  0  0  0  0  0
   52.0238   53.8015   20.8248 C   0  0  0  0  0  0  0  0  0  0  0  0
   51.4402   53.8651   19.0813 S   0  0  2  0  0  0  0  0  0  0  0  0
   52.5284   55.0933   18.2944 C   0  0  0  0  0  0  0  0  0  0  0  0
   49.9677   54.8560   19.4111 C   0  0  0  0  0  0  0  0  0  0  0  0
   48.7706   54.0369   19.9242 C   0  0  1  0  0  0  0  0  0  0  0  0
   49.1753   53.2947   21.1126 O   0  0  0  0  0  0  0  0  0  0  0  0
   47.8201   55.1034   20.4045 C   0  0  1  0  0  0  0  0  0  0  0  0
   46.8584   55.3883   19.3883 O   0  0  0  0  0  0  0  0  0  0  0  0
   47.1424   54.4754   21.6161 C   0  0  1  0  0  0  0  0  0  0  0  0
   45.8843   53.8977   21.2873 O   0  0  0  0  0  0  0  0  0  0  0  0
   48.1321   53.3785   22.1540 C   0  0  2  0  0  0  0  0  0  0  0  0
   53.3007   51.6185   18.2081 O   0  0  0  0  0  0  0  0  0  0  0  0
   52.2169   52.6345   25.3699 N   0  0  0  0  0  0  0  0  0  0  0  0
   51.9371   51.9808   24.2371 C   0  0  0  0  0  0  0  0  0  0  0  0
   50.8744   52.2880   23.5101 N   0  0  0  0  0  0  0  0  0  0  0  0
   50.0156   53.2460   23.8959 C   0  0  0  0  0  0  0  0  0  0  0  0
   50.2619   53.9581   25.0978 C   0  0  0  0  0  0  0  0  0  0  0  0
   51.4216   53.6113   25.8361 C   0  0  0  0  0  0  0  0  0  0  0  0
   51.7272   54.2613   27.0108 N   0  0  0  0  0  0  0  0  0  0  0  0
   49.2611   54.8478   25.2523 N   0  0  0  0  0  0  0  0  0  0  0  0
   48.4301   54.7306   24.2584 C   0  0  0  0  0  0  0  0  0  0  0  0
   48.8479   53.7619   23.3888 N   0  0  0  0  0  0  0  0  0  0  0  0
  2  1  1  1  0  0  0
  2  3  1  0  0  0  0
  2  5  1  0  0  0  0
  3  4  1  0  0  0  0
  3 17  1  0  0  0  0
  5  6  1  0  0  0  0
  7  6  1  1  0  0  0
  7  8  1  0  0  0  0
  7  9  1  0  0  0  0
 10  9  1  1  0  0  0
 10 11  1  0  0  0  0
 10 12  1  0  0  0  0
 11 16  1  0  0  0  0
 12 13  1  6  0  0  0
 12 14  1  0  0  0  0
 14 15  1  6  0  0  0
 14 16  1  0  0  0  0
 16 27  1  1  0  0  0
 18 19  2  0  0  0  0
 18 23  1  0  0  0  0
 19 20  1  0  0  0  0
 20 21  2  0  0  0  0
 21 22  1  0  0  0  0
 21 27  1  0  0  0  0
 22 23  2  0  0  0  0
 22 25  1  0  0  0  0
 23 24  1  0  0  0  0
 25 26  2  0  0  0  0
 26 27  1  0  0  0  0
M  END
>  <CHROM.1>
-50.42719796,-146.75045383,-65.58600133,-58.36705573,-81.79911489,55.59539382
-45.99224105,50.74829636,53.54285681,21.62370495,-0.67618640,-0.33344197
1.62007914

>  <Name>
ligand

>  <RI>
0

>  <Rbt.Current_Directory>
/home/itssahil/PROJECTS/Mol_Feturizer/New_Systems/rnas/2GIS

>  <Rbt.Executable>
rbdock ($Id: //depot/dev/client3/rdock/2013.1/src/exe/rbdock.cxx#4 $)

>  <Rbt.Library>
libRbt.so (2013.1, Build901 2013/11/27)

>  <Rbt.Parameter_File>
/export/apps/rDock/src/rDock_2013.1_src/data/scripts/dock_solv.prm

>  <Rbt.Receptor>
prm/blind_docking_100.prm

>  <SCORE>
-12.9328

>  <SCORE.INTER>
-8.1933

>  <SCORE.INTER.CONST>
1

>  <SCORE.INTER.POLAR>
0

>  <SCORE.INTER.ROT>
7

>  <SCORE.INTER.SOLV>
9.3349

>  <SCORE.INTER.VDW>
-16.8405

>  <SCORE.INTER.norm>
-0.303456

>  <SCORE.INTRA>
-4.73951

>  <SCORE.INTRA.DIHEDRAL>
-1.78128

>  <SCORE.INTRA.DIHEDRAL.0>
9.40024

>  <SCORE.INTRA.POLAR>
0

>  <SCORE.INTRA.POLAR.0>
0

>  <SCORE.INTRA.REPUL>
0

>  <SCORE.INTRA.REPUL.0>
0

>  <SCORE.INTRA.SOLV>
-2.83691

>  <SCORE.INTRA.SOLV.lig_0>
-47.1049

>  <SCORE.INTRA.VDW>
-2.43042

>  <SCORE.INTRA.VDW.0>
-1.50278

>  <SCORE.INTRA.norm>
-0.175538

>  <SCORE.RESTR>
0

>  <SCORE.RESTR.CAVITY>
0

>  <SCORE.RESTR.norm>
0

>  <SCORE.SYSTEM>
0

>  <SCORE.SYSTEM.CONST>
0

>  <SCORE.SYSTEM.DIHEDRAL>
0

>  <SCORE.SYSTEM.SOLV>
0

>  <SCORE.SYSTEM.norm>
0

>  <SCORE.heavy>
27

>  <SCORE.norm>
-0.478993

>  <RMSD>
11.341

$$$$
ligand
 OpenBabel11021811433D
libRbt.so/2013.1/901 2013/11/27
 27 29  0  0  0  0  0  0  0  0999 V2000
   55.0145   47.9291   20.7699 N   0  0  0  0  0  0  0  0  0  0  0  0
   55.9400   48.5659   21.7122 C   0  0  2  0  0  0  0  0  0  0  0  0
   55.6907   48.0266   23.1095 C   0  0  0  0  0  0  0  0  0  0  0  0
   56.5900   47.4484   23.7131 O   0  0  0  0  0  0  0  0  0  0  0  0
   55.7628   50.0974   21.7031 C   0  0  0  0  0  0  0  0  0  0  0  0
   54.2960   50.4347   21.9663 C   0  0  0  0  0  0  0  0  0  0  0  0
   54.0076   51.9558   22.9600 S   0  0  2  0  0  0  0  0  0  0  0  0
   54.5879   51.5126   24.6270 C   0  0  0  0  0  0  0  0  0  0  0  0
   52.2248   51.7324   23.1343 C   0  0  0  0  0  0  0  0  0  0  0  0
   51.6008   52.5750   24.2603 C   0  0  1  0  0  0  0  0  0  0  0  0
   51.1669   53.8552   23.7130 O   0  0  0  0  0  0  0  0  0  0  0  0
   50.3412   51.8140   24.5853 C   0  0  1  0  0  0  0  0  0  0  0  0
   50.5682   50.9571   25.7045 O   0  0  0  0  0  0  0  0  0  0  0  0
   49.3354   52.9010   24.9440 C   0  0  1  0  0  0  0  0  0  0  0  0
   49.2417   53.1021   26.3495 O   0  0  0  0  0  0  0  0  0  0  0  0
   49.8299   54.2109   24.2286 C   0  0  2  0  0  0  0  0  0  0  0  0
   54.5717   48.1101   23.6160 O   0  0  0  0  0  0  0  0  0  0  0  0
   49.7711   55.6853   19.1884 N   0  0  0  0  0  0  0  0  0  0  0  0
   50.8375   55.4329   19.9552 C   0  0  0  0  0  0  0  0  0  0  0  0
   50.7037   55.0481   21.2147 N   0  0  0  0  0  0  0  0  0  0  0  0
   49.4934   54.9267   21.7845 C   0  0  0  0  0  0  0  0  0  0  0  0
   48.3323   55.1973   21.0158 C   0  0  0  0  0  0  0  0  0  0  0  0
   48.5195   55.5873   19.6656 C   0  0  0  0  0  0  0  0  0  0  0  0
   47.4392   55.8632   18.8577 N   0  0  0  0  0  0  0  0  0  0  0  0
   47.2646   55.0060   21.8162 N   0  0  0  0  0  0  0  0  0  0  0  0
   47.6767   54.6539   22.9988 C   0  0  0  0  0  0  0  0  0  0  0  0
   49.0415   54.5838   23.0355 N   0  0  0  0  0  0  0  0  0  0  0  0
  2  1  1  6  0  0  0
  2  3  1  0  0  0  0
  2  5  1  0  0  0  0
  3  4  1  0  0  0  0
  3 17  1  0  0  0  0
  5  6  1  0  0  0  0
  7  6  1  6  0  0  0
  7  8  1  0  0  0  0
  7  9  1  0  0  0  0
 10  9  1  6  0  0  0
 10 11  1  0  0  0  0
 10 12  1  0  0  0  0
 11 16  1  0  0  0  0
 12 13  1  1  0  0  0
 12 14  1  0  0  0  0
 14 15  1  1  0  0  0
 14 16  1  0  0  0  0
 16 27  1  6  0  0  0
 18 19  2  0  0  0  0
 18 23  1  0  0  0  0
 19 20  1  0  0  0  0
 20 21  2  0  0  0  0
 21 22  1  0  0  0  0
 21 27  1  0  0  0  0
 22 23  2  0  0  0  0
 22 25  1  0  0  0  0
 23 24  1  0  0  0  0
 25 26  2  0  0  0  0
 26 27  1  0  0  0  0
M  END
>  <CHROM.1>
119.90109867,54.23422137,144.56496349,-69.60665783,162.83716623,91.13958519
-17.81184783,51.66918270,52.37661332,22.70798226,-0.38912925,0.66985025,-1.20991024

>  <Name>
ligand

>  <RI>
0

>  <Rbt.Current_Directory>
/home/itssahil/PROJECTS/Mol_Feturizer/New_Systems/rnas/2GIS

>  <Rbt.Executable>
rbdock ($Id: //depot/dev/client3/rdock/2013.1/src/exe/rbdock.cxx#4 $)

>  <Rbt.Library>
libRbt.so (2013.1, Build901 2013/11/27)

>  <Rbt.Parameter_File>
/export/apps/rDock/src/rDock_2013.1_src/data/scripts/dock_solv.prm

>  <Rbt.Receptor>
prm/blind_docking_80.prm

>  <SCORE>
-9.13376

>  <SCORE.INTER>
-7.9534

>  <SCORE.INTER.CONST>
1

>  <SCORE.INTER.POLAR>
0

>  <SCORE.INTER.ROT>
7

>  <SCORE.INTER.SOLV>
16.8244

>  <SCORE.INTER.VDW>
-19.1771

>  <SCORE.INTER.norm>
-0.294571

>  <SCORE.INTRA>
-1.18036

>  <SCORE.INTRA.DIHEDRAL>
0.446363

>  <SCORE.INTRA.DIHEDRAL.0>
9.40024

>  <SCORE.INTRA.POLAR>
0

>  <SCORE.INTRA.POLAR.0>
0

>  <SCORE.INTRA.REPUL>
0

>  <SCORE.INTRA.REPUL.0>
0

>  <SCORE.INTRA.SOLV>
-2.31648

>  <SCORE.INTRA.SOLV.lig_0>
-47.1049

>  <SCORE.INTRA.VDW>
-0.245298

>  <SCORE.INTRA.VDW.0>
-1.50278

>  <SCORE.INTRA.norm>
-0.043717

>  <SCORE.RESTR>
0

>  <SCORE.RESTR.CAVITY>
0

>  <SCORE.RESTR.norm>
0

>  <SCORE.SYSTEM>
0

>  <SCORE.SYSTEM.CONST>
0

>  <SCORE.SYSTEM.DIHEDRAL>
0

>  <SCORE.SYSTEM.SOLV>
0

>  <SCORE.SYSTEM.norm>
0

>  <SCORE.heavy>
27

>  <SCORE.norm>
-0.338288

>  <RMSD>
11.352

$$$$
ligand
 OpenBabel11021811433D
libRbt.so/2013.1/901 2013/11/27
 27 29  0  0  0  0  0  0  0  0999 V2000
   50.3238   52.1692   28.0203 N   0  0  0  0  0  0  0  0  0  0  0  0
   49.7053   52.7321   26.8158 C   0  0  2  0  0  0  0  0  0  0  0  0
   48.8359   51.6784   26.1533 C   0  0  0  0  0  0  0  0  0  0  0  0
   47.6137   51.7943   26.1672 O   0  0  0  0  0  0  0  0  0  0  0  0
   50.7811   53.2211   25.8256 C   0  0  0  0  0  0  0  0  0  0  0  0
   50.0992   53.7545   24.5665 C   0  0  0  0  0  0  0  0  0  0  0  0
   49.6434   55.5361   24.6168 S   0  0  2  0  0  0  0  0  0  0  0  0
   48.5669   55.6768   26.0774 C   0  0  0  0  0  0  0  0  0  0  0  0
   48.4264   55.4573   23.2859 C   0  0  0  0  0  0  0  0  0  0  0  0
   48.9129   54.6893   22.0446 C   0  0  1  0  0  0  0  0  0  0  0  0
   47.7898   54.4928   21.1354 O   0  0  0  0  0  0  0  0  0  0  0  0
   49.8217   55.6862   21.3725 C   0  0  1  0  0  0  0  0  0  0  0  0
   51.1773   55.4316   21.7419 O   0  0  0  0  0  0  0  0  0  0  0  0
   49.6188   55.4263   19.8849 C   0  0  1  0  0  0  0  0  0  0  0  0
   50.6223   54.5724   19.3479 O   0  0  0  0  0  0  0  0  0  0  0  0
   48.1978   54.7684   19.7435 C   0  0  2  0  0  0  0  0  0  0  0  0
   49.3477   50.6747   25.6567 O   0  0  0  0  0  0  0  0  0  0  0  0
   43.0996   55.9018   19.1908 N   0  0  0  0  0  0  0  0  0  0  0  0
   43.6418   54.8550   19.8227 C   0  0  0  0  0  0  0  0  0  0  0  0
   44.9545   54.7033   19.9012 N   0  0  0  0  0  0  0  0  0  0  0  0
   45.7957   55.5758   19.3222 C   0  0  0  0  0  0  0  0  0  0  0  0
   45.2681   56.6948   18.6282 C   0  0  0  0  0  0  0  0  0  0  0  0
   43.8574   56.8304   18.5849 C   0  0  0  0  0  0  0  0  0  0  0  0
   43.2733   57.8927   17.9321 N   0  0  0  0  0  0  0  0  0  0  0  0
   46.3112   57.3992   18.1458 N   0  0  0  0  0  0  0  0  0  0  0  0
   47.4182   56.8022   18.4780 C   0  0  0  0  0  0  0  0  0  0  0  0
   47.1609   55.6756   19.2086 N   0  0  0  0  0  0  0  0  0  0  0  0
  2  1  1  1  0  0  0
  2  3  1  0  0  0  0
  2  5  1  0  0  0  0
  3  4  1  0  0  0  0
  3 17  1  0  0  0  0
  5  6  1  0  0  0  0
  7  6  1  1  0  0  0
  7  8  1  0  0  0  0
  7  9  1  0  0  0  0
 10  9  1  1  0  0  0
 10 11  1  0  0  0  0
 10 12  1  0  0  0  0
 11 16  1  0  0  0  0
 12 13  1  1  0  0  0
 12 14  1  0  0  0  0
 14 15  1  1  0  0  0
 14 16  1  0  0  0  0
 16 27  1  1  0  0  0
 18 19  2  0  0  0  0
 18 23  1  0  0  0  0
 19 20  1  0  0  0  0
 20 21  2  0  0  0  0
 21 22  1  0  0  0  0
 21 27  1  0  0  0  0
 22 23  2  0  0  0  0
 22 25  1  0  0  0  0
 23 24  1  0  0  0  0
 25 26  2  0  0  0  0
 26 27  1  0  0  0  0
M  END
>  <CHROM.1>
110.06386906,178.04693670,88.43704929,-57.29589065,-46.53249130,170.50905369
-45.50114525,47.95700360,54.80116863,22.12588931,1.06152274,0.08335595,2.05318446

>  <Name>
ligand

>  <RI>
0

>  <Rbt.Current_Directory>
/home/itssahil/PROJECTS/Mol_Feturizer/New_Systems/rnas/2GIS

>  <Rbt.Executable>
rbdock ($Id: //depot/dev/client3/rdock/2013.1/src/exe/rbdock.cxx#4 $)

>  <Rbt.Library>
libRbt.so (2013.1, Build901 2013/11/27)

>  <Rbt.Parameter_File>
/export/apps/rDock/src/rDock_2013.1_src/data/scripts/dock_solv.prm

>  <Rbt.Receptor>
prm/blind_docking_80.prm

>  <SCORE>
-18.4482

>  <SCORE.INTER>
-16.5638

>  <SCORE.INTER.CONST>
1

>  <SCORE.INTER.POLAR>
0

>  <SCORE.INTER.ROT>
7

>  <SCORE.INTER.SOLV>
15.3598

>  <SCORE.INTER.VDW>
-24.4291

>  <SCORE.INTER.norm>
-0.613474

>  <SCORE.INTRA>
-1.88443

>  <SCORE.INTRA.DIHEDRAL>
-1.91575

>  <SCORE.INTRA.DIHEDRAL.0>
9.40024

>  <SCORE.INTRA.POLAR>
0

>  <SCORE.INTRA.POLAR.0>
0

>  <SCORE.INTRA.REPUL>
0

>  <SCORE.INTRA.REPUL.0>
0

>  <SCORE.INTRA.SOLV>
-2.42893

>  <SCORE.INTRA.SOLV.lig_0>
-47.1049

>  <SCORE.INTRA.VDW>
0.287906

>  <SCORE.INTRA.VDW.0>
-1.50278

>  <SCORE.INTRA.norm>
-0.0697938

>  <SCORE.RESTR>
0

>  <SCORE.RESTR.CAVITY>
0

>  <SCORE.RESTR.norm>
0

>  <SCORE.SYSTEM>
0

>  <SCORE.SYSTEM.CONST>
0

>  <SCORE.SYSTEM.DIHEDRAL>
0

>  <SCORE.SYSTEM.SOLV>
0

>  <SCORE.SYSTEM.norm>
0

>  <SCORE.heavy>
27

>  <SCORE.norm>
-0.683268

>  <RMSD>
11.387

$$$$
ligand
 OpenBabel11021811433D
libRbt.so/2013.1/901 2013/11/27
 27 29  0  0  0  0  0  0  0  0999 V2000
   55.3947   52.6579   20.2307 N   0  0  0  0  0  0  0  0  0  0  0  0
   54.1163   52.4760   20.9252 C   0  0  2  0  0  0  0  0  0  0  0  0
   54.0527   51.0766   21.5108 C   0  0  0  0  0  0  0  0  0  0  0  0
   54.8937   50.2402   21.1936 O   0  0  0  0  0  0  0  0  0  0  0  0
   52.9334   52.6938   19.9607 C   0  0  0  0  0  0  0  0  0  0  0  0
   52.9240   54.1501   19.4985 C   0  0  0  0  0  0  0  0  0  0  0  0
   51.6188   54.5753   18.2738 S   0  0  2  0  0  0  0  0  0  0  0  0
   52.2348   56.0919   17.4785 C   0  0  0  0  0  0  0  0  0  0  0  0
   50.4498   55.2527   19.4710 C   0  0  0  0  0  0  0  0  0  0  0  0
   49.1846   54.3970   19.6557 C   0  0  1  0  0  0  0  0  0  0  0  0
   49.4350   53.3917   20.6822 O   0  0  0  0  0  0  0  0  0  0  0  0
   48.2087   55.3734   20.2602 C   0  0  1  0  0  0  0  0  0  0  0  0
   47.3756   55.9210   19.2381 O   0  0  0  0  0  0  0  0  0  0  0  0
   47.3837   54.5246   21.2197 C   0  0  1  0  0  0  0  0  0  0  0  0
   46.1593   54.0934   20.6371 O   0  0  0  0  0  0  0  0  0  0  0  0
   48.2818   53.2909   21.5986 C   0  0  2  0  0  0  0  0  0  0  0  0
   53.1245   50.7567   22.2539 O   0  0  0  0  0  0  0  0  0  0  0  0
   51.9557   55.2404   24.8053 N   0  0  0  0  0  0  0  0  0  0  0  0
   51.7981   55.4805   23.4990 C   0  0  0  0  0  0  0  0  0  0  0  0
   50.8083   54.9311   22.8130 N   0  0  0  0  0  0  0  0  0  0  0  0
   49.9408   54.0847   23.3921 C   0  0  0  0  0  0  0  0  0  0  0  0
   50.0753   53.7875   24.7726 C   0  0  0  0  0  0  0  0  0  0  0  0
   51.1369   54.4124   25.4746 C   0  0  0  0  0  0  0  0  0  0  0  0
   51.3277   54.1743   26.8172 N   0  0  0  0  0  0  0  0  0  0  0  0
   49.0939   52.9221   25.0968 N   0  0  0  0  0  0  0  0  0  0  0  0
   48.3864   52.6640   24.0361 C   0  0  0  0  0  0  0  0  0  0  0  0
   48.8600   53.3572   22.9571 N   0  0  0  0  0  0  0  0  0  0  0  0
  2  1  1  6  0  0  0
  2  3  1  0  0  0  0
  2  5  1  0  0  0  0
  3  4  1  0  0  0  0
  3 17  1  0  0  0  0
  5  6  1  0  0  0  0
  7  6  1  1  0  0  0
  7  8  1  0  0  0  0
  7  9  1  0  0  0  0
 10  9  1  1  0  0  0
 10 11  1  0  0  0  0
 10 12  1  0  0  0  0
 11 16  1  0  0  0  0
 12 13  1  6  0  0  0
 12 14  1  0  0  0  0
 14 15  1  6  0  0  0
 14 16  1  0  0  0  0
 16 27  1  1  0  0  0
 18 19  2  0  0  0  0
 18 23  1  0  0  0  0
 19 20  1  0  0  0  0
 20 21  2  0  0  0  0
 21 22  1  0  0  0  0
 21 27  1  0  0  0  0
 22 23  2  0  0  0  0
 22 25  1  0  0  0  0
 23 24  1  0  0  0  0
 25 26  2  0  0  0  0
 26 27  1  0  0  0  0
M  END
>  <CHROM.1>
-10.98130972,-65.02161467,177.26568228,-159.27047052,-111.44638018,87.69324979
35.16864031,50.82473695,53.80149051,21.52204076,-0.22278156,-0.37801269,1.76626642

>  <Name>
ligand

>  <RI>
0

>  <Rbt.Current_Directory>
/home/itssahil/PROJECTS/Mol_Feturizer/New_Systems/rnas/2GIS

>  <Rbt.Executable>
rbdock ($Id: //depot/dev/client3/rdock/2013.1/src/exe/rbdock.cxx#4 $)

>  <Rbt.Library>
libRbt.so (2013.1, Build901 2013/11/27)

>  <Rbt.Parameter_File>
/export/apps/rDock/src/rDock_2013.1_src/data/scripts/dock_solv.prm

>  <Rbt.Receptor>
prm/blind_docking_100.prm

>  <SCORE>
-12.5343

>  <SCORE.INTER>
-10.2397

>  <SCORE.INTER.CONST>
1

>  <SCORE.INTER.POLAR>
0

>  <SCORE.INTER.ROT>
7

>  <SCORE.INTER.SOLV>
8.56295

>  <SCORE.INTER.VDW>
-17.9475

>  <SCORE.INTER.norm>
-0.37925

>  <SCORE.INTRA>
-2.29456

>  <SCORE.INTRA.DIHEDRAL>
1.92829

>  <SCORE.INTRA.DIHEDRAL.0>
9.40024

>  <SCORE.INTRA.POLAR>
0

>  <SCORE.INTRA.POLAR.0>
0

>  <SCORE.INTRA.REPUL>
0

>  <SCORE.INTRA.REPUL.0>
0

>  <SCORE.INTRA.SOLV>
-2.37366

>  <SCORE.INTRA.SOLV.lig_0>
-47.1049

>  <SCORE.INTRA.VDW>
-2.07187

>  <SCORE.INTRA.VDW.0>
-1.50278

>  <SCORE.INTRA.norm>
-0.0849836

>  <SCORE.RESTR>
0

>  <SCORE.RESTR.CAVITY>
0

>  <SCORE.RESTR.norm>
0

>  <SCORE.SYSTEM>
0

>  <SCORE.SYSTEM.CONST>
0

>  <SCORE.SYSTEM.DIHEDRAL>
0

>  <SCORE.SYSTEM.SOLV>
0

>  <SCORE.SYSTEM.norm>
0

>  <SCORE.heavy>
27

>  <SCORE.norm>
-0.464233

>  <RMSD>
11.465

$$$$
ligand
 OpenBabel11021811433D
libRbt.so/2013.1/901 2013/11/27
 27 29  0  0  0  0  0  0  0  0999 V2000
   50.8320   53.4127   28.1916 N   0  0  0  0  0  0  0  0  0  0  0  0
   50.9560   54.0923   26.8983 C   0  0  2  0  0  0  0  0  0  0  0  0
   49.5748   54.4540   26.3818 C   0  0  0  0  0  0  0  0  0  0  0  0
   49.3696   55.5675   25.9071 O   0  0  0  0  0  0  0  0  0  0  0  0
   51.6786   53.1939   25.8748 C   0  0  0  0  0  0  0  0  0  0  0  0
   51.8233   53.9514   24.5557 C   0  0  0  0  0  0  0  0  0  0  0  0
   52.5624   52.9865   23.1747 S   0  0  2  0  0  0  0  0  0  0  0  0
   54.3514   53.0411   23.5040 C   0  0  0  0  0  0  0  0  0  0  0  0
   52.3919   54.2805   21.9277 C   0  0  0  0  0  0  0  0  0  0  0  0
   51.9642   53.7578   20.5453 C   0  0  1  0  0  0  0  0  0  0  0  0
   50.7276   52.9975   20.6851 O   0  0  0  0  0  0  0  0  0  0  0  0
   51.5938   55.0217   19.8125 C   0  0  1  0  0  0  0  0  0  0  0  0
   52.6958   55.4616   19.0183 O   0  0  0  0  0  0  0  0  0  0  0  0
   50.4302   54.6044   18.9217 C   0  0  1  0  0  0  0  0  0  0  0  0
   50.8521   54.2946   17.5986 O   0  0  0  0  0  0  0  0  0  0  0  0
   49.7823   53.3456   19.6057 C   0  0  2  0  0  0  0  0  0  0  0  0
   48.6424   53.6579   26.4946 O   0  0  0  0  0  0  0  0  0  0  0  0
   44.6456   52.3432   20.0428 N   0  0  0  0  0  0  0  0  0  0  0  0
   45.5156   51.8004   19.1839 C   0  0  0  0  0  0  0  0  0  0  0  0
   46.7962   52.1353   19.1980 N   0  0  0  0  0  0  0  0  0  0  0  0
   47.2691   53.0572   20.0528 C   0  0  0  0  0  0  0  0  0  0  0  0
   46.3823   53.6717   20.9738 C   0  0  0  0  0  0  0  0  0  0  0  0
   45.0230   53.2701   20.9385 C   0  0  0  0  0  0  0  0  0  0  0  0
   44.1050   53.8207   21.8044 N   0  0  0  0  0  0  0  0  0  0  0  0
   47.1013   54.5484   21.7029 N   0  0  0  0  0  0  0  0  0  0  0  0
   48.3378   54.5246   21.2994 C   0  0  0  0  0  0  0  0  0  0  0  0
   48.5001   53.6197   20.2875 N   0  0  0  0  0  0  0  0  0  0  0  0
  2  1  1  1  0  0  0
  2  3  1  0  0  0  0
  2  5  1  0  0  0  0
  3  4  1  0  0  0  0
  3 17  1  0  0  0  0
  5  6  1  0  0  0  0
  7  6  1  1  0  0  0
  7  8  1  0  0  0  0
  7  9  1  0  0  0  0
 10  9  1  1  0  0  0
 10 11  1  0  0  0  0
 10 12  1  0  0  0  0
 11 16  1  0  0  0  0
 12 13  1  6  0  0  0
 12 14  1  0  0  0  0
 14 15  1  6  0  0  0
 14 16  1  0  0  0  0
 16 27  1  1  0  0  0
 18 19  2  0  0  0  0
 18 23  1  0  0  0  0
 19 20  1  0  0  0  0
 20 21  2  0  0  0  0
 21 22  1  0  0  0  0
 21 27  1  0  0  0  0
 22 23  2  0  0  0  0
 22 25  1  0  0  0  0
 23 24  1  0  0  0  0
 25 26  2  0  0  0  0
 26 27  1  0  0  0  0
M  END
>  <CHROM.1>
135.32140918,-178.38855747,-175.92087749,-80.02771034,-140.16207252,55.35129467
-125.55261483,49.64396467,53.72075559,22.10484641,0.87139582,0.10136559,1.56422710

>  <Name>
ligand

>  <RI>
0

>  <Rbt.Current_Directory>
/home/itssahil/PROJECTS/Mol_Feturizer/New_Systems/rnas/2GIS

>  <Rbt.Executable>
rbdock ($Id: //depot/dev/client3/rdock/2013.1/src/exe/rbdock.cxx#4 $)

>  <Rbt.Library>
libRbt.so (2013.1, Build901 2013/11/27)

>  <Rbt.Parameter_File>
/export/apps/rDock/src/rDock_2013.1_src/data/scripts/dock_solv.prm

>  <Rbt.Receptor>
prm/blind_docking_80.prm

>  <SCORE>
-9.58805

>  <SCORE.INTER>
-6.38136

>  <SCORE.INTER.CONST>
1

>  <SCORE.INTER.POLAR>
0

>  <SCORE.INTER.ROT>
7

>  <SCORE.INTER.SOLV>
13.0856

>  <SCORE.INTER.VDW>
-16.8828

>  <SCORE.INTER.norm>
-0.236347

>  <SCORE.INTRA>
-3.20668

>  <SCORE.INTRA.DIHEDRAL>
-1.62147

>  <SCORE.INTRA.DIHEDRAL.0>
9.40024

>  <SCORE.INTRA.POLAR>
0

>  <SCORE.INTRA.POLAR.0>
0

>  <SCORE.INTRA.REPUL>
0

>  <SCORE.INTRA.REPUL.0>
0

>  <SCORE.INTRA.SOLV>
-3.14983

>  <SCORE.INTRA.SOLV.lig_0>
-47.1049

>  <SCORE.INTRA.VDW>
-0.821033

>  <SCORE.INTRA.VDW.0>
-1.50278

>  <SCORE.INTRA.norm>
-0.118766

>  <SCORE.RESTR>
0

>  <SCORE.RESTR.CAVITY>
0

>  <SCORE.RESTR.norm>
0

>  <SCORE.SYSTEM>
0

>  <SCORE.SYSTEM.CONST>
0

>  <SCORE.SYSTEM.DIHEDRAL>
0

>  <SCORE.SYSTEM.SOLV>
0

>  <SCORE.SYSTEM.norm>
0

>  <SCORE.heavy>
27

>  <SCORE.norm>
-0.355113

>  <RMSD>
11.567

$$$$
ligand
 OpenBabel11021811433D
libRbt.so/2013.1/901 2013/11/27
 27 29  0  0  0  0  0  0  0  0999 V2000
   55.6169   57.9021   16.1523 N   0  0  0  0  0  0  0  0  0  0  0  0
   54.3190   57.9565   16.8323 C   0  0  2  0  0  0  0  0  0  0  0  0
   54.4332   58.8247   18.0727 C   0  0  0  0  0  0  0  0  0  0  0  0
   55.4847   58.8543   18.7059 O   0  0  0  0  0  0  0  0  0  0  0  0
   53.8470   56.5423   17.2251 C   0  0  0  0  0  0  0  0  0  0  0  0
   52.4515   56.6316   17.8408 C   0  0  0  0  0  0  0  0  0  0  0  0
   51.6978   55.0208   18.3113 S   0  0  2  0  0  0  0  0  0  0  0  0
   51.0308   54.3704   16.7479 C   0  0  0  0  0  0  0  0  0  0  0  0
   50.2142   55.7197   19.0660 C   0  0  0  0  0  0  0  0  0  0  0  0
   49.1600   54.6678   19.4524 C   0  0  1  0  0  0  0  0  0  0  0  0
   49.6881   53.8368   20.5282 O   0  0  0  0  0  0  0  0  0  0  0  0
   48.0686   55.5032   20.0706 C   0  0  1  0  0  0  0  0  0  0  0  0
   47.0603   55.7794   19.0980 O   0  0  0  0  0  0  0  0  0  0  0  0
   47.5097   54.6190   21.1786 C   0  0  1  0  0  0  0  0  0  0  0  0
   46.3469   53.9111   20.7646 O   0  0  0  0  0  0  0  0  0  0  0  0
   48.6595   53.6184   21.5646 C   0  0  2  0  0  0  0  0  0  0  0  0
   53.4560   59.4508   18.4837 O   0  0  0  0  0  0  0  0  0  0  0  0
   49.5536   52.3198   26.5741 N   0  0  0  0  0  0  0  0  0  0  0  0
   48.7903   51.6751   25.6849 C   0  0  0  0  0  0  0  0  0  0  0  0
   48.6691   52.1084   24.4400 N   0  0  0  0  0  0  0  0  0  0  0  0
   49.2808   53.2306   24.0268 C   0  0  0  0  0  0  0  0  0  0  0  0
   50.0901   53.9572   24.9375 C   0  0  0  0  0  0  0  0  0  0  0  0
   50.2090   53.4479   26.2553 C   0  0  0  0  0  0  0  0  0  0  0  0
   50.9798   54.0978   27.1930 N   0  0  0  0  0  0  0  0  0  0  0  0
   50.5771   55.0280   24.2791 N   0  0  0  0  0  0  0  0  0  0  0  0
   50.1280   55.0176   23.0582 C   0  0  0  0  0  0  0  0  0  0  0  0
   49.3283   53.9294   22.8453 N   0  0  0  0  0  0  0  0  0  0  0  0
  2  1  1  1  0  0  0
  2  3  1  0  0  0  0
  2  5  1  0  0  0  0
  3  4  1  0  0  0  0
  3 17  1  0  0  0  0
  5  6  1  0  0  0  0
  7  6  1  6  0  0  0
  7  8  1  0  0  0  0
  7  9  1  0  0  0  0
 10  9  1  1  0  0  0
 10 11  1  0  0  0  0
 10 12  1  0  0  0  0
 11 16  1  0  0  0  0
 12 13  1  6  0  0  0
 12 14  1  0  0  0  0
 14 15  1  6  0  0  0
 14 16  1  0  0  0  0
 16 27  1  1  0  0  0
 18 19  2  0  0  0  0
 18 23  1  0  0  0  0
 19 20  1  0  0  0  0
 20 21  2  0  0  0  0
 21 22  1  0  0  0  0
 21 27  1  0  0  0  0
 22 23  2  0  0  0  0
 22 25  1  0  0  0  0
 23 24  1  0  0  0  0
 25 26  2  0  0  0  0
 26 27  1  0  0  0  0
M  END
>  <CHROM.1>
-33.04098755,-176.06751681,177.68959816,-81.08129051,172.12254996,66.73621574
-135.65657050,50.68016358,55.15897952,20.84480790,-1.00571840,0.45225724
1.83739242

>  <Name>
ligand

>  <RI>
0

>  <Rbt.Current_Directory>
/home/itssahil/PROJECTS/Mol_Feturizer/New_Systems/rnas/2GIS

>  <Rbt.Executable>
rbdock ($Id: //depot/dev/client3/rdock/2013.1/src/exe/rbdock.cxx#4 $)

>  <Rbt.Library>
libRbt.so (2013.1, Build901 2013/11/27)

>  <Rbt.Parameter_File>
/export/apps/rDock/src/rDock_2013.1_src/data/scripts/dock_solv.prm

>  <Rbt.Receptor>
prm/blind_docking_100.prm

>  <SCORE>
-15.3088

>  <SCORE.INTER>
-10.3083

>  <SCORE.INTER.CONST>
1

>  <SCORE.INTER.POLAR>
0

>  <SCORE.INTER.ROT>
7

>  <SCORE.INTER.SOLV>
7.73741

>  <SCORE.INTER.VDW>
-17.718

>  <SCORE.INTER.norm>
-0.381789

>  <SCORE.INTRA>
-5.00051

>  <SCORE.INTRA.DIHEDRAL>
-5.6359

>  <SCORE.INTRA.DIHEDRAL.0>
9.40024

>  <SCORE.INTRA.POLAR>
0

>  <SCORE.INTRA.POLAR.0>
0

>  <SCORE.INTRA.REPUL>
0

>  <SCORE.INTRA.REPUL.0>
0

>  <SCORE.INTRA.SOLV>
-3.17368

>  <SCORE.INTRA.SOLV.lig_0>
-47.1049

>  <SCORE.INTRA.VDW>
-0.595719

>  <SCORE.INTRA.VDW.0>
-1.50278

>  <SCORE.INTRA.norm>
-0.185204

>  <SCORE.RESTR>
0

>  <SCORE.RESTR.CAVITY>
0

>  <SCORE.RESTR.norm>
0

>  <SCORE.SYSTEM>
0

>  <SCORE.SYSTEM.CONST>
0

>  <SCORE.SYSTEM.DIHEDRAL>
0

>  <SCORE.SYSTEM.SOLV>
0

>  <SCORE.SYSTEM.norm>
0

>  <SCORE.heavy>
27

>  <SCORE.norm>
-0.566993

>  <RMSD>
11.637

$$$$
ligand
 OpenBabel11021811433D
libRbt.so/2013.1/901 2013/11/27
 27 29  0  0  0  0  0  0  0  0999 V2000
   50.9574   53.4406   26.9980 N   0  0  0  0  0  0  0  0  0  0  0  0
   49.6312   52.9276   27.3561 C   0  0  2  0  0  0  0  0  0  0  0  0
   49.6435   52.4555   28.7991 C   0  0  0  0  0  0  0  0  0  0  0  0
   48.8006   51.6523   29.1888 O   0  0  0  0  0  0  0  0  0  0  0  0
   49.2253   51.7649   26.4286 C   0  0  0  0  0  0  0  0  0  0  0  0
   49.1106   52.2823   24.9955 C   0  0  0  0  0  0  0  0  0  0  0  0
   47.9547   53.6944   24.7621 S   0  0  2  0  0  0  0  0  0  0  0  0
   46.3254   53.0095   25.1959 C   0  0  0  0  0  0  0  0  0  0  0  0
   47.9084   53.6047   22.9597 C   0  0  0  0  0  0  0  0  0  0  0  0
   48.9955   54.4458   22.2683 C   0  0  1  0  0  0  0  0  0  0  0  0
   50.2786   54.1880   22.9118 O   0  0  0  0  0  0  0  0  0  0  0  0
   49.0827   53.8167   20.9016 C   0  0  1  0  0  0  0  0  0  0  0  0
   48.2862   54.5568   19.9761 O   0  0  0  0  0  0  0  0  0  0  0  0
   50.5584   53.9261   20.5384 C   0  0  1  0  0  0  0  0  0  0  0  0
   50.8277   55.0616   19.7244 O   0  0  0  0  0  0  0  0  0  0  0  0
   51.3401   54.0221   21.8992 C   0  0  2  0  0  0  0  0  0  0  0  0
   50.4561   52.9225   29.5975 O   0  0  0  0  0  0  0  0  0  0  0  0
   55.0906   50.5046   20.8304 N   0  0  0  0  0  0  0  0  0  0  0  0
   54.7642   51.5933   20.1252 C   0  0  0  0  0  0  0  0  0  0  0  0
   53.8015   52.4090   20.5253 N   0  0  0  0  0  0  0  0  0  0  0  0
   53.0908   52.1604   21.6377 C   0  0  0  0  0  0  0  0  0  0  0  0
   53.3903   51.0101   22.4119 C   0  0  0  0  0  0  0  0  0  0  0  0
   54.4417   50.1737   21.9587 C   0  0  0  0  0  0  0  0  0  0  0  0
   54.7908   49.0415   22.6601 N   0  0  0  0  0  0  0  0  0  0  0  0
   52.5399   50.9947   23.4576 N   0  0  0  0  0  0  0  0  0  0  0  0
   51.7499   52.0253   23.3792 C   0  0  0  0  0  0  0  0  0  0  0  0
   52.0477   52.7817   22.2800 N   0  0  0  0  0  0  0  0  0  0  0  0
  2  1  1  6  0  0  0
  2  3  1  0  0  0  0
  2  5  1  0  0  0  0
  3  4  1  0  0  0  0
  3 17  1  0  0  0  0
  5  6  1  0  0  0  0
  7  6  1  1  0  0  0
  7  8  1  0  0  0  0
  7  9  1  0  0  0  0
 10  9  1  1  0  0  0
 10 11  1  0  0  0  0
 10 12  1  0  0  0  0
 11 16  1  0  0  0  0
 12 13  1  6  0  0  0
 12 14  1  0  0  0  0
 14 15  1  6  0  0  0
 14 16  1  0  0  0  0
 16 27  1  1  0  0  0
 18 19  2  0  0  0  0
 18 23  1  0  0  0  0
 19 20  1  0  0  0  0
 20 21  2  0  0  0  0
 21 22  1  0  0  0  0
 21 27  1  0  0  0  0
 22 23  2  0  0  0  0
 22 25  1  0  0  0  0
 23 24  1  0  0  0  0
 25 26  2  0  0  0  0
 26 27  1  0  0  0  0
M  END
>  <CHROM.1>
-158.65351798,-63.33234099,-56.05071746,-63.79583843,-89.40116727,47.33051298
177.71075277,50.70254968,52.70475928,23.58186327,-2.27537119,0.51452187,-1.30213205

>  <Name>
ligand

>  <RI>
0

>  <Rbt.Current_Directory>
/home/itssahil/PROJECTS/Mol_Feturizer/New_Systems/rnas/2GIS

>  <Rbt.Executable>
rbdock ($Id: //depot/dev/client3/rdock/2013.1/src/exe/rbdock.cxx#4 $)

>  <Rbt.Library>
libRbt.so (2013.1, Build901 2013/11/27)

>  <Rbt.Parameter_File>
/export/apps/rDock/src/rDock_2013.1_src/data/scripts/dock_solv.prm

>  <Rbt.Receptor>
prm/blind_docking_80.prm

>  <SCORE>
-15.3864

>  <SCORE.INTER>
-11.9053

>  <SCORE.INTER.CONST>
1

>  <SCORE.INTER.POLAR>
0

>  <SCORE.INTER.ROT>
7

>  <SCORE.INTER.SOLV>
8.31573

>  <SCORE.INTER.VDW>
-18.9754

>  <SCORE.INTER.norm>
-0.440935

>  <SCORE.INTRA>
-3.48119

>  <SCORE.INTRA.DIHEDRAL>
-4.31608

>  <SCORE.INTRA.DIHEDRAL.0>
9.40024

>  <SCORE.INTRA.POLAR>
0

>  <SCORE.INTRA.POLAR.0>
0

>  <SCORE.INTRA.REPUL>
0

>  <SCORE.INTRA.REPUL.0>
0

>  <SCORE.INTRA.SOLV>
-1.55165

>  <SCORE.INTRA.SOLV.lig_0>
-47.1049

>  <SCORE.INTRA.VDW>
-0.547326

>  <SCORE.INTRA.VDW.0>
-1.50278

>  <SCORE.INTRA.norm>
-0.128933

>  <SCORE.RESTR>
0

>  <SCORE.RESTR.CAVITY>
0

>  <SCORE.RESTR.norm>
0

>  <SCORE.SYSTEM>
0

>  <SCORE.SYSTEM.CONST>
0

>  <SCORE.SYSTEM.DIHEDRAL>
0

>  <SCORE.SYSTEM.SOLV>
0

>  <SCORE.SYSTEM.norm>
0

>  <SCORE.heavy>
27

>  <SCORE.norm>
-0.569868

>  <RMSD>
11.651

$$$$
ligand
 OpenBabel11021811433D
libRbt.so/2013.1/901 2013/11/27
 27 29  0  0  0  0  0  0  0  0999 V2000
   52.0564   53.6528   19.3068 N   0  0  0  0  0  0  0  0  0  0  0  0
   50.8146   54.0526   18.6374 C   0  0  2  0  0  0  0  0  0  0  0  0
   51.1006   55.1965   17.6808 C   0  0  0  0  0  0  0  0  0  0  0  0
   51.5070   56.2711   18.1139 O   0  0  0  0  0  0  0  0  0  0  0  0
   49.7521   54.4851   19.6675 C   0  0  0  0  0  0  0  0  0  0  0  0
   49.1504   53.2417   20.3205 C   0  0  0  0  0  0  0  0  0  0  0  0
   47.8401   53.5686   21.5697 S   0  0  2  0  0  0  0  0  0  0  0  0
   46.7712   54.8095   20.7760 C   0  0  0  0  0  0  0  0  0  0  0  0
   48.8553   54.6084   22.6407 C   0  0  0  0  0  0  0  0  0  0  0  0
   49.2834   53.9206   23.9486 C   0  0  1  0  0  0  0  0  0  0  0  0
   49.7572   52.5749   23.6465 O   0  0  0  0  0  0  0  0  0  0  0  0
   50.5024   54.7085   24.3544 C   0  0  1  0  0  0  0  0  0  0  0  0
   50.1374   55.7105   25.3039 O   0  0  0  0  0  0  0  0  0  0  0  0
   51.4138   53.6720   24.9999 C   0  0  1  0  0  0  0  0  0  0  0  0
   51.2945   53.6617   26.4177 O   0  0  0  0  0  0  0  0  0  0  0  0
   50.9934   52.2815   24.3984 C   0  0  2  0  0  0  0  0  0  0  0  0
   50.8665   55.0727   16.4784 O   0  0  0  0  0  0  0  0  0  0  0  0
   54.8967   48.9568   23.2616 N   0  0  0  0  0  0  0  0  0  0  0  0
   54.2788   49.1231   24.4361 C   0  0  0  0  0  0  0  0  0  0  0  0
   53.2896   49.9915   24.5762 N   0  0  0  0  0  0  0  0  0  0  0  0
   52.8870   50.7646   23.5542 C   0  0  0  0  0  0  0  0  0  0  0  0
   53.5213   50.6349   22.2920 C   0  0  0  0  0  0  0  0  0  0  0  0
   54.5627   49.6793   22.1798 C   0  0  0  0  0  0  0  0  0  0  0  0
   55.2221   49.4956   20.9851 N   0  0  0  0  0  0  0  0  0  0  0  0
   52.9380   51.5157   21.4547 N   0  0  0  0  0  0  0  0  0  0  0  0
   52.0169   52.1701   22.0994 C   0  0  0  0  0  0  0  0  0  0  0  0
   51.9378   51.7448   23.3962 N   0  0  0  0  0  0  0  0  0  0  0  0
  2  1  1  1  0  0  0
  2  3  1  0  0  0  0
  2  5  1  0  0  0  0
  3  4  1  0  0  0  0
  3 17  1  0  0  0  0
  5  6  1  0  0  0  0
  7  6  1  6  0  0  0
  7  8  1  0  0  0  0
  7  9  1  0  0  0  0
 10  9  1  6  0  0  0
 10 11  1  0  0  0  0
 10 12  1  0  0  0  0
 11 16  1  0  0  0  0
 12 13  1  1  0  0  0
 12 14  1  0  0  0  0
 14 15  1  1  0  0  0
 14 16  1  0  0  0  0
 16 27  1  6  0  0  0
 18 19  2  0  0  0  0
 18 23  1  0  0  0  0
 19 20  1  0  0  0  0
 20 21  2  0  0  0  0
 21 22  1  0  0  0  0
 21 27  1  0  0  0  0
 22 23  2  0  0  0  0
 22 25  1  0  0  0  0
 23 24  1  0  0  0  0
 25 26  2  0  0  0  0
 26 27  1  0  0  0  0
M  END
>  <CHROM.1>
-63.11255173,-76.89598100,-179.24285370,45.62528094,-106.43171175,45.74250109
-144.65023692,51.15895839,52.92268559,22.04879615,-2.38603628,-0.69384146
1.79883963

>  <Name>
ligand

>  <RI>
0

>  <Rbt.Current_Directory>
/home/itssahil/PROJECTS/Mol_Feturizer/New_Systems/rnas/2GIS

>  <Rbt.Executable>
rbdock ($Id: //depot/dev/client3/rdock/2013.1/src/exe/rbdock.cxx#4 $)

>  <Rbt.Library>
libRbt.so (2013.1, Build901 2013/11/27)

>  <Rbt.Parameter_File>
/export/apps/rDock/src/rDock_2013.1_src/data/scripts/dock_solv.prm

>  <Rbt.Receptor>
prm/blind_docking_80.prm

>  <SCORE>
-16.9707

>  <SCORE.INTER>
-14.7768

>  <SCORE.INTER.CONST>
1

>  <SCORE.INTER.POLAR>
0

>  <SCORE.INTER.ROT>
7

>  <SCORE.INTER.SOLV>
10.4749

>  <SCORE.INTER.VDW>
-21.6095

>  <SCORE.INTER.norm>
-0.547288

>  <SCORE.INTRA>
-2.19391

>  <SCORE.INTRA.DIHEDRAL>
-1.11435

>  <SCORE.INTRA.DIHEDRAL.0>
9.40024

>  <SCORE.INTRA.POLAR>
0

>  <SCORE.INTRA.POLAR.0>
0

>  <SCORE.INTRA.REPUL>
0

>  <SCORE.INTRA.REPUL.0>
0

>  <SCORE.INTRA.SOLV>
-1.5588

>  <SCORE.INTRA.SOLV.lig_0>
-47.1049

>  <SCORE.INTRA.VDW>
-0.857333

>  <SCORE.INTRA.VDW.0>
-1.50278

>  <SCORE.INTRA.norm>
-0.0812559

>  <SCORE.RESTR>
0

>  <SCORE.RESTR.CAVITY>
0

>  <SCORE.RESTR.norm>
0

>  <SCORE.SYSTEM>
0

>  <SCORE.SYSTEM.CONST>
0

>  <SCORE.SYSTEM.DIHEDRAL>
0

>  <SCORE.SYSTEM.SOLV>
0

>  <SCORE.SYSTEM.norm>
0

>  <SCORE.heavy>
27

>  <SCORE.norm>
-0.628544

>  <RMSD>
11.659

$$$$
ligand
 OpenBabel11021811433D
libRbt.so/2013.1/901 2013/11/27
 27 29  0  0  0  0  0  0  0  0999 V2000
   53.1267   53.5339   15.2339 N   0  0  0  0  0  0  0  0  0  0  0  0
   52.6959   52.8522   16.4584 C   0  0  2  0  0  0  0  0  0  0  0  0
   51.2150   53.1014   16.6826 C   0  0  0  0  0  0  0  0  0  0  0  0
   50.7217   54.1830   16.3754 O   0  0  0  0  0  0  0  0  0  0  0  0
   53.5005   53.3515   17.6750 C   0  0  0  0  0  0  0  0  0  0  0  0
   53.2299   52.4344   18.8668 C   0  0  0  0  0  0  0  0  0  0  0  0
   54.1561   52.8491   20.4012 S   0  0  2  0  0  0  0  0  0  0  0  0
   55.9042   52.6964   19.9183 C   0  0  0  0  0  0  0  0  0  0  0  0
   53.8763   51.2669   21.2241 C   0  0  0  0  0  0  0  0  0  0  0  0
   54.7105   51.0763   22.5028 C   0  0  1  0  0  0  0  0  0  0  0  0
   54.2346   52.0017   23.5246 O   0  0  0  0  0  0  0  0  0  0  0  0
   54.3008   49.7014   22.9645 C   0  0  1  0  0  0  0  0  0  0  0  0
   55.2499   48.7356   22.5116 O   0  0  0  0  0  0  0  0  0  0  0  0
   54.3273   49.7995   24.4849 C   0  0  1  0  0  0  0  0  0  0  0  0
   55.5472   49.3132   25.0325 O   0  0  0  0  0  0  0  0  0  0  0  0
   54.1323   51.3209   24.8307 C   0  0  2  0  0  0  0  0  0  0  0  0
   50.5181   52.2467   17.2300 O   0  0  0  0  0  0  0  0  0  0  0  0
   49.2898   53.0922   23.8338 N   0  0  0  0  0  0  0  0  0  0  0  0
   50.2993   52.9383   22.9699 C   0  0  0  0  0  0  0  0  0  0  0  0
   51.4705   52.4595   23.3587 N   0  0  0  0  0  0  0  0  0  0  0  0
   51.7045   52.1389   24.6420 C   0  0  0  0  0  0  0  0  0  0  0  0
   50.6692   52.2980   25.5986 C   0  0  0  0  0  0  0  0  0  0  0  0
   49.4243   52.7952   25.1367 C   0  0  0  0  0  0  0  0  0  0  0  0
   48.3721   52.9729   26.0068 N   0  0  0  0  0  0  0  0  0  0  0  0
   51.1607   51.9130   26.7933 N   0  0  0  0  0  0  0  0  0  0  0  0
   52.3997   51.5453   26.6453 C   0  0  0  0  0  0  0  0  0  0  0  0
   52.7864   51.6587   25.3389 N   0  0  0  0  0  0  0  0  0  0  0  0
  2  1  1  6  0  0  0
  2  3  1  0  0  0  0
  2  5  1  0  0  0  0
  3  4  1  0  0  0  0
  3 17  1  0  0  0  0
  5  6  1  0  0  0  0
  7  6  1  6  0  0  0
  7  8  1  0  0  0  0
  7  9  1  0  0  0  0
 10  9  1  6  0  0  0
 10 11  1  0  0  0  0
 10 12  1  0  0  0  0
 11 16  1  0  0  0  0
 12 13  1  1  0  0  0
 12 14  1  0  0  0  0
 14 15  1  6  0  0  0
 14 16  1  0  0  0  0
 16 27  1  6  0  0  0
 18 19  2  0  0  0  0
 18 23  1  0  0  0  0
 19 20  1  0  0  0  0
 20 21  2  0  0  0  0
 21 22  1  0  0  0  0
 21 27  1  0  0  0  0
 22 23  2  0  0  0  0
 22 25  1  0  0  0  0
 23 24  1  0  0  0  0
 25 26  2  0  0  0  0
 26 27  1  0  0  0  0
M  END
>  <CHROM.1>
-35.22972856,-168.71352379,178.05671624,-60.62145439,169.94907936,68.43062228
17.89076987,52.68771862,52.03198525,21.92077787,-1.51949617,-0.43268019,1.78773456

>  <Name>
ligand

>  <RI>
0

>  <Rbt.Current_Directory>
/home/itssahil/PROJECTS/Mol_Feturizer/New_Systems/rnas/2GIS

>  <Rbt.Executable>
rbdock ($Id: //depot/dev/client3/rdock/2013.1/src/exe/rbdock.cxx#4 $)

>  <Rbt.Library>
libRbt.so (2013.1, Build901 2013/11/27)

>  <Rbt.Parameter_File>
/export/apps/rDock/src/rDock_2013.1_src/data/scripts/dock_solv.prm

>  <Rbt.Receptor>
prm/blind_docking_80.prm

>  <SCORE>
-18.3496

>  <SCORE.INTER>
-12.9497

>  <SCORE.INTER.CONST>
1

>  <SCORE.INTER.POLAR>
0

>  <SCORE.INTER.ROT>
7

>  <SCORE.INTER.SOLV>
14.2013

>  <SCORE.INTER.VDW>
-21.6336

>  <SCORE.INTER.norm>
-0.479619

>  <SCORE.INTRA>
-5.43276

>  <SCORE.INTRA.DIHEDRAL>
-5.36443

>  <SCORE.INTRA.DIHEDRAL.0>
9.40024

>  <SCORE.INTRA.POLAR>
0

>  <SCORE.INTRA.POLAR.0>
0

>  <SCORE.INTRA.REPUL>
0

>  <SCORE.INTRA.REPUL.0>
0

>  <SCORE.INTRA.SOLV>
-3.10076

>  <SCORE.INTRA.SOLV.lig_0>
-47.1049

>  <SCORE.INTRA.VDW>
-1.20016

>  <SCORE.INTRA.VDW.0>
-1.50278

>  <SCORE.INTRA.norm>
-0.201213

>  <SCORE.RESTR>
0.0328357

>  <SCORE.RESTR.CAVITY>
0.0328357

>  <SCORE.RESTR.norm>
0.00121614

>  <SCORE.SYSTEM>
0

>  <SCORE.SYSTEM.CONST>
0

>  <SCORE.SYSTEM.DIHEDRAL>
0

>  <SCORE.SYSTEM.SOLV>
0

>  <SCORE.SYSTEM.norm>
0

>  <SCORE.heavy>
27

>  <SCORE.norm>
-0.679616

>  <RMSD>
11.675

$$$$
ligand
 OpenBabel11021811433D
libRbt.so/2013.1/901 2013/11/27
 27 29  0  0  0  0  0  0  0  0999 V2000
   53.3835   53.7922   18.7607 N   0  0  0  0  0  0  0  0  0  0  0  0
   52.2871   52.9115   18.3456 C   0  0  2  0  0  0  0  0  0  0  0  0
   52.7149   52.1087   17.1299 C   0  0  0  0  0  0  0  0  0  0  0  0
   52.9415   50.9068   17.2374 O   0  0  0  0  0  0  0  0  0  0  0  0
   51.0233   53.7298   18.0140 C   0  0  0  0  0  0  0  0  0  0  0  0
   50.5623   54.4720   19.2675 C   0  0  0  0  0  0  0  0  0  0  0  0
   49.8936   53.4051   20.6088 S   0  0  2  0  0  0  0  0  0  0  0  0
   48.1320   53.2200   20.1909 C   0  0  0  0  0  0  0  0  0  0  0  0
   49.8259   54.7003   21.8644 C   0  0  0  0  0  0  0  0  0  0  0  0
   49.3027   54.2162   23.2278 C   0  0  1  0  0  0  0  0  0  0  0  0
   49.6660   52.8153   23.4076 O   0  0  0  0  0  0  0  0  0  0  0  0
   50.1492   54.9931   24.2031 C   0  0  1  0  0  0  0  0  0  0  0  0
   49.4442   56.1567   24.6366 O   0  0  0  0  0  0  0  0  0  0  0  0
   50.3502   54.0298   25.3665 C   0  0  1  0  0  0  0  0  0  0  0  0
   49.4224   54.2607   26.4203 O   0  0  0  0  0  0  0  0  0  0  0  0
   50.1695   52.5838   24.7761 C   0  0  2  0  0  0  0  0  0  0  0  0
   52.8974   52.6695   16.0492 O   0  0  0  0  0  0  0  0  0  0  0  0
   54.0447   51.0314   21.5895 N   0  0  0  0  0  0  0  0  0  0  0  0
   52.9803   51.7799   21.2798 C   0  0  0  0  0  0  0  0  0  0  0  0
   52.0843   52.1138   22.1952 N   0  0  0  0  0  0  0  0  0  0  0  0
   52.1890   51.6883   23.4650 C   0  0  0  0  0  0  0  0  0  0  0  0
   53.2932   50.8802   23.8390 C   0  0  0  0  0  0  0  0  0  0  0  0
   54.2400   50.5622   22.8327 C   0  0  0  0  0  0  0  0  0  0  0  0
   55.3390   49.7849   23.1223 N   0  0  0  0  0  0  0  0  0  0  0  0
   53.1575   50.5923   25.1489 N   0  0  0  0  0  0  0  0  0  0  0  0
   52.0682   51.1456   25.5957 C   0  0  0  0  0  0  0  0  0  0  0  0
   51.4337   51.8383   24.6024 N   0  0  0  0  0  0  0  0  0  0  0  0
  2  1  1  6  0  0  0
  2  3  1  0  0  0  0
  2  5  1  0  0  0  0
  3  4  1  0  0  0  0
  3 17  1  0  0  0  0
  5  6  1  0  0  0  0
  7  6  1  6  0  0  0
  7  8  1  0  0  0  0
  7  9  1  0  0  0  0
 10  9  1  6  0  0  0
 10 11  1  0  0  0  0
 10 12  1  0  0  0  0
 11 16  1  0  0  0  0
 12 13  1  1  0  0  0
 12 14  1  0  0  0  0
 14 15  1  1  0  0  0
 14 16  1  0  0  0  0
 16 27  1  6  0  0  0
 18 19  2  0  0  0  0
 18 23  1  0  0  0  0
 19 20  1  0  0  0  0
 20 21  2  0  0  0  0
 21 22  1  0  0  0  0
 21 27  1  0  0  0  0
 22 23  2  0  0  0  0
 22 25  1  0  0  0  0
 23 24  1  0  0  0  0
 25 26  2  0  0  0  0
 26 27  1  0  0  0  0
M  END
>  <CHROM.1>
108.45976826,-61.95717792,-68.96587776,-86.76799473,-179.60445637,30.56377395
15.96364081,51.46014153,52.76059522,21.86358560,1.23917437,0.70407762,-1.45923964

>  <Name>
ligand

>  <RI>
0

>  <Rbt.Current_Directory>
/home/itssahil/PROJECTS/Mol_Feturizer/New_Systems/rnas/2GIS

>  <Rbt.Executable>
rbdock ($Id: //depot/dev/client3/rdock/2013.1/src/exe/rbdock.cxx#4 $)

>  <Rbt.Library>
libRbt.so (2013.1, Build901 2013/11/27)

>  <Rbt.Parameter_File>
/export/apps/rDock/src/rDock_2013.1_src/data/scripts/dock_solv.prm

>  <Rbt.Receptor>
prm/blind_docking_80.prm

>  <SCORE>
-19.3829

>  <SCORE.INTER>
-15.3092

>  <SCORE.INTER.CONST>
1

>  <SCORE.INTER.POLAR>
0

>  <SCORE.INTER.ROT>
7

>  <SCORE.INTER.SOLV>
5.75612

>  <SCORE.INTER.VDW>
-20.3915

>  <SCORE.INTER.norm>
-0.567009

>  <SCORE.INTRA>
-4.07478

>  <SCORE.INTRA.DIHEDRAL>
-2.48097

>  <SCORE.INTRA.DIHEDRAL.0>
9.40024

>  <SCORE.INTRA.POLAR>
0

>  <SCORE.INTRA.POLAR.0>
0

>  <SCORE.INTRA.REPUL>
0

>  <SCORE.INTRA.REPUL.0>
0

>  <SCORE.INTRA.SOLV>
-1.27394

>  <SCORE.INTRA.SOLV.lig_0>
-47.1049

>  <SCORE.INTRA.VDW>
-2.19732

>  <SCORE.INTRA.VDW.0>
-1.50278

>  <SCORE.INTRA.norm>
-0.150918

>  <SCORE.RESTR>
0.00115853

>  <SCORE.RESTR.CAVITY>
0.00115853

>  <SCORE.RESTR.norm>
4.29086e-05

>  <SCORE.SYSTEM>
0

>  <SCORE.SYSTEM.CONST>
0

>  <SCORE.SYSTEM.DIHEDRAL>
0

>  <SCORE.SYSTEM.SOLV>
0

>  <SCORE.SYSTEM.norm>
0

>  <SCORE.heavy>
27

>  <SCORE.norm>
-0.717884

>  <RMSD>
11.677

$$$$
ligand
 OpenBabel11021811433D
libRbt.so/2013.1/901 2013/11/27
 27 29  0  0  0  0  0  0  0  0999 V2000
   46.9416   53.6980   24.1805 N   0  0  0  0  0  0  0  0  0  0  0  0
   47.4805   52.5792   24.9601 C   0  0  2  0  0  0  0  0  0  0  0  0
   46.8875   52.6037   26.3576 C   0  0  0  0  0  0  0  0  0  0  0  0
   45.9624   51.8492   26.6446 O   0  0  0  0  0  0  0  0  0  0  0  0
   49.0179   52.6598   25.0426 C   0  0  0  0  0  0  0  0  0  0  0  0
   49.5515   51.3970   25.7173 C   0  0  0  0  0  0  0  0  0  0  0  0
   51.3838   51.2874   25.8382 S   0  0  2  0  0  0  0  0  0  0  0  0
   51.8810   52.9042   26.5095 C   0  0  0  0  0  0  0  0  0  0  0  0
   51.7036   51.5214   24.0770 C   0  0  0  0  0  0  0  0  0  0  0  0
   52.9533   50.7813   23.5694 C   0  0  1  0  0  0  0  0  0  0  0  0
   52.8583   50.6224   22.1228 O   0  0  0  0  0  0  0  0  0  0  0  0
   54.0524   51.7850   23.8055 C   0  0  1  0  0  0  0  0  0  0  0  0
   54.7066   51.5047   25.0433 O   0  0  0  0  0  0  0  0  0  0  0  0
   55.0079   51.5675   22.6387 C   0  0  1  0  0  0  0  0  0  0  0  0
   56.0940   50.7166   22.9864 O   0  0  0  0  0  0  0  0  0  0  0  0
   54.1528   50.9304   21.4833 C   0  0  2  0  0  0  0  0  0  0  0  0
   47.2875   53.4212   27.1868 O   0  0  0  0  0  0  0  0  0  0  0  0
   51.0981   54.7859   19.6433 N   0  0  0  0  0  0  0  0  0  0  0  0
   51.0141   54.1690   20.8272 C   0  0  0  0  0  0  0  0  0  0  0  0
   51.8696   53.2189   21.1700 N   0  0  0  0  0  0  0  0  0  0  0  0
   52.8368   52.8120   20.3314 C   0  0  0  0  0  0  0  0  0  0  0  0
   52.9575   53.4264   19.0585 C   0  0  0  0  0  0  0  0  0  0  0  0
   52.0335   54.4532   18.7389 C   0  0  0  0  0  0  0  0  0  0  0  0
   52.0913   55.0970   17.5232 N   0  0  0  0  0  0  0  0  0  0  0  0
   53.9908   52.8386   18.4230 N   0  0  0  0  0  0  0  0  0  0  0  0
   54.4977   51.9207   19.1929 C   0  0  0  0  0  0  0  0  0  0  0  0
   53.8291   51.8638   20.3841 N   0  0  0  0  0  0  0  0  0  0  0  0
  2  1  1  6  0  0  0
  2  3  1  0  0  0  0
  2  5  1  0  0  0  0
  3  4  1  0  0  0  0
  3 17  1  0  0  0  0
  5  6  1  0  0  0  0
  7  6  1  6  0  0  0
  7  8  1  0  0  0  0
  7  9  1  0  0  0  0
 10  9  1  6  0  0  0
 10 11  1  0  0  0  0
 10 12  1  0  0  0  0
 11 16  1  0  0  0  0
 12 13  1  1  0  0  0
 12 14  1  0  0  0  0
 14 15  1  1  0  0  0
 14 16  1  0  0  0  0
 16 27  1  6  0  0  0
 18 19  2  0  0  0  0
 18 23  1  0  0  0  0
 19 20  1  0  0  0  0
 20 21  2  0  0  0  0
 21 22  1  0  0  0  0
 21 27  1  0  0  0  0
 22 23  2  0  0  0  0
 22 25  1  0  0  0  0
 23 24  1  0  0  0  0
 25 26  2  0  0  0  0
 26 27  1  0  0  0  0
M  END
>  <CHROM.1>
100.55666919,-173.40821272,177.53074482,48.65652017,-148.25022039,159.54090701
32.62793779,51.60120973,52.37340983,22.98129698,2.36504775,-0.35294857,1.95677887

>  <Name>
ligand

>  <RI>
0

>  <Rbt.Current_Directory>
/home/itssahil/PROJECTS/Mol_Feturizer/New_Systems/rnas/2GIS

>  <Rbt.Executable>
rbdock ($Id: //depot/dev/client3/rdock/2013.1/src/exe/rbdock.cxx#4 $)

>  <Rbt.Library>
libRbt.so (2013.1, Build901 2013/11/27)

>  <Rbt.Parameter_File>
/export/apps/rDock/src/rDock_2013.1_src/data/scripts/dock_solv.prm

>  <Rbt.Receptor>
prm/blind_docking_80.prm

>  <SCORE>
-13.3357

>  <SCORE.INTER>
-10.7879

>  <SCORE.INTER.CONST>
1

>  <SCORE.INTER.POLAR>
0

>  <SCORE.INTER.ROT>
7

>  <SCORE.INTER.SOLV>
9.95747

>  <SCORE.INTER.VDW>
-18.7778

>  <SCORE.INTER.norm>
-0.399553

>  <SCORE.INTRA>
-2.69055

>  <SCORE.INTRA.DIHEDRAL>
-1.59584

>  <SCORE.INTRA.DIHEDRAL.0>
9.40024

>  <SCORE.INTRA.POLAR>
0

>  <SCORE.INTRA.POLAR.0>
0

>  <SCORE.INTRA.REPUL>
0

>  <SCORE.INTRA.REPUL.0>
0

>  <SCORE.INTRA.SOLV>
-2.8509

>  <SCORE.INTRA.SOLV.lig_0>
-47.1049

>  <SCORE.INTRA.VDW>
-0.467185

>  <SCORE.INTRA.VDW.0>
-1.50278

>  <SCORE.INTRA.norm>
-0.0996501

>  <SCORE.RESTR>
0.142815

>  <SCORE.RESTR.CAVITY>
0.142815

>  <SCORE.RESTR.norm>
0.00528943

>  <SCORE.SYSTEM>
0

>  <SCORE.SYSTEM.CONST>
0

>  <SCORE.SYSTEM.DIHEDRAL>
0

>  <SCORE.SYSTEM.SOLV>
0

>  <SCORE.SYSTEM.norm>
0

>  <SCORE.heavy>
27

>  <SCORE.norm>
-0.493914

>  <RMSD>
11.686

$$$$
ligand
 OpenBabel11021811433D
libRbt.so/2013.1/901 2013/11/27
 27 29  0  0  0  0  0  0  0  0999 V2000
   56.0834   45.8388   23.3449 N   0  0  0  0  0  0  0  0  0  0  0  0
   55.3554   46.0368   22.0876 C   0  0  2  0  0  0  0  0  0  0  0  0
   55.9363   45.1295   21.0177 C   0  0  0  0  0  0  0  0  0  0  0  0
   56.2792   43.9857   21.3035 O   0  0  0  0  0  0  0  0  0  0  0  0
   55.4420   47.5067   21.6305 C   0  0  0  0  0  0  0  0  0  0  0  0
   55.4136   48.4166   22.8577 C   0  0  0  0  0  0  0  0  0  0  0  0
   55.1876   50.2071   22.5008 S   0  0  2  0  0  0  0  0  0  0  0  0
   56.0395   51.0436   23.8743 C   0  0  0  0  0  0  0  0  0  0  0  0
   53.4686   50.2927   23.0453 C   0  0  0  0  0  0  0  0  0  0  0  0
   52.7074   51.5168   22.5075 C   0  0  1  0  0  0  0  0  0  0  0  0
   51.4036   51.5902   23.1567 O   0  0  0  0  0  0  0  0  0  0  0  0
   53.5081   52.6714   23.0525 C   0  0  1  0  0  0  0  0  0  0  0  0
   54.4281   53.1327   22.0628 O   0  0  0  0  0  0  0  0  0  0  0  0
   52.4625   53.7404   23.3448 C   0  0  1  0  0  0  0  0  0  0  0  0
   52.3495   54.6839   22.2858 O   0  0  0  0  0  0  0  0  0  0  0  0
   51.1030   52.9794   23.5562 C   0  0  2  0  0  0  0  0  0  0  0  0
   56.1245   45.5558   19.8781 O   0  0  0  0  0  0  0  0  0  0  0  0
   47.2137   52.2270   27.0043 N   0  0  0  0  0  0  0  0  0  0  0  0
   47.1364   52.2221   25.6690 C   0  0  0  0  0  0  0  0  0  0  0  0
   48.2098   52.4086   24.9171 N   0  0  0  0  0  0  0  0  0  0  0  0
   49.4146   52.6427   25.4628 C   0  0  0  0  0  0  0  0  0  0  0  0
   49.5447   52.6715   26.8751 C   0  0  0  0  0  0  0  0  0  0  0  0
   48.3743   52.4475   27.6433 C   0  0  0  0  0  0  0  0  0  0  0  0
   48.4242   52.4576   29.0192 N   0  0  0  0  0  0  0  0  0  0  0  0
   50.8384   52.9254   27.1562 N   0  0  0  0  0  0  0  0  0  0  0  0
   51.4973   53.0609   26.0428 C   0  0  0  0  0  0  0  0  0  0  0  0
   50.6711   52.8916   24.9669 N   0  0  0  0  0  0  0  0  0  0  0  0
  2  1  1  1  0  0  0
  2  3  1  0  0  0  0
  2  5  1  0  0  0  0
  3  4  1  0  0  0  0
  3 17  1  0  0  0  0
  5  6  1  0  0  0  0
  7  6  1  1  0  0  0
  7  8  1  0  0  0  0
  7  9  1  0  0  0  0
 10  9  1  1  0  0  0
 10 11  1  0  0  0  0
 10 12  1  0  0  0  0
 11 16  1  0  0  0  0
 12 13  1  6  0  0  0
 12 14  1  0  0  0  0
 14 15  1  6  0  0  0
 14 16  1  0  0  0  0
 16 27  1  1  0  0  0
 18 19  2  0  0  0  0
 18 23  1  0  0  0  0
 19 20  1  0  0  0  0
 20 21  2  0  0  0  0
 21 22  1  0  0  0  0
 21 27  1  0  0  0  0
 22 23  2  0  0  0  0
 22 25  1  0  0  0  0
 23 24  1  0  0  0  0
 25 26  2  0  0  0  0
 26 27  1  0  0  0  0
M  END
>  <CHROM.1>
39.44402667,-35.84261449,-168.91859319,-151.00108301,-161.06658341,-171.90763049
-86.22914083,52.63207484,50.67515925,23.77930115,0.58335745,-0.67135407,3.01227377

>  <Name>
ligand

>  <RI>
0

>  <Rbt.Current_Directory>
/home/itssahil/PROJECTS/Mol_Feturizer/New_Systems/rnas/2GIS

>  <Rbt.Executable>
rbdock ($Id: //depot/dev/client3/rdock/2013.1/src/exe/rbdock.cxx#4 $)

>  <Rbt.Library>
libRbt.so (2013.1, Build901 2013/11/27)

>  <Rbt.Parameter_File>
/export/apps/rDock/src/rDock_2013.1_src/data/scripts/dock_solv.prm

>  <Rbt.Receptor>
prm/blind_docking_80.prm

>  <SCORE>
-6.51827

>  <SCORE.INTER>
-8.24819

>  <SCORE.INTER.CONST>
1

>  <SCORE.INTER.POLAR>
0

>  <SCORE.INTER.ROT>
7

>  <SCORE.INTER.SOLV>
14.4461

>  <SCORE.INTER.VDW>
-18.5808

>  <SCORE.INTER.norm>
-0.305489

>  <SCORE.INTRA>
1.70512

>  <SCORE.INTRA.DIHEDRAL>
1.4102

>  <SCORE.INTRA.DIHEDRAL.0>
9.40024

>  <SCORE.INTRA.POLAR>
0

>  <SCORE.INTRA.POLAR.0>
0

>  <SCORE.INTRA.REPUL>
0

>  <SCORE.INTRA.REPUL.0>
0

>  <SCORE.INTRA.SOLV>
-1.81922

>  <SCORE.INTRA.SOLV.lig_0>
-47.1049

>  <SCORE.INTRA.VDW>
1.90962

>  <SCORE.INTRA.VDW.0>
-1.50278

>  <SCORE.INTRA.norm>
0.0631524

>  <SCORE.RESTR>
0.0248023

>  <SCORE.RESTR.CAVITY>
0.0248023

>  <SCORE.RESTR.norm>
0.000918605

>  <SCORE.SYSTEM>
0

>  <SCORE.SYSTEM.CONST>
0

>  <SCORE.SYSTEM.DIHEDRAL>
0

>  <SCORE.SYSTEM.SOLV>
0

>  <SCORE.SYSTEM.norm>
0

>  <SCORE.heavy>
27

>  <SCORE.norm>
-0.241418

>  <RMSD>
11.717

$$$$
ligand
 OpenBabel11021811433D
libRbt.so/2013.1/901 2013/11/27
 27 29  0  0  0  0  0  0  0  0999 V2000
   54.4535   54.1856   23.3946 N   0  0  0  0  0  0  0  0  0  0  0  0
   53.1140   53.6927   23.7303 C   0  0  2  0  0  0  0  0  0  0  0  0
   52.6710   52.6806   22.6889 C   0  0  0  0  0  0  0  0  0  0  0  0
   52.7744   52.9446   21.4942 O   0  0  0  0  0  0  0  0  0  0  0  0
   52.1030   54.8549   23.7937 C   0  0  0  0  0  0  0  0  0  0  0  0
   50.7820   54.3408   24.3640 C   0  0  0  0  0  0  0  0  0  0  0  0
   49.5121   55.6322   24.6868 S   0  0  2  0  0  0  0  0  0  0  0  0
   48.0964   54.7041   25.3548 C   0  0  0  0  0  0  0  0  0  0  0  0
   49.0160   55.8439   22.9641 C   0  0  0  0  0  0  0  0  0  0  0  0
   48.2685   54.6326   22.3801 C   0  0  1  0  0  0  0  0  0  0  0  0
   47.0543   55.0958   21.7183 O   0  0  0  0  0  0  0  0  0  0  0  0
   49.1906   54.1719   21.2807 C   0  0  1  0  0  0  0  0  0  0  0  0
   50.0153   53.1070   21.7547 O   0  0  0  0  0  0  0  0  0  0  0  0
   48.2477   53.6701   20.1940 C   0  0  1  0  0  0  0  0  0  0  0  0
   48.0672   52.2598   20.2500 O   0  0  0  0  0  0  0  0  0  0  0  0
   46.8807   54.4131   20.4207 C   0  0  2  0  0  0  0  0  0  0  0  0
   52.1493   51.6209   23.0364 O   0  0  0  0  0  0  0  0  0  0  0  0
   43.3548   57.3411   17.8563 N   0  0  0  0  0  0  0  0  0  0  0  0
   43.1208   56.3658   18.7412 C   0  0  0  0  0  0  0  0  0  0  0  0
   44.1139   55.7182   19.3299 N   0  0  0  0  0  0  0  0  0  0  0  0
   45.3967   55.9907   19.0394 C   0  0  0  0  0  0  0  0  0  0  0  0
   45.6955   57.0073   18.0963 C   0  0  0  0  0  0  0  0  0  0  0  0
   44.6031   57.6898   17.5038 C   0  0  0  0  0  0  0  0  0  0  0  0
   44.8159   58.6904   16.5823 N   0  0  0  0  0  0  0  0  0  0  0  0
   47.0374   57.0752   17.9873 N   0  0  0  0  0  0  0  0  0  0  0  0
   47.5737   56.1866   18.7716 C   0  0  0  0  0  0  0  0  0  0  0  0
   46.6097   55.4927   19.4485 N   0  0  0  0  0  0  0  0  0  0  0  0
  2  1  1  6  0  0  0
  2  3  1  0  0  0  0
  2  5  1  0  0  0  0
  3  4  1  0  0  0  0
  3 17  1  0  0  0  0
  5  6  1  0  0  0  0
  7  6  1  6  0  0  0
  7  8  1  0  0  0  0
  7  9  1  0  0  0  0
 10  9  1  6  0  0  0
 10 11  1  0  0  0  0
 10 12  1  0  0  0  0
 11 16  1  0  0  0  0
 12 13  1  1  0  0  0
 12 14  1  0  0  0  0
 14 15  1  1  0  0  0
 14 16  1  0  0  0  0
 16 27  1  6  0  0  0
 18 19  2  0  0  0  0
 18 23  1  0  0  0  0
 19 20  1  0  0  0  0
 20 21  2  0  0  0  0
 21 22  1  0  0  0  0
 21 27  1  0  0  0  0
 22 23  2  0  0  0  0
 22 25  1  0  0  0  0
 23 24  1  0  0  0  0
 25 26  2  0  0  0  0
 26 27  1  0  0  0  0
M  END
>  <CHROM.1>
-48.73773923,-170.85711094,173.53779906,-179.72655564,69.00422735,130.99846413
-92.64458402,48.46602120,54.97312596,21.24351304,-0.52641615,0.51245555,-1.73449463

>  <Name>
ligand

>  <RI>
0

>  <Rbt.Current_Directory>
/home/itssahil/PROJECTS/Mol_Feturizer/New_Systems/rnas/2GIS

>  <Rbt.Executable>
rbdock ($Id: //depot/dev/client3/rdock/2013.1/src/exe/rbdock.cxx#4 $)

>  <Rbt.Library>
libRbt.so (2013.1, Build901 2013/11/27)

>  <Rbt.Parameter_File>
/export/apps/rDock/src/rDock_2013.1_src/data/scripts/dock_solv.prm

>  <Rbt.Receptor>
prm/blind_docking_100.prm

>  <SCORE>
-18.8184

>  <SCORE.INTER>
-17.036

>  <SCORE.INTER.CONST>
1

>  <SCORE.INTER.POLAR>
0

>  <SCORE.INTER.ROT>
7

>  <SCORE.INTER.SOLV>
10.5022

>  <SCORE.INTER.VDW>
-23.1248

>  <SCORE.INTER.norm>
-0.630964

>  <SCORE.INTRA>
-1.78774

>  <SCORE.INTRA.DIHEDRAL>
-0.278185

>  <SCORE.INTRA.DIHEDRAL.0>
9.40024

>  <SCORE.INTRA.POLAR>
0

>  <SCORE.INTRA.POLAR.0>
0

>  <SCORE.INTRA.REPUL>
0

>  <SCORE.INTRA.REPUL.0>
0

>  <SCORE.INTRA.SOLV>
-2.27826

>  <SCORE.INTRA.SOLV.lig_0>
-47.1049

>  <SCORE.INTRA.VDW>
-0.509517

>  <SCORE.INTRA.VDW.0>
-1.50278

>  <SCORE.INTRA.norm>
-0.0662125

>  <SCORE.RESTR>
0.00541945

>  <SCORE.RESTR.CAVITY>
0.00541945

>  <SCORE.RESTR.norm>
0.00020072

>  <SCORE.SYSTEM>
0

>  <SCORE.SYSTEM.CONST>
0

>  <SCORE.SYSTEM.DIHEDRAL>
0

>  <SCORE.SYSTEM.SOLV>
0

>  <SCORE.SYSTEM.norm>
0

>  <SCORE.heavy>
27

>  <SCORE.norm>
-0.696976

>  <RMSD>
11.734

$$$$
ligand
 OpenBabel11021811433D
libRbt.so/2013.1/901 2013/11/27
 27 29  0  0  0  0  0  0  0  0999 V2000
   53.0753   54.9229   25.0946 N   0  0  0  0  0  0  0  0  0  0  0  0
   52.7376   53.5003   24.9848 C   0  0  2  0  0  0  0  0  0  0  0  0
   53.9976   52.7009   24.7043 C   0  0  0  0  0  0  0  0  0  0  0  0
   54.9310   53.2197   24.0985 O   0  0  0  0  0  0  0  0  0  0  0  0
   51.7089   53.2671   23.8604 C   0  0  0  0  0  0  0  0  0  0  0  0
   50.3308   53.7221   24.3383 C   0  0  0  0  0  0  0  0  0  0  0  0
   50.0574   55.5413   24.3239 S   0  0  2  0  0  0  0  0  0  0  0  0
   48.4699   55.7575   25.1872 C   0  0  0  0  0  0  0  0  0  0  0  0
   49.5385   55.6406   22.5978 C   0  0  0  0  0  0  0  0  0  0  0  0
   48.5461   54.5403   22.1837 C   0  0  1  0  0  0  0  0  0  0  0  0
   47.3355   55.1629   21.6604 O   0  0  0  0  0  0  0  0  0  0  0  0
   49.2303   53.9041   21.0011 C   0  0  1  0  0  0  0  0  0  0  0  0
   49.9439   52.7414   21.4224 O   0  0  0  0  0  0  0  0  0  0  0  0
   48.0835   53.5170   20.0755 C   0  0  1  0  0  0  0  0  0  0  0  0
   47.7042   52.1546   20.2324 O   0  0  0  0  0  0  0  0  0  0  0  0
   46.8865   54.4705   20.4361 C   0  0  2  0  0  0  0  0  0  0  0  0
   54.0637   51.5142   25.0258 O   0  0  0  0  0  0  0  0  0  0  0  0
   43.4518   57.4439   17.8012 N   0  0  0  0  0  0  0  0  0  0  0  0
   43.1875   56.4841   18.6944 C   0  0  0  0  0  0  0  0  0  0  0  0
   44.1601   55.8221   19.3010 N   0  0  0  0  0  0  0  0  0  0  0  0
   45.4515   56.0637   19.0213 C   0  0  0  0  0  0  0  0  0  0  0  0
   45.7821   57.0628   18.0701 C   0  0  0  0  0  0  0  0  0  0  0  0
   44.7109   57.7618   17.4583 C   0  0  0  0  0  0  0  0  0  0  0  0
   44.9550   58.7470   16.5280 N   0  0  0  0  0  0  0  0  0  0  0  0
   47.1262   57.1006   17.9749 N   0  0  0  0  0  0  0  0  0  0  0  0
   47.6349   56.2098   18.7748 C   0  0  0  0  0  0  0  0  0  0  0  0
   46.6491   55.5444   19.4490 N   0  0  0  0  0  0  0  0  0  0  0  0
  2  1  1  6  0  0  0
  2  3  1  0  0  0  0
  2  5  1  0  0  0  0
  3  4  1  0  0  0  0
  3 17  1  0  0  0  0
  5  6  1  0  0  0  0
  7  6  1  6  0  0  0
  7  8  1  0  0  0  0
  7  9  1  0  0  0  0
 10  9  1  6  0  0  0
 10 11  1  0  0  0  0
 10 12  1  0  0  0  0
 11 16  1  0  0  0  0
 12 13  1  1  0  0  0
 12 14  1  0  0  0  0
 14 15  1  1  0  0  0
 14 16  1  0  0  0  0
 16 27  1  6  0  0  0
 18 19  2  0  0  0  0
 18 23  1  0  0  0  0
 19 20  1  0  0  0  0
 20 21  2  0  0  0  0
 21 22  1  0  0  0  0
 21 27  1  0  0  0  0
 22 23  2  0  0  0  0
 22 25  1  0  0  0  0
 23 24  1  0  0  0  0
 25 26  2  0  0  0  0
 26 27  1  0  0  0  0
M  END
>  <CHROM.1>
-28.93325676,-75.48180640,77.51198750,-171.04487184,44.28588014,123.19004985
-104.02870695,48.68460387,54.93818028,21.50317100,0.23313435,-0.72239707
0.83647942

>  <Name>
ligand

>  <RI>
0

>  <Rbt.Current_Directory>
/home/itssahil/PROJECTS/Mol_Feturizer/New_Systems/rnas/2GIS

>  <Rbt.Executable>
rbdock ($Id: //depot/dev/client3/rdock/2013.1/src/exe/rbdock.cxx#4 $)

>  <Rbt.Library>
libRbt.so (2013.1, Build901 2013/11/27)

>  <Rbt.Parameter_File>
/export/apps/rDock/src/rDock_2013.1_src/data/scripts/dock_solv.prm

>  <Rbt.Receptor>
prm/blind_docking_100.prm

>  <SCORE>
-16.6759

>  <SCORE.INTER>
-16.6752

>  <SCORE.INTER.CONST>
1

>  <SCORE.INTER.POLAR>
0

>  <SCORE.INTER.ROT>
7

>  <SCORE.INTER.SOLV>
13.6252

>  <SCORE.INTER.VDW>
-23.9252

>  <SCORE.INTER.norm>
-0.617598

>  <SCORE.INTRA>
-0.000791773

>  <SCORE.INTRA.DIHEDRAL>
1.6589

>  <SCORE.INTRA.DIHEDRAL.0>
9.40024

>  <SCORE.INTRA.POLAR>
0

>  <SCORE.INTRA.POLAR.0>
0

>  <SCORE.INTRA.REPUL>
0

>  <SCORE.INTRA.REPUL.0>
0

>  <SCORE.INTRA.SOLV>
-0.676042

>  <SCORE.INTRA.SOLV.lig_0>
-47.1049

>  <SCORE.INTRA.VDW>
-0.492223

>  <SCORE.INTRA.VDW.0>
-1.50278

>  <SCORE.INTRA.norm>
-2.93249e-05

>  <SCORE.RESTR>
0

>  <SCORE.RESTR.CAVITY>
0

>  <SCORE.RESTR.norm>
0

>  <SCORE.SYSTEM>
0

>  <SCORE.SYSTEM.CONST>
0

>  <SCORE.SYSTEM.DIHEDRAL>
0

>  <SCORE.SYSTEM.SOLV>
0

>  <SCORE.SYSTEM.norm>
0

>  <SCORE.heavy>
27

>  <SCORE.norm>
-0.617628

>  <RMSD>
11.761

$$$$
ligand
 OpenBabel11021811433D
libRbt.so/2013.1/901 2013/11/27
 27 29  0  0  0  0  0  0  0  0999 V2000
   52.4167   54.1171   15.7242 N   0  0  0  0  0  0  0  0  0  0  0  0
   52.3489   54.0193   17.1856 C   0  0  2  0  0  0  0  0  0  0  0  0
   52.5546   52.5751   17.6066 C   0  0  0  0  0  0  0  0  0  0  0  0
   51.8825   51.6850   17.0933 O   0  0  0  0  0  0  0  0  0  0  0  0
   50.9895   54.5275   17.7058 C   0  0  0  0  0  0  0  0  0  0  0  0
   51.0567   54.6755   19.2251 C   0  0  0  0  0  0  0  0  0  0  0  0
   49.4770   54.3615   20.1139 S   0  0  2  0  0  0  0  0  0  0  0  0
   48.3762   55.6945   19.5452 C   0  0  0  0  0  0  0  0  0  0  0  0
   50.0247   55.0097   21.7073 C   0  0  0  0  0  0  0  0  0  0  0  0
   49.2605   54.4286   22.9095 C   0  0  1  0  0  0  0  0  0  0  0  0
   49.5388   53.0002   23.0057 O   0  0  0  0  0  0  0  0  0  0  0  0
   49.9555   55.0670   24.0846 C   0  0  1  0  0  0  0  0  0  0  0  0
   49.2282   56.2199   24.5096 O   0  0  0  0  0  0  0  0  0  0  0  0
   49.9219   53.9907   25.1627 C   0  0  1  0  0  0  0  0  0  0  0  0
   48.8371   54.1699   26.0658 O   0  0  0  0  0  0  0  0  0  0  0  0
   49.7938   52.6170   24.4085 C   0  0  2  0  0  0  0  0  0  0  0  0
   53.3479   52.2983   18.5066 O   0  0  0  0  0  0  0  0  0  0  0  0
   54.0224   51.0537   21.7147 N   0  0  0  0  0  0  0  0  0  0  0  0
   53.0400   51.8613   21.3002 C   0  0  0  0  0  0  0  0  0  0  0  0
   52.0362   52.1892   22.0983 N   0  0  0  0  0  0  0  0  0  0  0  0
   51.9449   51.6992   23.3457 C   0  0  0  0  0  0  0  0  0  0  0  0
   52.9553   50.8272   23.8261 C   0  0  0  0  0  0  0  0  0  0  0  0
   54.0229   50.5174   22.9461 C   0  0  0  0  0  0  0  0  0  0  0  0
   55.0413   49.6805   23.3440 N   0  0  0  0  0  0  0  0  0  0  0  0
   52.6255   50.4830   25.0870 N   0  0  0  0  0  0  0  0  0  0  0  0
   51.5046   51.0606   25.4066 C   0  0  0  0  0  0  0  0  0  0  0  0
   51.0422   51.8269   24.3731 N   0  0  0  0  0  0  0  0  0  0  0  0
  2  1  1  6  0  0  0
  2  3  1  0  0  0  0
  2  5  1  0  0  0  0
  3  4  1  0  0  0  0
  3 17  1  0  0  0  0
  5  6  1  0  0  0  0
  7  6  1  6  0  0  0
  7  8  1  0  0  0  0
  7  9  1  0  0  0  0
 10  9  1  6  0  0  0
 10 11  1  0  0  0  0
 10 12  1  0  0  0  0
 11 16  1  0  0  0  0
 12 13  1  1  0  0  0
 12 14  1  0  0  0  0
 14 15  1  1  0  0  0
 14 16  1  0  0  0  0
 16 27  1  6  0  0  0
 18 19  2  0  0  0  0
 18 23  1  0  0  0  0
 19 20  1  0  0  0  0
 20 21  2  0  0  0  0
 21 22  1  0  0  0  0
 21 27  1  0  0  0  0
 22 23  2  0  0  0  0
 22 25  1  0  0  0  0
 23 24  1  0  0  0  0
 25 26  2  0  0  0  0
 26 27  1  0  0  0  0
M  END
>  <CHROM.1>
-51.38187805,-168.72006287,-147.91710123,-65.05445745,-155.23563351,64.85991158
12.85422299,51.23734535,53.06961136,21.66462323,-1.39240076,-0.76024751,1.81702383

>  <Name>
ligand

>  <RI>
0

>  <Rbt.Current_Directory>
/home/itssahil/PROJECTS/Mol_Feturizer/New_Systems/rnas/2GIS

>  <Rbt.Executable>
rbdock ($Id: //depot/dev/client3/rdock/2013.1/src/exe/rbdock.cxx#4 $)

>  <Rbt.Library>
libRbt.so (2013.1, Build901 2013/11/27)

>  <Rbt.Parameter_File>
/export/apps/rDock/src/rDock_2013.1_src/data/scripts/dock_solv.prm

>  <Rbt.Receptor>
prm/blind_docking_80.prm

>  <SCORE>
-17.6843

>  <SCORE.INTER>
-14.0668

>  <SCORE.INTER.CONST>
1

>  <SCORE.INTER.POLAR>
0

>  <SCORE.INTER.ROT>
7

>  <SCORE.INTER.SOLV>
9.84215

>  <SCORE.INTER.VDW>
-20.9253

>  <SCORE.INTER.norm>
-0.520994

>  <SCORE.INTRA>
-3.61744

>  <SCORE.INTRA.DIHEDRAL>
-0.137825

>  <SCORE.INTRA.DIHEDRAL.0>
9.40024

>  <SCORE.INTRA.POLAR>
0

>  <SCORE.INTRA.POLAR.0>
0

>  <SCORE.INTRA.REPUL>
0

>  <SCORE.INTRA.REPUL.0>
0

>  <SCORE.INTRA.SOLV>
-3.12708

>  <SCORE.INTRA.SOLV.lig_0>
-47.1049

>  <SCORE.INTRA.VDW>
-1.98499

>  <SCORE.INTRA.VDW.0>
-1.50278

>  <SCORE.INTRA.norm>
-0.133979

>  <SCORE.RESTR>
0

>  <SCORE.RESTR.CAVITY>
0

>  <SCORE.RESTR.norm>
0

>  <SCORE.SYSTEM>
0

>  <SCORE.SYSTEM.CONST>
0

>  <SCORE.SYSTEM.DIHEDRAL>
0

>  <SCORE.SYSTEM.SOLV>
0

>  <SCORE.SYSTEM.norm>
0

>  <SCORE.heavy>
27

>  <SCORE.norm>
-0.654973

>  <RMSD>
11.762

$$$$
ligand
 OpenBabel11021811433D
libRbt.so/2013.1/901 2013/11/27
 27 29  0  0  0  0  0  0  0  0999 V2000
   52.4478   55.5452   15.6675 N   0  0  0  0  0  0  0  0  0  0  0  0
   52.4974   55.3713   17.1225 C   0  0  2  0  0  0  0  0  0  0  0  0
   53.4169   54.2119   17.4629 C   0  0  0  0  0  0  0  0  0  0  0  0
   54.4588   54.4161   18.0795 O   0  0  0  0  0  0  0  0  0  0  0  0
   51.0888   55.1061   17.6905 C   0  0  0  0  0  0  0  0  0  0  0  0
   51.1262   55.2461   19.2116 C   0  0  0  0  0  0  0  0  0  0  0  0
   49.6983   54.5032   20.1024 S   0  0  2  0  0  0  0  0  0  0  0  0
   48.3111   55.6188   19.7240 C   0  0  0  0  0  0  0  0  0  0  0  0
   50.1792   55.0797   21.7441 C   0  0  0  0  0  0  0  0  0  0  0  0
   49.3704   54.4425   22.8873 C   0  0  1  0  0  0  0  0  0  0  0  0
   49.6531   53.0125   22.9315 O   0  0  0  0  0  0  0  0  0  0  0  0
   50.0132   55.0310   24.1168 C   0  0  1  0  0  0  0  0  0  0  0  0
   49.2623   56.1608   24.5623 O   0  0  0  0  0  0  0  0  0  0  0  0
   49.9423   53.9077   25.1440 C   0  0  1  0  0  0  0  0  0  0  0  0
   48.8206   54.0421   26.0090 O   0  0  0  0  0  0  0  0  0  0  0  0
   49.8532   52.5684   24.3252 C   0  0  2  0  0  0  0  0  0  0  0  0
   53.1544   53.0756   17.0683 O   0  0  0  0  0  0  0  0  0  0  0  0
   54.1319   51.0409   21.6906 N   0  0  0  0  0  0  0  0  0  0  0  0
   53.1511   51.8442   21.2642 C   0  0  0  0  0  0  0  0  0  0  0  0
   52.1332   52.1630   22.0480 N   0  0  0  0  0  0  0  0  0  0  0  0
   52.0258   51.6677   23.2920 C   0  0  0  0  0  0  0  0  0  0  0  0
   53.0341   50.7998   23.7845 C   0  0  0  0  0  0  0  0  0  0  0  0
   54.1169   50.4998   22.9197 C   0  0  0  0  0  0  0  0  0  0  0  0
   55.1340   49.6674   23.3300 N   0  0  0  0  0  0  0  0  0  0  0  0
   52.6871   50.4487   25.0389 N   0  0  0  0  0  0  0  0  0  0  0  0
   51.5579   51.0184   25.3435 C   0  0  0  0  0  0  0  0  0  0  0  0
   51.1068   51.7859   24.3059 N   0  0  0  0  0  0  0  0  0  0  0  0
  2  1  1  6  0  0  0
  2  3  1  0  0  0  0
  2  5  1  0  0  0  0
  3  4  1  0  0  0  0
  3 17  1  0  0  0  0
  5  6  1  0  0  0  0
  7  6  1  6  0  0  0
  7  8  1  0  0  0  0
  7  9  1  0  0  0  0
 10  9  1  6  0  0  0
 10 11  1  0  0  0  0
 10 12  1  0  0  0  0
 11 16  1  0  0  0  0
 12 13  1  1  0  0  0
 12 14  1  0  0  0  0
 14 15  1  1  0  0  0
 14 16  1  0  0  0  0
 16 27  1  6  0  0  0
 18 19  2  0  0  0  0
 18 23  1  0  0  0  0
 19 20  1  0  0  0  0
 20 21  2  0  0  0  0
 21 22  1  0  0  0  0
 21 27  1  0  0  0  0
 22 23  2  0  0  0  0
 22 25  1  0  0  0  0
 23 24  1  0  0  0  0
 25 26  2  0  0  0  0
 26 27  1  0  0  0  0
M  END
>  <CHROM.1>
114.65974623,-167.25582696,-162.96423666,-71.86258456,-168.86875929,64.97887337
10.11369266,51.43668425,53.39159812,21.62336596,-1.38681459,-0.67864399,2.01901480

>  <Name>
ligand

>  <RI>
0

>  <Rbt.Current_Directory>
/home/itssahil/PROJECTS/Mol_Feturizer/New_Systems/rnas/2GIS

>  <Rbt.Executable>
rbdock ($Id: //depot/dev/client3/rdock/2013.1/src/exe/rbdock.cxx#4 $)

>  <Rbt.Library>
libRbt.so (2013.1, Build901 2013/11/27)

>  <Rbt.Parameter_File>
/export/apps/rDock/src/rDock_2013.1_src/data/scripts/dock_solv.prm

>  <Rbt.Receptor>
prm/blind_docking_100.prm

>  <SCORE>
-16.7797

>  <SCORE.INTER>
-11.9168

>  <SCORE.INTER.CONST>
1

>  <SCORE.INTER.POLAR>
0

>  <SCORE.INTER.ROT>
7

>  <SCORE.INTER.SOLV>
8.98589

>  <SCORE.INTER.VDW>
-19.2065

>  <SCORE.INTER.norm>
-0.441362

>  <SCORE.INTRA>
-4.86292

>  <SCORE.INTRA.DIHEDRAL>
-3.50348

>  <SCORE.INTRA.DIHEDRAL.0>
9.40024

>  <SCORE.INTRA.POLAR>
0

>  <SCORE.INTRA.POLAR.0>
0

>  <SCORE.INTRA.REPUL>
0

>  <SCORE.INTRA.REPUL.0>
0

>  <SCORE.INTRA.SOLV>
-3.10415

>  <SCORE.INTRA.SOLV.lig_0>
-47.1049

>  <SCORE.INTRA.VDW>
-1.5591

>  <SCORE.INTRA.VDW.0>
-1.50278

>  <SCORE.INTRA.norm>
-0.180108

>  <SCORE.RESTR>
0

>  <SCORE.RESTR.CAVITY>
0

>  <SCORE.RESTR.norm>
0

>  <SCORE.SYSTEM>
0

>  <SCORE.SYSTEM.CONST>
0

>  <SCORE.SYSTEM.DIHEDRAL>
0

>  <SCORE.SYSTEM.SOLV>
0

>  <SCORE.SYSTEM.norm>
0

>  <SCORE.heavy>
27

>  <SCORE.norm>
-0.62147

>  <RMSD>
11.763

$$$$
ligand
 OpenBabel11021811433D
libRbt.so/2013.1/901 2013/11/27
 27 29  0  0  0  0  0  0  0  0999 V2000
   52.5456   53.0044   16.7613 N   0  0  0  0  0  0  0  0  0  0  0  0
   51.6126   53.4325   17.8083 C   0  0  2  0  0  0  0  0  0  0  0  0
   50.8872   54.6879   17.3577 C   0  0  0  0  0  0  0  0  0  0  0  0
   50.2528   55.3547   18.1703 O   0  0  0  0  0  0  0  0  0  0  0  0
   52.3597   53.7055   19.1291 C   0  0  0  0  0  0  0  0  0  0  0  0
   53.1131   52.4445   19.5497 C   0  0  0  0  0  0  0  0  0  0  0  0
   53.9039   52.5208   21.2090 S   0  0  2  0  0  0  0  0  0  0  0  0
   54.8575   50.9744   21.3166 C   0  0  0  0  0  0  0  0  0  0  0  0
   52.4217   52.0890   22.1446 C   0  0  0  0  0  0  0  0  0  0  0  0
   51.6375   53.3073   22.6621 C   0  0  1  0  0  0  0  0  0  0  0  0
   50.7697   53.8018   21.5995 O   0  0  0  0  0  0  0  0  0  0  0  0
   50.7239   52.6997   23.6953 C   0  0  1  0  0  0  0  0  0  0  0  0
   51.2986   52.8433   24.9944 O   0  0  0  0  0  0  0  0  0  0  0  0
   49.4454   53.5213   23.5864 C   0  0  1  0  0  0  0  0  0  0  0  0
   49.3910   54.5599   24.5573 O   0  0  0  0  0  0  0  0  0  0  0  0
   49.4303   54.1204   22.1328 C   0  0  2  0  0  0  0  0  0  0  0  0
   50.8790   55.0064   16.1684 O   0  0  0  0  0  0  0  0  0  0  0  0
   44.4468   53.1490   20.7903 N   0  0  0  0  0  0  0  0  0  0  0  0
   44.8900   53.8836   21.8165 C   0  0  0  0  0  0  0  0  0  0  0  0
   46.1848   54.0610   22.0270 N   0  0  0  0  0  0  0  0  0  0  0  0
   47.1074   53.4847   21.2389 C   0  0  0  0  0  0  0  0  0  0  0  0
   46.6866   52.6846   20.1457 C   0  0  0  0  0  0  0  0  0  0  0  0
   45.2910   52.5366   19.9441 C   0  0  0  0  0  0  0  0  0  0  0  0
   44.8083   51.7775   18.9017 N   0  0  0  0  0  0  0  0  0  0  0  0
   47.7951   52.2293   19.5284 N   0  0  0  0  0  0  0  0  0  0  0  0
   48.8446   52.6745   20.1550 C   0  0  0  0  0  0  0  0  0  0  0  0
   48.4805   53.4580   21.2145 N   0  0  0  0  0  0  0  0  0  0  0  0
  2  1  1  6  0  0  0
  2  3  1  0  0  0  0
  2  5  1  0  0  0  0
  3  4  1  0  0  0  0
  3 17  1  0  0  0  0
  5  6  1  0  0  0  0
  7  6  1  6  0  0  0
  7  8  1  0  0  0  0
  7  9  1  0  0  0  0
 10  9  1  6  0  0  0
 10 11  1  0  0  0  0
 10 12  1  0  0  0  0
 11 16  1  0  0  0  0
 12 13  1  1  0  0  0
 12 14  1  0  0  0  0
 14 15  1  1  0  0  0
 14 16  1  0  0  0  0
 16 27  1  6  0  0  0
 18 19  2  0  0  0  0
 18 23  1  0  0  0  0
 19 20  1  0  0  0  0
 20 21  2  0  0  0  0
 21 22  1  0  0  0  0
 21 27  1  0  0  0  0
 22 23  2  0  0  0  0
 22 25  1  0  0  0  0
 23 24  1  0  0  0  0
 25 26  2  0  0  0  0
 26 27  1  0  0  0  0
M  END
>  <CHROM.1>
-166.26273930,-57.46430579,-173.10554179,-173.68821236,-94.71908905,83.22879333
-177.45505888,49.92656337,53.24235146,20.72661972,0.05268525,0.06298080,-1.46990107

>  <Name>
ligand

>  <RI>
0

>  <Rbt.Current_Directory>
/home/itssahil/PROJECTS/Mol_Feturizer/New_Systems/rnas/2GIS

>  <Rbt.Executable>
rbdock ($Id: //depot/dev/client3/rdock/2013.1/src/exe/rbdock.cxx#4 $)

>  <Rbt.Library>
libRbt.so (2013.1, Build901 2013/11/27)

>  <Rbt.Parameter_File>
/export/apps/rDock/src/rDock_2013.1_src/data/scripts/dock_solv.prm

>  <Rbt.Receptor>
prm/blind_docking_100.prm

>  <SCORE>
-16.5202

>  <SCORE.INTER>
-13.392

>  <SCORE.INTER.CONST>
1

>  <SCORE.INTER.POLAR>
0

>  <SCORE.INTER.ROT>
7

>  <SCORE.INTER.SOLV>
16.1207

>  <SCORE.INTER.VDW>
-22.5682

>  <SCORE.INTER.norm>
-0.496

>  <SCORE.INTRA>
-3.12821

>  <SCORE.INTRA.DIHEDRAL>
-1.87535

>  <SCORE.INTRA.DIHEDRAL.0>
9.40024

>  <SCORE.INTRA.POLAR>
0

>  <SCORE.INTRA.POLAR.0>
0

>  <SCORE.INTRA.REPUL>
0

>  <SCORE.INTRA.REPUL.0>
0

>  <SCORE.INTRA.SOLV>
-2.20042

>  <SCORE.INTRA.SOLV.lig_0>
-47.1049

>  <SCORE.INTRA.VDW>
-1.09032

>  <SCORE.INTRA.VDW.0>
-1.50278

>  <SCORE.INTRA.norm>
-0.11586

>  <SCORE.RESTR>
0

>  <SCORE.RESTR.CAVITY>
0

>  <SCORE.RESTR.norm>
0

>  <SCORE.SYSTEM>
0

>  <SCORE.SYSTEM.CONST>
0

>  <SCORE.SYSTEM.DIHEDRAL>
0

>  <SCORE.SYSTEM.SOLV>
0

>  <SCORE.SYSTEM.norm>
0

>  <SCORE.heavy>
27

>  <SCORE.norm>
-0.61186

>  <RMSD>
11.764

$$$$
ligand
 OpenBabel11021811433D
libRbt.so/2013.1/901 2013/11/27
 27 29  0  0  0  0  0  0  0  0999 V2000
   48.1796   51.6869   25.0230 N   0  0  0  0  0  0  0  0  0  0  0  0
   47.5259   52.2495   26.2088 C   0  0  2  0  0  0  0  0  0  0  0  0
   46.0746   52.5596   25.8878 C   0  0  0  0  0  0  0  0  0  0  0  0
   45.1940   52.2773   26.6955 O   0  0  0  0  0  0  0  0  0  0  0  0
   48.2445   53.5319   26.6734 C   0  0  0  0  0  0  0  0  0  0  0  0
   48.2708   54.5376   25.5234 C   0  0  0  0  0  0  0  0  0  0  0  0
   49.4917   54.1777   24.1952 S   0  0  2  0  0  0  0  0  0  0  0  0
   51.0977   54.5878   24.9468 C   0  0  0  0  0  0  0  0  0  0  0  0
   49.1628   55.6661   23.2280 C   0  0  0  0  0  0  0  0  0  0  0  0
   49.7996   55.6495   21.8276 C   0  0  1  0  0  0  0  0  0  0  0  0
   51.1693   55.1598   21.9327 O   0  0  0  0  0  0  0  0  0  0  0  0
   49.0242   54.5661   21.1230 C   0  0  1  0  0  0  0  0  0  0  0  0
   47.9706   55.1466   20.3539 O   0  0  0  0  0  0  0  0  0  0  0  0
   50.0520   53.9123   20.2076 C   0  0  1  0  0  0  0  0  0  0  0  0
   49.9937   54.4266   18.8823 O   0  0  0  0  0  0  0  0  0  0  0  0
   51.4580   54.1971   20.8511 C   0  0  2  0  0  0  0  0  0  0  0  0
   45.7693   53.0352   24.7941 O   0  0  0  0  0  0  0  0  0  0  0  0
   55.2773   50.5947   20.9825 N   0  0  0  0  0  0  0  0  0  0  0  0
   55.1020   51.5698   20.0837 C   0  0  0  0  0  0  0  0  0  0  0  0
   54.0975   52.4259   20.1847 N   0  0  0  0  0  0  0  0  0  0  0  0
   53.1944   52.3317   21.1745 C   0  0  0  0  0  0  0  0  0  0  0  0
   53.3297   51.3053   22.1442 C   0  0  0  0  0  0  0  0  0  0  0  0
   54.4305   50.4218   22.0105 C   0  0  0  0  0  0  0  0  0  0  0  0
   54.6282   49.4034   22.9158 N   0  0  0  0  0  0  0  0  0  0  0  0
   52.3051   51.4313   23.0111 N   0  0  0  0  0  0  0  0  0  0  0  0
   51.5603   52.4338   22.6471 C   0  0  0  0  0  0  0  0  0  0  0  0
   52.0638   53.0291   21.5241 N   0  0  0  0  0  0  0  0  0  0  0  0
  2  1  1  6  0  0  0
  2  3  1  0  0  0  0
  2  5  1  0  0  0  0
  3  4  1  0  0  0  0
  3 17  1  0  0  0  0
  5  6  1  0  0  0  0
  7  6  1  1  0  0  0
  7  8  1  0  0  0  0
  7  9  1  0  0  0  0
 10  9  1  1  0  0  0
 10 11  1  0  0  0  0
 10 12  1  0  0  0  0
 11 16  1  0  0  0  0
 12 13  1  6  0  0  0
 12 14  1  0  0  0  0
 14 15  1  6  0  0  0
 14 16  1  0  0  0  0
 16 27  1  1  0  0  0
 18 19  2  0  0  0  0
 18 23  1  0  0  0  0
 19 20  1  0  0  0  0
 20 21  2  0  0  0  0
 21 22  1  0  0  0  0
 21 27  1  0  0  0  0
 22 23  2  0  0  0  0
 22 25  1  0  0  0  0
 23 24  1  0  0  0  0
 25 26  2  0  0  0  0
 26 27  1  0  0  0  0
M  END
>  <CHROM.1>
136.96179081,57.02716892,-75.70566925,-73.37137724,-168.52041640,-44.34720622
-133.04351282,50.38310671,53.15542726,22.86747885,-2.83036541,0.52091196
-0.93526311

>  <Name>
ligand

>  <RI>
0

>  <Rbt.Current_Directory>
/home/itssahil/PROJECTS/Mol_Feturizer/New_Systems/rnas/2GIS

>  <Rbt.Executable>
rbdock ($Id: //depot/dev/client3/rdock/2013.1/src/exe/rbdock.cxx#4 $)

>  <Rbt.Library>
libRbt.so (2013.1, Build901 2013/11/27)

>  <Rbt.Parameter_File>
/export/apps/rDock/src/rDock_2013.1_src/data/scripts/dock_solv.prm

>  <Rbt.Receptor>
prm/blind_docking_80.prm

>  <SCORE>
-13.5446

>  <SCORE.INTER>
-10.8588

>  <SCORE.INTER.CONST>
1

>  <SCORE.INTER.POLAR>
0

>  <SCORE.INTER.ROT>
7

>  <SCORE.INTER.SOLV>
13.0617

>  <SCORE.INTER.VDW>
-19.8598

>  <SCORE.INTER.norm>
-0.402178

>  <SCORE.INTRA>
-2.68582

>  <SCORE.INTRA.DIHEDRAL>
-3.31567

>  <SCORE.INTRA.DIHEDRAL.0>
9.40024

>  <SCORE.INTRA.POLAR>
0

>  <SCORE.INTRA.POLAR.0>
0

>  <SCORE.INTRA.REPUL>
0

>  <SCORE.INTRA.REPUL.0>
0

>  <SCORE.INTRA.SOLV>
-0.225713

>  <SCORE.INTRA.SOLV.lig_0>
-47.1049

>  <SCORE.INTRA.VDW>
-0.91513

>  <SCORE.INTRA.VDW.0>
-1.50278

>  <SCORE.INTRA.norm>
-0.0994748

>  <SCORE.RESTR>
0

>  <SCORE.RESTR.CAVITY>
0

>  <SCORE.RESTR.norm>
0

>  <SCORE.SYSTEM>
0

>  <SCORE.SYSTEM.CONST>
0

>  <SCORE.SYSTEM.DIHEDRAL>
0

>  <SCORE.SYSTEM.SOLV>
0

>  <SCORE.SYSTEM.norm>
0

>  <SCORE.heavy>
27

>  <SCORE.norm>
-0.501652

>  <RMSD>
11.767

$$$$
ligand
 OpenBabel11021811433D
libRbt.so/2013.1/901 2013/11/27
 27 29  0  0  0  0  0  0  0  0999 V2000
   44.5532   53.6945   22.6569 N   0  0  0  0  0  0  0  0  0  0  0  0
   44.6564   54.0521   21.2387 C   0  0  2  0  0  0  0  0  0  0  0  0
   43.3712   53.6714   20.5256 C   0  0  0  0  0  0  0  0  0  0  0  0
   42.3550   53.4402   21.1747 O   0  0  0  0  0  0  0  0  0  0  0  0
   45.8523   53.3366   20.5793 C   0  0  0  0  0  0  0  0  0  0  0  0
   46.9237   54.3681   20.2291 C   0  0  0  0  0  0  0  0  0  0  0  0
   48.6539   53.7439   20.2638 S   0  0  2  0  0  0  0  0  0  0  0  0
   49.1926   54.0269   21.9790 C   0  0  0  0  0  0  0  0  0  0  0  0
   49.3843   55.1650   19.4238 C   0  0  0  0  0  0  0  0  0  0  0  0
   50.8839   55.0033   19.1204 C   0  0  1  0  0  0  0  0  0  0  0  0
   51.6230   54.9658   20.3771 O   0  0  0  0  0  0  0  0  0  0  0  0
   50.9593   53.6093   18.5527 C   0  0  1  0  0  0  0  0  0  0  0  0
   50.9413   53.6657   17.1261 O   0  0  0  0  0  0  0  0  0  0  0  0
   52.3009   53.0817   19.0463 C   0  0  1  0  0  0  0  0  0  0  0  0
   53.3272   53.2314   18.0723 O   0  0  0  0  0  0  0  0  0  0  0  0
   52.6447   53.9005   20.3438 C   0  0  2  0  0  0  0  0  0  0  0  0
   43.3586   53.5313   19.3024 O   0  0  0  0  0  0  0  0  0  0  0  0
   51.6448   53.9813   25.4990 N   0  0  0  0  0  0  0  0  0  0  0  0
   51.7303   55.0236   24.6651 C   0  0  0  0  0  0  0  0  0  0  0  0
   51.9715   54.8542   23.3746 N   0  0  0  0  0  0  0  0  0  0  0  0
   52.1728   53.6321   22.8547 C   0  0  0  0  0  0  0  0  0  0  0  0
   52.1062   52.4963   23.7018 C   0  0  0  0  0  0  0  0  0  0  0  0
   51.8260   52.7203   25.0735 C   0  0  0  0  0  0  0  0  0  0  0  0
   51.7430   51.6659   25.9551 N   0  0  0  0  0  0  0  0  0  0  0  0
   52.3455   51.4101   22.9402 N   0  0  0  0  0  0  0  0  0  0  0  0
   52.5589   51.7885   21.7140 C   0  0  0  0  0  0  0  0  0  0  0  0
   52.4597   53.1474   21.6019 N   0  0  0  0  0  0  0  0  0  0  0  0
  2  1  1  1  0  0  0
  2  3  1  0  0  0  0
  2  5  1  0  0  0  0
  3  4  1  0  0  0  0
  3 17  1  0  0  0  0
  5  6  1  0  0  0  0
  7  6  1  1  0  0  0
  7  8  1  0  0  0  0
  7  9  1  0  0  0  0
 10  9  1  1  0  0  0
 10 11  1  0  0  0  0
 10 12  1  0  0  0  0
 11 16  1  0  0  0  0
 12 13  1  6  0  0  0
 12 14  1  0  0  0  0
 14 15  1  6  0  0  0
 14 16  1  0  0  0  0
 16 27  1  1  0  0  0
 18 19  2  0  0  0  0
 18 23  1  0  0  0  0
 19 20  1  0  0  0  0
 20 21  2  0  0  0  0
 21 22  1  0  0  0  0
 21 27  1  0  0  0  0
 22 23  2  0  0  0  0
 22 25  1  0  0  0  0
 23 24  1  0  0  0  0
 25 26  2  0  0  0  0
 26 27  1  0  0  0  0
M  END
>  <CHROM.1>
16.71738849,-111.18423483,149.85876012,-89.53007962,-174.92685660,-66.27524339
-39.48280345,49.56591235,53.61983140,21.24843892,2.92963186,0.03225643,-1.44630789

>  <Name>
ligand

>  <RI>
0

>  <Rbt.Current_Directory>
/home/itssahil/PROJECTS/Mol_Feturizer/New_Systems/rnas/2GIS

>  <Rbt.Executable>
rbdock ($Id: //depot/dev/client3/rdock/2013.1/src/exe/rbdock.cxx#4 $)

>  <Rbt.Library>
libRbt.so (2013.1, Build901 2013/11/27)

>  <Rbt.Parameter_File>
/export/apps/rDock/src/rDock_2013.1_src/data/scripts/dock_solv.prm

>  <Rbt.Receptor>
prm/blind_docking_100.prm

>  <SCORE>
-13.0521

>  <SCORE.INTER>
-13.7043

>  <SCORE.INTER.CONST>
1

>  <SCORE.INTER.POLAR>
0

>  <SCORE.INTER.ROT>
7

>  <SCORE.INTER.SOLV>
14.2043

>  <SCORE.INTER.VDW>
-22.1376

>  <SCORE.INTER.norm>
-0.507568

>  <SCORE.INTRA>
0.652232

>  <SCORE.INTRA.DIHEDRAL>
3.99573

>  <SCORE.INTRA.DIHEDRAL.0>
9.40024

>  <SCORE.INTRA.POLAR>
0

>  <SCORE.INTRA.POLAR.0>
0

>  <SCORE.INTRA.REPUL>
0

>  <SCORE.INTRA.REPUL.0>
0

>  <SCORE.INTRA.SOLV>
-2.42023

>  <SCORE.INTRA.SOLV.lig_0>
-47.1049

>  <SCORE.INTRA.VDW>
-0.13552

>  <SCORE.INTRA.VDW.0>
-1.50278

>  <SCORE.INTRA.norm>
0.0241567

>  <SCORE.RESTR>
0

>  <SCORE.RESTR.CAVITY>
0

>  <SCORE.RESTR.norm>
0

>  <SCORE.SYSTEM>
0

>  <SCORE.SYSTEM.CONST>
0

>  <SCORE.SYSTEM.DIHEDRAL>
0

>  <SCORE.SYSTEM.SOLV>
0

>  <SCORE.SYSTEM.norm>
0

>  <SCORE.heavy>
27

>  <SCORE.norm>
-0.483411

>  <RMSD>
11.938

$$$$
ligand
 OpenBabel11021811433D
libRbt.so/2013.1/901 2013/11/27
 27 29  0  0  0  0  0  0  0  0999 V2000
   51.8035   53.4798   27.0551 N   0  0  0  0  0  0  0  0  0  0  0  0
   51.0448   52.6643   26.1016 C   0  0  2  0  0  0  0  0  0  0  0  0
   51.8386   51.4162   25.7587 C   0  0  0  0  0  0  0  0  0  0  0  0
   53.0644   51.4643   25.7055 O   0  0  0  0  0  0  0  0  0  0  0  0
   50.7435   53.4620   24.8172 C   0  0  0  0  0  0  0  0  0  0  0  0
   49.7490   54.5762   25.1398 C   0  0  0  0  0  0  0  0  0  0  0  0
   47.9828   54.0631   25.1799 S   0  0  2  0  0  0  0  0  0  0  0  0
   47.9875   52.5361   26.1699 C   0  0  0  0  0  0  0  0  0  0  0  0
   47.9413   53.3978   23.5023 C   0  0  0  0  0  0  0  0  0  0  0  0
   47.8949   54.4776   22.4073 C   0  0  1  0  0  0  0  0  0  0  0  0
   49.2464   54.9693   22.1655 O   0  0  0  0  0  0  0  0  0  0  0  0
   47.5140   53.6899   21.1802 C   0  0  1  0  0  0  0  0  0  0  0  0
   46.1052   53.7789   20.9655 O   0  0  0  0  0  0  0  0  0  0  0  0
   48.2681   54.3796   20.0500 C   0  0  1  0  0  0  0  0  0  0  0  0
   47.4540   55.3181   19.3565 O   0  0  0  0  0  0  0  0  0  0  0  0
   49.4975   55.0983   20.7163 C   0  0  2  0  0  0  0  0  0  0  0  0
   51.2563   50.3703   25.4711 O   0  0  0  0  0  0  0  0  0  0  0  0
   52.4085   51.9091   17.7269 N   0  0  0  0  0  0  0  0  0  0  0  0
   51.1389   52.2817   17.5314 C   0  0  0  0  0  0  0  0  0  0  0  0
   50.5302   53.1132   18.3624 N   0  0  0  0  0  0  0  0  0  0  0  0
   51.1508   53.5914   19.4534 C   0  0  0  0  0  0  0  0  0  0  0  0
   52.4936   53.2138   19.7114 C   0  0  0  0  0  0  0  0  0  0  0  0
   53.1147   52.3374   18.7860 C   0  0  0  0  0  0  0  0  0  0  0  0
   54.4171   51.9301   18.9693 N   0  0  0  0  0  0  0  0  0  0  0  0
   52.8716   53.8218   20.8536 N   0  0  0  0  0  0  0  0  0  0  0  0
   51.8767   54.5236   21.3117 C   0  0  0  0  0  0  0  0  0  0  0  0
   50.7917   54.4229   20.4861 N   0  0  0  0  0  0  0  0  0  0  0  0
  2  1  1  1  0  0  0
  2  3  1  0  0  0  0
  2  5  1  0  0  0  0
  3  4  1  0  0  0  0
  3 17  1  0  0  0  0
  5  6  1  0  0  0  0
  7  6  1  6  0  0  0
  7  8  1  0  0  0  0
  7  9  1  0  0  0  0
 10  9  1  1  0  0  0
 10 11  1  0  0  0  0
 10 12  1  0  0  0  0
 11 16  1  0  0  0  0
 12 13  1  6  0  0  0
 12 14  1  0  0  0  0
 14 15  1  1  0  0  0
 14 16  1  0  0  0  0
 16 27  1  1  0  0  0
 18 19  2  0  0  0  0
 18 23  1  0  0  0  0
 19 20  1  0  0  0  0
 20 21  2  0  0  0  0
 21 22  1  0  0  0  0
 21 27  1  0  0  0  0
 22 23  2  0  0  0  0
 22 25  1  0  0  0  0
 23 24  1  0  0  0  0
 25 26  2  0  0  0  0
 26 27  1  0  0  0  0
M  END
>  <CHROM.1>
-34.03823941,-68.55136783,-82.27471941,46.64384496,-75.71730526,81.80460225
138.59957251,50.20739138,53.37569098,22.25780555,-1.78064916,0.39035503,-1.44395769

>  <Name>
ligand

>  <RI>
0

>  <Rbt.Current_Directory>
/home/itssahil/PROJECTS/Mol_Feturizer/New_Systems/rnas/2GIS

>  <Rbt.Executable>
rbdock ($Id: //depot/dev/client3/rdock/2013.1/src/exe/rbdock.cxx#4 $)

>  <Rbt.Library>
libRbt.so (2013.1, Build901 2013/11/27)

>  <Rbt.Parameter_File>
/export/apps/rDock/src/rDock_2013.1_src/data/scripts/dock_solv.prm

>  <Rbt.Receptor>
prm/blind_docking_80.prm

>  <SCORE>
-12.0125

>  <SCORE.INTER>
-9.81294

>  <SCORE.INTER.CONST>
1

>  <SCORE.INTER.POLAR>
0

>  <SCORE.INTER.ROT>
7

>  <SCORE.INTER.SOLV>
13.1837

>  <SCORE.INTER.VDW>
-19.2032

>  <SCORE.INTER.norm>
-0.363442

>  <SCORE.INTRA>
-2.19953

>  <SCORE.INTRA.DIHEDRAL>
-2.57236

>  <SCORE.INTRA.DIHEDRAL.0>
9.40024

>  <SCORE.INTRA.POLAR>
0

>  <SCORE.INTRA.POLAR.0>
0

>  <SCORE.INTRA.REPUL>
0

>  <SCORE.INTRA.REPUL.0>
0

>  <SCORE.INTRA.SOLV>
-1.52849

>  <SCORE.INTRA.SOLV.lig_0>
-47.1049

>  <SCORE.INTRA.VDW>
-0.149104

>  <SCORE.INTRA.VDW.0>
-1.50278

>  <SCORE.INTRA.norm>
-0.081464

>  <SCORE.RESTR>
0

>  <SCORE.RESTR.CAVITY>
0

>  <SCORE.RESTR.norm>
0

>  <SCORE.SYSTEM>
0

>  <SCORE.SYSTEM.CONST>
0

>  <SCORE.SYSTEM.DIHEDRAL>
0

>  <SCORE.SYSTEM.SOLV>
0

>  <SCORE.SYSTEM.norm>
0

>  <SCORE.heavy>
27

>  <SCORE.norm>
-0.444906

>  <RMSD>
11.975

$$$$
ligand
 OpenBabel11021811433D
libRbt.so/2013.1/901 2013/11/27
 27 29  0  0  0  0  0  0  0  0999 V2000
   52.6709   53.7731   15.7275 N   0  0  0  0  0  0  0  0  0  0  0  0
   52.5942   53.5224   17.1701 C   0  0  2  0  0  0  0  0  0  0  0  0
   53.0223   52.0947   17.4595 C   0  0  0  0  0  0  0  0  0  0  0  0
   53.8010   51.8626   18.3799 O   0  0  0  0  0  0  0  0  0  0  0  0
   51.1618   53.7548   17.6907 C   0  0  0  0  0  0  0  0  0  0  0  0
   51.2097   54.0083   19.1967 C   0  0  0  0  0  0  0  0  0  0  0  0
   49.5716   54.1946   20.0128 S   0  0  2  0  0  0  0  0  0  0  0  0
   48.8482   55.6662   19.2234 C   0  0  0  0  0  0  0  0  0  0  0  0
   50.2056   54.8935   21.5517 C   0  0  0  0  0  0  0  0  0  0  0  0
   49.4791   54.3863   22.8095 C   0  0  1  0  0  0  0  0  0  0  0  0
   49.7258   52.9567   22.9584 O   0  0  0  0  0  0  0  0  0  0  0  0
   50.2388   55.0571   23.9249 C   0  0  1  0  0  0  0  0  0  0  0  0
   49.5589   56.2465   24.3271 O   0  0  0  0  0  0  0  0  0  0  0  0
   50.2244   54.0305   25.0509 C   0  0  1  0  0  0  0  0  0  0  0  0
   49.1836   54.2781   25.9890 O   0  0  0  0  0  0  0  0  0  0  0  0
   50.0305   52.6289   24.3653 C   0  0  2  0  0  0  0  0  0  0  0  0
   52.6421   51.1744   16.7354 O   0  0  0  0  0  0  0  0  0  0  0  0
   54.1706   50.9376   21.6119 N   0  0  0  0  0  0  0  0  0  0  0  0
   53.2036   51.7693   21.2089 C   0  0  0  0  0  0  0  0  0  0  0  0
   52.2223   52.1285   22.0213 N   0  0  0  0  0  0  0  0  0  0  0  0
   52.1383   51.6477   23.2728 C   0  0  0  0  0  0  0  0  0  0  0  0
   53.1327   50.7512   23.7416 C   0  0  0  0  0  0  0  0  0  0  0  0
   54.1769   50.4080   22.8461 C   0  0  0  0  0  0  0  0  0  0  0  0
   55.1787   49.5459   23.2321 N   0  0  0  0  0  0  0  0  0  0  0  0
   52.8145   50.4227   25.0097 N   0  0  0  0  0  0  0  0  0  0  0  0
   51.7149   51.0321   25.3442 C   0  0  0  0  0  0  0  0  0  0  0  0
   51.2565   51.8051   24.3140 N   0  0  0  0  0  0  0  0  0  0  0  0
  2  1  1  6  0  0  0
  2  3  1  0  0  0  0
  2  5  1  0  0  0  0
  3  4  1  0  0  0  0
  3 17  1  0  0  0  0
  5  6  1  0  0  0  0
  7  6  1  6  0  0  0
  7  8  1  0  0  0  0
  7  9  1  0  0  0  0
 10  9  1  6  0  0  0
 10 11  1  0  0  0  0
 10 12  1  0  0  0  0
 11 16  1  0  0  0  0
 12 13  1  1  0  0  0
 12 14  1  0  0  0  0
 14 15  1  1  0  0  0
 14 16  1  0  0  0  0
 16 27  1  6  0  0  0
 18 19  2  0  0  0  0
 18 23  1  0  0  0  0
 19 20  1  0  0  0  0
 20 21  2  0  0  0  0
 21 22  1  0  0  0  0
 21 27  1  0  0  0  0
 22 23  2  0  0  0  0
 22 25  1  0  0  0  0
 23 24  1  0  0  0  0
 25 26  2  0  0  0  0
 26 27  1  0  0  0  0
M  END
>  <CHROM.1>
134.27295257,-158.78056718,-176.03477550,-62.17452419,-141.03808178,65.04295509
15.52921297,51.49207348,52.89502833,21.55757770,1.28436791,0.77960292,-1.37109703

>  <Name>
ligand

>  <RI>
0

>  <Rbt.Current_Directory>
/home/itssahil/PROJECTS/Mol_Feturizer/New_Systems/rnas/2GIS

>  <Rbt.Executable>
rbdock ($Id: //depot/dev/client3/rdock/2013.1/src/exe/rbdock.cxx#4 $)

>  <Rbt.Library>
libRbt.so (2013.1, Build901 2013/11/27)

>  <Rbt.Parameter_File>
/export/apps/rDock/src/rDock_2013.1_src/data/scripts/dock_solv.prm

>  <Rbt.Receptor>
prm/blind_docking_100.prm

>  <SCORE>
-18.7114

>  <SCORE.INTER>
-14.7849

>  <SCORE.INTER.CONST>
1

>  <SCORE.INTER.POLAR>
0

>  <SCORE.INTER.ROT>
7

>  <SCORE.INTER.SOLV>
10.4798

>  <SCORE.INTER.VDW>
-21.6165

>  <SCORE.INTER.norm>
-0.547588

>  <SCORE.INTRA>
-3.92654

>  <SCORE.INTRA.DIHEDRAL>
-0.312621

>  <SCORE.INTRA.DIHEDRAL.0>
9.40024

>  <SCORE.INTRA.POLAR>
0

>  <SCORE.INTRA.POLAR.0>
0

>  <SCORE.INTRA.REPUL>
0

>  <SCORE.INTRA.REPUL.0>
0

>  <SCORE.INTRA.SOLV>
-3.0809

>  <SCORE.INTRA.SOLV.lig_0>
-47.1049

>  <SCORE.INTRA.VDW>
-2.22978

>  <SCORE.INTRA.VDW.0>
-1.50278

>  <SCORE.INTRA.norm>
-0.145428

>  <SCORE.RESTR>
0

>  <SCORE.RESTR.CAVITY>
0

>  <SCORE.RESTR.norm>
0

>  <SCORE.SYSTEM>
0

>  <SCORE.SYSTEM.CONST>
0

>  <SCORE.SYSTEM.DIHEDRAL>
0

>  <SCORE.SYSTEM.SOLV>
0

>  <SCORE.SYSTEM.norm>
0

>  <SCORE.heavy>
27

>  <SCORE.norm>
-0.693016

>  <RMSD>
11.978

$$$$
ligand
 OpenBabel11021811433D
libRbt.so/2013.1/901 2013/11/27
 27 29  0  0  0  0  0  0  0  0999 V2000
   45.2859   57.6782   17.5508 N   0  0  0  0  0  0  0  0  0  0  0  0
   44.3679   56.7092   18.1578 C   0  0  2  0  0  0  0  0  0  0  0  0
   43.0197   57.3669   18.3921 C   0  0  0  0  0  0  0  0  0  0  0  0
   42.2655   56.9288   19.2563 O   0  0  0  0  0  0  0  0  0  0  0  0
   44.9321   56.1824   19.4924 C   0  0  0  0  0  0  0  0  0  0  0  0
   46.3047   55.5580   19.2458 C   0  0  0  0  0  0  0  0  0  0  0  0
   46.6625   54.0408   20.2226 S   0  0  2  0  0  0  0  0  0  0  0  0
   45.0231   53.3086   20.5201 C   0  0  0  0  0  0  0  0  0  0  0  0
   46.9608   54.8896   21.7876 C   0  0  0  0  0  0  0  0  0  0  0  0
   47.9666   54.1694   22.7024 C   0  0  1  0  0  0  0  0  0  0  0  0
   48.8151   53.3049   21.8903 O   0  0  0  0  0  0  0  0  0  0  0  0
   48.8511   55.2947   23.1742 C   0  0  1  0  0  0  0  0  0  0  0  0
   48.4109   55.7533   24.4527 O   0  0  0  0  0  0  0  0  0  0  0  0
   50.2311   54.6582   23.2846 C   0  0  1  0  0  0  0  0  0  0  0  0
   50.5259   54.2440   24.6135 O   0  0  0  0  0  0  0  0  0  0  0  0
   50.2260   53.4256   22.3084 C   0  0  2  0  0  0  0  0  0  0  0  0
   42.6514   58.2986   17.6765 O   0  0  0  0  0  0  0  0  0  0  0  0
   50.5846   55.8331   17.6547 N   0  0  0  0  0  0  0  0  0  0  0  0
   49.6100   55.9488   18.5634 C   0  0  0  0  0  0  0  0  0  0  0  0
   49.6584   55.2918   19.7116 N   0  0  0  0  0  0  0  0  0  0  0  0
   50.6710   54.4571   19.9982 C   0  0  0  0  0  0  0  0  0  0  0  0
   51.7216   54.2900   19.0598 C   0  0  0  0  0  0  0  0  0  0  0  0
   51.6409   55.0272   17.8513 C   0  0  0  0  0  0  0  0  0  0  0  0
   52.6253   54.9184   16.8948 N   0  0  0  0  0  0  0  0  0  0  0  0
   52.5955   53.4082   19.5849 N   0  0  0  0  0  0  0  0  0  0  0  0
   52.1630   53.0222   20.7494 C   0  0  0  0  0  0  0  0  0  0  0  0
   50.9833   53.6406   21.0577 N   0  0  0  0  0  0  0  0  0  0  0  0
  2  1  1  1  0  0  0
  2  3  1  0  0  0  0
  2  5  1  0  0  0  0
  3  4  1  0  0  0  0
  3 17  1  0  0  0  0
  5  6  1  0  0  0  0
  7  6  1  6  0  0  0
  7  8  1  0  0  0  0
  7  9  1  0  0  0  0
 10  9  1  6  0  0  0
 10 11  1  0  0  0  0
 10 12  1  0  0  0  0
 11 16  1  0  0  0  0
 12 13  1  1  0  0  0
 12 14  1  0  0  0  0
 14 15  1  1  0  0  0
 14 16  1  0  0  0  0
 16 27  1  6  0  0  0
 18 19  2  0  0  0  0
 18 23  1  0  0  0  0
 19 20  1  0  0  0  0
 20 21  2  0  0  0  0
 21 22  1  0  0  0  0
 21 27  1  0  0  0  0
 22 23  2  0  0  0  0
 22 25  1  0  0  0  0
 23 24  1  0  0  0  0
 25 26  2  0  0  0  0
 26 27  1  0  0  0  0
M  END
>  <CHROM.1>
-155.82423296,-57.39010938,-141.92138572,27.98208486,-149.83043317,22.81762566
43.23496712,48.14715610,55.06563865,20.26518604,-2.78074136,-0.26100138,1.84783923

>  <Name>
ligand

>  <RI>
0

>  <Rbt.Current_Directory>
/home/itssahil/PROJECTS/Mol_Feturizer/New_Systems/rnas/2GIS

>  <Rbt.Executable>
rbdock ($Id: //depot/dev/client3/rdock/2013.1/src/exe/rbdock.cxx#4 $)

>  <Rbt.Library>
libRbt.so (2013.1, Build901 2013/11/27)

>  <Rbt.Parameter_File>
/export/apps/rDock/src/rDock_2013.1_src/data/scripts/dock_solv.prm

>  <Rbt.Receptor>
prm/blind_docking_80.prm

>  <SCORE>
-14.4979

>  <SCORE.INTER>
-15.9086

>  <SCORE.INTER.CONST>
1

>  <SCORE.INTER.POLAR>
0

>  <SCORE.INTER.ROT>
7

>  <SCORE.INTER.SOLV>
11.0502

>  <SCORE.INTER.VDW>
-22.5558

>  <SCORE.INTER.norm>
-0.589206

>  <SCORE.INTRA>
1.40527

>  <SCORE.INTRA.DIHEDRAL>
5.4819

>  <SCORE.INTRA.DIHEDRAL.0>
9.40024

>  <SCORE.INTRA.POLAR>
0

>  <SCORE.INTRA.POLAR.0>
0

>  <SCORE.INTRA.REPUL>
0

>  <SCORE.INTRA.REPUL.0>
0

>  <SCORE.INTRA.SOLV>
-2.21783

>  <SCORE.INTRA.SOLV.lig_0>
-47.1049

>  <SCORE.INTRA.VDW>
-0.226763

>  <SCORE.INTRA.VDW.0>
-1.50278

>  <SCORE.INTRA.norm>
0.0520471

>  <SCORE.RESTR>
0.00539055

>  <SCORE.RESTR.CAVITY>
0.00539055

>  <SCORE.RESTR.norm>
0.00019965

>  <SCORE.SYSTEM>
0

>  <SCORE.SYSTEM.CONST>
0

>  <SCORE.SYSTEM.DIHEDRAL>
0

>  <SCORE.SYSTEM.SOLV>
0

>  <SCORE.SYSTEM.norm>
0

>  <SCORE.heavy>
27

>  <SCORE.norm>
-0.536959

>  <RMSD>
12.032

$$$$
ligand
 OpenBabel11021811433D
libRbt.so/2013.1/901 2013/11/27
 27 29  0  0  0  0  0  0  0  0999 V2000
   52.3924   56.4094   15.3111 N   0  0  0  0  0  0  0  0  0  0  0  0
   52.5941   55.9673   16.6946 C   0  0  2  0  0  0  0  0  0  0  0  0
   53.6376   54.8650   16.7270 C   0  0  0  0  0  0  0  0  0  0  0  0
   53.4477   53.8222   16.1072 O   0  0  0  0  0  0  0  0  0  0  0  0
   51.2735   55.4557   17.3038 C   0  0  0  0  0  0  0  0  0  0  0  0
   51.3966   55.4382   18.8267 C   0  0  0  0  0  0  0  0  0  0  0  0
   50.0391   54.5686   19.7129 S   0  0  2  0  0  0  0  0  0  0  0  0
   48.5885   55.6382   19.4600 C   0  0  0  0  0  0  0  0  0  0  0  0
   50.5542   55.0565   21.3728 C   0  0  0  0  0  0  0  0  0  0  0  0
   49.6792   54.4671   22.4926 C   0  0  1  0  0  0  0  0  0  0  0  0
   49.9133   53.0299   22.5737 O   0  0  0  0  0  0  0  0  0  0  0  0
   50.2900   55.0581   23.7372 C   0  0  1  0  0  0  0  0  0  0  0  0
   49.5586   56.2194   24.1311 O   0  0  0  0  0  0  0  0  0  0  0  0
   50.1408   53.9573   24.7801 C   0  0  1  0  0  0  0  0  0  0  0  0
   48.9897   54.1436   25.5955 O   0  0  0  0  0  0  0  0  0  0  0  0
   50.0418   52.6062   23.9822 C   0  0  2  0  0  0  0  0  0  0  0  0
   54.6458   54.9855   17.4235 O   0  0  0  0  0  0  0  0  0  0  0  0
   54.4172   50.9625   21.5871 N   0  0  0  0  0  0  0  0  0  0  0  0
   53.4888   51.8000   21.1118 C   0  0  0  0  0  0  0  0  0  0  0  0
   52.4373   52.1452   21.8380 N   0  0  0  0  0  0  0  0  0  0  0  0
   52.2417   51.6442   23.0688 C   0  0  0  0  0  0  0  0  0  0  0  0
   53.1916   50.7409   23.6111 C   0  0  0  0  0  0  0  0  0  0  0  0
   54.3131   50.4129   22.8081 C   0  0  0  0  0  0  0  0  0  0  0  0
   55.2778   49.5453   23.2692 N   0  0  0  0  0  0  0  0  0  0  0  0
   52.7609   50.3916   24.8398 N   0  0  0  0  0  0  0  0  0  0  0  0
   51.6343   50.9948   25.0834 C   0  0  0  0  0  0  0  0  0  0  0  0
   51.2691   51.7841   24.0286 N   0  0  0  0  0  0  0  0  0  0  0  0
  2  1  1  6  0  0  0
  2  3  1  0  0  0  0
  2  5  1  0  0  0  0
  3  4  1  0  0  0  0
  3 17  1  0  0  0  0
  5  6  1  0  0  0  0
  7  6  1  6  0  0  0
  7  8  1  0  0  0  0
  7  9  1  0  0  0  0
 10  9  1  6  0  0  0
 10 11  1  0  0  0  0
 10 12  1  0  0  0  0
 11 16  1  0  0  0  0
 12 13  1  1  0  0  0
 12 14  1  0  0  0  0
 14 15  1  6  0  0  0
 14 16  1  0  0  0  0
 16 27  1  6  0  0  0
 18 19  2  0  0  0  0
 18 23  1  0  0  0  0
 19 20  1  0  0  0  0
 20 21  2  0  0  0  0
 21 22  1  0  0  0  0
 21 27  1  0  0  0  0
 22 23  2  0  0  0  0
 22 25  1  0  0  0  0
 23 24  1  0  0  0  0
 25 26  2  0  0  0  0
 26 27  1  0  0  0  0
M  END
>  <CHROM.1>
-60.01854718,-161.69138650,-169.18647743,-69.09350987,-177.58442737,69.61479978
11.94108077,51.66012300,53.53593214,21.26663177,-1.45242837,-0.67480219,2.07265080

>  <Name>
ligand

>  <RI>
0

>  <Rbt.Current_Directory>
/home/itssahil/PROJECTS/Mol_Feturizer/New_Systems/rnas/2GIS

>  <Rbt.Executable>
rbdock ($Id: //depot/dev/client3/rdock/2013.1/src/exe/rbdock.cxx#4 $)

>  <Rbt.Library>
libRbt.so (2013.1, Build901 2013/11/27)

>  <Rbt.Parameter_File>
/export/apps/rDock/src/rDock_2013.1_src/data/scripts/dock_solv.prm

>  <Rbt.Receptor>
prm/blind_docking_100.prm

>  <SCORE>
-16.547

>  <SCORE.INTER>
-11.6057

>  <SCORE.INTER.CONST>
1

>  <SCORE.INTER.POLAR>
0

>  <SCORE.INTER.ROT>
7

>  <SCORE.INTER.SOLV>
11.5529

>  <SCORE.INTER.VDW>
-19.8548

>  <SCORE.INTER.norm>
-0.429842

>  <SCORE.INTRA>
-4.94131

>  <SCORE.INTRA.DIHEDRAL>
-3.93725

>  <SCORE.INTRA.DIHEDRAL.0>
9.40024

>  <SCORE.INTRA.POLAR>
0

>  <SCORE.INTRA.POLAR.0>
0

>  <SCORE.INTRA.REPUL>
0

>  <SCORE.INTRA.REPUL.0>
0

>  <SCORE.INTRA.SOLV>
-3.12757

>  <SCORE.INTRA.SOLV.lig_0>
-47.1049

>  <SCORE.INTRA.VDW>
-1.4089

>  <SCORE.INTRA.VDW.0>
-1.50278

>  <SCORE.INTRA.norm>
-0.183011

>  <SCORE.RESTR>
0

>  <SCORE.RESTR.CAVITY>
0

>  <SCORE.RESTR.norm>
0

>  <SCORE.SYSTEM>
0

>  <SCORE.SYSTEM.CONST>
0

>  <SCORE.SYSTEM.DIHEDRAL>
0

>  <SCORE.SYSTEM.SOLV>
0

>  <SCORE.SYSTEM.norm>
0

>  <SCORE.heavy>
27

>  <SCORE.norm>
-0.612853

>  <RMSD>
12.085

$$$$
ligand
 OpenBabel11021811433D
libRbt.so/2013.1/901 2013/11/27
 27 29  0  0  0  0  0  0  0  0999 V2000
   53.2384   54.0644   16.2304 N   0  0  0  0  0  0  0  0  0  0  0  0
   52.3665   54.9965   16.9522 C   0  0  2  0  0  0  0  0  0  0  0  0
   53.2014   56.1227   17.5352 C   0  0  0  0  0  0  0  0  0  0  0  0
   52.6551   57.1452   17.9395 O   0  0  0  0  0  0  0  0  0  0  0  0
   51.6050   54.2718   18.0800 C   0  0  0  0  0  0  0  0  0  0  0  0
   50.4621   55.1616   18.5665 C   0  0  0  0  0  0  0  0  0  0  0  0
   49.3417   54.3911   19.8056 S   0  0  2  0  0  0  0  0  0  0  0  0
   47.9310   55.5370   19.9003 C   0  0  0  0  0  0  0  0  0  0  0  0
   50.2967   54.8841   21.2560 C   0  0  0  0  0  0  0  0  0  0  0  0
   49.7333   54.3456   22.5825 C   0  0  1  0  0  0  0  0  0  0  0  0
   50.0050   52.9155   22.6701 O   0  0  0  0  0  0  0  0  0  0  0  0
   50.6203   55.0003   23.6101 C   0  0  1  0  0  0  0  0  0  0  0  0
   49.9878   56.1756   24.1176 O   0  0  0  0  0  0  0  0  0  0  0  0
   50.7504   53.9513   24.7076 C   0  0  1  0  0  0  0  0  0  0  0  0
   49.8313   54.1712   25.7713 O   0  0  0  0  0  0  0  0  0  0  0  0
   50.4822   52.5621   24.0218 C   0  0  2  0  0  0  0  0  0  0  0  0
   54.4299   56.0423   17.5465 O   0  0  0  0  0  0  0  0  0  0  0  0
   54.4161   51.1678   20.8340 N   0  0  0  0  0  0  0  0  0  0  0  0
   53.4284   52.0346   20.5849 C   0  0  0  0  0  0  0  0  0  0  0  0
   52.5065   52.3073   21.4948 N   0  0  0  0  0  0  0  0  0  0  0  0
   52.5055   51.7012   22.6936 C   0  0  0  0  0  0  0  0  0  0  0  0
   53.5247   50.7632   22.9996 C   0  0  0  0  0  0  0  0  0  0  0  0
   54.5037   50.5150   22.0045 C   0  0  0  0  0  0  0  0  0  0  0  0
   55.5249   49.6197   22.2313 N   0  0  0  0  0  0  0  0  0  0  0  0
   53.2919   50.3064   24.2463 N   0  0  0  0  0  0  0  0  0  0  0  0
   52.2209   50.8766   24.7155 C   0  0  0  0  0  0  0  0  0  0  0  0
   51.6974   51.7500   23.8032 N   0  0  0  0  0  0  0  0  0  0  0  0
  2  1  1  1  0  0  0
  2  3  1  0  0  0  0
  2  5  1  0  0  0  0
  3  4  1  0  0  0  0
  3 17  1  0  0  0  0
  5  6  1  0  0  0  0
  7  6  1  6  0  0  0
  7  8  1  0  0  0  0
  7  9  1  0  0  0  0
 10  9  1  6  0  0  0
 10 11  1  0  0  0  0
 10 12  1  0  0  0  0
 11 16  1  0  0  0  0
 12 13  1  1  0  0  0
 12 14  1  0  0  0  0
 14 15  1  1  0  0  0
 14 16  1  0  0  0  0
 16 27  1  6  0  0  0
 18 19  2  0  0  0  0
 18 23  1  0  0  0  0
 19 20  1  0  0  0  0
 20 21  2  0  0  0  0
 21 22  1  0  0  0  0
 21 27  1  0  0  0  0
 22 23  2  0  0  0  0
 22 25  1  0  0  0  0
 23 24  1  0  0  0  0
 25 26  2  0  0  0  0
 26 27  1  0  0  0  0
M  END
>  <CHROM.1>
165.15897221,-165.55595317,174.40353973,-168.32721029,-176.36263683,72.99832480
21.18443814,51.70443962,53.56821683,21.27182579,-1.57780845,-0.66783802,2.09090565

>  <Name>
ligand

>  <RI>
0

>  <Rbt.Current_Directory>
/home/itssahil/PROJECTS/Mol_Feturizer/New_Systems/rnas/2GIS

>  <Rbt.Executable>
rbdock ($Id: //depot/dev/client3/rdock/2013.1/src/exe/rbdock.cxx#4 $)

>  <Rbt.Library>
libRbt.so (2013.1, Build901 2013/11/27)

>  <Rbt.Parameter_File>
/export/apps/rDock/src/rDock_2013.1_src/data/scripts/dock_solv.prm

>  <Rbt.Receptor>
prm/blind_docking_100.prm

>  <SCORE>
-16.0817

>  <SCORE.INTER>
-11.2628

>  <SCORE.INTER.CONST>
1

>  <SCORE.INTER.POLAR>
0

>  <SCORE.INTER.ROT>
7

>  <SCORE.INTER.SOLV>
9.50012

>  <SCORE.INTER.VDW>
-18.9419

>  <SCORE.INTER.norm>
-0.417142

>  <SCORE.INTRA>
-4.81889

>  <SCORE.INTRA.DIHEDRAL>
-3.18693

>  <SCORE.INTRA.DIHEDRAL.0>
9.40024

>  <SCORE.INTRA.POLAR>
0

>  <SCORE.INTRA.POLAR.0>
0

>  <SCORE.INTRA.REPUL>
0

>  <SCORE.INTRA.REPUL.0>
0

>  <SCORE.INTRA.SOLV>
-3.10418

>  <SCORE.INTRA.SOLV.lig_0>
-47.1049

>  <SCORE.INTRA.VDW>
-1.67333

>  <SCORE.INTRA.VDW.0>
-1.50278

>  <SCORE.INTRA.norm>
-0.178477

>  <SCORE.RESTR>
0

>  <SCORE.RESTR.CAVITY>
0

>  <SCORE.RESTR.norm>
0

>  <SCORE.SYSTEM>
0

>  <SCORE.SYSTEM.CONST>
0

>  <SCORE.SYSTEM.DIHEDRAL>
0

>  <SCORE.SYSTEM.SOLV>
0

>  <SCORE.SYSTEM.norm>
0

>  <SCORE.heavy>
27

>  <SCORE.norm>
-0.595619

>  <RMSD>
12.086

$$$$
ligand
 OpenBabel11021811433D
libRbt.so/2013.1/901 2013/11/27
 27 29  0  0  0  0  0  0  0  0999 V2000
   49.1160   54.1721   26.6457 N   0  0  0  0  0  0  0  0  0  0  0  0
   47.8475   53.4836   26.3870 C   0  0  2  0  0  0  0  0  0  0  0  0
   47.2672   52.9820   27.6973 C   0  0  0  0  0  0  0  0  0  0  0  0
   47.9939   52.4293   28.5183 O   0  0  0  0  0  0  0  0  0  0  0  0
   48.0539   52.3011   25.4195 C   0  0  0  0  0  0  0  0  0  0  0  0
   48.2220   52.8381   23.9989 C   0  0  0  0  0  0  0  0  0  0  0  0
   49.7750   53.7759   23.6940 S   0  0  2  0  0  0  0  0  0  0  0  0
   49.2837   55.5185   23.8788 C   0  0  0  0  0  0  0  0  0  0  0  0
   49.7577   53.5913   21.8984 C   0  0  0  0  0  0  0  0  0  0  0  0
   50.8746   54.3714   21.1835 C   0  0  1  0  0  0  0  0  0  0  0  0
   52.1603   54.0035   21.7652 O   0  0  0  0  0  0  0  0  0  0  0  0
   50.8604   53.7772   19.7985 C   0  0  1  0  0  0  0  0  0  0  0  0
   50.0835   54.5990   18.9269 O   0  0  0  0  0  0  0  0  0  0  0  0
   52.3243   53.7904   19.3761 C   0  0  1  0  0  0  0  0  0  0  0  0
   52.6428   54.9265   18.5809 O   0  0  0  0  0  0  0  0  0  0  0  0
   53.1652   53.7907   20.7047 C   0  0  2  0  0  0  0  0  0  0  0  0
   46.0584   53.0697   27.9143 O   0  0  0  0  0  0  0  0  0  0  0  0
   53.5971   49.7154   23.9891 N   0  0  0  0  0  0  0  0  0  0  0  0
   52.8144   50.7923   24.1190 C   0  0  0  0  0  0  0  0  0  0  0  0
   52.7923   51.7419   23.1970 N   0  0  0  0  0  0  0  0  0  0  0  0
   53.5780   51.6798   22.1093 C   0  0  0  0  0  0  0  0  0  0  0  0
   54.4360   50.5639   21.9339 C   0  0  0  0  0  0  0  0  0  0  0  0
   54.4145   49.5600   22.9348 C   0  0  0  0  0  0  0  0  0  0  0  0
   55.2178   48.4466   22.8308 N   0  0  0  0  0  0  0  0  0  0  0  0
   55.1081   50.7489   20.7801 N   0  0  0  0  0  0  0  0  0  0  0  0
   54.7400   51.8781   20.2494 C   0  0  0  0  0  0  0  0  0  0  0  0
   53.7948   52.4921   21.0231 N   0  0  0  0  0  0  0  0  0  0  0  0
  2  1  1  1  0  0  0
  2  3  1  0  0  0  0
  2  5  1  0  0  0  0
  3  4  1  0  0  0  0
  3 17  1  0  0  0  0
  5  6  1  0  0  0  0
  7  6  1  1  0  0  0
  7  8  1  0  0  0  0
  7  9  1  0  0  0  0
 10  9  1  1  0  0  0
 10 11  1  0  0  0  0
 10 12  1  0  0  0  0
 11 16  1  0  0  0  0
 12 13  1  6  0  0  0
 12 14  1  0  0  0  0
 14 15  1  1  0  0  0
 14 16  1  0  0  0  0
 16 27  1  1  0  0  0
 18 19  2  0  0  0  0
 18 23  1  0  0  0  0
 19 20  1  0  0  0  0
 20 21  2  0  0  0  0
 21 22  1  0  0  0  0
 21 27  1  0  0  0  0
 22 23  2  0  0  0  0
 22 25  1  0  0  0  0
 23 24  1  0  0  0  0
 25 26  2  0  0  0  0
 26 27  1  0  0  0  0
M  END
>  <CHROM.1>
-44.23092903,-76.05034335,68.43981799,-97.11923726,174.70252352,53.75796982
-3.95240407,51.17201474,52.74891394,23.00004595,-2.61175789,0.62052762,-0.99149593

>  <Name>
ligand

>  <RI>
0

>  <Rbt.Current_Directory>
/home/itssahil/PROJECTS/Mol_Feturizer/New_Systems/rnas/2GIS

>  <Rbt.Executable>
rbdock ($Id: //depot/dev/client3/rdock/2013.1/src/exe/rbdock.cxx#4 $)

>  <Rbt.Library>
libRbt.so (2013.1, Build901 2013/11/27)

>  <Rbt.Parameter_File>
/export/apps/rDock/src/rDock_2013.1_src/data/scripts/dock_solv.prm

>  <Rbt.Receptor>
prm/blind_docking_80.prm

>  <SCORE>
-12.97

>  <SCORE.INTER>
-9.96177

>  <SCORE.INTER.CONST>
1

>  <SCORE.INTER.POLAR>
0

>  <SCORE.INTER.ROT>
7

>  <SCORE.INTER.SOLV>
7.15956

>  <SCORE.INTER.VDW>
-17.2944

>  <SCORE.INTER.norm>
-0.368954

>  <SCORE.INTRA>
-3.00824

>  <SCORE.INTRA.DIHEDRAL>
-2.90785

>  <SCORE.INTRA.DIHEDRAL.0>
9.40024

>  <SCORE.INTRA.POLAR>
0

>  <SCORE.INTRA.POLAR.0>
0

>  <SCORE.INTRA.REPUL>
0

>  <SCORE.INTRA.REPUL.0>
0

>  <SCORE.INTRA.SOLV>
-0.0773213

>  <SCORE.INTRA.SOLV.lig_0>
-47.1049

>  <SCORE.INTRA.VDW>
-1.51565

>  <SCORE.INTRA.VDW.0>
-1.50278

>  <SCORE.INTRA.norm>
-0.111416

>  <SCORE.RESTR>
0

>  <SCORE.RESTR.CAVITY>
0

>  <SCORE.RESTR.norm>
0

>  <SCORE.SYSTEM>
0

>  <SCORE.SYSTEM.CONST>
0

>  <SCORE.SYSTEM.DIHEDRAL>
0

>  <SCORE.SYSTEM.SOLV>
0

>  <SCORE.SYSTEM.norm>
0

>  <SCORE.heavy>
27

>  <SCORE.norm>
-0.48037

>  <RMSD>
12.088

$$$$
ligand
 OpenBabel11021811433D
libRbt.so/2013.1/901 2013/11/27
 27 29  0  0  0  0  0  0  0  0999 V2000
   48.6159   55.3539   24.7657 N   0  0  0  0  0  0  0  0  0  0  0  0
   49.4492   55.0020   23.6117 C   0  0  2  0  0  0  0  0  0  0  0  0
   49.0502   53.6298   23.0986 C   0  0  0  0  0  0  0  0  0  0  0  0
   48.4066   52.8698   23.8167 O   0  0  0  0  0  0  0  0  0  0  0  0
   50.9427   55.0036   23.9942 C   0  0  0  0  0  0  0  0  0  0  0  0
   51.1894   53.9365   25.0596 C   0  0  0  0  0  0  0  0  0  0  0  0
   51.6213   52.2690   24.4137 S   0  0  2  0  0  0  0  0  0  0  0  0
   51.6229   51.2080   25.8923 C   0  0  0  0  0  0  0  0  0  0  0  0
   53.3849   52.5962   24.2103 C   0  0  0  0  0  0  0  0  0  0  0  0
   54.1566   51.4453   23.5417 C   0  0  1  0  0  0  0  0  0  0  0  0
   53.5095   51.1080   22.2790 O   0  0  0  0  0  0  0  0  0  0  0  0
   55.4676   52.0928   23.1764 C   0  0  1  0  0  0  0  0  0  0  0  0
   56.4415   51.8162   24.1832 O   0  0  0  0  0  0  0  0  0  0  0  0
   55.8564   51.4242   21.8636 C   0  0  1  0  0  0  0  0  0  0  0  0
   56.7647   50.3465   22.0590 O   0  0  0  0  0  0  0  0  0  0  0  0
   54.5177   50.9103   21.2186 C   0  0  2  0  0  0  0  0  0  0  0  0
   49.4234   53.2502   21.9885 O   0  0  0  0  0  0  0  0  0  0  0  0
   51.5777   54.9022   19.4857 N   0  0  0  0  0  0  0  0  0  0  0  0
   51.7173   54.4747   20.7453 C   0  0  0  0  0  0  0  0  0  0  0  0
   52.5132   53.4598   21.0432 N   0  0  0  0  0  0  0  0  0  0  0  0
   53.1882   52.7965   20.0899 C   0  0  0  0  0  0  0  0  0  0  0  0
   53.0616   53.2036   18.7369 C   0  0  0  0  0  0  0  0  0  0  0  0
   52.2146   54.3073   18.4637 C   0  0  0  0  0  0  0  0  0  0  0  0
   52.0451   54.7609   17.1748 N   0  0  0  0  0  0  0  0  0  0  0  0
   53.8292   52.3811   17.9943 N   0  0  0  0  0  0  0  0  0  0  0  0
   54.3992   51.5105   18.7750 C   0  0  0  0  0  0  0  0  0  0  0  0
   54.0442   51.7223   20.0782 N   0  0  0  0  0  0  0  0  0  0  0  0
  2  1  1  1  0  0  0
  2  3  1  0  0  0  0
  2  5  1  0  0  0  0
  3  4  1  0  0  0  0
  3 17  1  0  0  0  0
  5  6  1  0  0  0  0
  7  6  1  1  0  0  0
  7  8  1  0  0  0  0
  7  9  1  0  0  0  0
 10  9  1  6  0  0  0
 10 11  1  0  0  0  0
 10 12  1  0  0  0  0
 11 16  1  0  0  0  0
 12 13  1  1  0  0  0
 12 14  1  0  0  0  0
 14 15  1  1  0  0  0
 14 16  1  0  0  0  0
 16 27  1  6  0  0  0
 18 19  2  0  0  0  0
 18 23  1  0  0  0  0
 19 20  1  0  0  0  0
 20 21  2  0  0  0  0
 21 22  1  0  0  0  0
 21 27  1  0  0  0  0
 22 23  2  0  0  0  0
 22 25  1  0  0  0  0
 23 24  1  0  0  0  0
 25 26  2  0  0  0  0
 26 27  1  0  0  0  0
M  END
>  <CHROM.1>
-18.11144607,62.61707645,89.95449878,-172.57301448,-174.74230831,53.88920850
22.13730061,52.51101892,52.81809353,22.11712955,2.60689741,-0.49530112,1.79517686

>  <Name>
ligand

>  <RI>
0

>  <Rbt.Current_Directory>
/home/itssahil/PROJECTS/Mol_Feturizer/New_Systems/rnas/2GIS

>  <Rbt.Executable>
rbdock ($Id: //depot/dev/client3/rdock/2013.1/src/exe/rbdock.cxx#4 $)

>  <Rbt.Library>
libRbt.so (2013.1, Build901 2013/11/27)

>  <Rbt.Parameter_File>
/export/apps/rDock/src/rDock_2013.1_src/data/scripts/dock_solv.prm

>  <Rbt.Receptor>
prm/blind_docking_100.prm

>  <SCORE>
-13.4679

>  <SCORE.INTER>
-8.6551

>  <SCORE.INTER.CONST>
1

>  <SCORE.INTER.POLAR>
0

>  <SCORE.INTER.ROT>
7

>  <SCORE.INTER.SOLV>
7.90542

>  <SCORE.INTER.VDW>
-16.6719

>  <SCORE.INTER.norm>
-0.320559

>  <SCORE.INTRA>
-4.81277

>  <SCORE.INTRA.DIHEDRAL>
-2.25608

>  <SCORE.INTRA.DIHEDRAL.0>
9.40024

>  <SCORE.INTRA.POLAR>
0

>  <SCORE.INTRA.POLAR.0>
0

>  <SCORE.INTRA.REPUL>
0

>  <SCORE.INTRA.REPUL.0>
0

>  <SCORE.INTRA.SOLV>
-2.04051

>  <SCORE.INTRA.SOLV.lig_0>
-47.1049

>  <SCORE.INTRA.VDW>
-2.66448

>  <SCORE.INTRA.VDW.0>
-1.50278

>  <SCORE.INTRA.norm>
-0.178251

>  <SCORE.RESTR>
0

>  <SCORE.RESTR.CAVITY>
0

>  <SCORE.RESTR.norm>
0

>  <SCORE.SYSTEM>
0

>  <SCORE.SYSTEM.CONST>
0

>  <SCORE.SYSTEM.DIHEDRAL>
0

>  <SCORE.SYSTEM.SOLV>
0

>  <SCORE.SYSTEM.norm>
0

>  <SCORE.heavy>
27

>  <SCORE.norm>
-0.49881

>  <RMSD>
12.119

$$$$
ligand
 OpenBabel11021811433D
libRbt.so/2013.1/901 2013/11/27
 27 29  0  0  0  0  0  0  0  0999 V2000
   49.8400   52.2575   25.6101 N   0  0  0  0  0  0  0  0  0  0  0  0
   50.0586   53.5865   25.0306 C   0  0  2  0  0  0  0  0  0  0  0  0
   51.2636   54.2342   25.6893 C   0  0  0  0  0  0  0  0  0  0  0  0
   51.4698   54.0689   26.8884 O   0  0  0  0  0  0  0  0  0  0  0  0
   48.8156   54.4783   25.2217 C   0  0  0  0  0  0  0  0  0  0  0  0
   49.0320   55.8041   24.4935 C   0  0  0  0  0  0  0  0  0  0  0  0
   48.8926   55.7236   22.6609 S   0  0  2  0  0  0  0  0  0  0  0  0
   47.7564   54.3334   22.3637 C   0  0  0  0  0  0  0  0  0  0  0  0
   50.4941   54.9379   22.3840 C   0  0  0  0  0  0  0  0  0  0  0  0
   50.9706   54.9982   20.9224 C   0  0  1  0  0  0  0  0  0  0  0  0
   52.3723   54.6003   20.8614 O   0  0  0  0  0  0  0  0  0  0  0  0
   50.1935   53.8819   20.2735 C   0  0  1  0  0  0  0  0  0  0  0  0
   49.0253   54.4077   19.6430 O   0  0  0  0  0  0  0  0  0  0  0  0
   51.1531   53.3216   19.2309 C   0  0  1  0  0  0  0  0  0  0  0  0
   50.9142   53.8623   17.9367 O   0  0  0  0  0  0  0  0  0  0  0  0
   52.6006   53.6857   19.7251 C   0  0  2  0  0  0  0  0  0  0  0  0
   52.0007   54.9768   25.0405 O   0  0  0  0  0  0  0  0  0  0  0  0
   53.2844   50.3017   23.6826 N   0  0  0  0  0  0  0  0  0  0  0  0
   52.3782   51.2811   23.5902 C   0  0  0  0  0  0  0  0  0  0  0  0
   52.3065   52.0530   22.5172 N   0  0  0  0  0  0  0  0  0  0  0  0
   53.1609   51.9064   21.4912 C   0  0  0  0  0  0  0  0  0  0  0  0
   54.1492   50.8904   21.5487 C   0  0  0  0  0  0  0  0  0  0  0  0
   54.1787   50.0732   22.7070 C   0  0  0  0  0  0  0  0  0  0  0  0
   55.1079   49.0649   22.8321 N   0  0  0  0  0  0  0  0  0  0  0  0
   54.8671   50.9605   20.4100 N   0  0  0  0  0  0  0  0  0  0  0  0
   54.4075   51.9313   19.6761 C   0  0  0  0  0  0  0  0  0  0  0  0
   53.3521   52.5458   20.2906 N   0  0  0  0  0  0  0  0  0  0  0  0
  2  1  1  1  0  0  0
  2  3  1  0  0  0  0
  2  5  1  0  0  0  0
  3  4  1  0  0  0  0
  3 17  1  0  0  0  0
  5  6  1  0  0  0  0
  7  6  1  1  0  0  0
  7  8  1  0  0  0  0
  7  9  1  0  0  0  0
 10  9  1  1  0  0  0
 10 11  1  0  0  0  0
 10 12  1  0  0  0  0
 11 16  1  0  0  0  0
 12 13  1  6  0  0  0
 12 14  1  0  0  0  0
 14 15  1  6  0  0  0
 14 16  1  0  0  0  0
 16 27  1  1  0  0  0
 18 19  2  0  0  0  0
 18 23  1  0  0  0  0
 19 20  1  0  0  0  0
 20 21  2  0  0  0  0
 21 22  1  0  0  0  0
 21 27  1  0  0  0  0
 22 23  2  0  0  0  0
 22 25  1  0  0  0  0
 23 24  1  0  0  0  0
 25 26  2  0  0  0  0
 26 27  1  0  0  0  0
M  END
>  <CHROM.1>
-37.31632128,-174.75447182,74.54311593,27.67747974,-164.99911693,168.04621957
41.10501540,51.44021472,53.30668846,22.34502575,-2.76200718,0.72733632,-1.45454411

>  <Name>
ligand

>  <RI>
0

>  <Rbt.Current_Directory>
/home/itssahil/PROJECTS/Mol_Feturizer/New_Systems/rnas/2GIS

>  <Rbt.Executable>
rbdock ($Id: //depot/dev/client3/rdock/2013.1/src/exe/rbdock.cxx#4 $)

>  <Rbt.Library>
libRbt.so (2013.1, Build901 2013/11/27)

>  <Rbt.Parameter_File>
/export/apps/rDock/src/rDock_2013.1_src/data/scripts/dock_solv.prm

>  <Rbt.Receptor>
prm/blind_docking_80.prm

>  <SCORE>
-14.0362

>  <SCORE.INTER>
-11.4347

>  <SCORE.INTER.CONST>
1

>  <SCORE.INTER.POLAR>
0

>  <SCORE.INTER.ROT>
7

>  <SCORE.INTER.SOLV>
8.80035

>  <SCORE.INTER.VDW>
-18.8233

>  <SCORE.INTER.norm>
-0.423508

>  <SCORE.INTRA>
-2.60153

>  <SCORE.INTRA.DIHEDRAL>
-2.17445

>  <SCORE.INTRA.DIHEDRAL.0>
9.40024

>  <SCORE.INTRA.POLAR>
0

>  <SCORE.INTRA.POLAR.0>
0

>  <SCORE.INTRA.REPUL>
0

>  <SCORE.INTRA.REPUL.0>
0

>  <SCORE.INTRA.SOLV>
-1.59436

>  <SCORE.INTRA.SOLV.lig_0>
-47.1049

>  <SCORE.INTRA.VDW>
-0.71712

>  <SCORE.INTRA.VDW.0>
-1.50278

>  <SCORE.INTRA.norm>
-0.0963528

>  <SCORE.RESTR>
0

>  <SCORE.RESTR.CAVITY>
0

>  <SCORE.RESTR.norm>
0

>  <SCORE.SYSTEM>
0

>  <SCORE.SYSTEM.CONST>
0

>  <SCORE.SYSTEM.DIHEDRAL>
0

>  <SCORE.SYSTEM.SOLV>
0

>  <SCORE.SYSTEM.norm>
0

>  <SCORE.heavy>
27

>  <SCORE.norm>
-0.51986

>  <RMSD>
12.152

$$$$
ligand
 OpenBabel11021811433D
libRbt.so/2013.1/901 2013/11/27
 27 29  0  0  0  0  0  0  0  0999 V2000
   53.9501   52.2322   23.7128 N   0  0  0  0  0  0  0  0  0  0  0  0
   53.9324   51.2427   24.7947 C   0  0  2  0  0  0  0  0  0  0  0  0
   54.4577   49.9159   24.2761 C   0  0  0  0  0  0  0  0  0  0  0  0
   55.3913   49.3601   24.8481 O   0  0  0  0  0  0  0  0  0  0  0  0
   52.5044   51.0604   25.3465 C   0  0  0  0  0  0  0  0  0  0  0  0
   52.1515   52.2554   26.2308 C   0  0  0  0  0  0  0  0  0  0  0  0
   51.8146   53.8242   25.3308 S   0  0  2  0  0  0  0  0  0  0  0  0
   51.2321   54.9618   26.6263 C   0  0  0  0  0  0  0  0  0  0  0  0
   50.2529   53.2906   24.5992 C   0  0  0  0  0  0  0  0  0  0  0  0
   49.5824   54.3599   23.7193 C   0  0  1  0  0  0  0  0  0  0  0  0
   50.5388   54.8234   22.7207 O   0  0  0  0  0  0  0  0  0  0  0  0
   48.5461   53.5670   22.9651 C   0  0  1  0  0  0  0  0  0  0  0  0
   47.2807   53.6806   23.6166 O   0  0  0  0  0  0  0  0  0  0  0  0
   48.4991   54.2307   21.5943 C   0  0  1  0  0  0  0  0  0  0  0  0
   47.4417   55.1774   21.4928 O   0  0  0  0  0  0  0  0  0  0  0  0
   49.8922   54.9329   21.3979 C   0  0  2  0  0  0  0  0  0  0  0  0
   53.9939   49.4248   23.2468 O   0  0  0  0  0  0  0  0  0  0  0  0
   51.6134   54.2743   16.4800 N   0  0  0  0  0  0  0  0  0  0  0  0
   50.6684   55.1172   16.9108 C   0  0  0  0  0  0  0  0  0  0  0  0
   50.3456   55.1921   18.1924 N   0  0  0  0  0  0  0  0  0  0  0  0
   50.9299   54.4025   19.1086 C   0  0  0  0  0  0  0  0  0  0  0  0
   51.9282   53.4820   18.6984 C   0  0  0  0  0  0  0  0  0  0  0  0
   52.2579   53.4478   17.3198 C   0  0  0  0  0  0  0  0  0  0  0  0
   53.2194   52.5822   16.8486 N   0  0  0  0  0  0  0  0  0  0  0  0
   52.3426   52.8198   19.7969 N   0  0  0  0  0  0  0  0  0  0  0  0
   51.6791   53.2508   20.8295 C   0  0  0  0  0  0  0  0  0  0  0  0
   50.7981   54.2307   20.4650 N   0  0  0  0  0  0  0  0  0  0  0  0
  2  1  1  6  0  0  0
  2  3  1  0  0  0  0
  2  5  1  0  0  0  0
  3  4  1  0  0  0  0
  3 17  1  0  0  0  0
  5  6  1  0  0  0  0
  7  6  1  1  0  0  0
  7  8  1  0  0  0  0
  7  9  1  0  0  0  0
 10  9  1  1  0  0  0
 10 11  1  0  0  0  0
 10 12  1  0  0  0  0
 11 16  1  0  0  0  0
 12 13  1  1  0  0  0
 12 14  1  0  0  0  0
 14 15  1  1  0  0  0
 14 16  1  0  0  0  0
 16 27  1  6  0  0  0
 18 19  2  0  0  0  0
 18 23  1  0  0  0  0
 19 20  1  0  0  0  0
 20 21  2  0  0  0  0
 21 22  1  0  0  0  0
 21 27  1  0  0  0  0
 22 23  2  0  0  0  0
 22 25  1  0  0  0  0
 23 24  1  0  0  0  0
 25 26  2  0  0  0  0
 26 27  1  0  0  0  0
M  END
>  <CHROM.1>
125.42617423,-75.92903369,73.24033081,173.10918063,179.78930295,53.40427012
-155.82282898,51.38539124,53.23380559,22.16004040,-1.23297755,0.62464458
-1.42268995

>  <Name>
ligand

>  <RI>
0

>  <Rbt.Current_Directory>
/home/itssahil/PROJECTS/Mol_Feturizer/New_Systems/rnas/2GIS

>  <Rbt.Executable>
rbdock ($Id: //depot/dev/client3/rdock/2013.1/src/exe/rbdock.cxx#4 $)

>  <Rbt.Library>
libRbt.so (2013.1, Build901 2013/11/27)

>  <Rbt.Parameter_File>
/export/apps/rDock/src/rDock_2013.1_src/data/scripts/dock_solv.prm

>  <Rbt.Receptor>
prm/blind_docking_100.prm

>  <SCORE>
-15.3514

>  <SCORE.INTER>
-11.5728

>  <SCORE.INTER.CONST>
1

>  <SCORE.INTER.POLAR>
0

>  <SCORE.INTER.ROT>
7

>  <SCORE.INTER.SOLV>
9.03916

>  <SCORE.INTER.VDW>
-18.9949

>  <SCORE.INTER.norm>
-0.428621

>  <SCORE.INTRA>
-3.77868

>  <SCORE.INTRA.DIHEDRAL>
-4.28956

>  <SCORE.INTRA.DIHEDRAL.0>
9.40024

>  <SCORE.INTRA.POLAR>
0

>  <SCORE.INTRA.POLAR.0>
0

>  <SCORE.INTRA.REPUL>
0.00291943

>  <SCORE.INTRA.REPUL.0>
0

>  <SCORE.INTRA.SOLV>
-0.779312

>  <SCORE.INTRA.SOLV.lig_0>
-47.1049

>  <SCORE.INTRA.VDW>
-1.25884

>  <SCORE.INTRA.VDW.0>
-1.50278

>  <SCORE.INTRA.norm>
-0.139951

>  <SCORE.RESTR>
0

>  <SCORE.RESTR.CAVITY>
0

>  <SCORE.RESTR.norm>
0

>  <SCORE.SYSTEM>
0

>  <SCORE.SYSTEM.CONST>
0

>  <SCORE.SYSTEM.DIHEDRAL>
0

>  <SCORE.SYSTEM.SOLV>
0

>  <SCORE.SYSTEM.norm>
0

>  <SCORE.heavy>
27

>  <SCORE.norm>
-0.568572

>  <RMSD>
12.173

$$$$
ligand
 OpenBabel11021811433D
libRbt.so/2013.1/901 2013/11/27
 27 29  0  0  0  0  0  0  0  0999 V2000
   55.4966   51.1119   24.1031 N   0  0  0  0  0  0  0  0  0  0  0  0
   54.4859   50.1397   24.5312 C   0  0  2  0  0  0  0  0  0  0  0  0
   54.5484   48.9160   23.6346 C   0  0  0  0  0  0  0  0  0  0  0  0
   55.0882   47.8888   24.0357 O   0  0  0  0  0  0  0  0  0  0  0  0
   53.0743   50.7572   24.4760 C   0  0  0  0  0  0  0  0  0  0  0  0
   52.9724   51.8712   25.5169 C   0  0  0  0  0  0  0  0  0  0  0  0
   51.3414   52.7178   25.6018 S   0  0  2  0  0  0  0  0  0  0  0  0
   50.1324   51.3609   25.5049 C   0  0  0  0  0  0  0  0  0  0  0  0
   51.3469   53.3099   23.8965 C   0  0  0  0  0  0  0  0  0  0  0  0
   50.1741   54.2477   23.5613 C   0  0  1  0  0  0  0  0  0  0  0  0
   50.5763   55.1485   22.4872 O   0  0  0  0  0  0  0  0  0  0  0  0
   49.1606   53.3093   22.9585 C   0  0  1  0  0  0  0  0  0  0  0  0
   48.2183   52.9097   23.9540 O   0  0  0  0  0  0  0  0  0  0  0  0
   48.4759   54.1458   21.8846 C   0  0  1  0  0  0  0  0  0  0  0  0
   47.2569   54.7168   22.3456 O   0  0  0  0  0  0  0  0  0  0  0  0
   49.4988   55.2711   21.4853 C   0  0  2  0  0  0  0  0  0  0  0  0
   54.1166   48.9684   22.4828 O   0  0  0  0  0  0  0  0  0  0  0  0
   53.0964   52.6866   18.6642 N   0  0  0  0  0  0  0  0  0  0  0  0
   52.8161   52.5414   19.9639 C   0  0  0  0  0  0  0  0  0  0  0  0
   51.8627   53.2519   20.5456 N   0  0  0  0  0  0  0  0  0  0  0  0
   51.1594   54.1707   19.8634 C   0  0  0  0  0  0  0  0  0  0  0  0
   51.4297   54.3713   18.4854 C   0  0  0  0  0  0  0  0  0  0  0  0
   52.4451   53.5758   17.8967 C   0  0  0  0  0  0  0  0  0  0  0  0
   52.7606   53.7127   16.5635 N   0  0  0  0  0  0  0  0  0  0  0  0
   50.5984   55.3377   18.0474 N   0  0  0  0  0  0  0  0  0  0  0  0
   49.8585   55.7438   19.0374 C   0  0  0  0  0  0  0  0  0  0  0  0
   50.1576   55.0554   20.1801 N   0  0  0  0  0  0  0  0  0  0  0  0
  2  1  1  6  0  0  0
  2  3  1  0  0  0  0
  2  5  1  0  0  0  0
  3  4  1  0  0  0  0
  3 17  1  0  0  0  0
  5  6  1  0  0  0  0
  7  6  1  6  0  0  0
  7  8  1  0  0  0  0
  7  9  1  0  0  0  0
 10  9  1  6  0  0  0
 10 11  1  0  0  0  0
 10 12  1  0  0  0  0
 11 16  1  0  0  0  0
 12 13  1  1  0  0  0
 12 14  1  0  0  0  0
 14 15  1  1  0  0  0
 14 16  1  0  0  0  0
 16 27  1  6  0  0  0
 18 19  2  0  0  0  0
 18 23  1  0  0  0  0
 19 20  1  0  0  0  0
 20 21  2  0  0  0  0
 21 22  1  0  0  0  0
 21 27  1  0  0  0  0
 22 23  2  0  0  0  0
 22 25  1  0  0  0  0
 23 24  1  0  0  0  0
 25 26  2  0  0  0  0
 26 27  1  0  0  0  0
M  END
>  <CHROM.1>
102.77170323,-66.27730588,-179.56337998,43.24060887,-173.45025444,152.54432860
38.31847055,51.53469449,52.80799259,22.17691452,-0.98927486,0.64086060,-1.20991516

>  <Name>
ligand

>  <RI>
0

>  <Rbt.Current_Directory>
/home/itssahil/PROJECTS/Mol_Feturizer/New_Systems/rnas/2GIS

>  <Rbt.Executable>
rbdock ($Id: //depot/dev/client3/rdock/2013.1/src/exe/rbdock.cxx#4 $)

>  <Rbt.Library>
libRbt.so (2013.1, Build901 2013/11/27)

>  <Rbt.Parameter_File>
/export/apps/rDock/src/rDock_2013.1_src/data/scripts/dock_solv.prm

>  <Rbt.Receptor>
prm/blind_docking_80.prm

>  <SCORE>
-16.0144

>  <SCORE.INTER>
-13.2425

>  <SCORE.INTER.CONST>
1

>  <SCORE.INTER.POLAR>
0

>  <SCORE.INTER.ROT>
7

>  <SCORE.INTER.SOLV>
10.19

>  <SCORE.INTER.VDW>
-20.4917

>  <SCORE.INTER.norm>
-0.490462

>  <SCORE.INTRA>
-2.78389

>  <SCORE.INTRA.DIHEDRAL>
-3.2688

>  <SCORE.INTRA.DIHEDRAL.0>
9.40024

>  <SCORE.INTRA.POLAR>
0

>  <SCORE.INTRA.POLAR.0>
0

>  <SCORE.INTRA.REPUL>
0

>  <SCORE.INTRA.REPUL.0>
0

>  <SCORE.INTRA.SOLV>
-2.12767

>  <SCORE.INTRA.SOLV.lig_0>
-47.1049

>  <SCORE.INTRA.VDW>
-0.0856539

>  <SCORE.INTRA.VDW.0>
-1.50278

>  <SCORE.INTRA.norm>
-0.103107

>  <SCORE.RESTR>
0.0119372

>  <SCORE.RESTR.CAVITY>
0.0119372

>  <SCORE.RESTR.norm>
0.00044212

>  <SCORE.SYSTEM>
0

>  <SCORE.SYSTEM.CONST>
0

>  <SCORE.SYSTEM.DIHEDRAL>
0

>  <SCORE.SYSTEM.SOLV>
0

>  <SCORE.SYSTEM.norm>
0

>  <SCORE.heavy>
27

>  <SCORE.norm>
-0.593127

>  <RMSD>
12.204

$$$$
ligand
 OpenBabel11021811433D
libRbt.so/2013.1/901 2013/11/27
 27 29  0  0  0  0  0  0  0  0999 V2000
   50.1751   51.4859   24.9317 N   0  0  0  0  0  0  0  0  0  0  0  0
   51.5468   51.5432   24.4170 C   0  0  2  0  0  0  0  0  0  0  0  0
   52.5242   51.2874   25.5504 C   0  0  0  0  0  0  0  0  0  0  0  0
   53.6739   50.9358   25.3012 O   0  0  0  0  0  0  0  0  0  0  0  0
   51.8347   52.9164   23.7778 C   0  0  0  0  0  0  0  0  0  0  0  0
   50.8877   53.1294   22.5978 C   0  0  0  0  0  0  0  0  0  0  0  0
   50.8762   54.8313   21.8993 S   0  0  2  0  0  0  0  0  0  0  0  0
   49.8264   55.7746   23.0483 C   0  0  0  0  0  0  0  0  0  0  0  0
   49.7133   54.4796   20.5641 C   0  0  0  0  0  0  0  0  0  0  0  0
   48.2838   54.1811   21.0486 C   0  0  1  0  0  0  0  0  0  0  0  0
   47.4749   55.3875   20.9182 O   0  0  0  0  0  0  0  0  0  0  0  0
   47.7723   53.2233   20.0035 C   0  0  1  0  0  0  0  0  0  0  0  0
   47.9300   51.8795   20.4596 O   0  0  0  0  0  0  0  0  0  0  0  0
   46.2942   53.5708   19.8761 C   0  0  1  0  0  0  0  0  0  0  0  0
   45.4723   52.7140   20.6602 O   0  0  0  0  0  0  0  0  0  0  0  0
   46.1510   55.0629   20.3510 C   0  0  2  0  0  0  0  0  0  0  0  0
   52.1516   51.3692   26.7210 O   0  0  0  0  0  0  0  0  0  0  0  0
   42.8642   58.1155   17.6196 N   0  0  0  0  0  0  0  0  0  0  0  0
   42.5717   57.3127   18.6486 C   0  0  0  0  0  0  0  0  0  0  0  0
   43.5109   56.6086   19.2605 N   0  0  0  0  0  0  0  0  0  0  0  0
   44.7904   56.6457   18.8534 C   0  0  0  0  0  0  0  0  0  0  0  0
   45.1478   57.4717   17.7569 C   0  0  0  0  0  0  0  0  0  0  0  0
   44.1151   58.2243   17.1426 C   0  0  0  0  0  0  0  0  0  0  0  0
   44.3872   59.0502   16.0752 N   0  0  0  0  0  0  0  0  0  0  0  0
   46.4723   57.3238   17.5549 N   0  0  0  0  0  0  0  0  0  0  0  0
   46.9436   56.4777   18.4234 C   0  0  0  0  0  0  0  0  0  0  0  0
   45.9524   56.0315   19.2526 N   0  0  0  0  0  0  0  0  0  0  0  0
  2  1  1  1  0  0  0
  2  3  1  0  0  0  0
  2  5  1  0  0  0  0
  3  4  1  0  0  0  0
  3 17  1  0  0  0  0
  5  6  1  0  0  0  0
  7  6  1  1  0  0  0
  7  8  1  0  0  0  0
  7  9  1  0  0  0  0
 10  9  1  6  0  0  0
 10 11  1  0  0  0  0
 10 12  1  0  0  0  0
 11 16  1  0  0  0  0
 12 13  1  1  0  0  0
 12 14  1  0  0  0  0
 14 15  1  1  0  0  0
 14 16  1  0  0  0  0
 16 27  1  6  0  0  0
 18 19  2  0  0  0  0
 18 23  1  0  0  0  0
 19 20  1  0  0  0  0
 20 21  2  0  0  0  0
 21 22  1  0  0  0  0
 21 27  1  0  0  0  0
 22 23  2  0  0  0  0
 22 25  1  0  0  0  0
 23 24  1  0  0  0  0
 25 26  2  0  0  0  0
 26 27  1  0  0  0  0
M  END
>  <CHROM.1>
160.41656927,-61.59969543,169.50921518,-79.39628343,68.37051456,98.68194158
-143.72299152,47.99440759,54.62409536,20.98708686,0.78884577,0.35619489,2.57623207

>  <Name>
ligand

>  <RI>
0

>  <Rbt.Current_Directory>
/home/itssahil/PROJECTS/Mol_Feturizer/New_Systems/rnas/2GIS

>  <Rbt.Executable>
rbdock ($Id: //depot/dev/client3/rdock/2013.1/src/exe/rbdock.cxx#4 $)

>  <Rbt.Library>
libRbt.so (2013.1, Build901 2013/11/27)

>  <Rbt.Parameter_File>
/export/apps/rDock/src/rDock_2013.1_src/data/scripts/dock_solv.prm

>  <Rbt.Receptor>
prm/blind_docking_80.prm

>  <SCORE>
-19.7434

>  <SCORE.INTER>
-18.3881

>  <SCORE.INTER.CONST>
1

>  <SCORE.INTER.POLAR>
0

>  <SCORE.INTER.ROT>
7

>  <SCORE.INTER.SOLV>
15.1488

>  <SCORE.INTER.VDW>
-25.575

>  <SCORE.INTER.norm>
-0.681041

>  <SCORE.INTRA>
-1.35527

>  <SCORE.INTRA.DIHEDRAL>
-1.02601

>  <SCORE.INTRA.DIHEDRAL.0>
9.40024

>  <SCORE.INTRA.POLAR>
0

>  <SCORE.INTRA.POLAR.0>
0

>  <SCORE.INTRA.REPUL>
0

>  <SCORE.INTRA.REPUL.0>
0

>  <SCORE.INTRA.SOLV>
-2.17583

>  <SCORE.INTRA.SOLV.lig_0>
-47.1049

>  <SCORE.INTRA.VDW>
0.245649

>  <SCORE.INTRA.VDW.0>
-1.50278

>  <SCORE.INTRA.norm>
-0.0501952

>  <SCORE.RESTR>
0

>  <SCORE.RESTR.CAVITY>
0

>  <SCORE.RESTR.norm>
0

>  <SCORE.SYSTEM>
0

>  <SCORE.SYSTEM.CONST>
0

>  <SCORE.SYSTEM.DIHEDRAL>
0

>  <SCORE.SYSTEM.SOLV>
0

>  <SCORE.SYSTEM.norm>
0

>  <SCORE.heavy>
27

>  <SCORE.norm>
-0.731236

>  <RMSD>
12.224

$$$$
ligand
 OpenBabel11021811433D
libRbt.so/2013.1/901 2013/11/27
 27 29  0  0  0  0  0  0  0  0999 V2000
   46.0997   54.6930   19.9550 N   0  0  0  0  0  0  0  0  0  0  0  0
   47.3387   54.0018   20.3252 C   0  0  2  0  0  0  0  0  0  0  0  0
   47.2636   52.5530   19.8772 C   0  0  0  0  0  0  0  0  0  0  0  0
   48.2772   51.8601   19.8694 O   0  0  0  0  0  0  0  0  0  0  0  0
   47.5680   54.0672   21.8484 C   0  0  0  0  0  0  0  0  0  0  0  0
   49.0208   53.7055   22.1535 C   0  0  0  0  0  0  0  0  0  0  0  0
   49.4816   53.7471   23.9340 S   0  0  2  0  0  0  0  0  0  0  0  0
   49.1834   55.4730   24.4285 C   0  0  0  0  0  0  0  0  0  0  0  0
   51.2669   53.7585   23.6668 C   0  0  0  0  0  0  0  0  0  0  0  0
   51.8856   52.3549   23.5476 C   0  0  1  0  0  0  0  0  0  0  0  0
   51.8279   51.9254   22.1551 O   0  0  0  0  0  0  0  0  0  0  0  0
   53.3415   52.6076   23.8441 C   0  0  1  0  0  0  0  0  0  0  0  0
   53.6117   52.3275   25.2178 O   0  0  0  0  0  0  0  0  0  0  0  0
   54.0777   51.6210   22.9462 C   0  0  1  0  0  0  0  0  0  0  0  0
   54.4335   50.4292   23.6373 O   0  0  0  0  0  0  0  0  0  0  0  0
   53.1039   51.3004   21.7540 C   0  0  2  0  0  0  0  0  0  0  0  0
   46.2029   52.0867   19.4609 O   0  0  0  0  0  0  0  0  0  0  0  0
   51.6797   54.3328   17.7095 N   0  0  0  0  0  0  0  0  0  0  0  0
   50.9334   53.9575   18.7541 C   0  0  0  0  0  0  0  0  0  0  0  0
   51.4315   53.2002   19.7188 N   0  0  0  0  0  0  0  0  0  0  0  0
   52.6963   52.7503   19.6730 C   0  0  0  0  0  0  0  0  0  0  0  0
   53.5232   53.1098   18.5778 C   0  0  0  0  0  0  0  0  0  0  0  0
   52.9567   53.9384   17.5764 C   0  0  0  0  0  0  0  0  0  0  0  0
   53.6998   54.3306   16.4857 N   0  0  0  0  0  0  0  0  0  0  0  0
   54.7253   52.5319   18.7728 N   0  0  0  0  0  0  0  0  0  0  0  0
   54.6953   51.8501   19.8803 C   0  0  0  0  0  0  0  0  0  0  0  0
   53.4710   51.9532   20.4800 N   0  0  0  0  0  0  0  0  0  0  0  0
  2  1  1  1  0  0  0
  2  3  1  0  0  0  0
  2  5  1  0  0  0  0
  3  4  1  0  0  0  0
  3 17  1  0  0  0  0
  5  6  1  0  0  0  0
  7  6  1  6  0  0  0
  7  8  1  0  0  0  0
  7  9  1  0  0  0  0
 10  9  1  6  0  0  0
 10 11  1  0  0  0  0
 10 12  1  0  0  0  0
 11 16  1  0  0  0  0
 12 13  1  1  0  0  0
 12 14  1  0  0  0  0
 14 15  1  1  0  0  0
 14 16  1  0  0  0  0
 16 27  1  6  0  0  0
 18 19  2  0  0  0  0
 18 23  1  0  0  0  0
 19 20  1  0  0  0  0
 20 21  2  0  0  0  0
 21 22  1  0  0  0  0
 21 27  1  0  0  0  0
 22 23  2  0  0  0  0
 22 25  1  0  0  0  0
 23 24  1  0  0  0  0
 25 26  2  0  0  0  0
 26 27  1  0  0  0  0
M  END
>  <CHROM.1>
166.88582002,-164.01336054,179.45305558,-60.67564186,-87.66383667,87.91205875
-12.72400707,51.12227280,52.99659953,21.18612738,-3.08035164,-0.21766809
1.66814121

>  <Name>
ligand

>  <RI>
0

>  <Rbt.Current_Directory>
/home/itssahil/PROJECTS/Mol_Feturizer/New_Systems/rnas/2GIS

>  <Rbt.Executable>
rbdock ($Id: //depot/dev/client3/rdock/2013.1/src/exe/rbdock.cxx#4 $)

>  <Rbt.Library>
libRbt.so (2013.1, Build901 2013/11/27)

>  <Rbt.Parameter_File>
/export/apps/rDock/src/rDock_2013.1_src/data/scripts/dock_solv.prm

>  <Rbt.Receptor>
prm/blind_docking_100.prm

>  <SCORE>
-15.6425

>  <SCORE.INTER>
-11.8584

>  <SCORE.INTER.CONST>
1

>  <SCORE.INTER.POLAR>
0

>  <SCORE.INTER.ROT>
7

>  <SCORE.INTER.SOLV>
10.5301

>  <SCORE.INTER.VDW>
-19.6823

>  <SCORE.INTER.norm>
-0.439201

>  <SCORE.INTRA>
-3.78409

>  <SCORE.INTRA.DIHEDRAL>
-1.575

>  <SCORE.INTRA.DIHEDRAL.0>
9.40024

>  <SCORE.INTRA.POLAR>
0

>  <SCORE.INTRA.POLAR.0>
0

>  <SCORE.INTRA.REPUL>
0

>  <SCORE.INTRA.REPUL.0>
0

>  <SCORE.INTRA.SOLV>
-3.07485

>  <SCORE.INTRA.SOLV.lig_0>
-47.1049

>  <SCORE.INTRA.VDW>
-1.45917

>  <SCORE.INTRA.VDW.0>
-1.50278

>  <SCORE.INTRA.norm>
-0.140152

>  <SCORE.RESTR>
0

>  <SCORE.RESTR.CAVITY>
0

>  <SCORE.RESTR.norm>
0

>  <SCORE.SYSTEM>
0

>  <SCORE.SYSTEM.CONST>
0

>  <SCORE.SYSTEM.DIHEDRAL>
0

>  <SCORE.SYSTEM.SOLV>
0

>  <SCORE.SYSTEM.norm>
0

>  <SCORE.heavy>
27

>  <SCORE.norm>
-0.579352

>  <RMSD>
12.373

$$$$
ligand
 OpenBabel11021811433D
libRbt.so/2013.1/901 2013/11/27
 27 29  0  0  0  0  0  0  0  0999 V2000
   54.7144   46.0902   19.7920 N   0  0  0  0  0  0  0  0  0  0  0  0
   55.7372   47.1274   19.6245 C   0  0  2  0  0  0  0  0  0  0  0  0
   56.9737   46.5209   18.9854 C   0  0  0  0  0  0  0  0  0  0  0  0
   58.0159   47.1676   18.9310 O   0  0  0  0  0  0  0  0  0  0  0  0
   56.1056   47.7573   20.9826 C   0  0  0  0  0  0  0  0  0  0  0  0
   54.9743   48.6812   21.4311 C   0  0  0  0  0  0  0  0  0  0  0  0
   55.3684   49.7638   22.8653 S   0  0  2  0  0  0  0  0  0  0  0  0
   55.5969   48.6023   24.2476 C   0  0  0  0  0  0  0  0  0  0  0  0
   53.6761   50.3242   23.1495 C   0  0  0  0  0  0  0  0  0  0  0  0
   53.1429   51.2674   22.0571 C   0  0  1  0  0  0  0  0  0  0  0  0
   51.7819   51.6673   22.3956 O   0  0  0  0  0  0  0  0  0  0  0  0
   53.9940   52.4982   22.2368 C   0  0  1  0  0  0  0  0  0  0  0  0
   55.0858   52.4705   21.3171 O   0  0  0  0  0  0  0  0  0  0  0  0
   53.0519   53.6497   21.9083 C   0  0  1  0  0  0  0  0  0  0  0  0
   53.1931   54.0911   20.5631 O   0  0  0  0  0  0  0  0  0  0  0  0
   51.5963   53.1139   22.1657 C   0  0  2  0  0  0  0  0  0  0  0  0
   56.9193   45.4068   18.4640 O   0  0  0  0  0  0  0  0  0  0  0  0
   49.1523   52.0837   26.6986 N   0  0  0  0  0  0  0  0  0  0  0  0
   49.5814   51.2086   25.7825 C   0  0  0  0  0  0  0  0  0  0  0  0
   50.2039   51.6107   24.6856 N   0  0  0  0  0  0  0  0  0  0  0  0
   50.4016   52.9147   24.4311 C   0  0  0  0  0  0  0  0  0  0  0  0
   49.9518   53.8819   25.3662 C   0  0  0  0  0  0  0  0  0  0  0  0
   49.3076   53.4079   26.5370 C   0  0  0  0  0  0  0  0  0  0  0  0
   48.8471   54.2877   27.4908 N   0  0  0  0  0  0  0  0  0  0  0  0
   50.2676   55.0965   24.8743 N   0  0  0  0  0  0  0  0  0  0  0  0
   50.8583   54.9497   23.7246 C   0  0  0  0  0  0  0  0  0  0  0  0
   50.9726   53.6257   23.4039 N   0  0  0  0  0  0  0  0  0  0  0  0
  2  1  1  1  0  0  0
  2  3  1  0  0  0  0
  2  5  1  0  0  0  0
  3  4  1  0  0  0  0
  3 17  1  0  0  0  0
  5  6  1  0  0  0  0
  7  6  1  6  0  0  0
  7  8  1  0  0  0  0
  7  9  1  0  0  0  0
 10  9  1  1  0  0  0
 10 11  1  0  0  0  0
 10 12  1  0  0  0  0
 11 16  1  0  0  0  0
 12 13  1  6  0  0  0
 12 14  1  0  0  0  0
 14 15  1  6  0  0  0
 14 16  1  0  0  0  0
 16 27  1  1  0  0  0
 18 19  2  0  0  0  0
 18 23  1  0  0  0  0
 19 20  1  0  0  0  0
 20 21  2  0  0  0  0
 21 22  1  0  0  0  0
 21 27  1  0  0  0  0
 22 23  2  0  0  0  0
 22 25  1  0  0  0  0
 23 24  1  0  0  0  0
 25 26  2  0  0  0  0
 26 27  1  0  0  0  0
M  END
>  <CHROM.1>
-169.55847696,-74.29645301,-168.86249502,-65.80136982,-70.13934354,-179.33169366
-13.44097524,53.16233374,50.95420040,22.66449140,0.37393582,-0.85456374,2.74060881

>  <Name>
ligand

>  <RI>
0

>  <Rbt.Current_Directory>
/home/itssahil/PROJECTS/Mol_Feturizer/New_Systems/rnas/2GIS

>  <Rbt.Executable>
rbdock ($Id: //depot/dev/client3/rdock/2013.1/src/exe/rbdock.cxx#4 $)

>  <Rbt.Library>
libRbt.so (2013.1, Build901 2013/11/27)

>  <Rbt.Parameter_File>
/export/apps/rDock/src/rDock_2013.1_src/data/scripts/dock_solv.prm

>  <Rbt.Receptor>
prm/blind_docking_80.prm

>  <SCORE>
-16.4899

>  <SCORE.INTER>
-12.6165

>  <SCORE.INTER.CONST>
1

>  <SCORE.INTER.POLAR>
0

>  <SCORE.INTER.ROT>
7

>  <SCORE.INTER.SOLV>
9.02276

>  <SCORE.INTER.VDW>
-19.6852

>  <SCORE.INTER.norm>
-0.467276

>  <SCORE.INTRA>
-3.87347

>  <SCORE.INTRA.DIHEDRAL>
-4.99969

>  <SCORE.INTRA.DIHEDRAL.0>
9.40024

>  <SCORE.INTRA.POLAR>
0

>  <SCORE.INTRA.POLAR.0>
0

>  <SCORE.INTRA.REPUL>
0

>  <SCORE.INTRA.REPUL.0>
0

>  <SCORE.INTRA.SOLV>
-2.23706

>  <SCORE.INTRA.SOLV.lig_0>
-47.1049

>  <SCORE.INTRA.VDW>
-0.255095

>  <SCORE.INTRA.VDW.0>
-1.50278

>  <SCORE.INTRA.norm>
-0.143462

>  <SCORE.RESTR>
0

>  <SCORE.RESTR.CAVITY>
0

>  <SCORE.RESTR.norm>
0

>  <SCORE.SYSTEM>
0

>  <SCORE.SYSTEM.CONST>
0

>  <SCORE.SYSTEM.DIHEDRAL>
0

>  <SCORE.SYSTEM.SOLV>
0

>  <SCORE.SYSTEM.norm>
0

>  <SCORE.heavy>
27

>  <SCORE.norm>
-0.610738

>  <RMSD>
12.376

$$$$
ligand
 OpenBabel11021811433D
libRbt.so/2013.1/901 2013/11/27
 27 29  0  0  0  0  0  0  0  0999 V2000
   49.6625   55.1101   25.4052 N   0  0  0  0  0  0  0  0  0  0  0  0
   48.6848   54.3371   24.6329 C   0  0  2  0  0  0  0  0  0  0  0  0
   48.9851   52.8555   24.7740 C   0  0  0  0  0  0  0  0  0  0  0  0
   50.1429   52.4543   24.6966 O   0  0  0  0  0  0  0  0  0  0  0  0
   48.7215   54.7389   23.1449 C   0  0  0  0  0  0  0  0  0  0  0  0
   47.6553   53.9508   22.3855 C   0  0  0  0  0  0  0  0  0  0  0  0
   47.7417   54.0805   20.5524 S   0  0  2  0  0  0  0  0  0  0  0  0
   46.6139   52.7796   19.9627 C   0  0  0  0  0  0  0  0  0  0  0  0
   49.3433   53.2655   20.3808 C   0  0  0  0  0  0  0  0  0  0  0  0
   50.5319   54.2402   20.3152 C   0  0  1  0  0  0  0  0  0  0  0  0
   51.5488   53.8167   21.2708 O   0  0  0  0  0  0  0  0  0  0  0  0
   51.1079   53.9699   18.9489 C   0  0  1  0  0  0  0  0  0  0  0  0
   50.6062   54.9255   18.0142 O   0  0  0  0  0  0  0  0  0  0  0  0
   52.6089   54.1502   19.1389 C   0  0  1  0  0  0  0  0  0  0  0  0
   53.0455   55.4495   18.7572 O   0  0  0  0  0  0  0  0  0  0  0  0
   52.8926   53.8962   20.6644 C   0  0  2  0  0  0  0  0  0  0  0  0
   48.0665   52.0459   24.9025 O   0  0  0  0  0  0  0  0  0  0  0  0
   53.4564   49.8261   23.9351 N   0  0  0  0  0  0  0  0  0  0  0  0
   52.6919   50.9109   24.1021 C   0  0  0  0  0  0  0  0  0  0  0  0
   52.6307   51.8580   23.1794 N   0  0  0  0  0  0  0  0  0  0  0  0
   53.3580   51.7854   22.0525 C   0  0  0  0  0  0  0  0  0  0  0  0
   54.1951   50.6608   21.8361 C   0  0  0  0  0  0  0  0  0  0  0  0
   54.2162   49.6599   22.8401 C   0  0  0  0  0  0  0  0  0  0  0  0
   55.0024   48.5385   22.6979 N   0  0  0  0  0  0  0  0  0  0  0  0
   54.8078   50.8361   20.6483 N   0  0  0  0  0  0  0  0  0  0  0  0
   54.4233   51.9674   20.1338 C   0  0  0  0  0  0  0  0  0  0  0  0
   53.5256   52.5926   20.9538 N   0  0  0  0  0  0  0  0  0  0  0  0
  2  1  1  1  0  0  0
  2  3  1  0  0  0  0
  2  5  1  0  0  0  0
  3  4  1  0  0  0  0
  3 17  1  0  0  0  0
  5  6  1  0  0  0  0
  7  6  1  1  0  0  0
  7  8  1  0  0  0  0
  7  9  1  0  0  0  0
 10  9  1  1  0  0  0
 10 11  1  0  0  0  0
 10 12  1  0  0  0  0
 11 16  1  0  0  0  0
 12 13  1  6  0  0  0
 12 14  1  0  0  0  0
 14 15  1  1  0  0  0
 14 16  1  0  0  0  0
 16 27  1  6  0  0  0
 18 19  2  0  0  0  0
 18 23  1  0  0  0  0
 19 20  1  0  0  0  0
 20 21  2  0  0  0  0
 21 22  1  0  0  0  0
 21 27  1  0  0  0  0
 22 23  2  0  0  0  0
 22 25  1  0  0  0  0
 23 24  1  0  0  0  0
 25 26  2  0  0  0  0
 26 27  1  0  0  0  0
M  END
>  <CHROM.1>
-43.74808851,-177.90820409,-169.87669648,168.06196931,-95.12298079,129.98061884
-32.84779029,51.09900365,52.88020020,21.78065261,2.92218810,0.44836204,-1.10354424

>  <Name>
ligand

>  <RI>
0

>  <Rbt.Current_Directory>
/home/itssahil/PROJECTS/Mol_Feturizer/New_Systems/rnas/2GIS

>  <Rbt.Executable>
rbdock ($Id: //depot/dev/client3/rdock/2013.1/src/exe/rbdock.cxx#4 $)

>  <Rbt.Library>
libRbt.so (2013.1, Build901 2013/11/27)

>  <Rbt.Parameter_File>
/export/apps/rDock/src/rDock_2013.1_src/data/scripts/dock_solv.prm

>  <Rbt.Receptor>
prm/blind_docking_80.prm

>  <SCORE>
-14.3857

>  <SCORE.INTER>
-11.9176

>  <SCORE.INTER.CONST>
1

>  <SCORE.INTER.POLAR>
0

>  <SCORE.INTER.ROT>
7

>  <SCORE.INTER.SOLV>
9.82876

>  <SCORE.INTER.VDW>
-19.488

>  <SCORE.INTER.norm>
-0.441391

>  <SCORE.INTRA>
-2.46815

>  <SCORE.INTRA.DIHEDRAL>
0.723695

>  <SCORE.INTRA.DIHEDRAL.0>
9.40024

>  <SCORE.INTRA.POLAR>
0

>  <SCORE.INTRA.POLAR.0>
0

>  <SCORE.INTRA.REPUL>
0

>  <SCORE.INTRA.REPUL.0>
0

>  <SCORE.INTRA.SOLV>
-2.99685

>  <SCORE.INTRA.SOLV.lig_0>
-47.1049

>  <SCORE.INTRA.VDW>
-1.33157

>  <SCORE.INTRA.VDW.0>
-1.50278

>  <SCORE.INTRA.norm>
-0.0914129

>  <SCORE.RESTR>
0

>  <SCORE.RESTR.CAVITY>
0

>  <SCORE.RESTR.norm>
0

>  <SCORE.SYSTEM>
0

>  <SCORE.SYSTEM.CONST>
0

>  <SCORE.SYSTEM.DIHEDRAL>
0

>  <SCORE.SYSTEM.SOLV>
0

>  <SCORE.SYSTEM.norm>
0

>  <SCORE.heavy>
27

>  <SCORE.norm>
-0.532804

>  <RMSD>
12.463

$$$$
ligand
 OpenBabel11021811433D
libRbt.so/2013.1/901 2013/11/27
 27 29  0  0  0  0  0  0  0  0999 V2000
   48.3230   55.4498   23.3407 N   0  0  0  0  0  0  0  0  0  0  0  0
   49.6939   55.3747   22.8260 C   0  0  2  0  0  0  0  0  0  0  0  0
   49.8175   54.1893   21.8854 C   0  0  0  0  0  0  0  0  0  0  0  0
   50.8285   54.0509   21.2027 O   0  0  0  0  0  0  0  0  0  0  0  0
   50.7053   55.2338   23.9810 C   0  0  0  0  0  0  0  0  0  0  0  0
   50.2764   54.0799   24.8862 C   0  0  0  0  0  0  0  0  0  0  0  0
   50.5497   52.3975   24.1941 S   0  0  2  0  0  0  0  0  0  0  0  0
   50.1628   51.2809   25.5782 C   0  0  0  0  0  0  0  0  0  0  0  0
   52.3523   52.4506   24.2749 C   0  0  0  0  0  0  0  0  0  0  0  0
   53.0431   51.3470   23.4551 C   0  0  1  0  0  0  0  0  0  0  0  0
   52.5973   51.4331   22.0692 O   0  0  0  0  0  0  0  0  0  0  0  0
   54.4848   51.7863   23.4554 C   0  0  1  0  0  0  0  0  0  0  0  0
   55.1981   51.1061   24.4884 O   0  0  0  0  0  0  0  0  0  0  0  0
   55.0004   51.3619   22.0858 C   0  0  1  0  0  0  0  0  0  0  0  0
   55.6745   50.1097   22.1311 O   0  0  0  0  0  0  0  0  0  0  0  0
   53.7409   51.2796   21.1482 C   0  0  2  0  0  0  0  0  0  0  0  0
   48.8817   53.3997   21.7564 O   0  0  0  0  0  0  0  0  0  0  0  0
   52.9474   52.8864   16.2116 N   0  0  0  0  0  0  0  0  0  0  0  0
   52.9776   51.6298   16.6687 C   0  0  0  0  0  0  0  0  0  0  0  0
   53.1703   51.3690   17.9521 N   0  0  0  0  0  0  0  0  0  0  0  0
   53.3759   52.3531   18.8431 C   0  0  0  0  0  0  0  0  0  0  0  0
   53.3671   53.7019   18.4040 C   0  0  0  0  0  0  0  0  0  0  0  0
   53.1375   53.9382   17.0250 C   0  0  0  0  0  0  0  0  0  0  0  0
   53.1119   55.2214   16.5266 N   0  0  0  0  0  0  0  0  0  0  0  0
   53.5981   54.4786   19.4813 N   0  0  0  0  0  0  0  0  0  0  0  0
   53.7542   53.7207   20.5270 C   0  0  0  0  0  0  0  0  0  0  0  0
   53.6223   52.4015   20.1935 N   0  0  0  0  0  0  0  0  0  0  0  0
  2  1  1  1  0  0  0
  2  3  1  0  0  0  0
  2  5  1  0  0  0  0
  3  4  1  0  0  0  0
  3 17  1  0  0  0  0
  5  6  1  0  0  0  0
  7  6  1  1  0  0  0
  7  8  1  0  0  0  0
  7  9  1  0  0  0  0
 10  9  1  1  0  0  0
 10 11  1  0  0  0  0
 10 12  1  0  0  0  0
 11 16  1  0  0  0  0
 12 13  1  1  0  0  0
 12 14  1  0  0  0  0
 14 15  1  1  0  0  0
 14 16  1  0  0  0  0
 16 27  1  6  0  0  0
 18 19  2  0  0  0  0
 18 23  1  0  0  0  0
 19 20  1  0  0  0  0
 20 21  2  0  0  0  0
 21 22  1  0  0  0  0
 21 27  1  0  0  0  0
 22 23  2  0  0  0  0
 22 25  1  0  0  0  0
 23 24  1  0  0  0  0
 25 26  2  0  0  0  0
 26 27  1  0  0  0  0
M  END
>  <CHROM.1>
169.98980546,51.59860314,73.63100135,172.41647386,-165.48239817,56.45417586
-114.64660931,52.27935055,52.83811556,21.51110745,2.07713462,-0.61235038
1.85922731

>  <Name>
ligand

>  <RI>
0

>  <Rbt.Current_Directory>
/home/itssahil/PROJECTS/Mol_Feturizer/New_Systems/rnas/2GIS

>  <Rbt.Executable>
rbdock ($Id: //depot/dev/client3/rdock/2013.1/src/exe/rbdock.cxx#4 $)

>  <Rbt.Library>
libRbt.so (2013.1, Build901 2013/11/27)

>  <Rbt.Parameter_File>
/export/apps/rDock/src/rDock_2013.1_src/data/scripts/dock_solv.prm

>  <Rbt.Receptor>
prm/blind_docking_80.prm

>  <SCORE>
-13.7501

>  <SCORE.INTER>
-9.17297

>  <SCORE.INTER.CONST>
1

>  <SCORE.INTER.POLAR>
0

>  <SCORE.INTER.ROT>
7

>  <SCORE.INTER.SOLV>
9.31473

>  <SCORE.INTER.VDW>
-17.4869

>  <SCORE.INTER.norm>
-0.33974

>  <SCORE.INTRA>
-4.58325

>  <SCORE.INTRA.DIHEDRAL>
-3.87153

>  <SCORE.INTRA.DIHEDRAL.0>
9.40024

>  <SCORE.INTRA.POLAR>
0

>  <SCORE.INTRA.POLAR.0>
0

>  <SCORE.INTRA.REPUL>
0

>  <SCORE.INTRA.REPUL.0>
0

>  <SCORE.INTRA.SOLV>
-1.64384

>  <SCORE.INTRA.SOLV.lig_0>
-47.1049

>  <SCORE.INTRA.VDW>
-1.82556

>  <SCORE.INTRA.VDW.0>
-1.50278

>  <SCORE.INTRA.norm>
-0.16975

>  <SCORE.RESTR>
0.00612559

>  <SCORE.RESTR.CAVITY>
0.00612559

>  <SCORE.RESTR.norm>
0.000226874

>  <SCORE.SYSTEM>
0

>  <SCORE.SYSTEM.CONST>
0

>  <SCORE.SYSTEM.DIHEDRAL>
0

>  <SCORE.SYSTEM.SOLV>
0

>  <SCORE.SYSTEM.norm>
0

>  <SCORE.heavy>
27

>  <SCORE.norm>
-0.509263

>  <RMSD>
12.568

$$$$
ligand
 OpenBabel11021811433D
libRbt.so/2013.1/901 2013/11/27
 27 29  0  0  0  0  0  0  0  0999 V2000
   55.9787   45.4837   20.1831 N   0  0  0  0  0  0  0  0  0  0  0  0
   54.9122   46.4647   19.9589 C   0  0  2  0  0  0  0  0  0  0  0  0
   54.5816   46.5239   18.4782 C   0  0  0  0  0  0  0  0  0  0  0  0
   55.4829   46.6416   17.6528 O   0  0  0  0  0  0  0  0  0  0  0  0
   55.3388   47.8603   20.4560 C   0  0  0  0  0  0  0  0  0  0  0  0
   55.2962   47.8842   21.9831 C   0  0  0  0  0  0  0  0  0  0  0  0
   55.9400   49.4218   22.7613 S   0  0  2  0  0  0  0  0  0  0  0  0
   55.7309   49.1359   24.5464 C   0  0  0  0  0  0  0  0  0  0  0  0
   54.4947   50.4390   22.3937 C   0  0  0  0  0  0  0  0  0  0  0  0
   54.3208   51.6367   23.3436 C   0  0  1  0  0  0  0  0  0  0  0  0
   54.1950   52.8566   22.5543 O   0  0  0  0  0  0  0  0  0  0  0  0
   52.9611   51.3891   23.9447 C   0  0  1  0  0  0  0  0  0  0  0  0
   53.1013   50.7387   25.2080 O   0  0  0  0  0  0  0  0  0  0  0  0
   52.3787   52.7851   24.1278 C   0  0  1  0  0  0  0  0  0  0  0  0
   52.5643   53.2743   25.4510 O   0  0  0  0  0  0  0  0  0  0  0  0
   53.1131   53.7078   23.0878 C   0  0  2  0  0  0  0  0  0  0  0  0
   53.4087   46.5183   18.1039 O   0  0  0  0  0  0  0  0  0  0  0  0
   48.7895   56.0108   21.1945 N   0  0  0  0  0  0  0  0  0  0  0  0
   49.1684   55.9061   22.4730 C   0  0  0  0  0  0  0  0  0  0  0  0
   50.3022   55.3105   22.8080 N   0  0  0  0  0  0  0  0  0  0  0  0
   51.1029   54.7582   21.8816 C   0  0  0  0  0  0  0  0  0  0  0  0
   50.7368   54.8311   20.5131 C   0  0  0  0  0  0  0  0  0  0  0  0
   49.5247   55.4949   20.1960 C   0  0  0  0  0  0  0  0  0  0  0  0
   49.1064   55.6075   18.8890 N   0  0  0  0  0  0  0  0  0  0  0  0
   51.6974   54.2051   19.8043 N   0  0  0  0  0  0  0  0  0  0  0  0
   52.6037   53.7541   20.6213 C   0  0  0  0  0  0  0  0  0  0  0  0
   52.2916   54.0707   21.9141 N   0  0  0  0  0  0  0  0  0  0  0  0
  2  1  1  6  0  0  0
  2  3  1  0  0  0  0
  2  5  1  0  0  0  0
  3  4  1  0  0  0  0
  3 17  1  0  0  0  0
  5  6  1  0  0  0  0
  7  6  1  6  0  0  0
  7  8  1  0  0  0  0
  7  9  1  0  0  0  0
 10  9  1  6  0  0  0
 10 11  1  0  0  0  0
 10 12  1  0  0  0  0
 11 16  1  0  0  0  0
 12 13  1  1  0  0  0
 12 14  1  0  0  0  0
 14 15  1  1  0  0  0
 14 16  1  0  0  0  0
 16 27  1  6  0  0  0
 18 19  2  0  0  0  0
 18 23  1  0  0  0  0
 19 20  1  0  0  0  0
 20 21  2  0  0  0  0
 21 22  1  0  0  0  0
 21 27  1  0  0  0  0
 22 23  2  0  0  0  0
 22 25  1  0  0  0  0
 23 24  1  0  0  0  0
 25 26  2  0  0  0  0
 26 27  1  0  0  0  0
M  END
>  <CHROM.1>
-49.20551599,-74.31115346,174.04148179,179.33676207,155.80905038,126.86368056
174.07933201,53.14102628,51.37953208,21.72556820,0.58469292,0.90454055,-2.10441831

>  <Name>
ligand

>  <RI>
0

>  <Rbt.Current_Directory>
/home/itssahil/PROJECTS/Mol_Feturizer/New_Systems/rnas/2GIS

>  <Rbt.Executable>
rbdock ($Id: //depot/dev/client3/rdock/2013.1/src/exe/rbdock.cxx#4 $)

>  <Rbt.Library>
libRbt.so (2013.1, Build901 2013/11/27)

>  <Rbt.Parameter_File>
/export/apps/rDock/src/rDock_2013.1_src/data/scripts/dock_solv.prm

>  <Rbt.Receptor>
prm/blind_docking_80.prm

>  <SCORE>
-15.5211

>  <SCORE.INTER>
-14.3741

>  <SCORE.INTER.CONST>
1

>  <SCORE.INTER.POLAR>
0

>  <SCORE.INTER.ROT>
7

>  <SCORE.INTER.SOLV>
14.3355

>  <SCORE.INTER.VDW>
-22.6279

>  <SCORE.INTER.norm>
-0.532376

>  <SCORE.INTRA>
-1.14691

>  <SCORE.INTRA.DIHEDRAL>
0.447808

>  <SCORE.INTRA.DIHEDRAL.0>
9.40024

>  <SCORE.INTRA.POLAR>
0

>  <SCORE.INTRA.POLAR.0>
0

>  <SCORE.INTRA.REPUL>
0

>  <SCORE.INTRA.REPUL.0>
0

>  <SCORE.INTRA.SOLV>
-2.35946

>  <SCORE.INTRA.SOLV.lig_0>
-47.1049

>  <SCORE.INTRA.VDW>
-0.191084

>  <SCORE.INTRA.VDW.0>
-1.50278

>  <SCORE.INTRA.norm>
-0.0424782

>  <SCORE.RESTR>
0

>  <SCORE.RESTR.CAVITY>
0

>  <SCORE.RESTR.norm>
0

>  <SCORE.SYSTEM>
0

>  <SCORE.SYSTEM.CONST>
0

>  <SCORE.SYSTEM.DIHEDRAL>
0

>  <SCORE.SYSTEM.SOLV>
0

>  <SCORE.SYSTEM.norm>
0

>  <SCORE.heavy>
27

>  <SCORE.norm>
-0.574854

>  <RMSD>
12.642

$$$$
ligand
 OpenBabel11021811433D
libRbt.so/2013.1/901 2013/11/27
 27 29  0  0  0  0  0  0  0  0999 V2000
   56.3851   46.0350   22.2300 N   0  0  0  0  0  0  0  0  0  0  0  0
   55.6394   46.6148   21.1086 C   0  0  2  0  0  0  0  0  0  0  0  0
   56.3138   46.2359   19.8021 C   0  0  0  0  0  0  0  0  0  0  0  0
   57.5118   46.4536   19.6446 O   0  0  0  0  0  0  0  0  0  0  0  0
   55.5673   48.1497   21.2342 C   0  0  0  0  0  0  0  0  0  0  0  0
   54.8435   48.5141   22.5296 C   0  0  0  0  0  0  0  0  0  0  0  0
   54.1400   50.2131   22.5832 S   0  0  2  0  0  0  0  0  0  0  0  0
   55.5561   51.2910   22.2028 C   0  0  0  0  0  0  0  0  0  0  0  0
   54.0759   50.3342   24.3832 C   0  0  0  0  0  0  0  0  0  0  0  0
   53.3039   51.5625   24.8955 C   0  0  1  0  0  0  0  0  0  0  0  0
   53.4684   52.6582   23.9472 O   0  0  0  0  0  0  0  0  0  0  0  0
   51.8668   51.1241   24.7780 C   0  0  1  0  0  0  0  0  0  0  0  0
   51.4060   50.6323   26.0368 O   0  0  0  0  0  0  0  0  0  0  0  0
   51.1217   52.3985   24.4007 C   0  0  1  0  0  0  0  0  0  0  0  0
   50.5413   53.0355   25.5329 O   0  0  0  0  0  0  0  0  0  0  0  0
   52.1792   53.3398   23.7168 C   0  0  2  0  0  0  0  0  0  0  0  0
   55.6517   45.7689   18.8750 O   0  0  0  0  0  0  0  0  0  0  0  0
   49.7032   55.4014   19.5694 N   0  0  0  0  0  0  0  0  0  0  0  0
   49.4563   55.6252   20.8648 C   0  0  0  0  0  0  0  0  0  0  0  0
   50.1776   55.0473   21.8124 N   0  0  0  0  0  0  0  0  0  0  0  0
   51.1656   54.1876   21.5139 C   0  0  0  0  0  0  0  0  0  0  0  0
   51.4561   53.9070   20.1540 C   0  0  0  0  0  0  0  0  0  0  0  0
   50.6729   54.5621   19.1704 C   0  0  0  0  0  0  0  0  0  0  0  0
   50.8992   54.3415   17.8303 N   0  0  0  0  0  0  0  0  0  0  0  0
   52.4739   53.0233   20.1327 N   0  0  0  0  0  0  0  0  0  0  0  0
   52.8167   52.7393   21.3550 C   0  0  0  0  0  0  0  0  0  0  0  0
   52.0473   53.4322   22.2477 N   0  0  0  0  0  0  0  0  0  0  0  0
  2  1  1  1  0  0  0
  2  3  1  0  0  0  0
  2  5  1  0  0  0  0
  3  4  1  0  0  0  0
  3 17  1  0  0  0  0
  5  6  1  0  0  0  0
  7  6  1  1  0  0  0
  7  8  1  0  0  0  0
  7  9  1  0  0  0  0
 10  9  1  6  0  0  0
 10 11  1  0  0  0  0
 10 12  1  0  0  0  0
 11 16  1  0  0  0  0
 12 13  1  1  0  0  0
 12 14  1  0  0  0  0
 14 15  1  1  0  0  0
 14 16  1  0  0  0  0
 16 27  1  6  0  0  0
 18 19  2  0  0  0  0
 18 23  1  0  0  0  0
 19 20  1  0  0  0  0
 20 21  2  0  0  0  0
 21 22  1  0  0  0  0
 21 27  1  0  0  0  0
 22 23  2  0  0  0  0
 22 25  1  0  0  0  0
 23 24  1  0  0  0  0
 25 26  2  0  0  0  0
 26 27  1  0  0  0  0
M  END
>  <CHROM.1>
-52.72248241,-60.86288342,-159.37656175,-54.60164494,-170.18386090,-31.95961651
-166.66043149,53.09146855,51.21893536,22.02047105,0.03258967,-0.94478234
1.71021900

>  <Name>
ligand

>  <RI>
0

>  <Rbt.Current_Directory>
/home/itssahil/PROJECTS/Mol_Feturizer/New_Systems/rnas/2GIS

>  <Rbt.Executable>
rbdock ($Id: //depot/dev/client3/rdock/2013.1/src/exe/rbdock.cxx#4 $)

>  <Rbt.Library>
libRbt.so (2013.1, Build901 2013/11/27)

>  <Rbt.Parameter_File>
/export/apps/rDock/src/rDock_2013.1_src/data/scripts/dock_solv.prm

>  <Rbt.Receptor>
prm/blind_docking_100.prm

>  <SCORE>
-14.577

>  <SCORE.INTER>
-12.4372

>  <SCORE.INTER.CONST>
1

>  <SCORE.INTER.POLAR>
0

>  <SCORE.INTER.ROT>
7

>  <SCORE.INTER.SOLV>
13.1714

>  <SCORE.INTER.VDW>
-20.9486

>  <SCORE.INTER.norm>
-0.460638

>  <SCORE.INTRA>
-2.13978

>  <SCORE.INTRA.DIHEDRAL>
-1.17037

>  <SCORE.INTRA.DIHEDRAL.0>
9.40024

>  <SCORE.INTRA.POLAR>
0

>  <SCORE.INTRA.POLAR.0>
0

>  <SCORE.INTRA.REPUL>
0

>  <SCORE.INTRA.REPUL.0>
0

>  <SCORE.INTRA.SOLV>
-2.1787

>  <SCORE.INTRA.SOLV.lig_0>
-47.1049

>  <SCORE.INTRA.VDW>
-0.465243

>  <SCORE.INTRA.VDW.0>
-1.50278

>  <SCORE.INTRA.norm>
-0.0792511

>  <SCORE.RESTR>
0

>  <SCORE.RESTR.CAVITY>
0

>  <SCORE.RESTR.norm>
0

>  <SCORE.SYSTEM>
0

>  <SCORE.SYSTEM.CONST>
0

>  <SCORE.SYSTEM.DIHEDRAL>
0

>  <SCORE.SYSTEM.SOLV>
0

>  <SCORE.SYSTEM.norm>
0

>  <SCORE.heavy>
27

>  <SCORE.norm>
-0.539889

>  <RMSD>
12.650

$$$$
ligand
 OpenBabel11021811433D
libRbt.so/2013.1/901 2013/11/27
 27 29  0  0  0  0  0  0  0  0999 V2000
   53.0070   53.0419   21.4289 N   0  0  0  0  0  0  0  0  0  0  0  0
   52.7921   52.6919   22.8365 C   0  0  2  0  0  0  0  0  0  0  0  0
   52.9326   51.1904   23.0122 C   0  0  0  0  0  0  0  0  0  0  0  0
   52.7657   50.6840   24.1182 O   0  0  0  0  0  0  0  0  0  0  0  0
   51.3954   53.1452   23.3062 C   0  0  0  0  0  0  0  0  0  0  0  0
   51.3364   54.6720   23.3057 C   0  0  0  0  0  0  0  0  0  0  0  0
   49.9449   55.4030   24.2616 S   0  0  2  0  0  0  0  0  0  0  0  0
   49.9444   54.4720   25.8253 C   0  0  0  0  0  0  0  0  0  0  0  0
   48.6300   54.5665   23.3506 C   0  0  0  0  0  0  0  0  0  0  0  0
   48.0546   55.3959   22.1895 C   0  0  1  0  0  0  0  0  0  0  0  0
   49.1279   55.7178   21.2562 O   0  0  0  0  0  0  0  0  0  0  0  0
   47.1703   54.4036   21.4790 C   0  0  1  0  0  0  0  0  0  0  0  0
   45.8200   54.5579   21.9168 O   0  0  0  0  0  0  0  0  0  0  0  0
   47.2983   54.7818   20.0086 C   0  0  1  0  0  0  0  0  0  0  0  0
   46.2317   55.6177   19.5750 O   0  0  0  0  0  0  0  0  0  0  0  0
   48.6773   55.5231   19.8638 C   0  0  2  0  0  0  0  0  0  0  0  0
   53.2758   50.4844   22.0637 O   0  0  0  0  0  0  0  0  0  0  0  0
   52.6601   55.2621   16.4504 N   0  0  0  0  0  0  0  0  0  0  0  0
   51.8946   56.3212   16.7360 C   0  0  0  0  0  0  0  0  0  0  0  0
   50.9298   56.2490   17.6394 N   0  0  0  0  0  0  0  0  0  0  0  0
   50.6580   55.1018   18.2830 C   0  0  0  0  0  0  0  0  0  0  0  0
   51.4333   53.9471   18.0039 C   0  0  0  0  0  0  0  0  0  0  0  0
   52.4694   54.0727   17.0443 C   0  0  0  0  0  0  0  0  0  0  0  0
   53.2650   52.9955   16.7241 N   0  0  0  0  0  0  0  0  0  0  0  0
   50.9577   52.9462   18.7715 N   0  0  0  0  0  0  0  0  0  0  0  0
   49.9614   53.3901   19.4806 C   0  0  0  0  0  0  0  0  0  0  0  0
   49.7357   54.7138   19.2241 N   0  0  0  0  0  0  0  0  0  0  0  0
  2  1  1  6  0  0  0
  2  3  1  0  0  0  0
  2  5  1  0  0  0  0
  3  4  1  0  0  0  0
  3 17  1  0  0  0  0
  5  6  1  0  0  0  0
  7  6  1  6  0  0  0
  7  8  1  0  0  0  0
  7  9  1  0  0  0  0
 10  9  1  1  0  0  0
 10 11  1  0  0  0  0
 10 12  1  0  0  0  0
 11 16  1  0  0  0  0
 12 13  1  1  0  0  0
 12 14  1  0  0  0  0
 14 15  1  1  0  0  0
 14 16  1  0  0  0  0
 16 27  1  6  0  0  0
 18 19  2  0  0  0  0
 18 23  1  0  0  0  0
 19 20  1  0  0  0  0
 20 21  2  0  0  0  0
 21 22  1  0  0  0  0
 21 27  1  0  0  0  0
 22 23  2  0  0  0  0
 22 25  1  0  0  0  0
 23 24  1  0  0  0  0
 25 26  2  0  0  0  0
 26 27  1  0  0  0  0
M  END
>  <CHROM.1>
-178.70375219,-66.65750373,-163.76076337,45.48777162,-93.95357751,58.85603818
-108.60053889,50.39441668,54.16409985,20.93182048,-1.78353332,0.50717147
-1.32123575

>  <Name>
ligand

>  <RI>
0

>  <Rbt.Current_Directory>
/home/itssahil/PROJECTS/Mol_Feturizer/New_Systems/rnas/2GIS

>  <Rbt.Executable>
rbdock ($Id: //depot/dev/client3/rdock/2013.1/src/exe/rbdock.cxx#4 $)

>  <Rbt.Library>
libRbt.so (2013.1, Build901 2013/11/27)

>  <Rbt.Parameter_File>
/export/apps/rDock/src/rDock_2013.1_src/data/scripts/dock_solv.prm

>  <Rbt.Receptor>
prm/blind_docking_80.prm

>  <SCORE>
-15.3199

>  <SCORE.INTER>
-12.2407

>  <SCORE.INTER.CONST>
1

>  <SCORE.INTER.POLAR>
0

>  <SCORE.INTER.ROT>
7

>  <SCORE.INTER.SOLV>
10.5187

>  <SCORE.INTER.VDW>
-19.9333

>  <SCORE.INTER.norm>
-0.453358

>  <SCORE.INTRA>
-3.07922

>  <SCORE.INTRA.DIHEDRAL>
-3.13108

>  <SCORE.INTRA.DIHEDRAL.0>
9.40024

>  <SCORE.INTRA.POLAR>
0

>  <SCORE.INTRA.POLAR.0>
0

>  <SCORE.INTRA.REPUL>
0

>  <SCORE.INTRA.REPUL.0>
0

>  <SCORE.INTRA.SOLV>
-1.71885

>  <SCORE.INTRA.SOLV.lig_0>
-47.1049

>  <SCORE.INTRA.VDW>
-0.654255

>  <SCORE.INTRA.VDW.0>
-1.50278

>  <SCORE.INTRA.norm>
-0.114045

>  <SCORE.RESTR>
0

>  <SCORE.RESTR.CAVITY>
0

>  <SCORE.RESTR.norm>
0

>  <SCORE.SYSTEM>
0

>  <SCORE.SYSTEM.CONST>
0

>  <SCORE.SYSTEM.DIHEDRAL>
0

>  <SCORE.SYSTEM.SOLV>
0

>  <SCORE.SYSTEM.norm>
0

>  <SCORE.heavy>
27

>  <SCORE.norm>
-0.567403

>  <RMSD>
12.669

$$$$
ligand
 OpenBabel11021811433D
libRbt.so/2013.1/901 2013/11/27
 27 29  0  0  0  0  0  0  0  0999 V2000
   48.3460   54.9645   24.8119 N   0  0  0  0  0  0  0  0  0  0  0  0
   49.5462   54.8660   23.9754 C   0  0  2  0  0  0  0  0  0  0  0  0
   50.7649   55.2622   24.7897 C   0  0  0  0  0  0  0  0  0  0  0  0
   51.8748   55.2777   24.2648 O   0  0  0  0  0  0  0  0  0  0  0  0
   49.4264   55.7758   22.7366 C   0  0  0  0  0  0  0  0  0  0  0  0
   48.2885   55.2706   21.8508 C   0  0  0  0  0  0  0  0  0  0  0  0
   48.4617   53.5350   21.2660 S   0  0  2  0  0  0  0  0  0  0  0  0
   49.9113   53.5806   20.1666 C   0  0  0  0  0  0  0  0  0  0  0  0
   47.1092   53.6021   20.0722 C   0  0  0  0  0  0  0  0  0  0  0  0
   45.7489   53.9608   20.6950 C   0  0  1  0  0  0  0  0  0  0  0  0
   45.3700   55.3038   20.2710 O   0  0  0  0  0  0  0  0  0  0  0  0
   44.8036   53.0212   19.9915 C   0  0  1  0  0  0  0  0  0  0  0  0
   44.5776   51.8663   20.8000 O   0  0  0  0  0  0  0  0  0  0  0  0
   43.5193   53.8285   19.8480 C   0  0  1  0  0  0  0  0  0  0  0  0
   42.5871   53.5419   20.8840 O   0  0  0  0  0  0  0  0  0  0  0  0
   43.9445   55.3417   19.8884 C   0  0  2  0  0  0  0  0  0  0  0  0
   50.6552   55.5070   25.9913 O   0  0  0  0  0  0  0  0  0  0  0  0
   46.3071   58.5122   16.4318 N   0  0  0  0  0  0  0  0  0  0  0  0
   46.7506   58.1401   17.6376 C   0  0  0  0  0  0  0  0  0  0  0  0
   46.0540   57.3136   18.4019 N   0  0  0  0  0  0  0  0  0  0  0  0
   44.8587   56.8402   18.0128 C   0  0  0  0  0  0  0  0  0  0  0  0
   44.3394   57.2176   16.7478 C   0  0  0  0  0  0  0  0  0  0  0  0
   45.1262   58.0885   15.9524 C   0  0  0  0  0  0  0  0  0  0  0  0
   44.6883   58.4952   14.7121 N   0  0  0  0  0  0  0  0  0  0  0  0
   43.1418   56.6150   16.6070 N   0  0  0  0  0  0  0  0  0  0  0  0
   42.8884   55.9167   17.6750 C   0  0  0  0  0  0  0  0  0  0  0  0
   43.9147   56.0145   18.5729 N   0  0  0  0  0  0  0  0  0  0  0  0
  2  1  1  1  0  0  0
  2  3  1  0  0  0  0
  2  5  1  0  0  0  0
  3  4  1  0  0  0  0
  3 17  1  0  0  0  0
  5  6  1  0  0  0  0
  7  6  1  1  0  0  0
  7  8  1  0  0  0  0
  7  9  1  0  0  0  0
 10  9  1  6  0  0  0
 10 11  1  0  0  0  0
 10 12  1  0  0  0  0
 11 16  1  0  0  0  0
 12 13  1  1  0  0  0
 12 14  1  0  0  0  0
 14 15  1  1  0  0  0
 14 16  1  0  0  0  0
 16 27  1  6  0  0  0
 18 19  2  0  0  0  0
 18 23  1  0  0  0  0
 19 20  1  0  0  0  0
 20 21  2  0  0  0  0
 21 22  1  0  0  0  0
 21 27  1  0  0  0  0
 22 23  2  0  0  0  0
 22 25  1  0  0  0  0
 23 24  1  0  0  0  0
 25 26  2  0  0  0  0
 26 27  1  0  0  0  0
M  END
>  <CHROM.1>
-178.33533767,-64.98414515,-58.32233206,-66.13892577,-58.60314051,109.54239582
-20.88213286,46.55785142,55.31628493,20.26699596,0.76667764,0.49920488,2.32082016

>  <Name>
ligand

>  <RI>
0

>  <Rbt.Current_Directory>
/home/itssahil/PROJECTS/Mol_Feturizer/New_Systems/rnas/2GIS

>  <Rbt.Executable>
rbdock ($Id: //depot/dev/client3/rdock/2013.1/src/exe/rbdock.cxx#4 $)

>  <Rbt.Library>
libRbt.so (2013.1, Build901 2013/11/27)

>  <Rbt.Parameter_File>
/export/apps/rDock/src/rDock_2013.1_src/data/scripts/dock_solv.prm

>  <Rbt.Receptor>
prm/blind_docking_100.prm

>  <SCORE>
-22.5883

>  <SCORE.INTER>
-20.5929

>  <SCORE.INTER.CONST>
1

>  <SCORE.INTER.POLAR>
0

>  <SCORE.INTER.ROT>
7

>  <SCORE.INTER.SOLV>
12.8328

>  <SCORE.INTER.VDW>
-26.2728

>  <SCORE.INTER.norm>
-0.762698

>  <SCORE.INTRA>
-1.99549

>  <SCORE.INTRA.DIHEDRAL>
-1.25853

>  <SCORE.INTRA.DIHEDRAL.0>
9.40024

>  <SCORE.INTRA.POLAR>
0

>  <SCORE.INTRA.POLAR.0>
0

>  <SCORE.INTRA.REPUL>
0

>  <SCORE.INTRA.REPUL.0>
0

>  <SCORE.INTRA.SOLV>
-1.73561

>  <SCORE.INTRA.SOLV.lig_0>
-47.1049

>  <SCORE.INTRA.VDW>
-0.498414

>  <SCORE.INTRA.VDW.0>
-1.50278

>  <SCORE.INTRA.norm>
-0.0739069

>  <SCORE.RESTR>
0

>  <SCORE.RESTR.CAVITY>
0

>  <SCORE.RESTR.norm>
0

>  <SCORE.SYSTEM>
0

>  <SCORE.SYSTEM.CONST>
0

>  <SCORE.SYSTEM.DIHEDRAL>
0

>  <SCORE.SYSTEM.SOLV>
0

>  <SCORE.SYSTEM.norm>
0

>  <SCORE.heavy>
27

>  <SCORE.norm>
-0.836605

>  <RMSD>
12.673

$$$$
ligand
 OpenBabel11021811433D
libRbt.so/2013.1/901 2013/11/27
 27 29  0  0  0  0  0  0  0  0999 V2000
   49.1315   54.5328   25.6598 N   0  0  0  0  0  0  0  0  0  0  0  0
   48.2480   53.4113   25.3259 C   0  0  2  0  0  0  0  0  0  0  0  0
   48.4401   52.2964   26.3384 C   0  0  0  0  0  0  0  0  0  0  0  0
   47.5435   52.0287   27.1334 O   0  0  0  0  0  0  0  0  0  0  0  0
   48.5429   52.8859   23.9068 C   0  0  0  0  0  0  0  0  0  0  0  0
   47.9119   53.8270   22.8817 C   0  0  0  0  0  0  0  0  0  0  0  0
   47.9886   53.2501   21.1365 S   0  0  2  0  0  0  0  0  0  0  0  0
   49.6625   53.7107   20.5908 C   0  0  0  0  0  0  0  0  0  0  0  0
   47.0075   54.6001   20.4481 C   0  0  0  0  0  0  0  0  0  0  0  0
   45.5226   54.5552   20.8486 C   0  0  1  0  0  0  0  0  0  0  0  0
   44.8850   55.8064   20.4554 O   0  0  0  0  0  0  0  0  0  0  0  0
   44.9632   53.4981   19.9315 C   0  0  1  0  0  0  0  0  0  0  0  0
   44.9173   52.2429   20.6105 O   0  0  0  0  0  0  0  0  0  0  0  0
   43.5535   53.9864   19.6219 C   0  0  1  0  0  0  0  0  0  0  0  0
   42.5786   53.3764   20.4598 O   0  0  0  0  0  0  0  0  0  0  0  0
   43.5710   55.5440   19.8354 C   0  0  2  0  0  0  0  0  0  0  0  0
   49.5153   51.7007   26.4085 O   0  0  0  0  0  0  0  0  0  0  0  0
   46.1785   58.6634   16.5110 N   0  0  0  0  0  0  0  0  0  0  0  0
   46.6236   58.1320   17.6549 C   0  0  0  0  0  0  0  0  0  0  0  0
   45.8576   57.3415   18.3902 N   0  0  0  0  0  0  0  0  0  0  0  0
   44.5916   57.0663   18.0354 C   0  0  0  0  0  0  0  0  0  0  0  0
   44.0694   57.6181   16.8374 C   0  0  0  0  0  0  0  0  0  0  0  0
   44.9294   58.4432   16.0695 C   0  0  0  0  0  0  0  0  0  0  0  0
   44.4929   59.0111   14.8935 N   0  0  0  0  0  0  0  0  0  0  0  0
   42.7953   57.1939   16.7195 N   0  0  0  0  0  0  0  0  0  0  0  0
   42.4997   56.4447   17.7411 C   0  0  0  0  0  0  0  0  0  0  0  0
   43.5712   56.3271   18.5820 N   0  0  0  0  0  0  0  0  0  0  0  0
  2  1  1  1  0  0  0
  2  3  1  0  0  0  0
  2  5  1  0  0  0  0
  3  4  1  0  0  0  0
  3 17  1  0  0  0  0
  5  6  1  0  0  0  0
  7  6  1  1  0  0  0
  7  8  1  0  0  0  0
  7  9  1  0  0  0  0
 10  9  1  6  0  0  0
 10 11  1  0  0  0  0
 10 12  1  0  0  0  0
 11 16  1  0  0  0  0
 12 13  1  1  0  0  0
 12 14  1  0  0  0  0
 14 15  1  1  0  0  0
 14 16  1  0  0  0  0
 16 27  1  6  0  0  0
 18 19  2  0  0  0  0
 18 23  1  0  0  0  0
 19 20  1  0  0  0  0
 20 21  2  0  0  0  0
 21 22  1  0  0  0  0
 21 27  1  0  0  0  0
 22 23  2  0  0  0  0
 22 25  1  0  0  0  0
 23 24  1  0  0  0  0
 25 26  2  0  0  0  0
 26 27  1  0  0  0  0
M  END
>  <CHROM.1>
110.99851740,-77.82547890,-172.97054238,-81.71244508,-69.39835198,169.46826902
4.46012707,46.04789024,54.91373096,20.62220620,-1.12669186,-0.30728735,-0.89168660

>  <Name>
ligand

>  <RI>
0

>  <Rbt.Current_Directory>
/home/itssahil/PROJECTS/Mol_Feturizer/New_Systems/rnas/2GIS

>  <Rbt.Executable>
rbdock ($Id: //depot/dev/client3/rdock/2013.1/src/exe/rbdock.cxx#4 $)

>  <Rbt.Library>
libRbt.so (2013.1, Build901 2013/11/27)

>  <Rbt.Parameter_File>
/export/apps/rDock/src/rDock_2013.1_src/data/scripts/dock_solv.prm

>  <Rbt.Receptor>
prm/blind_docking_80.prm

>  <SCORE>
-22.5918

>  <SCORE.INTER>
-18.3386

>  <SCORE.INTER.CONST>
1

>  <SCORE.INTER.POLAR>
0

>  <SCORE.INTER.ROT>
7

>  <SCORE.INTER.SOLV>
9.78471

>  <SCORE.INTER.VDW>
-23.754

>  <SCORE.INTER.norm>
-0.679208

>  <SCORE.INTRA>
-4.28324

>  <SCORE.INTRA.DIHEDRAL>
-4.00986

>  <SCORE.INTRA.DIHEDRAL.0>
9.40024

>  <SCORE.INTRA.POLAR>
0

>  <SCORE.INTRA.POLAR.0>
0

>  <SCORE.INTRA.REPUL>
0

>  <SCORE.INTRA.REPUL.0>
0

>  <SCORE.INTRA.SOLV>
-2.3329

>  <SCORE.INTRA.SOLV.lig_0>
-47.1049

>  <SCORE.INTRA.VDW>
-1.11186

>  <SCORE.INTRA.VDW.0>
-1.50278

>  <SCORE.INTRA.norm>
-0.158638

>  <SCORE.RESTR>
0.0300759

>  <SCORE.RESTR.CAVITY>
0.0300759

>  <SCORE.RESTR.norm>
0.00111392

>  <SCORE.SYSTEM>
0

>  <SCORE.SYSTEM.CONST>
0

>  <SCORE.SYSTEM.DIHEDRAL>
0

>  <SCORE.SYSTEM.SOLV>
0

>  <SCORE.SYSTEM.norm>
0

>  <SCORE.heavy>
27

>  <SCORE.norm>
-0.836732

>  <RMSD>
12.716

$$$$
ligand
 OpenBabel11021811433D
libRbt.so/2013.1/901 2013/11/27
 27 29  0  0  0  0  0  0  0  0999 V2000
   53.3119   54.2360   22.8449 N   0  0  0  0  0  0  0  0  0  0  0  0
   52.0270   53.6317   22.4794 C   0  0  2  0  0  0  0  0  0  0  0  0
   52.0797   52.1361   22.7353 C   0  0  0  0  0  0  0  0  0  0  0  0
   52.6565   51.3980   21.9416 O   0  0  0  0  0  0  0  0  0  0  0  0
   51.6991   53.8976   20.9966 C   0  0  0  0  0  0  0  0  0  0  0  0
   50.2937   53.3807   20.6926 C   0  0  0  0  0  0  0  0  0  0  0  0
   48.9215   54.3674   21.4190 S   0  0  2  0  0  0  0  0  0  0  0  0
   48.8323   53.7984   23.1453 C   0  0  0  0  0  0  0  0  0  0  0  0
   47.5852   53.4176   20.6633 C   0  0  0  0  0  0  0  0  0  0  0  0
   46.1797   53.8801   21.0847 C   0  0  1  0  0  0  0  0  0  0  0  0
   46.0503   55.3092   20.8247 O   0  0  0  0  0  0  0  0  0  0  0  0
   45.2894   53.1932   20.0812 C   0  0  1  0  0  0  0  0  0  0  0  0
   44.7759   51.9828   20.6379 O   0  0  0  0  0  0  0  0  0  0  0  0
   44.1612   54.1899   19.8455 C   0  0  1  0  0  0  0  0  0  0  0  0
   43.0160   53.9010   20.6389 O   0  0  0  0  0  0  0  0  0  0  0  0
   44.7427   55.6054   20.2065 C   0  0  2  0  0  0  0  0  0  0  0  0
   51.4922   51.6512   23.7026 O   0  0  0  0  0  0  0  0  0  0  0  0
   42.9930   58.3214   16.0660 N   0  0  0  0  0  0  0  0  0  0  0  0
   42.2722   57.6295   16.9553 C   0  0  0  0  0  0  0  0  0  0  0  0
   42.8480   57.0028   17.9692 N   0  0  0  0  0  0  0  0  0  0  0  0
   44.1817   57.0082   18.1289 C   0  0  0  0  0  0  0  0  0  0  0  0
   44.9902   57.7165   17.2032 C   0  0  0  0  0  0  0  0  0  0  0  0
   44.3321   58.3903   16.1434 C   0  0  0  0  0  0  0  0  0  0  0  0
   45.0511   59.1009   15.2086 N   0  0  0  0  0  0  0  0  0  0  0  0
   46.2733   57.5600   17.5855 N   0  0  0  0  0  0  0  0  0  0  0  0
   46.3121   56.8151   18.6513 C   0  0  0  0  0  0  0  0  0  0  0  0
   45.0513   56.4504   19.0340 N   0  0  0  0  0  0  0  0  0  0  0  0
  2  1  1  6  0  0  0
  2  3  1  0  0  0  0
  2  5  1  0  0  0  0
  3  4  1  0  0  0  0
  3 17  1  0  0  0  0
  5  6  1  0  0  0  0
  7  6  1  6  0  0  0
  7  8  1  0  0  0  0
  7  9  1  0  0  0  0
 10  9  1  6  0  0  0
 10 11  1  0  0  0  0
 10 12  1  0  0  0  0
 11 16  1  0  0  0  0
 12 13  1  1  0  0  0
 12 14  1  0  0  0  0
 14 15  1  1  0  0  0
 14 16  1  0  0  0  0
 16 27  1  6  0  0  0
 18 19  2  0  0  0  0
 18 23  1  0  0  0  0
 19 20  1  0  0  0  0
 20 21  2  0  0  0  0
 21 22  1  0  0  0  0
 21 27  1  0  0  0  0
 22 23  2  0  0  0  0
 22 25  1  0  0  0  0
 23 24  1  0  0  0  0
 25 26  2  0  0  0  0
 26 27  1  0  0  0  0
M  END
>  <CHROM.1>
-78.03100727,-174.18587710,71.67534632,-80.71438057,176.85604795,54.09709860
-179.21002647,47.09929002,54.90911758,20.04451893,-0.71516289,-0.11688949
-0.71002881

>  <Name>
ligand

>  <RI>
0

>  <Rbt.Current_Directory>
/home/itssahil/PROJECTS/Mol_Feturizer/New_Systems/rnas/2GIS

>  <Rbt.Executable>
rbdock ($Id: //depot/dev/client3/rdock/2013.1/src/exe/rbdock.cxx#4 $)

>  <Rbt.Library>
libRbt.so (2013.1, Build901 2013/11/27)

>  <Rbt.Parameter_File>
/export/apps/rDock/src/rDock_2013.1_src/data/scripts/dock_solv.prm

>  <Rbt.Receptor>
prm/blind_docking_80.prm

>  <SCORE>
-22.0081

>  <SCORE.INTER>
-17.5727

>  <SCORE.INTER.CONST>
1

>  <SCORE.INTER.POLAR>
0

>  <SCORE.INTER.ROT>
7

>  <SCORE.INTER.SOLV>
9.78713

>  <SCORE.INTER.VDW>
-23.2442

>  <SCORE.INTER.norm>
-0.650842

>  <SCORE.INTRA>
-4.43535

>  <SCORE.INTRA.DIHEDRAL>
-4.89212

>  <SCORE.INTRA.DIHEDRAL.0>
9.40024

>  <SCORE.INTRA.POLAR>
0

>  <SCORE.INTRA.POLAR.0>
0

>  <SCORE.INTRA.REPUL>
0

>  <SCORE.INTRA.REPUL.0>
0

>  <SCORE.INTRA.SOLV>
-2.86463

>  <SCORE.INTRA.SOLV.lig_0>
-47.1049

>  <SCORE.INTRA.VDW>
-0.556969

>  <SCORE.INTRA.VDW.0>
-1.50278

>  <SCORE.INTRA.norm>
-0.164272

>  <SCORE.RESTR>
0

>  <SCORE.RESTR.CAVITY>
0

>  <SCORE.RESTR.norm>
0

>  <SCORE.SYSTEM>
0

>  <SCORE.SYSTEM.CONST>
0

>  <SCORE.SYSTEM.DIHEDRAL>
0

>  <SCORE.SYSTEM.SOLV>
0

>  <SCORE.SYSTEM.norm>
0

>  <SCORE.heavy>
27

>  <SCORE.norm>
-0.815115

>  <RMSD>
12.759

$$$$
ligand
 OpenBabel11021811433D
libRbt.so/2013.1/901 2013/11/27
 27 29  0  0  0  0  0  0  0  0999 V2000
   49.6828   55.5946   25.0307 N   0  0  0  0  0  0  0  0  0  0  0  0
   49.0153   54.4218   24.4572 C   0  0  2  0  0  0  0  0  0  0  0  0
   49.7851   53.1677   24.8311 C   0  0  0  0  0  0  0  0  0  0  0  0
   49.1813   52.1653   25.2028 O   0  0  0  0  0  0  0  0  0  0  0  0
   48.9221   54.5407   22.9229 C   0  0  0  0  0  0  0  0  0  0  0  0
   48.1388   53.3493   22.3736 C   0  0  0  0  0  0  0  0  0  0  0  0
   48.0663   53.2377   20.5388 S   0  0  2  0  0  0  0  0  0  0  0  0
   49.7259   53.7525   19.9977 C   0  0  0  0  0  0  0  0  0  0  0  0
   47.1260   54.7590   20.2940 C   0  0  0  0  0  0  0  0  0  0  0  0
   45.6635   54.6670   20.7630 C   0  0  1  0  0  0  0  0  0  0  0  0
   44.9774   55.9102   20.4306 O   0  0  0  0  0  0  0  0  0  0  0  0
   45.0870   53.6173   19.8481 C   0  0  1  0  0  0  0  0  0  0  0  0
   45.1042   52.3461   20.4980 O   0  0  0  0  0  0  0  0  0  0  0  0
   43.6525   54.0763   19.6172 C   0  0  1  0  0  0  0  0  0  0  0  0
   42.7340   53.4226   20.4852 O   0  0  0  0  0  0  0  0  0  0  0  0
   43.6421   55.6286   19.8672 C   0  0  2  0  0  0  0  0  0  0  0  0
   51.0163   53.1705   24.8242 O   0  0  0  0  0  0  0  0  0  0  0  0
   46.1002   58.6092   16.3097 N   0  0  0  0  0  0  0  0  0  0  0  0
   46.6281   58.0154   17.3857 C   0  0  0  0  0  0  0  0  0  0  0  0
   45.8887   57.2712   18.1930 N   0  0  0  0  0  0  0  0  0  0  0  0
   44.5719   57.1079   17.9840 C   0  0  0  0  0  0  0  0  0  0  0  0
   43.9631   57.7295   16.8636 C   0  0  0  0  0  0  0  0  0  0  0  0
   44.7946   58.5014   16.0134 C   0  0  0  0  0  0  0  0  0  0  0  0
   44.2746   59.1316   14.9052 N   0  0  0  0  0  0  0  0  0  0  0  0
   42.6531   57.4125   16.8885 N   0  0  0  0  0  0  0  0  0  0  0  0
   42.4157   56.6645   17.9260 C   0  0  0  0  0  0  0  0  0  0  0  0
   43.5632   56.4400   18.6344 N   0  0  0  0  0  0  0  0  0  0  0  0
  2  1  1  6  0  0  0
  2  3  1  0  0  0  0
  2  5  1  0  0  0  0
  3  4  1  0  0  0  0
  3 17  1  0  0  0  0
  5  6  1  0  0  0  0
  7  6  1  1  0  0  0
  7  8  1  0  0  0  0
  7  9  1  0  0  0  0
 10  9  1  6  0  0  0
 10 11  1  0  0  0  0
 10 12  1  0  0  0  0
 11 16  1  0  0  0  0
 12 13  1  1  0  0  0
 12 14  1  0  0  0  0
 14 15  1  1  0  0  0
 14 16  1  0  0  0  0
 16 27  1  6  0  0  0
 18 19  2  0  0  0  0
 18 23  1  0  0  0  0
 19 20  1  0  0  0  0
 20 21  2  0  0  0  0
 21 22  1  0  0  0  0
 21 27  1  0  0  0  0
 22 23  2  0  0  0  0
 22 25  1  0  0  0  0
 23 24  1  0  0  0  0
 25 26  2  0  0  0  0
 26 27  1  0  0  0  0
M  END
>  <CHROM.1>
136.44066461,-176.18843327,-174.33347286,38.69348050,-70.41082650,-175.92393643
11.74890829,46.30509203,55.17209717,20.22879090,-0.93690833,-0.35084240,-0.78168651

>  <Name>
ligand

>  <RI>
0

>  <Rbt.Current_Directory>
/home/itssahil/PROJECTS/Mol_Feturizer/New_Systems/rnas/2GIS

>  <Rbt.Executable>
rbdock ($Id: //depot/dev/client3/rdock/2013.1/src/exe/rbdock.cxx#4 $)

>  <Rbt.Library>
libRbt.so (2013.1, Build901 2013/11/27)

>  <Rbt.Parameter_File>
/export/apps/rDock/src/rDock_2013.1_src/data/scripts/dock_solv.prm

>  <Rbt.Receptor>
prm/blind_docking_80.prm

>  <SCORE>
-19.315

>  <SCORE.INTER>
-15.3898

>  <SCORE.INTER.CONST>
1

>  <SCORE.INTER.POLAR>
0

>  <SCORE.INTER.ROT>
7

>  <SCORE.INTER.SOLV>
12.6152

>  <SCORE.INTER.VDW>
-22.7316

>  <SCORE.INTER.norm>
-0.569993

>  <SCORE.INTRA>
-3.92521

>  <SCORE.INTRA.DIHEDRAL>
-5.34569

>  <SCORE.INTRA.DIHEDRAL.0>
9.40024

>  <SCORE.INTRA.POLAR>
0

>  <SCORE.INTRA.POLAR.0>
0

>  <SCORE.INTRA.REPUL>
0

>  <SCORE.INTRA.REPUL.0>
0

>  <SCORE.INTRA.SOLV>
-2.78321

>  <SCORE.INTRA.SOLV.lig_0>
-47.1049

>  <SCORE.INTRA.VDW>
0.139243

>  <SCORE.INTRA.VDW.0>
-1.50278

>  <SCORE.INTRA.norm>
-0.145378

>  <SCORE.RESTR>
0

>  <SCORE.RESTR.CAVITY>
0

>  <SCORE.RESTR.norm>
0

>  <SCORE.SYSTEM>
0

>  <SCORE.SYSTEM.CONST>
0

>  <SCORE.SYSTEM.DIHEDRAL>
0

>  <SCORE.SYSTEM.SOLV>
0

>  <SCORE.SYSTEM.norm>
0

>  <SCORE.heavy>
27

>  <SCORE.norm>
-0.715371

>  <RMSD>
12.771

$$$$
ligand
 OpenBabel11021811433D
libRbt.so/2013.1/901 2013/11/27
 27 29  0  0  0  0  0  0  0  0999 V2000
   48.2277   54.4925   25.4202 N   0  0  0  0  0  0  0  0  0  0  0  0
   48.0418   53.1719   24.8108 C   0  0  2  0  0  0  0  0  0  0  0  0
   48.6042   52.1049   25.7332 C   0  0  0  0  0  0  0  0  0  0  0  0
   48.9789   52.4062   26.8629 O   0  0  0  0  0  0  0  0  0  0  0  0
   48.7410   53.0988   23.4387 C   0  0  0  0  0  0  0  0  0  0  0  0
   48.0396   54.0463   22.4667 C   0  0  0  0  0  0  0  0  0  0  0  0
   48.4678   53.8082   20.6935 S   0  0  2  0  0  0  0  0  0  0  0  0
   48.2670   55.4631   19.9632 C   0  0  0  0  0  0  0  0  0  0  0  0
   46.9105   53.0236   20.2268 C   0  0  0  0  0  0  0  0  0  0  0  0
   45.6698   53.6893   20.8470 C   0  0  1  0  0  0  0  0  0  0  0  0
   45.4730   54.9969   20.2320 O   0  0  0  0  0  0  0  0  0  0  0  0
   44.5430   52.8218   20.3477 C   0  0  1  0  0  0  0  0  0  0  0  0
   44.2004   51.8542   21.3401 O   0  0  0  0  0  0  0  0  0  0  0  0
   43.3916   53.7973   20.1371 C   0  0  1  0  0  0  0  0  0  0  0  0
   42.5030   53.8258   21.2480 O   0  0  0  0  0  0  0  0  0  0  0  0
   44.0467   55.2093   19.9152 C   0  0  2  0  0  0  0  0  0  0  0  0
   48.7456   50.9497   25.3315 O   0  0  0  0  0  0  0  0  0  0  0  0
   46.1210   58.2700   16.1855 N   0  0  0  0  0  0  0  0  0  0  0  0
   46.5010   58.1652   17.4636 C   0  0  0  0  0  0  0  0  0  0  0  0
   45.8953   57.3323   18.2953 N   0  0  0  0  0  0  0  0  0  0  0  0
   44.8537   56.5821   17.8994 C   0  0  0  0  0  0  0  0  0  0  0  0
   44.4047   56.6687   16.5566 C   0  0  0  0  0  0  0  0  0  0  0  0
   45.0936   57.5582   15.6939 C   0  0  0  0  0  0  0  0  0  0  0  0
   44.7162   57.6929   14.3766 N   0  0  0  0  0  0  0  0  0  0  0  0
   43.3596   55.8274   16.4253 N   0  0  0  0  0  0  0  0  0  0  0  0
   43.1326   55.2489   17.5682 C   0  0  0  0  0  0  0  0  0  0  0  0
   44.0267   55.6723   18.5118 N   0  0  0  0  0  0  0  0  0  0  0  0
  2  1  1  1  0  0  0
  2  3  1  0  0  0  0
  2  5  1  0  0  0  0
  3  4  1  0  0  0  0
  3 17  1  0  0  0  0
  5  6  1  0  0  0  0
  7  6  1  1  0  0  0
  7  8  1  0  0  0  0
  7  9  1  0  0  0  0
 10  9  1  6  0  0  0
 10 11  1  0  0  0  0
 10 12  1  0  0  0  0
 11 16  1  0  0  0  0
 12 13  1  1  0  0  0
 12 14  1  0  0  0  0
 14 15  1  1  0  0  0
 14 16  1  0  0  0  0
 16 27  1  6  0  0  0
 18 19  2  0  0  0  0
 18 23  1  0  0  0  0
 19 20  1  0  0  0  0
 20 21  2  0  0  0  0
 21 22  1  0  0  0  0
 21 27  1  0  0  0  0
 22 23  2  0  0  0  0
 22 25  1  0  0  0  0
 23 24  1  0  0  0  0
 25 26  2  0  0  0  0
 26 27  1  0  0  0  0
M  END
>  <CHROM.1>
8.02210697,-66.45674852,-166.13253885,-150.81486513,42.16627202,69.97953010
-42.82603137,46.11075195,54.61435282,20.42676618,-1.15698940,-0.35368400
-0.93384394

>  <Name>
ligand

>  <RI>
0

>  <Rbt.Current_Directory>
/home/itssahil/PROJECTS/Mol_Feturizer/New_Systems/rnas/2GIS

>  <Rbt.Executable>
rbdock ($Id: //depot/dev/client3/rdock/2013.1/src/exe/rbdock.cxx#4 $)

>  <Rbt.Library>
libRbt.so (2013.1, Build901 2013/11/27)

>  <Rbt.Parameter_File>
/export/apps/rDock/src/rDock_2013.1_src/data/scripts/dock_solv.prm

>  <Rbt.Receptor>
prm/blind_docking_80.prm

>  <SCORE>
-21.6034

>  <SCORE.INTER>
-20.6003

>  <SCORE.INTER.CONST>
1

>  <SCORE.INTER.POLAR>
0

>  <SCORE.INTER.ROT>
7

>  <SCORE.INTER.SOLV>
14.4716

>  <SCORE.INTER.VDW>
-26.8241

>  <SCORE.INTER.norm>
-0.762976

>  <SCORE.INTRA>
-1.00302

>  <SCORE.INTRA.DIHEDRAL>
-1.58988

>  <SCORE.INTRA.DIHEDRAL.0>
9.40024

>  <SCORE.INTRA.POLAR>
0

>  <SCORE.INTRA.POLAR.0>
0

>  <SCORE.INTRA.REPUL>
0

>  <SCORE.INTRA.REPUL.0>
0

>  <SCORE.INTRA.SOLV>
-2.26849

>  <SCORE.INTRA.SOLV.lig_0>
-47.1049

>  <SCORE.INTRA.VDW>
0.926159

>  <SCORE.INTRA.VDW.0>
-1.50278

>  <SCORE.INTRA.norm>
-0.0371491

>  <SCORE.RESTR>
0

>  <SCORE.RESTR.CAVITY>
0

>  <SCORE.RESTR.norm>
0

>  <SCORE.SYSTEM>
0

>  <SCORE.SYSTEM.CONST>
0

>  <SCORE.SYSTEM.DIHEDRAL>
0

>  <SCORE.SYSTEM.SOLV>
0

>  <SCORE.SYSTEM.norm>
0

>  <SCORE.heavy>
27

>  <SCORE.norm>
-0.800125

>  <RMSD>
12.828

$$$$
ligand
 OpenBabel11021811433D
libRbt.so/2013.1/901 2013/11/27
 27 29  0  0  0  0  0  0  0  0999 V2000
   47.4072   53.6213   27.1261 N   0  0  0  0  0  0  0  0  0  0  0  0
   48.1485   53.4321   25.8753 C   0  0  2  0  0  0  0  0  0  0  0  0
   47.1745   53.1334   24.7495 C   0  0  0  0  0  0  0  0  0  0  0  0
   47.4351   53.4873   23.6030 O   0  0  0  0  0  0  0  0  0  0  0  0
   49.1629   52.2789   26.0092 C   0  0  0  0  0  0  0  0  0  0  0  0
   50.1032   52.2947   24.8049 C   0  0  0  0  0  0  0  0  0  0  0  0
   51.5740   51.1985   24.9443 S   0  0  2  0  0  0  0  0  0  0  0  0
   52.6138   52.0097   26.1984 C   0  0  0  0  0  0  0  0  0  0  0  0
   52.3652   51.7491   23.4179 C   0  0  0  0  0  0  0  0  0  0  0  0
   53.4489   50.7882   22.8990 C   0  0  1  0  0  0  0  0  0  0  0  0
   53.4267   50.7876   21.4408 O   0  0  0  0  0  0  0  0  0  0  0  0
   54.7262   51.4836   23.2945 C   0  0  1  0  0  0  0  0  0  0  0  0
   55.2075   50.9480   24.5275 O   0  0  0  0  0  0  0  0  0  0  0  0
   55.6906   51.1569   22.1610 C   0  0  1  0  0  0  0  0  0  0  0  0
   56.5278   50.0491   22.4718 O   0  0  0  0  0  0  0  0  0  0  0  0
   54.8007   50.8433   20.9033 C   0  0  2  0  0  0  0  0  0  0  0  0
   46.0945   52.5939   24.9906 O   0  0  0  0  0  0  0  0  0  0  0  0
   53.0489   52.5999   16.2744 N   0  0  0  0  0  0  0  0  0  0  0  0
   52.7834   51.4262   16.8584 C   0  0  0  0  0  0  0  0  0  0  0  0
   53.2822   51.1202   18.0458 N   0  0  0  0  0  0  0  0  0  0  0  0
   54.1012   51.9611   18.6987 C   0  0  0  0  0  0  0  0  0  0  0  0
   54.4238   53.2124   18.1135 C   0  0  0  0  0  0  0  0  0  0  0  0
   53.8527   53.5089   16.8501 C   0  0  0  0  0  0  0  0  0  0  0  0
   54.1180   54.7052   16.2224 N   0  0  0  0  0  0  0  0  0  0  0  0
   55.2534   53.8527   18.9613 N   0  0  0  0  0  0  0  0  0  0  0  0
   55.4671   53.0980   19.9991 C   0  0  0  0  0  0  0  0  0  0  0  0
   54.7778   51.9220   19.8934 N   0  0  0  0  0  0  0  0  0  0  0  0
  2  1  1  1  0  0  0
  2  3  1  0  0  0  0
  2  5  1  0  0  0  0
  3  4  1  0  0  0  0
  3 17  1  0  0  0  0
  5  6  1  0  0  0  0
  7  6  1  6  0  0  0
  7  8  1  0  0  0  0
  7  9  1  0  0  0  0
 10  9  1  1  0  0  0
 10 11  1  0  0  0  0
 10 12  1  0  0  0  0
 11 16  1  0  0  0  0
 12 13  1  1  0  0  0
 12 14  1  0  0  0  0
 14 15  1  1  0  0  0
 14 16  1  0  0  0  0
 16 27  1  6  0  0  0
 18 19  2  0  0  0  0
 18 23  1  0  0  0  0
 19 20  1  0  0  0  0
 20 21  2  0  0  0  0
 21 22  1  0  0  0  0
 21 27  1  0  0  0  0
 22 23  2  0  0  0  0
 22 25  1  0  0  0  0
 23 24  1  0  0  0  0
 25 26  2  0  0  0  0
 26 27  1  0  0  0  0
M  END
>  <CHROM.1>
148.99990556,-168.59048704,168.85497395,-70.65572511,-162.43574836,144.81771166
-66.27838590,52.39510368,52.12451497,22.08868269,2.30380912,-0.31624254,1.81187527

>  <Name>
ligand

>  <RI>
0

>  <Rbt.Current_Directory>
/home/itssahil/PROJECTS/Mol_Feturizer/New_Systems/rnas/2GIS

>  <Rbt.Executable>
rbdock ($Id: //depot/dev/client3/rdock/2013.1/src/exe/rbdock.cxx#4 $)

>  <Rbt.Library>
libRbt.so (2013.1, Build901 2013/11/27)

>  <Rbt.Parameter_File>
/export/apps/rDock/src/rDock_2013.1_src/data/scripts/dock_solv.prm

>  <Rbt.Receptor>
prm/blind_docking_100.prm

>  <SCORE>
-15.1965

>  <SCORE.INTER>
-13.2545

>  <SCORE.INTER.CONST>
1

>  <SCORE.INTER.POLAR>
0

>  <SCORE.INTER.ROT>
7

>  <SCORE.INTER.SOLV>
10.0958

>  <SCORE.INTER.VDW>
-20.4683

>  <SCORE.INTER.norm>
-0.490908

>  <SCORE.INTRA>
-2.35341

>  <SCORE.INTRA.DIHEDRAL>
-0.371444

>  <SCORE.INTRA.DIHEDRAL.0>
9.40024

>  <SCORE.INTRA.POLAR>
0

>  <SCORE.INTRA.POLAR.0>
0

>  <SCORE.INTRA.REPUL>
0

>  <SCORE.INTRA.REPUL.0>
0

>  <SCORE.INTRA.SOLV>
-2.89724

>  <SCORE.INTRA.SOLV.lig_0>
-47.1049

>  <SCORE.INTRA.VDW>
-0.719063

>  <SCORE.INTRA.VDW.0>
-1.50278

>  <SCORE.INTRA.norm>
-0.0871632

>  <SCORE.RESTR>
0.411419

>  <SCORE.RESTR.CAVITY>
0.411419

>  <SCORE.RESTR.norm>
0.0152377

>  <SCORE.SYSTEM>
0

>  <SCORE.SYSTEM.CONST>
0

>  <SCORE.SYSTEM.DIHEDRAL>
0

>  <SCORE.SYSTEM.SOLV>
0

>  <SCORE.SYSTEM.norm>
0

>  <SCORE.heavy>
27

>  <SCORE.norm>
-0.562834

>  <RMSD>
12.894

$$$$
ligand
 OpenBabel11021811433D
libRbt.so/2013.1/901 2013/11/27
 27 29  0  0  0  0  0  0  0  0999 V2000
   51.4384   53.8576   24.7316 N   0  0  0  0  0  0  0  0  0  0  0  0
   50.6463   54.8358   23.9795 C   0  0  2  0  0  0  0  0  0  0  0  0
   49.4045   55.1998   24.7736 C   0  0  0  0  0  0  0  0  0  0  0  0
   49.0872   56.3780   24.9100 O   0  0  0  0  0  0  0  0  0  0  0  0
   50.2405   54.2701   22.6039 C   0  0  0  0  0  0  0  0  0  0  0  0
   49.8804   55.4262   21.6720 C   0  0  0  0  0  0  0  0  0  0  0  0
   48.8900   54.9615   20.1930 S   0  0  2  0  0  0  0  0  0  0  0  0
   47.4808   54.0349   20.8769 C   0  0  0  0  0  0  0  0  0  0  0  0
   49.9705   53.6184   19.6566 C   0  0  0  0  0  0  0  0  0  0  0  0
   51.1847   54.0884   18.8369 C   0  0  1  0  0  0  0  0  0  0  0  0
   52.3629   54.1030   19.6962 O   0  0  0  0  0  0  0  0  0  0  0  0
   51.3913   52.9523   17.8684 C   0  0  1  0  0  0  0  0  0  0  0  0
   50.7603   53.2558   16.6241 O   0  0  0  0  0  0  0  0  0  0  0  0
   52.9036   52.8856   17.6948 C   0  0  1  0  0  0  0  0  0  0  0  0
   53.3414   53.5831   16.5344 O   0  0  0  0  0  0  0  0  0  0  0  0
   53.5235   53.5233   18.9914 C   0  0  2  0  0  0  0  0  0  0  0  0
   48.7484   54.3226   25.3357 O   0  0  0  0  0  0  0  0  0  0  0  0
   52.9944   50.7159   23.3982 N   0  0  0  0  0  0  0  0  0  0  0  0
   52.1216   51.5795   22.8679 C   0  0  0  0  0  0  0  0  0  0  0  0
   52.3798   52.2085   21.7321 N   0  0  0  0  0  0  0  0  0  0  0  0
   53.5418   52.0307   21.0821 C   0  0  0  0  0  0  0  0  0  0  0  0
   54.5056   51.1353   21.6127 C   0  0  0  0  0  0  0  0  0  0  0  0
   54.1811   50.4673   22.8204 C   0  0  0  0  0  0  0  0  0  0  0  0
   55.0660   49.5813   23.3930 N   0  0  0  0  0  0  0  0  0  0  0  0
   55.5662   51.1444   20.7806 N   0  0  0  0  0  0  0  0  0  0  0  0
   55.3330   51.9699   19.8027 C   0  0  0  0  0  0  0  0  0  0  0  0
   54.0977   52.5408   19.9344 N   0  0  0  0  0  0  0  0  0  0  0  0
  2  1  1  1  0  0  0
  2  3  1  0  0  0  0
  2  5  1  0  0  0  0
  3  4  1  0  0  0  0
  3 17  1  0  0  0  0
  5  6  1  0  0  0  0
  7  6  1  1  0  0  0
  7  8  1  0  0  0  0
  7  9  1  0  0  0  0
 10  9  1  1  0  0  0
 10 11  1  0  0  0  0
 10 12  1  0  0  0  0
 11 16  1  0  0  0  0
 12 13  1  6  0  0  0
 12 14  1  0  0  0  0
 14 15  1  6  0  0  0
 14 16  1  0  0  0  0
 16 27  1  1  0  0  0
 18 19  2  0  0  0  0
 18 23  1  0  0  0  0
 19 20  1  0  0  0  0
 20 21  2  0  0  0  0
 21 22  1  0  0  0  0
 21 27  1  0  0  0  0
 22 23  2  0  0  0  0
 22 25  1  0  0  0  0
 23 24  1  0  0  0  0
 25 26  2  0  0  0  0
 26 27  1  0  0  0  0
M  END
>  <CHROM.1>
132.92769239,-159.72690134,-161.79939882,52.38125473,-82.68140941,101.28106225
13.46610402,51.67338318,53.27965234,21.13030251,-2.57271285,0.61126015,-1.47038627

>  <Name>
ligand

>  <RI>
0

>  <Rbt.Current_Directory>
/home/itssahil/PROJECTS/Mol_Feturizer/New_Systems/rnas/2GIS

>  <Rbt.Executable>
rbdock ($Id: //depot/dev/client3/rdock/2013.1/src/exe/rbdock.cxx#4 $)

>  <Rbt.Library>
libRbt.so (2013.1, Build901 2013/11/27)

>  <Rbt.Parameter_File>
/export/apps/rDock/src/rDock_2013.1_src/data/scripts/dock_solv.prm

>  <Rbt.Receptor>
prm/blind_docking_80.prm

>  <SCORE>
-15.7077

>  <SCORE.INTER>
-13.7305

>  <SCORE.INTER.CONST>
1

>  <SCORE.INTER.POLAR>
0

>  <SCORE.INTER.ROT>
7

>  <SCORE.INTER.SOLV>
6.99327

>  <SCORE.INTER.VDW>
-19.7514

>  <SCORE.INTER.norm>
-0.508535

>  <SCORE.INTRA>
-1.97725

>  <SCORE.INTRA.DIHEDRAL>
1.15605

>  <SCORE.INTRA.DIHEDRAL.0>
9.40024

>  <SCORE.INTRA.POLAR>
0

>  <SCORE.INTRA.POLAR.0>
0

>  <SCORE.INTRA.REPUL>
0

>  <SCORE.INTRA.REPUL.0>
0

>  <SCORE.INTRA.SOLV>
-1.97776

>  <SCORE.INTRA.SOLV.lig_0>
-47.1049

>  <SCORE.INTRA.VDW>
-1.5664

>  <SCORE.INTRA.VDW.0>
-1.50278

>  <SCORE.INTRA.norm>
-0.0732316

>  <SCORE.RESTR>
0

>  <SCORE.RESTR.CAVITY>
0

>  <SCORE.RESTR.norm>
0

>  <SCORE.SYSTEM>
0

>  <SCORE.SYSTEM.CONST>
0

>  <SCORE.SYSTEM.DIHEDRAL>
0

>  <SCORE.SYSTEM.SOLV>
0

>  <SCORE.SYSTEM.norm>
0

>  <SCORE.heavy>
27

>  <SCORE.norm>
-0.581767

>  <RMSD>
12.960

$$$$
ligand
 OpenBabel11021811433D
libRbt.so/2013.1/901 2013/11/27
 27 29  0  0  0  0  0  0  0  0999 V2000
   55.8029   47.6066   23.8773 N   0  0  0  0  0  0  0  0  0  0  0  0
   54.9001   48.4397   23.0768 C   0  0  2  0  0  0  0  0  0  0  0  0
   55.5042   48.6647   21.7021 C   0  0  0  0  0  0  0  0  0  0  0  0
   55.0622   48.0570   20.7311 O   0  0  0  0  0  0  0  0  0  0  0  0
   54.6504   49.7955   23.7669 C   0  0  0  0  0  0  0  0  0  0  0  0
   53.4759   50.4967   23.0860 C   0  0  0  0  0  0  0  0  0  0  0  0
   53.2040   52.2436   23.5948 S   0  0  2  0  0  0  0  0  0  0  0  0
   52.9678   52.1484   25.3969 C   0  0  0  0  0  0  0  0  0  0  0  0
   51.4963   52.3446   23.0184 C   0  0  0  0  0  0  0  0  0  0  0  0
   50.9049   53.7637   23.0757 C   0  0  1  0  0  0  0  0  0  0  0  0
   51.5479   54.5894   22.0600 O   0  0  0  0  0  0  0  0  0  0  0  0
   49.4891   53.5527   22.6040 C   0  0  1  0  0  0  0  0  0  0  0  0
   48.6182   53.4238   23.7280 O   0  0  0  0  0  0  0  0  0  0  0  0
   49.1665   54.8218   21.8250 C   0  0  1  0  0  0  0  0  0  0  0  0
   48.4632   55.7725   22.6162 O   0  0  0  0  0  0  0  0  0  0  0  0
   50.5457   55.4085   21.3497 C   0  0  2  0  0  0  0  0  0  0  0  0
   56.4775   49.4064   21.5662 O   0  0  0  0  0  0  0  0  0  0  0  0
   52.8979   52.5666   17.6118 N   0  0  0  0  0  0  0  0  0  0  0  0
   52.9195   52.3596   18.9330 C   0  0  0  0  0  0  0  0  0  0  0  0
   52.2602   53.1512   19.7642 N   0  0  0  0  0  0  0  0  0  0  0  0
   51.5692   54.2136   19.3190 C   0  0  0  0  0  0  0  0  0  0  0  0
   51.5281   54.4829   17.9268 C   0  0  0  0  0  0  0  0  0  0  0  0
   52.2314   53.5991   17.0699 C   0  0  0  0  0  0  0  0  0  0  0  0
   52.2342   53.7954   15.7071 N   0  0  0  0  0  0  0  0  0  0  0  0
   50.7809   55.5911   17.7519 N   0  0  0  0  0  0  0  0  0  0  0  0
   50.3759   56.0190   18.9118 C   0  0  0  0  0  0  0  0  0  0  0  0
   50.8276   55.2053   19.9133 N   0  0  0  0  0  0  0  0  0  0  0  0
  2  1  1  1  0  0  0
  2  3  1  0  0  0  0
  2  5  1  0  0  0  0
  3  4  1  0  0  0  0
  3 17  1  0  0  0  0
  5  6  1  0  0  0  0
  7  6  1  6  0  0  0
  7  8  1  0  0  0  0
  7  9  1  0  0  0  0
 10  9  1  6  0  0  0
 10 11  1  0  0  0  0
 10 12  1  0  0  0  0
 11 16  1  0  0  0  0
 12 13  1  1  0  0  0
 12 14  1  0  0  0  0
 14 15  1  1  0  0  0
 14 16  1  0  0  0  0
 16 27  1  6  0  0  0
 18 19  2  0  0  0  0
 18 23  1  0  0  0  0
 19 20  1  0  0  0  0
 20 21  2  0  0  0  0
 21 22  1  0  0  0  0
 21 27  1  0  0  0  0
 22 23  2  0  0  0  0
 22 25  1  0  0  0  0
 23 24  1  0  0  0  0
 25 26  2  0  0  0  0
 26 27  1  0  0  0  0
M  END
>  <CHROM.1>
104.58051982,-167.09369353,-170.53283571,-57.67674422,-171.83645396,70.06522621
17.02656408,52.27279895,52.59378479,21.31261494,0.61155907,-0.79687633,1.84782148

>  <Name>
ligand

>  <RI>
0

>  <Rbt.Current_Directory>
/home/itssahil/PROJECTS/Mol_Feturizer/New_Systems/rnas/2GIS

>  <Rbt.Executable>
rbdock ($Id: //depot/dev/client3/rdock/2013.1/src/exe/rbdock.cxx#4 $)

>  <Rbt.Library>
libRbt.so (2013.1, Build901 2013/11/27)

>  <Rbt.Parameter_File>
/export/apps/rDock/src/rDock_2013.1_src/data/scripts/dock_solv.prm

>  <Rbt.Receptor>
prm/blind_docking_80.prm

>  <SCORE>
-16.2199

>  <SCORE.INTER>
-11.4943

>  <SCORE.INTER.CONST>
1

>  <SCORE.INTER.POLAR>
0

>  <SCORE.INTER.ROT>
7

>  <SCORE.INTER.SOLV>
18.4146

>  <SCORE.INTER.VDW>
-22.0677

>  <SCORE.INTER.norm>
-0.425714

>  <SCORE.INTRA>
-4.72565

>  <SCORE.INTRA.DIHEDRAL>
-3.94728

>  <SCORE.INTRA.DIHEDRAL.0>
9.40024

>  <SCORE.INTRA.POLAR>
0

>  <SCORE.INTRA.POLAR.0>
0

>  <SCORE.INTRA.REPUL>
0

>  <SCORE.INTRA.REPUL.0>
0

>  <SCORE.INTRA.SOLV>
-3.12018

>  <SCORE.INTRA.SOLV.lig_0>
-47.1049

>  <SCORE.INTRA.VDW>
-1.19193

>  <SCORE.INTRA.VDW.0>
-1.50278

>  <SCORE.INTRA.norm>
-0.175024

>  <SCORE.RESTR>
0

>  <SCORE.RESTR.CAVITY>
0

>  <SCORE.RESTR.norm>
0

>  <SCORE.SYSTEM>
0

>  <SCORE.SYSTEM.CONST>
0

>  <SCORE.SYSTEM.DIHEDRAL>
0

>  <SCORE.SYSTEM.SOLV>
0

>  <SCORE.SYSTEM.norm>
0

>  <SCORE.heavy>
27

>  <SCORE.norm>
-0.600738

>  <RMSD>
13.006

$$$$
ligand
 OpenBabel11021811433D
libRbt.so/2013.1/901 2013/11/27
 27 29  0  0  0  0  0  0  0  0999 V2000
   54.1200   57.2623   15.5306 N   0  0  0  0  0  0  0  0  0  0  0  0
   53.6257   56.1696   16.3742 C   0  0  2  0  0  0  0  0  0  0  0  0
   54.5533   54.9740   16.2493 C   0  0  0  0  0  0  0  0  0  0  0  0
   55.0981   54.5135   17.2485 O   0  0  0  0  0  0  0  0  0  0  0  0
   52.1948   55.7666   15.9653 C   0  0  0  0  0  0  0  0  0  0  0  0
   51.4436   55.2632   17.1969 C   0  0  0  0  0  0  0  0  0  0  0  0
   52.2381   53.8582   18.0797 S   0  0  2  0  0  0  0  0  0  0  0  0
   52.2732   52.5220   16.8446 C   0  0  0  0  0  0  0  0  0  0  0  0
   50.7880   53.4027   19.0535 C   0  0  0  0  0  0  0  0  0  0  0  0
   50.5419   54.3177   20.2656 C   0  0  1  0  0  0  0  0  0  0  0  0
   49.6044   55.3687   19.8869 O   0  0  0  0  0  0  0  0  0  0  0  0
   49.7945   53.4171   21.2152 C   0  0  1  0  0  0  0  0  0  0  0  0
   50.7028   52.8464   22.1575 O   0  0  0  0  0  0  0  0  0  0  0  0
   48.8174   54.3514   21.9181 C   0  0  1  0  0  0  0  0  0  0  0  0
   49.3123   54.7978   23.1752 O   0  0  0  0  0  0  0  0  0  0  0  0
   48.5957   55.5675   20.9465 C   0  0  2  0  0  0  0  0  0  0  0  0
   54.8121   54.5029   15.1416 O   0  0  0  0  0  0  0  0  0  0  0  0
   45.4864   57.6179   17.2438 N   0  0  0  0  0  0  0  0  0  0  0  0
   46.7306   57.9888   17.5658 C   0  0  0  0  0  0  0  0  0  0  0  0
   47.4100   57.3660   18.5159 N   0  0  0  0  0  0  0  0  0  0  0  0
   46.8673   56.3576   19.2180 C   0  0  0  0  0  0  0  0  0  0  0  0
   45.5450   55.9372   18.9229 C   0  0  0  0  0  0  0  0  0  0  0  0
   44.8598   56.6178   17.8849 C   0  0  0  0  0  0  0  0  0  0  0  0
   43.5748   56.2629   17.5407 N   0  0  0  0  0  0  0  0  0  0  0  0
   45.2459   54.9263   19.7630 N   0  0  0  0  0  0  0  0  0  0  0  0
   46.2635   54.7055   20.5429 C   0  0  0  0  0  0  0  0  0  0  0  0
   47.2933   55.5551   20.2482 N   0  0  0  0  0  0  0  0  0  0  0  0
  2  1  1  6  0  0  0
  2  3  1  0  0  0  0
  2  5  1  0  0  0  0
  3  4  1  0  0  0  0
  3 17  1  0  0  0  0
  5  6  1  0  0  0  0
  7  6  1  6  0  0  0
  7  8  1  0  0  0  0
  7  9  1  0  0  0  0
 10  9  1  6  0  0  0
 10 11  1  0  0  0  0
 10 12  1  0  0  0  0
 11 16  1  0  0  0  0
 12 13  1  1  0  0  0
 12 14  1  0  0  0  0
 14 15  1  1  0  0  0
 14 16  1  0  0  0  0
 16 27  1  6  0  0  0
 18 19  2  0  0  0  0
 18 23  1  0  0  0  0
 19 20  1  0  0  0  0
 20 21  2  0  0  0  0
 21 22  1  0  0  0  0
 21 27  1  0  0  0  0
 22 23  2  0  0  0  0
 22 25  1  0  0  0  0
 23 24  1  0  0  0  0
 25 26  2  0  0  0  0
 26 27  1  0  0  0  0
M  END
>  <CHROM.1>
121.90066948,-149.19181556,-56.75068811,-61.52924771,-78.11419611,94.15567749
-57.04217464,49.79449619,55.15446161,18.67087573,0.22333364,0.29333195,-1.08986027

>  <Name>
ligand

>  <RI>
0

>  <Rbt.Current_Directory>
/home/itssahil/PROJECTS/Mol_Feturizer/New_Systems/rnas/2GIS

>  <Rbt.Executable>
rbdock ($Id: //depot/dev/client3/rdock/2013.1/src/exe/rbdock.cxx#4 $)

>  <Rbt.Library>
libRbt.so (2013.1, Build901 2013/11/27)

>  <Rbt.Parameter_File>
/export/apps/rDock/src/rDock_2013.1_src/data/scripts/dock_solv.prm

>  <Rbt.Receptor>
prm/blind_docking_100.prm

>  <SCORE>
-20.5875

>  <SCORE.INTER>
-17.949

>  <SCORE.INTER.CONST>
1

>  <SCORE.INTER.POLAR>
0

>  <SCORE.INTER.ROT>
7

>  <SCORE.INTER.SOLV>
9.09759

>  <SCORE.INTER.VDW>
-23.2652

>  <SCORE.INTER.norm>
-0.664779

>  <SCORE.INTRA>
-2.6385

>  <SCORE.INTRA.DIHEDRAL>
0.466009

>  <SCORE.INTRA.DIHEDRAL.0>
9.40024

>  <SCORE.INTRA.POLAR>
0

>  <SCORE.INTRA.POLAR.0>
0

>  <SCORE.INTRA.REPUL>
0

>  <SCORE.INTRA.REPUL.0>
0

>  <SCORE.INTRA.SOLV>
-2.91312

>  <SCORE.INTRA.SOLV.lig_0>
-47.1049

>  <SCORE.INTRA.VDW>
-1.41495

>  <SCORE.INTRA.VDW.0>
-1.50278

>  <SCORE.INTRA.norm>
-0.0977223

>  <SCORE.RESTR>
0

>  <SCORE.RESTR.CAVITY>
0

>  <SCORE.RESTR.norm>
0

>  <SCORE.SYSTEM>
0

>  <SCORE.SYSTEM.CONST>
0

>  <SCORE.SYSTEM.DIHEDRAL>
0

>  <SCORE.SYSTEM.SOLV>
0

>  <SCORE.SYSTEM.norm>
0

>  <SCORE.heavy>
27

>  <SCORE.norm>
-0.762501

>  <RMSD>
13.189

$$$$
ligand
 OpenBabel11021811433D
libRbt.so/2013.1/901 2013/11/27
 27 29  0  0  0  0  0  0  0  0999 V2000
   56.0198   47.9446   24.1682 N   0  0  0  0  0  0  0  0  0  0  0  0
   55.0009   48.6072   23.3479 C   0  0  2  0  0  0  0  0  0  0  0  0
   55.5062   48.7399   21.9223 C   0  0  0  0  0  0  0  0  0  0  0  0
   54.9752   48.0971   21.0210 O   0  0  0  0  0  0  0  0  0  0  0  0
   54.6625   50.0003   23.9149 C   0  0  0  0  0  0  0  0  0  0  0  0
   53.4576   50.5680   23.1662 C   0  0  0  0  0  0  0  0  0  0  0  0
   53.0325   52.3112   23.5723 S   0  0  2  0  0  0  0  0  0  0  0  0
   52.4761   52.2397   25.3036 C   0  0  0  0  0  0  0  0  0  0  0  0
   51.4556   52.3307   22.6938 C   0  0  0  0  0  0  0  0  0  0  0  0
   50.7530   53.6993   22.7101 C   0  0  1  0  0  0  0  0  0  0  0  0
   51.4464   54.6018   21.7983 O   0  0  0  0  0  0  0  0  0  0  0  0
   49.4244   53.3981   22.0655 C   0  0  1  0  0  0  0  0  0  0  0  0
   48.4383   53.1697   23.0725 O   0  0  0  0  0  0  0  0  0  0  0  0
   49.0993   54.6633   21.2811 C   0  0  1  0  0  0  0  0  0  0  0  0
   48.2348   55.5338   22.0019 O   0  0  0  0  0  0  0  0  0  0  0  0
   50.4755   55.3657   20.9898 C   0  0  2  0  0  0  0  0  0  0  0  0
   56.4876   49.4410   21.6748 O   0  0  0  0  0  0  0  0  0  0  0  0
   53.0821   52.5547   17.4000 N   0  0  0  0  0  0  0  0  0  0  0  0
   52.8957   52.2620   18.6918 C   0  0  0  0  0  0  0  0  0  0  0  0
   52.1958   53.0589   19.4837 N   0  0  0  0  0  0  0  0  0  0  0  0
   51.6713   54.2100   19.0318 C   0  0  0  0  0  0  0  0  0  0  0  0
   51.8541   54.5711   17.6722 C   0  0  0  0  0  0  0  0  0  0  0  0
   52.5931   53.6800   16.8536 C   0  0  0  0  0  0  0  0  0  0  0  0
   52.8084   53.9625   15.5234 N   0  0  0  0  0  0  0  0  0  0  0  0
   51.2395   55.7559   17.4830 N   0  0  0  0  0  0  0  0  0  0  0  0
   50.7112   56.1455   18.6062 C   0  0  0  0  0  0  0  0  0  0  0  0
   50.9417   55.2289   19.5940 N   0  0  0  0  0  0  0  0  0  0  0  0
  2  1  1  1  0  0  0
  2  3  1  0  0  0  0
  2  5  1  0  0  0  0
  3  4  1  0  0  0  0
  3 17  1  0  0  0  0
  5  6  1  0  0  0  0
  7  6  1  6  0  0  0
  7  8  1  0  0  0  0
  7  9  1  0  0  0  0
 10  9  1  6  0  0  0
 10 11  1  0  0  0  0
 10 12  1  0  0  0  0
 11 16  1  0  0  0  0
 12 13  1  1  0  0  0
 12 14  1  0  0  0  0
 14 15  1  1  0  0  0
 14 16  1  0  0  0  0
 16 27  1  6  0  0  0
 18 19  2  0  0  0  0
 18 23  1  0  0  0  0
 19 20  1  0  0  0  0
 20 21  2  0  0  0  0
 21 22  1  0  0  0  0
 21 27  1  0  0  0  0
 22 23  2  0  0  0  0
 22 25  1  0  0  0  0
 23 24  1  0  0  0  0
 25 26  2  0  0  0  0
 26 27  1  0  0  0  0
M  END
>  <CHROM.1>
112.16051958,-171.52711823,-173.03901241,-66.96556586,-176.77703205,74.14764823
27.12182017,52.29277006,52.61667369,21.13771968,-0.76180852,0.73568289,-1.22165295

>  <Name>
ligand

>  <RI>
0

>  <Rbt.Current_Directory>
/home/itssahil/PROJECTS/Mol_Feturizer/New_Systems/rnas/2GIS

>  <Rbt.Executable>
rbdock ($Id: //depot/dev/client3/rdock/2013.1/src/exe/rbdock.cxx#4 $)

>  <Rbt.Library>
libRbt.so (2013.1, Build901 2013/11/27)

>  <Rbt.Parameter_File>
/export/apps/rDock/src/rDock_2013.1_src/data/scripts/dock_solv.prm

>  <Rbt.Receptor>
prm/blind_docking_80.prm

>  <SCORE>
-16.6106

>  <SCORE.INTER>
-11.2389

>  <SCORE.INTER.CONST>
1

>  <SCORE.INTER.POLAR>
0

>  <SCORE.INTER.ROT>
7

>  <SCORE.INTER.SOLV>
18.5232

>  <SCORE.INTER.VDW>
-21.9337

>  <SCORE.INTER.norm>
-0.416257

>  <SCORE.INTRA>
-5.37167

>  <SCORE.INTRA.DIHEDRAL>
-4.77203

>  <SCORE.INTRA.DIHEDRAL.0>
9.40024

>  <SCORE.INTRA.POLAR>
0

>  <SCORE.INTRA.POLAR.0>
0

>  <SCORE.INTRA.REPUL>
0

>  <SCORE.INTRA.REPUL.0>
0

>  <SCORE.INTRA.SOLV>
-3.12994

>  <SCORE.INTRA.SOLV.lig_0>
-47.1049

>  <SCORE.INTRA.VDW>
-1.42069

>  <SCORE.INTRA.VDW.0>
-1.50278

>  <SCORE.INTRA.norm>
-0.198951

>  <SCORE.RESTR>
0

>  <SCORE.RESTR.CAVITY>
0

>  <SCORE.RESTR.norm>
0

>  <SCORE.SYSTEM>
0

>  <SCORE.SYSTEM.CONST>
0

>  <SCORE.SYSTEM.DIHEDRAL>
0

>  <SCORE.SYSTEM.SOLV>
0

>  <SCORE.SYSTEM.norm>
0

>  <SCORE.heavy>
27

>  <SCORE.norm>
-0.615208

>  <RMSD>
13.194

$$$$
ligand
 OpenBabel11021811433D
libRbt.so/2013.1/901 2013/11/27
 27 29  0  0  0  0  0  0  0  0999 V2000
   45.0756   52.8557   20.6014 N   0  0  0  0  0  0  0  0  0  0  0  0
   45.4943   54.2362   20.8634 C   0  0  2  0  0  0  0  0  0  0  0  0
   44.6764   55.1850   20.0054 C   0  0  0  0  0  0  0  0  0  0  0  0
   45.1036   56.3086   19.7554 O   0  0  0  0  0  0  0  0  0  0  0  0
   46.9950   54.4198   20.5617 C   0  0  0  0  0  0  0  0  0  0  0  0
   47.8094   53.5475   21.5159 C   0  0  0  0  0  0  0  0  0  0  0  0
   49.6328   53.7722   21.4202 S   0  0  2  0  0  0  0  0  0  0  0  0
   49.8559   55.5782   21.3955 C   0  0  0  0  0  0  0  0  0  0  0  0
   49.7805   53.3728   19.6659 C   0  0  0  0  0  0  0  0  0  0  0  0
   51.0292   53.9719   18.9960 C   0  0  1  0  0  0  0  0  0  0  0  0
   52.1436   53.9235   19.9355 O   0  0  0  0  0  0  0  0  0  0  0  0
   51.3469   52.9624   17.9229 C   0  0  1  0  0  0  0  0  0  0  0  0
   50.7923   53.3882   16.6780 O   0  0  0  0  0  0  0  0  0  0  0  0
   52.8690   52.9633   17.8542 C   0  0  1  0  0  0  0  0  0  0  0  0
   53.3585   53.8036   16.8156 O   0  0  0  0  0  0  0  0  0  0  0  0
   53.3721   53.4655   19.2567 C   0  0  2  0  0  0  0  0  0  0  0  0
   43.5573   54.8563   19.6112 O   0  0  0  0  0  0  0  0  0  0  0  0
   52.9757   50.6457   23.6695 N   0  0  0  0  0  0  0  0  0  0  0  0
   52.1653   51.6219   23.2461 C   0  0  0  0  0  0  0  0  0  0  0  0
   52.3758   52.2399   22.0945 N   0  0  0  0  0  0  0  0  0  0  0  0
   53.4296   51.9352   21.3192 C   0  0  0  0  0  0  0  0  0  0  0  0
   54.3258   50.9163   21.7325 C   0  0  0  0  0  0  0  0  0  0  0  0
   54.0528   50.2661   22.9625 C   0  0  0  0  0  0  0  0  0  0  0  0
   54.8768   49.2654   23.4264 N   0  0  0  0  0  0  0  0  0  0  0  0
   55.2831   50.8136   20.7891 N   0  0  0  0  0  0  0  0  0  0  0  0
   55.0505   51.6835   19.8501 C   0  0  0  0  0  0  0  0  0  0  0  0
   53.9177   52.3988   20.1219 N   0  0  0  0  0  0  0  0  0  0  0  0
  2  1  1  6  0  0  0
  2  3  1  0  0  0  0
  2  5  1  0  0  0  0
  3  4  1  0  0  0  0
  3 17  1  0  0  0  0
  5  6  1  0  0  0  0
  7  6  1  6  0  0  0
  7  8  1  0  0  0  0
  7  9  1  0  0  0  0
 10  9  1  1  0  0  0
 10 11  1  0  0  0  0
 10 12  1  0  0  0  0
 11 16  1  0  0  0  0
 12 13  1  6  0  0  0
 12 14  1  0  0  0  0
 14 15  1  6  0  0  0
 14 16  1  0  0  0  0
 16 27  1  1  0  0  0
 18 19  2  0  0  0  0
 18 23  1  0  0  0  0
 19 20  1  0  0  0  0
 20 21  2  0  0  0  0
 21 22  1  0  0  0  0
 21 27  1  0  0  0  0
 22 23  2  0  0  0  0
 22 25  1  0  0  0  0
 23 24  1  0  0  0  0
 25 26  2  0  0  0  0
 26 27  1  0  0  0  0
M  END
>  <CHROM.1>
-158.14519634,-63.75937234,-173.83018767,45.65414769,156.17748633,37.28780956
-1.47749429,50.64204396,53.08426142,20.43193163,2.88667809,0.30224916,-1.14964373

>  <Name>
ligand

>  <RI>
0

>  <Rbt.Current_Directory>
/home/itssahil/PROJECTS/Mol_Feturizer/New_Systems/rnas/2GIS

>  <Rbt.Executable>
rbdock ($Id: //depot/dev/client3/rdock/2013.1/src/exe/rbdock.cxx#4 $)

>  <Rbt.Library>
libRbt.so (2013.1, Build901 2013/11/27)

>  <Rbt.Parameter_File>
/export/apps/rDock/src/rDock_2013.1_src/data/scripts/dock_solv.prm

>  <Rbt.Receptor>
prm/blind_docking_80.prm

>  <SCORE>
-17.0069

>  <SCORE.INTER>
-14.6696

>  <SCORE.INTER.CONST>
1

>  <SCORE.INTER.POLAR>
0

>  <SCORE.INTER.ROT>
7

>  <SCORE.INTER.SOLV>
13.1131

>  <SCORE.INTER.VDW>
-22.4174

>  <SCORE.INTER.norm>
-0.543318

>  <SCORE.INTRA>
-2.33734

>  <SCORE.INTRA.DIHEDRAL>
-3.71282

>  <SCORE.INTRA.DIHEDRAL.0>
9.40024

>  <SCORE.INTRA.POLAR>
0

>  <SCORE.INTRA.POLAR.0>
0

>  <SCORE.INTRA.REPUL>
0

>  <SCORE.INTRA.REPUL.0>
0

>  <SCORE.INTRA.SOLV>
-2.26183

>  <SCORE.INTRA.SOLV.lig_0>
-47.1049

>  <SCORE.INTRA.VDW>
0.649988

>  <SCORE.INTRA.VDW.0>
-1.50278

>  <SCORE.INTRA.norm>
-0.0865682

>  <SCORE.RESTR>
0

>  <SCORE.RESTR.CAVITY>
0

>  <SCORE.RESTR.norm>
0

>  <SCORE.SYSTEM>
0

>  <SCORE.SYSTEM.CONST>
0

>  <SCORE.SYSTEM.DIHEDRAL>
0

>  <SCORE.SYSTEM.SOLV>
0

>  <SCORE.SYSTEM.norm>
0

>  <SCORE.heavy>
27

>  <SCORE.norm>
-0.629886

>  <RMSD>
13.265

$$$$
ligand
 OpenBabel11021811433D
libRbt.so/2013.1/901 2013/11/27
 27 29  0  0  0  0  0  0  0  0999 V2000
   53.5905   54.0491   17.7530 N   0  0  0  0  0  0  0  0  0  0  0  0
   52.1821   53.6454   17.8111 C   0  0  2  0  0  0  0  0  0  0  0  0
   51.4135   54.3264   16.6927 C   0  0  0  0  0  0  0  0  0  0  0  0
   51.4814   55.5446   16.5552 O   0  0  0  0  0  0  0  0  0  0  0  0
   51.5621   54.0160   19.1731 C   0  0  0  0  0  0  0  0  0  0  0  0
   50.1519   53.4338   19.2579 C   0  0  0  0  0  0  0  0  0  0  0  0
   49.0754   54.1731   20.5537 S   0  0  2  0  0  0  0  0  0  0  0  0
   49.6660   53.4213   22.1022 C   0  0  0  0  0  0  0  0  0  0  0  0
   47.6260   53.1577   20.1970 C   0  0  0  0  0  0  0  0  0  0  0  0
   46.3375   53.6555   20.8746 C   0  0  1  0  0  0  0  0  0  0  0  0
   46.2364   55.1002   20.7030 O   0  0  0  0  0  0  0  0  0  0  0  0
   45.2563   53.0582   20.0111 C   0  0  1  0  0  0  0  0  0  0  0  0
   44.7862   51.8430   20.5950 O   0  0  0  0  0  0  0  0  0  0  0  0
   44.1551   54.1113   20.0173 C   0  0  1  0  0  0  0  0  0  0  0  0
   43.1491   53.8295   20.9833 O   0  0  0  0  0  0  0  0  0  0  0  0
   44.8588   55.4813   20.3335 C   0  0  2  0  0  0  0  0  0  0  0  0
   50.6714   53.6706   15.9612 O   0  0  0  0  0  0  0  0  0  0  0  0
   42.5951   57.9856   16.3103 N   0  0  0  0  0  0  0  0  0  0  0  0
   42.0095   57.1955   17.2168 C   0  0  0  0  0  0  0  0  0  0  0  0
   42.7047   56.6397   18.1966 N   0  0  0  0  0  0  0  0  0  0  0  0
   44.0316   56.8194   18.3026 C   0  0  0  0  0  0  0  0  0  0  0  0
   44.7005   57.6378   17.3565 C   0  0  0  0  0  0  0  0  0  0  0  0
   43.9156   58.2299   16.3349 C   0  0  0  0  0  0  0  0  0  0  0  0
   44.4951   59.0388   15.3833 N   0  0  0  0  0  0  0  0  0  0  0  0
   46.0079   57.6480   17.6844 N   0  0  0  0  0  0  0  0  0  0  0  0
   46.1890   56.9036   18.7358 C   0  0  0  0  0  0  0  0  0  0  0  0
   45.0043   56.3718   19.1630 N   0  0  0  0  0  0  0  0  0  0  0  0
  2  1  1  1  0  0  0
  2  3  1  0  0  0  0
  2  5  1  0  0  0  0
  3  4  1  0  0  0  0
  3 17  1  0  0  0  0
  5  6  1  0  0  0  0
  7  6  1  6  0  0  0
  7  8  1  0  0  0  0
  7  9  1  0  0  0  0
 10  9  1  6  0  0  0
 10 11  1  0  0  0  0
 10 12  1  0  0  0  0
 11 16  1  0  0  0  0
 12 13  1  1  0  0  0
 12 14  1  0  0  0  0
 14 15  1  1  0  0  0
 14 16  1  0  0  0  0
 16 27  1  6  0  0  0
 18 19  2  0  0  0  0
 18 23  1  0  0  0  0
 19 20  1  0  0  0  0
 20 21  2  0  0  0  0
 21 22  1  0  0  0  0
 21 27  1  0  0  0  0
 22 23  2  0  0  0  0
 22 25  1  0  0  0  0
 23 24  1  0  0  0  0
 25 26  2  0  0  0  0
 26 27  1  0  0  0  0
M  END
>  <CHROM.1>
-52.47980406,-173.30804201,-162.33386151,-76.91843262,-167.39434883,45.12983283
167.98350299,46.98090931,55.10256896,18.80305610,-0.27352186,0.23742940,-0.86895069

>  <Name>
ligand

>  <RI>
0

>  <Rbt.Current_Directory>
/home/itssahil/PROJECTS/Mol_Feturizer/New_Systems/rnas/2GIS

>  <Rbt.Executable>
rbdock ($Id: //depot/dev/client3/rdock/2013.1/src/exe/rbdock.cxx#4 $)

>  <Rbt.Library>
libRbt.so (2013.1, Build901 2013/11/27)

>  <Rbt.Parameter_File>
/export/apps/rDock/src/rDock_2013.1_src/data/scripts/dock_solv.prm

>  <Rbt.Receptor>
prm/blind_docking_80.prm

>  <SCORE>
-23.504

>  <SCORE.INTER>
-19.8023

>  <SCORE.INTER.CONST>
1

>  <SCORE.INTER.POLAR>
0

>  <SCORE.INTER.ROT>
7

>  <SCORE.INTER.SOLV>
9.46045

>  <SCORE.INTER.VDW>
-24.6217

>  <SCORE.INTER.norm>
-0.733417

>  <SCORE.INTRA>
-3.70178

>  <SCORE.INTRA.DIHEDRAL>
-3.0014

>  <SCORE.INTRA.DIHEDRAL.0>
9.40024

>  <SCORE.INTRA.POLAR>
0

>  <SCORE.INTRA.POLAR.0>
0

>  <SCORE.INTRA.REPUL>
0

>  <SCORE.INTRA.REPUL.0>
0

>  <SCORE.INTRA.SOLV>
-3.13939

>  <SCORE.INTRA.SOLV.lig_0>
-47.1049

>  <SCORE.INTRA.VDW>
-0.631383

>  <SCORE.INTRA.VDW.0>
-1.50278

>  <SCORE.INTRA.norm>
-0.137103

>  <SCORE.RESTR>
0

>  <SCORE.RESTR.CAVITY>
0

>  <SCORE.RESTR.norm>
0

>  <SCORE.SYSTEM>
0

>  <SCORE.SYSTEM.CONST>
0

>  <SCORE.SYSTEM.DIHEDRAL>
0

>  <SCORE.SYSTEM.SOLV>
0

>  <SCORE.SYSTEM.norm>
0

>  <SCORE.heavy>
27

>  <SCORE.norm>
-0.87052

>  <RMSD>
13.310

$$$$
ligand
 OpenBabel11021811433D
libRbt.so/2013.1/901 2013/11/27
 27 29  0  0  0  0  0  0  0  0999 V2000
   52.8502   55.5802   18.0586 N   0  0  0  0  0  0  0  0  0  0  0  0
   51.5413   54.9600   18.2867 C   0  0  2  0  0  0  0  0  0  0  0  0
   51.0679   54.2916   17.0082 C   0  0  0  0  0  0  0  0  0  0  0  0
   50.9072   54.9592   15.9904 O   0  0  0  0  0  0  0  0  0  0  0  0
   50.5090   56.0113   18.7407 C   0  0  0  0  0  0  0  0  0  0  0  0
   49.1986   55.3088   19.0930 C   0  0  0  0  0  0  0  0  0  0  0  0
   49.1207   54.5996   20.7886 S   0  0  2  0  0  0  0  0  0  0  0  0
   50.5523   53.4786   20.8661 C   0  0  0  0  0  0  0  0  0  0  0  0
   47.7804   53.4397   20.4468 C   0  0  0  0  0  0  0  0  0  0  0  0
   46.4075   53.9095   20.9581 C   0  0  1  0  0  0  0  0  0  0  0  0
   46.2674   55.3385   20.7027 O   0  0  0  0  0  0  0  0  0  0  0  0
   45.4504   53.2238   20.0172 C   0  0  1  0  0  0  0  0  0  0  0  0
   44.9694   52.0172   20.6100 O   0  0  0  0  0  0  0  0  0  0  0  0
   44.3134   54.2249   19.8530 C   0  0  1  0  0  0  0  0  0  0  0  0
   43.2215   53.9432   20.7207 O   0  0  0  0  0  0  0  0  0  0  0  0
   44.9233   55.6388   20.1708 C   0  0  2  0  0  0  0  0  0  0  0  0
   50.7832   53.0938   17.0032 O   0  0  0  0  0  0  0  0  0  0  0  0
   42.9357   58.1579   16.0133 N   0  0  0  0  0  0  0  0  0  0  0  0
   42.2753   57.4386   16.9274 C   0  0  0  0  0  0  0  0  0  0  0  0
   42.9066   56.8695   17.9422 N   0  0  0  0  0  0  0  0  0  0  0  0
   44.2396   56.9630   18.0783 C   0  0  0  0  0  0  0  0  0  0  0  0
   44.9859   57.7036   17.1260 C   0  0  0  0  0  0  0  0  0  0  0  0
   44.2687   58.3136   16.0660 C   0  0  0  0  0  0  0  0  0  0  0  0
   44.9253   59.0506   15.1060 N   0  0  0  0  0  0  0  0  0  0  0  0
   46.2825   57.6366   17.4886 N   0  0  0  0  0  0  0  0  0  0  0  0
   46.3864   56.9161   18.5667 C   0  0  0  0  0  0  0  0  0  0  0  0
   45.1580   56.4791   18.9779 N   0  0  0  0  0  0  0  0  0  0  0  0
  2  1  1  6  0  0  0
  2  3  1  0  0  0  0
  2  5  1  0  0  0  0
  3  4  1  0  0  0  0
  3 17  1  0  0  0  0
  5  6  1  0  0  0  0
  7  6  1  6  0  0  0
  7  8  1  0  0  0  0
  7  9  1  0  0  0  0
 10  9  1  6  0  0  0
 10 11  1  0  0  0  0
 10 12  1  0  0  0  0
 11 16  1  0  0  0  0
 12 13  1  1  0  0  0
 12 14  1  0  0  0  0
 14 15  1  1  0  0  0
 14 16  1  0  0  0  0
 16 27  1  6  0  0  0
 18 19  2  0  0  0  0
 18 23  1  0  0  0  0
 19 20  1  0  0  0  0
 20 21  2  0  0  0  0
 21 22  1  0  0  0  0
 21 27  1  0  0  0  0
 22 23  2  0  0  0  0
 22 25  1  0  0  0  0
 23 24  1  0  0  0  0
 25 26  2  0  0  0  0
 26 27  1  0  0  0  0
M  END
>  <CHROM.1>
-59.97440092,-174.74601173,83.06803006,-56.42067580,-101.67848007,40.56701495
175.89961400,46.99323750,55.41885418,18.72049485,-0.32789198,0.17178985,-0.84848326

>  <Name>
ligand

>  <RI>
0

>  <Rbt.Current_Directory>
/home/itssahil/PROJECTS/Mol_Feturizer/New_Systems/rnas/2GIS

>  <Rbt.Executable>
rbdock ($Id: //depot/dev/client3/rdock/2013.1/src/exe/rbdock.cxx#4 $)

>  <Rbt.Library>
libRbt.so (2013.1, Build901 2013/11/27)

>  <Rbt.Parameter_File>
/export/apps/rDock/src/rDock_2013.1_src/data/scripts/dock_solv.prm

>  <Rbt.Receptor>
prm/blind_docking_80.prm

>  <SCORE>
-21.0987

>  <SCORE.INTER>
-19.0805

>  <SCORE.INTER.CONST>
1

>  <SCORE.INTER.POLAR>
0

>  <SCORE.INTER.ROT>
7

>  <SCORE.INTER.SOLV>
10.9469

>  <SCORE.INTER.VDW>
-24.636

>  <SCORE.INTER.norm>
-0.706686

>  <SCORE.INTRA>
-2.01817

>  <SCORE.INTRA.DIHEDRAL>
-0.0239472

>  <SCORE.INTRA.DIHEDRAL.0>
9.40024

>  <SCORE.INTRA.POLAR>
0

>  <SCORE.INTRA.POLAR.0>
0

>  <SCORE.INTRA.REPUL>
0

>  <SCORE.INTRA.REPUL.0>
0

>  <SCORE.INTRA.SOLV>
-2.55065

>  <SCORE.INTRA.SOLV.lig_0>
-47.1049

>  <SCORE.INTRA.VDW>
-0.730874

>  <SCORE.INTRA.VDW.0>
-1.50278

>  <SCORE.INTRA.norm>
-0.0747471

>  <SCORE.RESTR>
0

>  <SCORE.RESTR.CAVITY>
0

>  <SCORE.RESTR.norm>
0

>  <SCORE.SYSTEM>
0

>  <SCORE.SYSTEM.CONST>
0

>  <SCORE.SYSTEM.DIHEDRAL>
0

>  <SCORE.SYSTEM.SOLV>
0

>  <SCORE.SYSTEM.norm>
0

>  <SCORE.heavy>
27

>  <SCORE.norm>
-0.781433

>  <RMSD>
13.315

$$$$
ligand
 OpenBabel11021811433D
libRbt.so/2013.1/901 2013/11/27
 27 29  0  0  0  0  0  0  0  0999 V2000
   52.8115   53.8458   18.3863 N   0  0  0  0  0  0  0  0  0  0  0  0
   51.4575   53.7179   17.8381 C   0  0  2  0  0  0  0  0  0  0  0  0
   51.4225   54.2971   16.4351 C   0  0  0  0  0  0  0  0  0  0  0  0
   52.1914   55.2032   16.1262 O   0  0  0  0  0  0  0  0  0  0  0  0
   50.4342   54.4475   18.7311 C   0  0  0  0  0  0  0  0  0  0  0  0
   50.3290   53.7209   20.0711 C   0  0  0  0  0  0  0  0  0  0  0  0
   49.0337   54.3607   21.2101 S   0  0  2  0  0  0  0  0  0  0  0  0
   49.3123   53.4439   22.7573 C   0  0  0  0  0  0  0  0  0  0  0  0
   47.6682   53.4278   20.4863 C   0  0  0  0  0  0  0  0  0  0  0  0
   46.2810   53.8746   20.9793 C   0  0  1  0  0  0  0  0  0  0  0  0
   46.1262   55.3041   20.7351 O   0  0  0  0  0  0  0  0  0  0  0  0
   45.3486   53.1856   20.0164 C   0  0  1  0  0  0  0  0  0  0  0  0
   44.8740   51.9672   20.5898 O   0  0  0  0  0  0  0  0  0  0  0  0
   44.2013   54.1732   19.8429 C   0  0  1  0  0  0  0  0  0  0  0  0
   43.0992   53.8690   20.6898 O   0  0  0  0  0  0  0  0  0  0  0  0
   44.7871   55.5919   20.1840 C   0  0  2  0  0  0  0  0  0  0  0  0
   50.5831   53.9063   15.6235 O   0  0  0  0  0  0  0  0  0  0  0  0
   42.8402   58.0933   15.9967 N   0  0  0  0  0  0  0  0  0  0  0  0
   42.1756   57.3513   16.8893 C   0  0  0  0  0  0  0  0  0  0  0  0
   42.7957   56.7900   17.9153 N   0  0  0  0  0  0  0  0  0  0  0  0
   44.1224   56.9148   18.0847 C   0  0  0  0  0  0  0  0  0  0  0  0
   44.8732   57.6805   17.1561 C   0  0  0  0  0  0  0  0  0  0  0  0
   44.1673   58.2809   16.0831 C   0  0  0  0  0  0  0  0  0  0  0  0
   44.8288   59.0408   15.1446 N   0  0  0  0  0  0  0  0  0  0  0  0
   46.1619   57.6423   17.5498 N   0  0  0  0  0  0  0  0  0  0  0  0
   46.2571   56.9164   18.6252 C   0  0  0  0  0  0  0  0  0  0  0  0
   45.0301   56.4466   19.0031 N   0  0  0  0  0  0  0  0  0  0  0  0
  2  1  1  1  0  0  0
  2  3  1  0  0  0  0
  2  5  1  0  0  0  0
  3  4  1  0  0  0  0
  3 17  1  0  0  0  0
  5  6  1  0  0  0  0
  7  6  1  6  0  0  0
  7  8  1  0  0  0  0
  7  9  1  0  0  0  0
 10  9  1  6  0  0  0
 10 11  1  0  0  0  0
 10 12  1  0  0  0  0
 11 16  1  0  0  0  0
 12 13  1  1  0  0  0
 12 14  1  0  0  0  0
 14 15  1  1  0  0  0
 14 16  1  0  0  0  0
 16 27  1  6  0  0  0
 18 19  2  0  0  0  0
 18 23  1  0  0  0  0
 19 20  1  0  0  0  0
 20 21  2  0  0  0  0
 21 22  1  0  0  0  0
 21 27  1  0  0  0  0
 22 23  2  0  0  0  0
 22 25  1  0  0  0  0
 23 24  1  0  0  0  0
 25 26  2  0  0  0  0
 26 27  1  0  0  0  0
M  END
>  <CHROM.1>
-28.87307041,-67.38539385,-174.49216586,-172.98503440,-168.59989583,55.41225759
175.09962065,46.95577783,55.19944546,18.79757206,-0.33540012,0.24687811,-0.96149607

>  <Name>
ligand

>  <RI>
0

>  <Rbt.Current_Directory>
/home/itssahil/PROJECTS/Mol_Feturizer/New_Systems/rnas/2GIS

>  <Rbt.Executable>
rbdock ($Id: //depot/dev/client3/rdock/2013.1/src/exe/rbdock.cxx#4 $)

>  <Rbt.Library>
libRbt.so (2013.1, Build901 2013/11/27)

>  <Rbt.Parameter_File>
/export/apps/rDock/src/rDock_2013.1_src/data/scripts/dock_solv.prm

>  <Rbt.Receptor>
prm/blind_docking_80.prm

>  <SCORE>
-23.7361

>  <SCORE.INTER>
-19.6214

>  <SCORE.INTER.CONST>
1

>  <SCORE.INTER.POLAR>
0

>  <SCORE.INTER.ROT>
7

>  <SCORE.INTER.SOLV>
8.88338

>  <SCORE.INTER.VDW>
-24.3088

>  <SCORE.INTER.norm>
-0.72672

>  <SCORE.INTRA>
-4.11466

>  <SCORE.INTRA.DIHEDRAL>
-4.30538

>  <SCORE.INTRA.DIHEDRAL.0>
9.40024

>  <SCORE.INTRA.POLAR>
0

>  <SCORE.INTRA.POLAR.0>
0

>  <SCORE.INTRA.REPUL>
0

>  <SCORE.INTRA.REPUL.0>
0

>  <SCORE.INTRA.SOLV>
-2.49

>  <SCORE.INTRA.SOLV.lig_0>
-47.1049

>  <SCORE.INTRA.VDW>
-0.716975

>  <SCORE.INTRA.VDW.0>
-1.50278

>  <SCORE.INTRA.norm>
-0.152395

>  <SCORE.RESTR>
0

>  <SCORE.RESTR.CAVITY>
0

>  <SCORE.RESTR.norm>
0

>  <SCORE.SYSTEM>
0

>  <SCORE.SYSTEM.CONST>
0

>  <SCORE.SYSTEM.DIHEDRAL>
0

>  <SCORE.SYSTEM.SOLV>
0

>  <SCORE.SYSTEM.norm>
0

>  <SCORE.heavy>
27

>  <SCORE.norm>
-0.879115

>  <RMSD>
13.354

$$$$
ligand
 OpenBabel11021811433D
libRbt.so/2013.1/901 2013/11/27
 27 29  0  0  0  0  0  0  0  0999 V2000
   52.6368   52.6089   17.6011 N   0  0  0  0  0  0  0  0  0  0  0  0
   51.5206   53.4596   17.1764 C   0  0  2  0  0  0  0  0  0  0  0  0
   51.9910   54.4049   16.0854 C   0  0  0  0  0  0  0  0  0  0  0  0
   53.0194   54.1583   15.4615 O   0  0  0  0  0  0  0  0  0  0  0  0
   50.9653   54.2682   18.3658 C   0  0  0  0  0  0  0  0  0  0  0  0
   50.2140   53.3268   19.3060 C   0  0  0  0  0  0  0  0  0  0  0  0
   49.1444   54.1539   20.5533 S   0  0  2  0  0  0  0  0  0  0  0  0
   49.8029   53.5819   22.1506 C   0  0  0  0  0  0  0  0  0  0  0  0
   47.7256   53.0579   20.3420 C   0  0  0  0  0  0  0  0  0  0  0  0
   46.4163   53.6182   20.9242 C   0  0  1  0  0  0  0  0  0  0  0  0
   46.3895   55.0636   20.7321 O   0  0  0  0  0  0  0  0  0  0  0  0
   45.3721   53.0562   19.9941 C   0  0  1  0  0  0  0  0  0  0  0  0
   44.8112   51.8695   20.5560 O   0  0  0  0  0  0  0  0  0  0  0  0
   44.3194   54.1549   19.9141 C   0  0  1  0  0  0  0  0  0  0  0  0
   43.2384   53.9282   20.8111 O   0  0  0  0  0  0  0  0  0  0  0  0
   45.0580   55.4978   20.2647 C   0  0  2  0  0  0  0  0  0  0  0  0
   51.3805   55.4513   15.8657 O   0  0  0  0  0  0  0  0  0  0  0  0
   43.1529   58.2687   16.2305 N   0  0  0  0  0  0  0  0  0  0  0  0
   42.4671   57.5540   17.1294 C   0  0  0  0  0  0  0  0  0  0  0  0
   43.0805   56.9153   18.1133 N   0  0  0  0  0  0  0  0  0  0  0  0
   44.4185   56.9314   18.2312 C   0  0  0  0  0  0  0  0  0  0  0  0
   45.1906   57.6641   17.2935 C   0  0  0  0  0  0  0  0  0  0  0  0
   44.4931   58.3498   16.2672 C   0  0  0  0  0  0  0  0  0  0  0  0
   45.1754   59.0840   15.3232 N   0  0  0  0  0  0  0  0  0  0  0  0
   46.4866   57.5138   17.6326 N   0  0  0  0  0  0  0  0  0  0  0  0
   46.5661   56.7506   18.6830 C   0  0  0  0  0  0  0  0  0  0  0  0
   45.3215   56.3664   19.0984 N   0  0  0  0  0  0  0  0  0  0  0  0
  2  1  1  1  0  0  0
  2  3  1  0  0  0  0
  2  5  1  0  0  0  0
  3  4  1  0  0  0  0
  3 17  1  0  0  0  0
  5  6  1  0  0  0  0
  7  6  1  6  0  0  0
  7  8  1  0  0  0  0
  7  9  1  0  0  0  0
 10  9  1  6  0  0  0
 10 11  1  0  0  0  0
 10 12  1  0  0  0  0
 11 16  1  0  0  0  0
 12 13  1  1  0  0  0
 12 14  1  0  0  0  0
 14 15  1  1  0  0  0
 14 16  1  0  0  0  0
 16 27  1  6  0  0  0
 18 19  2  0  0  0  0
 18 23  1  0  0  0  0
 19 20  1  0  0  0  0
 20 21  2  0  0  0  0
 21 22  1  0  0  0  0
 21 27  1  0  0  0  0
 22 23  2  0  0  0  0
 22 25  1  0  0  0  0
 23 24  1  0  0  0  0
 25 26  2  0  0  0  0
 26 27  1  0  0  0  0
M  END
>  <CHROM.1>
18.70558920,-71.63911788,-165.80406921,-121.01002588,-163.58867848,35.54378056
173.75754260,47.21627163,55.10476291,18.65395675,-0.20916767,0.31124326,-0.87473140

>  <Name>
ligand

>  <RI>
0

>  <Rbt.Current_Directory>
/home/itssahil/PROJECTS/Mol_Feturizer/New_Systems/rnas/2GIS

>  <Rbt.Executable>
rbdock ($Id: //depot/dev/client3/rdock/2013.1/src/exe/rbdock.cxx#4 $)

>  <Rbt.Library>
libRbt.so (2013.1, Build901 2013/11/27)

>  <Rbt.Parameter_File>
/export/apps/rDock/src/rDock_2013.1_src/data/scripts/dock_solv.prm

>  <Rbt.Receptor>
prm/blind_docking_100.prm

>  <SCORE>
-20.6184

>  <SCORE.INTER>
-20.6087

>  <SCORE.INTER.CONST>
1

>  <SCORE.INTER.POLAR>
0

>  <SCORE.INTER.ROT>
7

>  <SCORE.INTER.SOLV>
12.7716

>  <SCORE.INTER.VDW>
-26.263

>  <SCORE.INTER.norm>
-0.763284

>  <SCORE.INTRA>
-0.00976023

>  <SCORE.INTRA.DIHEDRAL>
2.57989

>  <SCORE.INTRA.DIHEDRAL.0>
9.40024

>  <SCORE.INTRA.POLAR>
0

>  <SCORE.INTRA.POLAR.0>
0

>  <SCORE.INTRA.REPUL>
0

>  <SCORE.INTRA.REPUL.0>
0

>  <SCORE.INTRA.SOLV>
-2.46024

>  <SCORE.INTRA.SOLV.lig_0>
-47.1049

>  <SCORE.INTRA.VDW>
-0.0695848

>  <SCORE.INTRA.VDW.0>
-1.50278

>  <SCORE.INTRA.norm>
-0.00036149

>  <SCORE.RESTR>
0

>  <SCORE.RESTR.CAVITY>
0

>  <SCORE.RESTR.norm>
0

>  <SCORE.SYSTEM>
0

>  <SCORE.SYSTEM.CONST>
0

>  <SCORE.SYSTEM.DIHEDRAL>
0

>  <SCORE.SYSTEM.SOLV>
0

>  <SCORE.SYSTEM.norm>
0

>  <SCORE.heavy>
27

>  <SCORE.norm>
-0.763646

>  <RMSD>
13.417

$$$$
ligand
 OpenBabel11021811433D
libRbt.so/2013.1/901 2013/11/27
 27 29  0  0  0  0  0  0  0  0999 V2000
   52.4154   56.2809   15.5326 N   0  0  0  0  0  0  0  0  0  0  0  0
   53.0775   55.2373   16.3215 C   0  0  2  0  0  0  0  0  0  0  0  0
   53.6090   54.1606   15.3923 C   0  0  0  0  0  0  0  0  0  0  0  0
   52.8955   53.2104   15.0832 O   0  0  0  0  0  0  0  0  0  0  0  0
   52.0988   54.6153   17.3375 C   0  0  0  0  0  0  0  0  0  0  0  0
   51.6895   55.6782   18.3559 C   0  0  0  0  0  0  0  0  0  0  0  0
   51.3031   55.0436   20.0389 S   0  0  2  0  0  0  0  0  0  0  0  0
   52.5723   53.7735   20.3356 C   0  0  0  0  0  0  0  0  0  0  0  0
   49.8961   54.0288   19.5397 C   0  0  0  0  0  0  0  0  0  0  0  0
   48.6814   54.1481   20.4763 C   0  0  1  0  0  0  0  0  0  0  0  0
   48.1094   55.4834   20.3471 O   0  0  0  0  0  0  0  0  0  0  0  0
   47.6849   53.2072   19.8493 C   0  0  1  0  0  0  0  0  0  0  0  0
   47.7383   51.9391   20.5034 O   0  0  0  0  0  0  0  0  0  0  0  0
   46.3387   53.8764   20.0971 C   0  0  1  0  0  0  0  0  0  0  0  0
   45.6841   53.3546   21.2477 O   0  0  0  0  0  0  0  0  0  0  0  0
   46.6365   55.4098   20.2768 C   0  0  2  0  0  0  0  0  0  0  0  0
   54.7743   54.2021   14.9972 O   0  0  0  0  0  0  0  0  0  0  0  0
   42.9012   57.9975   17.6437 N   0  0  0  0  0  0  0  0  0  0  0  0
   42.7709   57.3041   18.7801 C   0  0  0  0  0  0  0  0  0  0  0  0
   43.8101   56.7127   19.3480 N   0  0  0  0  0  0  0  0  0  0  0  0
   45.0314   56.7566   18.7905 C   0  0  0  0  0  0  0  0  0  0  0  0
   45.2170   57.4681   17.5774 C   0  0  0  0  0  0  0  0  0  0  0  0
   44.0822   58.1035   17.0130 C   0  0  0  0  0  0  0  0  0  0  0  0
   44.1866   58.8147   15.8386 N   0  0  0  0  0  0  0  0  0  0  0  0
   46.5162   57.3532   17.2368 N   0  0  0  0  0  0  0  0  0  0  0  0
   47.1279   56.6304   18.1288 C   0  0  0  0  0  0  0  0  0  0  0  0
   46.2626   56.2397   19.1125 N   0  0  0  0  0  0  0  0  0  0  0  0
  2  1  1  6  0  0  0
  2  3  1  0  0  0  0
  2  5  1  0  0  0  0
  3  4  1  0  0  0  0
  3 17  1  0  0  0  0
  5  6  1  0  0  0  0
  7  6  1  6  0  0  0
  7  8  1  0  0  0  0
  7  9  1  0  0  0  0
 10  9  1  6  0  0  0
 10 11  1  0  0  0  0
 10 12  1  0  0  0  0
 11 16  1  0  0  0  0
 12 13  1  1  0  0  0
 12 14  1  0  0  0  0
 14 15  1  1  0  0  0
 14 16  1  0  0  0  0
 16 27  1  6  0  0  0
 18 19  2  0  0  0  0
 18 23  1  0  0  0  0
 19 20  1  0  0  0  0
 20 21  2  0  0  0  0
 21 22  1  0  0  0  0
 21 27  1  0  0  0  0
 22 23  2  0  0  0  0
 22 25  1  0  0  0  0
 23 24  1  0  0  0  0
 25 26  2  0  0  0  0
 26 27  1  0  0  0  0
M  END
>  <CHROM.1>
-89.04303923,-64.92510659,-149.38320333,40.48463779,-135.92810042,68.54631752
-163.36778512,48.51324099,55.35021823,18.43585953,-0.01363137,0.32823596
-0.96535393

>  <Name>
ligand

>  <RI>
0

>  <Rbt.Current_Directory>
/home/itssahil/PROJECTS/Mol_Feturizer/New_Systems/rnas/2GIS

>  <Rbt.Executable>
rbdock ($Id: //depot/dev/client3/rdock/2013.1/src/exe/rbdock.cxx#4 $)

>  <Rbt.Library>
libRbt.so (2013.1, Build901 2013/11/27)

>  <Rbt.Parameter_File>
/export/apps/rDock/src/rDock_2013.1_src/data/scripts/dock_solv.prm

>  <Rbt.Receptor>
prm/blind_docking_80.prm

>  <SCORE>
-16.4892

>  <SCORE.INTER>
-16.7281

>  <SCORE.INTER.CONST>
1

>  <SCORE.INTER.POLAR>
0

>  <SCORE.INTER.ROT>
7

>  <SCORE.INTER.SOLV>
14.9431

>  <SCORE.INTER.VDW>
-24.3998

>  <SCORE.INTER.norm>
-0.619561

>  <SCORE.INTRA>
0.238972

>  <SCORE.INTRA.DIHEDRAL>
1.71624

>  <SCORE.INTRA.DIHEDRAL.0>
9.40024

>  <SCORE.INTRA.POLAR>
0

>  <SCORE.INTRA.POLAR.0>
0

>  <SCORE.INTRA.REPUL>
0

>  <SCORE.INTRA.REPUL.0>
0

>  <SCORE.INTRA.SOLV>
-2.53049

>  <SCORE.INTRA.SOLV.lig_0>
-47.1049

>  <SCORE.INTRA.VDW>
0.646097

>  <SCORE.INTRA.VDW.0>
-1.50278

>  <SCORE.INTRA.norm>
0.00885082

>  <SCORE.RESTR>
0

>  <SCORE.RESTR.CAVITY>
0

>  <SCORE.RESTR.norm>
0

>  <SCORE.SYSTEM>
0

>  <SCORE.SYSTEM.CONST>
0

>  <SCORE.SYSTEM.DIHEDRAL>
0

>  <SCORE.SYSTEM.SOLV>
0

>  <SCORE.SYSTEM.norm>
0

>  <SCORE.heavy>
27

>  <SCORE.norm>
-0.61071

>  <RMSD>
13.474

$$$$
ligand
 OpenBabel11021811433D
libRbt.so/2013.1/901 2013/11/27
 27 29  0  0  0  0  0  0  0  0999 V2000
   53.7304   56.4872   15.2887 N   0  0  0  0  0  0  0  0  0  0  0  0
   54.6382   56.2398   16.4132 C   0  0  2  0  0  0  0  0  0  0  0  0
   56.0757   56.3286   15.9326 C   0  0  0  0  0  0  0  0  0  0  0  0
   56.3622   55.9865   14.7887 O   0  0  0  0  0  0  0  0  0  0  0  0
   54.3781   54.8516   17.0315 C   0  0  0  0  0  0  0  0  0  0  0  0
   52.9584   54.8108   17.5948 C   0  0  0  0  0  0  0  0  0  0  0  0
   52.4751   53.2228   18.3879 S   0  0  2  0  0  0  0  0  0  0  0  0
   52.4812   52.0240   17.0187 C   0  0  0  0  0  0  0  0  0  0  0  0
   50.7153   53.6041   18.5171 C   0  0  0  0  0  0  0  0  0  0  0  0
   50.3419   54.3887   19.7868 C   0  0  1  0  0  0  0  0  0  0  0  0
   49.6746   55.6272   19.4027 O   0  0  0  0  0  0  0  0  0  0  0  0
   49.2797   53.5216   20.4124 C   0  0  1  0  0  0  0  0  0  0  0  0
   49.8634   52.6863   21.4126 O   0  0  0  0  0  0  0  0  0  0  0  0
   48.3172   54.5174   21.0477 C   0  0  1  0  0  0  0  0  0  0  0  0
   48.5801   54.7084   22.4330 O   0  0  0  0  0  0  0  0  0  0  0  0
   48.4956   55.8657   20.2589 C   0  0  2  0  0  0  0  0  0  0  0  0
   56.9671   56.6823   16.7047 O   0  0  0  0  0  0  0  0  0  0  0  0
   43.4187   55.3613   19.0132 N   0  0  0  0  0  0  0  0  0  0  0  0
   44.0553   54.8554   20.0752 C   0  0  0  0  0  0  0  0  0  0  0  0
   45.3444   55.0797   20.2757 N   0  0  0  0  0  0  0  0  0  0  0  0
   46.0738   55.7968   19.4050 C   0  0  0  0  0  0  0  0  0  0  0  0
   45.4464   56.3424   18.2557 C   0  0  0  0  0  0  0  0  0  0  0  0
   44.0602   56.0951   18.0892 C   0  0  0  0  0  0  0  0  0  0  0  0
   43.3831   56.5953   16.9996 N   0  0  0  0  0  0  0  0  0  0  0  0
   46.3899   57.0044   17.5566 N   0  0  0  0  0  0  0  0  0  0  0  0
   47.5296   56.8998   18.1749 C   0  0  0  0  0  0  0  0  0  0  0  0
   47.3930   56.1704   19.3231 N   0  0  0  0  0  0  0  0  0  0  0  0
  2  1  1  6  0  0  0
  2  3  1  0  0  0  0
  2  5  1  0  0  0  0
  3  4  1  0  0  0  0
  3 17  1  0  0  0  0
  5  6  1  0  0  0  0
  7  6  1  6  0  0  0
  7  8  1  0  0  0  0
  7  9  1  0  0  0  0
 10  9  1  6  0  0  0
 10 11  1  0  0  0  0
 10 12  1  0  0  0  0
 11 16  1  0  0  0  0
 12 13  1  1  0  0  0
 12 14  1  0  0  0  0
 14 15  1  1  0  0  0
 14 16  1  0  0  0  0
 16 27  1  6  0  0  0
 18 19  2  0  0  0  0
 18 23  1  0  0  0  0
 19 20  1  0  0  0  0
 20 21  2  0  0  0  0
 21 22  1  0  0  0  0
 21 27  1  0  0  0  0
 22 23  2  0  0  0  0
 22 25  1  0  0  0  0
 23 24  1  0  0  0  0
 25 26  2  0  0  0  0
 26 27  1  0  0  0  0
M  END
>  <CHROM.1>
-32.39425351,-62.71755864,-179.57286125,-65.29926154,-86.04202665,123.29736725
141.92696747,49.84762886,55.12461666,18.49757314,0.20241656,0.19774018,-0.91065611

>  <Name>
ligand

>  <RI>
0

>  <Rbt.Current_Directory>
/home/itssahil/PROJECTS/Mol_Feturizer/New_Systems/rnas/2GIS

>  <Rbt.Executable>
rbdock ($Id: //depot/dev/client3/rdock/2013.1/src/exe/rbdock.cxx#4 $)

>  <Rbt.Library>
libRbt.so (2013.1, Build901 2013/11/27)

>  <Rbt.Parameter_File>
/export/apps/rDock/src/rDock_2013.1_src/data/scripts/dock_solv.prm

>  <Rbt.Receptor>
prm/blind_docking_100.prm

>  <SCORE>
-18.5724

>  <SCORE.INTER>
-16.5058

>  <SCORE.INTER.CONST>
1

>  <SCORE.INTER.POLAR>
0

>  <SCORE.INTER.ROT>
7

>  <SCORE.INTER.SOLV>
9.24471

>  <SCORE.INTER.VDW>
-22.3521

>  <SCORE.INTER.norm>
-0.611324

>  <SCORE.INTRA>
-2.06662

>  <SCORE.INTRA.DIHEDRAL>
-0.332306

>  <SCORE.INTRA.DIHEDRAL.0>
9.40024

>  <SCORE.INTRA.POLAR>
0

>  <SCORE.INTRA.POLAR.0>
0

>  <SCORE.INTRA.REPUL>
0

>  <SCORE.INTRA.REPUL.0>
0

>  <SCORE.INTRA.SOLV>
-2.43828

>  <SCORE.INTRA.SOLV.lig_0>
-47.1049

>  <SCORE.INTRA.VDW>
-0.681326

>  <SCORE.INTRA.VDW.0>
-1.50278

>  <SCORE.INTRA.norm>
-0.0765414

>  <SCORE.RESTR>
0

>  <SCORE.RESTR.CAVITY>
0

>  <SCORE.RESTR.norm>
0

>  <SCORE.SYSTEM>
0

>  <SCORE.SYSTEM.CONST>
0

>  <SCORE.SYSTEM.DIHEDRAL>
0

>  <SCORE.SYSTEM.SOLV>
0

>  <SCORE.SYSTEM.norm>
0

>  <SCORE.heavy>
27

>  <SCORE.norm>
-0.687866

>  <RMSD>
13.495

$$$$
ligand
 OpenBabel11021811433D
libRbt.so/2013.1/901 2013/11/27
 27 29  0  0  0  0  0  0  0  0999 V2000
   51.8799   53.0981   18.2621 N   0  0  0  0  0  0  0  0  0  0  0  0
   50.7432   53.8464   18.8078 C   0  0  2  0  0  0  0  0  0  0  0  0
   50.8058   55.2850   18.3262 C   0  0  0  0  0  0  0  0  0  0  0  0
   51.8937   55.8293   18.1600 O   0  0  0  0  0  0  0  0  0  0  0  0
   50.7527   53.8098   20.3490 C   0  0  0  0  0  0  0  0  0  0  0  0
   49.5812   54.6357   20.8782 C   0  0  0  0  0  0  0  0  0  0  0  0
   48.0189   53.7007   21.1422 S   0  0  2  0  0  0  0  0  0  0  0  0
   48.0599   52.4012   19.8688 C   0  0  0  0  0  0  0  0  0  0  0  0
   46.9359   54.9205   20.3690 C   0  0  0  0  0  0  0  0  0  0  0  0
   45.4652   54.8113   20.8076 C   0  0  1  0  0  0  0  0  0  0  0  0
   44.7352   55.9765   20.3216 O   0  0  0  0  0  0  0  0  0  0  0  0
   44.9642   53.6412   20.0006 C   0  0  1  0  0  0  0  0  0  0  0  0
   45.0177   52.4514   20.7881 O   0  0  0  0  0  0  0  0  0  0  0  0
   43.5185   54.0035   19.6835 C   0  0  1  0  0  0  0  0  0  0  0  0
   42.6037   53.4063   20.5949 O   0  0  0  0  0  0  0  0  0  0  0  0
   43.4317   55.5716   19.7589 C   0  0  2  0  0  0  0  0  0  0  0  0
   49.7698   55.9298   18.1620 O   0  0  0  0  0  0  0  0  0  0  0  0
   45.8659   58.2476   15.9516 N   0  0  0  0  0  0  0  0  0  0  0  0
   46.3867   57.8000   17.0994 C   0  0  0  0  0  0  0  0  0  0  0  0
   45.6558   57.1174   17.9665 N   0  0  0  0  0  0  0  0  0  0  0  0
   44.3534   56.8739   17.7455 C   0  0  0  0  0  0  0  0  0  0  0  0
   43.7518   57.3408   16.5487 C   0  0  0  0  0  0  0  0  0  0  0  0
   44.5749   58.0503   15.6380 C   0  0  0  0  0  0  0  0  0  0  0  0
   44.0613   58.5309   14.4543 N   0  0  0  0  0  0  0  0  0  0  0  0
   42.4559   56.9709   16.5772 N   0  0  0  0  0  0  0  0  0  0  0  0
   42.2199   56.3320   17.6856 C   0  0  0  0  0  0  0  0  0  0  0  0
   43.3548   56.2379   18.4419 N   0  0  0  0  0  0  0  0  0  0  0  0
  2  1  1  6  0  0  0
  2  3  1  0  0  0  0
  2  5  1  0  0  0  0
  3  4  1  0  0  0  0
  3 17  1  0  0  0  0
  5  6  1  0  0  0  0
  7  6  1  6  0  0  0
  7  8  1  0  0  0  0
  7  9  1  0  0  0  0
 10  9  1  6  0  0  0
 10 11  1  0  0  0  0
 10 12  1  0  0  0  0
 11 16  1  0  0  0  0
 12 13  1  1  0  0  0
 12 14  1  0  0  0  0
 14 15  1  1  0  0  0
 14 16  1  0  0  0  0
 16 27  1  6  0  0  0
 18 19  2  0  0  0  0
 18 23  1  0  0  0  0
 19 20  1  0  0  0  0
 20 21  2  0  0  0  0
 21 22  1  0  0  0  0
 21 27  1  0  0  0  0
 22 23  2  0  0  0  0
 22 25  1  0  0  0  0
 23 24  1  0  0  0  0
 25 26  2  0  0  0  0
 26 27  1  0  0  0  0
M  END
>  <CHROM.1>
-33.92403973,178.21447636,90.68845163,-31.36011566,-158.46946299,169.80120645
11.95947566,46.46233345,55.29809607,18.85383351,-0.45821644,0.07403478,-0.82651135

>  <Name>
ligand

>  <RI>
0

>  <Rbt.Current_Directory>
/home/itssahil/PROJECTS/Mol_Feturizer/New_Systems/rnas/2GIS

>  <Rbt.Executable>
rbdock ($Id: //depot/dev/client3/rdock/2013.1/src/exe/rbdock.cxx#4 $)

>  <Rbt.Library>
libRbt.so (2013.1, Build901 2013/11/27)

>  <Rbt.Parameter_File>
/export/apps/rDock/src/rDock_2013.1_src/data/scripts/dock_solv.prm

>  <Rbt.Receptor>
prm/blind_docking_80.prm

>  <SCORE>
-19.3501

>  <SCORE.INTER>
-19.1714

>  <SCORE.INTER.CONST>
1

>  <SCORE.INTER.POLAR>
0

>  <SCORE.INTER.ROT>
7

>  <SCORE.INTER.SOLV>
11.27

>  <SCORE.INTER.VDW>
-24.8043

>  <SCORE.INTER.norm>
-0.710053

>  <SCORE.INTRA>
-0.208183

>  <SCORE.INTRA.DIHEDRAL>
1.89154

>  <SCORE.INTRA.DIHEDRAL.0>
9.40024

>  <SCORE.INTRA.POLAR>
0

>  <SCORE.INTRA.POLAR.0>
0

>  <SCORE.INTRA.REPUL>
0

>  <SCORE.INTRA.REPUL.0>
0

>  <SCORE.INTRA.SOLV>
-2.2615

>  <SCORE.INTRA.SOLV.lig_0>
-47.1049

>  <SCORE.INTRA.VDW>
-0.0232047

>  <SCORE.INTRA.VDW.0>
-1.50278

>  <SCORE.INTRA.norm>
-0.00771048

>  <SCORE.RESTR>
0.0295279

>  <SCORE.RESTR.CAVITY>
0.0295279

>  <SCORE.RESTR.norm>
0.00109363

>  <SCORE.SYSTEM>
0

>  <SCORE.SYSTEM.CONST>
0

>  <SCORE.SYSTEM.DIHEDRAL>
0

>  <SCORE.SYSTEM.SOLV>
0

>  <SCORE.SYSTEM.norm>
0

>  <SCORE.heavy>
27

>  <SCORE.norm>
-0.71667

>  <RMSD>
13.520

$$$$
ligand
 OpenBabel11021811433D
libRbt.so/2013.1/901 2013/11/27
 27 29  0  0  0  0  0  0  0  0999 V2000
   55.7942   48.9072   24.4713 N   0  0  0  0  0  0  0  0  0  0  0  0
   54.8822   49.4194   23.4438 C   0  0  2  0  0  0  0  0  0  0  0  0
   55.6354   49.5872   22.1362 C   0  0  0  0  0  0  0  0  0  0  0  0
   56.7895   50.0061   22.1426 O   0  0  0  0  0  0  0  0  0  0  0  0
   54.2747   50.7693   23.8746 C   0  0  0  0  0  0  0  0  0  0  0  0
   53.1778   51.1644   22.8871 C   0  0  0  0  0  0  0  0  0  0  0  0
   52.4541   52.8357   23.1467 S   0  0  2  0  0  0  0  0  0  0  0  0
   51.5757   52.6962   24.7345 C   0  0  0  0  0  0  0  0  0  0  0  0
   51.0972   52.6384   21.9725 C   0  0  0  0  0  0  0  0  0  0  0  0
   50.2284   53.8978   21.8109 C   0  0  1  0  0  0  0  0  0  0  0  0
   50.9858   54.9090   21.0825 O   0  0  0  0  0  0  0  0  0  0  0  0
   49.1442   53.4349   20.8719 C   0  0  1  0  0  0  0  0  0  0  0  0
   47.9896   53.0490   21.6180 O   0  0  0  0  0  0  0  0  0  0  0  0
   48.8417   54.6635   20.0229 C   0  0  1  0  0  0  0  0  0  0  0  0
   47.7198   55.3897   20.5111 O   0  0  0  0  0  0  0  0  0  0  0  0
   50.1372   55.5537   20.0608 C   0  0  2  0  0  0  0  0  0  0  0  0
   55.0731   49.3654   21.0636 O   0  0  0  0  0  0  0  0  0  0  0  0
   52.6134   52.6930   16.4185 N   0  0  0  0  0  0  0  0  0  0  0  0
   51.9535   52.2534   17.4957 C   0  0  0  0  0  0  0  0  0  0  0  0
   51.3553   53.0930   18.3261 N   0  0  0  0  0  0  0  0  0  0  0  0
   51.4135   54.4220   18.1400 C   0  0  0  0  0  0  0  0  0  0  0  0
   52.1139   54.9375   17.0193 C   0  0  0  0  0  0  0  0  0  0  0  0
   52.7234   54.0032   16.1441 C   0  0  0  0  0  0  0  0  0  0  0  0
   53.4175   54.4295   15.0341 N   0  0  0  0  0  0  0  0  0  0  0  0
   52.0226   56.2814   17.0694 N   0  0  0  0  0  0  0  0  0  0  0  0
   51.3391   56.6228   18.1223 C   0  0  0  0  0  0  0  0  0  0  0  0
   50.9338   55.5170   18.8166 N   0  0  0  0  0  0  0  0  0  0  0  0
  2  1  1  1  0  0  0
  2  3  1  0  0  0  0
  2  5  1  0  0  0  0
  3  4  1  0  0  0  0
  3 17  1  0  0  0  0
  5  6  1  0  0  0  0
  7  6  1  6  0  0  0
  7  8  1  0  0  0  0
  7  9  1  0  0  0  0
 10  9  1  6  0  0  0
 10 11  1  0  0  0  0
 10 12  1  0  0  0  0
 11 16  1  0  0  0  0
 12 13  1  1  0  0  0
 12 14  1  0  0  0  0
 14 15  1  1  0  0  0
 14 16  1  0  0  0  0
 16 27  1  6  0  0  0
 18 19  2  0  0  0  0
 18 23  1  0  0  0  0
 19 20  1  0  0  0  0
 20 21  2  0  0  0  0
 21 22  1  0  0  0  0
 21 27  1  0  0  0  0
 22 23  2  0  0  0  0
 22 25  1  0  0  0  0
 23 24  1  0  0  0  0
 25 26  2  0  0  0  0
 26 27  1  0  0  0  0
M  END
>  <CHROM.1>
-38.88130507,-171.45351022,-174.07383131,-67.13845461,-177.00393045,71.59084988
60.56778244,52.07405002,53.01042894,20.53416154,-0.93867676,0.57847558,-1.19731852

>  <Name>
ligand

>  <RI>
0

>  <Rbt.Current_Directory>
/home/itssahil/PROJECTS/Mol_Feturizer/New_Systems/rnas/2GIS

>  <Rbt.Executable>
rbdock ($Id: //depot/dev/client3/rdock/2013.1/src/exe/rbdock.cxx#4 $)

>  <Rbt.Library>
libRbt.so (2013.1, Build901 2013/11/27)

>  <Rbt.Parameter_File>
/export/apps/rDock/src/rDock_2013.1_src/data/scripts/dock_solv.prm

>  <Rbt.Receptor>
prm/blind_docking_80.prm

>  <SCORE>
-16.787

>  <SCORE.INTER>
-11.2494

>  <SCORE.INTER.CONST>
1

>  <SCORE.INTER.POLAR>
0

>  <SCORE.INTER.ROT>
7

>  <SCORE.INTER.SOLV>
17.0328

>  <SCORE.INTER.VDW>
-21.4438

>  <SCORE.INTER.norm>
-0.416643

>  <SCORE.INTRA>
-5.53765

>  <SCORE.INTRA.DIHEDRAL>
-5.13426

>  <SCORE.INTRA.DIHEDRAL.0>
9.40024

>  <SCORE.INTRA.POLAR>
0

>  <SCORE.INTRA.POLAR.0>
0

>  <SCORE.INTRA.REPUL>
0

>  <SCORE.INTRA.REPUL.0>
0

>  <SCORE.INTRA.SOLV>
-3.14456

>  <SCORE.INTRA.SOLV.lig_0>
-47.1049

>  <SCORE.INTRA.VDW>
-1.39824

>  <SCORE.INTRA.VDW.0>
-1.50278

>  <SCORE.INTRA.norm>
-0.205098

>  <SCORE.RESTR>
0

>  <SCORE.RESTR.CAVITY>
0

>  <SCORE.RESTR.norm>
0

>  <SCORE.SYSTEM>
0

>  <SCORE.SYSTEM.CONST>
0

>  <SCORE.SYSTEM.DIHEDRAL>
0

>  <SCORE.SYSTEM.SOLV>
0

>  <SCORE.SYSTEM.norm>
0

>  <SCORE.heavy>
27

>  <SCORE.norm>
-0.621741

>  <RMSD>
13.573

$$$$
ligand
 OpenBabel11021811433D
libRbt.so/2013.1/901 2013/11/27
 27 29  0  0  0  0  0  0  0  0999 V2000
   55.0453   50.6886   24.2852 N   0  0  0  0  0  0  0  0  0  0  0  0
   54.2584   49.9063   23.3267 C   0  0  2  0  0  0  0  0  0  0  0  0
   55.1467   49.4780   22.1723 C   0  0  0  0  0  0  0  0  0  0  0  0
   54.8400   48.5036   21.4911 O   0  0  0  0  0  0  0  0  0  0  0  0
   53.0688   50.7296   22.7940 C   0  0  0  0  0  0  0  0  0  0  0  0
   53.5908   52.0299   22.1846 C   0  0  0  0  0  0  0  0  0  0  0  0
   52.3967   52.9270   21.1105 S   0  0  2  0  0  0  0  0  0  0  0  0
   53.3071   54.4103   20.5785 C   0  0  0  0  0  0  0  0  0  0  0  0
   51.3935   53.5907   22.4566 C   0  0  0  0  0  0  0  0  0  0  0  0
   50.1916   54.4256   21.9816 C   0  0  1  0  0  0  0  0  0  0  0  0
   50.6586   55.4461   21.0503 O   0  0  0  0  0  0  0  0  0  0  0  0
   49.4070   53.4383   21.1564 C   0  0  1  0  0  0  0  0  0  0  0  0
   48.3659   52.8650   21.9477 O   0  0  0  0  0  0  0  0  0  0  0  0
   48.8169   54.2824   20.0334 C   0  0  1  0  0  0  0  0  0  0  0  0
   47.4808   54.6854   20.3108 O   0  0  0  0  0  0  0  0  0  0  0  0
   49.7545   55.5360   19.8866 C   0  0  2  0  0  0  0  0  0  0  0  0
   56.2070   50.0648   21.9547 O   0  0  0  0  0  0  0  0  0  0  0  0
   52.4453   52.6598   16.4126 N   0  0  0  0  0  0  0  0  0  0  0  0
   51.7004   52.2238   17.4344 C   0  0  0  0  0  0  0  0  0  0  0  0
   51.0566   53.0674   18.2255 N   0  0  0  0  0  0  0  0  0  0  0  0
   51.1503   54.3965   18.0556 C   0  0  0  0  0  0  0  0  0  0  0  0
   51.9400   54.9080   16.9940 C   0  0  0  0  0  0  0  0  0  0  0  0
   52.5969   53.9699   16.1582 C   0  0  0  0  0  0  0  0  0  0  0  0
   53.3781   54.3922   15.1060 N   0  0  0  0  0  0  0  0  0  0  0  0
   51.8675   56.2530   17.0486 N   0  0  0  0  0  0  0  0  0  0  0  0
   51.1139   56.5983   18.0511 C   0  0  0  0  0  0  0  0  0  0  0  0
   50.6402   55.4946   18.7042 N   0  0  0  0  0  0  0  0  0  0  0  0
  2  1  1  1  0  0  0
  2  3  1  0  0  0  0
  2  5  1  0  0  0  0
  3  4  1  0  0  0  0
  3 17  1  0  0  0  0
  5  6  1  0  0  0  0
  7  6  1  1  0  0  0
  7  8  1  0  0  0  0
  7  9  1  0  0  0  0
 10  9  1  6  0  0  0
 10 11  1  0  0  0  0
 10 12  1  0  0  0  0
 11 16  1  0  0  0  0
 12 13  1  1  0  0  0
 12 14  1  0  0  0  0
 14 15  1  1  0  0  0
 14 16  1  0  0  0  0
 16 27  1  6  0  0  0
 18 19  2  0  0  0  0
 18 23  1  0  0  0  0
 19 20  1  0  0  0  0
 20 21  2  0  0  0  0
 21 22  1  0  0  0  0
 21 27  1  0  0  0  0
 22 23  2  0  0  0  0
 22 25  1  0  0  0  0
 23 24  1  0  0  0  0
 25 26  2  0  0  0  0
 26 27  1  0  0  0  0
M  END
>  <CHROM.1>
157.32097907,56.02317962,164.40782379,179.21150516,-178.55177611,-52.31589473
84.90859977,51.94186380,53.17208467,20.16120910,0.89823108,-0.58167547,1.98403015

>  <Name>
ligand

>  <RI>
0

>  <Rbt.Current_Directory>
/home/itssahil/PROJECTS/Mol_Feturizer/New_Systems/rnas/2GIS

>  <Rbt.Executable>
rbdock ($Id: //depot/dev/client3/rdock/2013.1/src/exe/rbdock.cxx#4 $)

>  <Rbt.Library>
libRbt.so (2013.1, Build901 2013/11/27)

>  <Rbt.Parameter_File>
/export/apps/rDock/src/rDock_2013.1_src/data/scripts/dock_solv.prm

>  <Rbt.Receptor>
prm/blind_docking_80.prm

>  <SCORE>
-17.0703

>  <SCORE.INTER>
-12.2452

>  <SCORE.INTER.CONST>
1

>  <SCORE.INTER.POLAR>
0

>  <SCORE.INTER.ROT>
7

>  <SCORE.INTER.SOLV>
14.7476

>  <SCORE.INTER.VDW>
-21.346

>  <SCORE.INTER.norm>
-0.453524

>  <SCORE.INTRA>
-4.82514

>  <SCORE.INTRA.DIHEDRAL>
-4.56605

>  <SCORE.INTRA.DIHEDRAL.0>
9.40024

>  <SCORE.INTRA.POLAR>
0

>  <SCORE.INTRA.POLAR.0>
0

>  <SCORE.INTRA.REPUL>
0

>  <SCORE.INTRA.REPUL.0>
0

>  <SCORE.INTRA.SOLV>
-1.99253

>  <SCORE.INTRA.SOLV.lig_0>
-47.1049

>  <SCORE.INTRA.VDW>
-1.54585

>  <SCORE.INTRA.VDW.0>
-1.50278

>  <SCORE.INTRA.norm>
-0.178709

>  <SCORE.RESTR>
0

>  <SCORE.RESTR.CAVITY>
0

>  <SCORE.RESTR.norm>
0

>  <SCORE.SYSTEM>
0

>  <SCORE.SYSTEM.CONST>
0

>  <SCORE.SYSTEM.DIHEDRAL>
0

>  <SCORE.SYSTEM.SOLV>
0

>  <SCORE.SYSTEM.norm>
0

>  <SCORE.heavy>
27

>  <SCORE.norm>
-0.632233

>  <RMSD>
13.594

$$$$
ligand
 OpenBabel11021811433D
libRbt.so/2013.1/901 2013/11/27
 27 29  0  0  0  0  0  0  0  0999 V2000
   50.4972   54.9919   18.0221 N   0  0  0  0  0  0  0  0  0  0  0  0
   51.4110   54.0675   18.7007 C   0  0  2  0  0  0  0  0  0  0  0  0
   51.4670   52.7576   17.9351 C   0  0  0  0  0  0  0  0  0  0  0  0
   50.4685   52.3448   17.3519 O   0  0  0  0  0  0  0  0  0  0  0  0
   50.9511   53.8078   20.1491 C   0  0  0  0  0  0  0  0  0  0  0  0
   49.5249   53.2596   20.1324 C   0  0  0  0  0  0  0  0  0  0  0  0
   48.1978   54.5221   20.3026 S   0  0  2  0  0  0  0  0  0  0  0  0
   48.2873   55.0262   22.0490 C   0  0  0  0  0  0  0  0  0  0  0  0
   46.8257   53.3497   20.3420 C   0  0  0  0  0  0  0  0  0  0  0  0
   45.5135   53.9478   20.8784 C   0  0  1  0  0  0  0  0  0  0  0  0
   45.2516   55.2102   20.1969 O   0  0  0  0  0  0  0  0  0  0  0  0
   44.4758   52.9794   20.3717 C   0  0  1  0  0  0  0  0  0  0  0  0
   44.1586   52.0319   21.3917 O   0  0  0  0  0  0  0  0  0  0  0  0
   43.2681   53.8576   20.0686 C   0  0  1  0  0  0  0  0  0  0  0  0
   42.3302   53.8675   21.1385 O   0  0  0  0  0  0  0  0  0  0  0  0
   43.8297   55.3034   19.8108 C   0  0  2  0  0  0  0  0  0  0  0  0
   52.4913   52.0746   17.9486 O   0  0  0  0  0  0  0  0  0  0  0  0
   46.0284   58.1468   15.9816 N   0  0  0  0  0  0  0  0  0  0  0  0
   46.3878   58.0900   17.2688 C   0  0  0  0  0  0  0  0  0  0  0  0
   45.7509   57.3090   18.1270 N   0  0  0  0  0  0  0  0  0  0  0  0
   44.6974   56.5664   17.7489 C   0  0  0  0  0  0  0  0  0  0  0  0
   44.2693   56.6038   16.3970 C   0  0  0  0  0  0  0  0  0  0  0  0
   44.9913   57.4380   15.5064 C   0  0  0  0  0  0  0  0  0  0  0  0
   44.6357   57.5229   14.1790 N   0  0  0  0  0  0  0  0  0  0  0  0
   43.2064   55.7820   16.2872 N   0  0  0  0  0  0  0  0  0  0  0  0
   42.9497   55.2602   17.4509 C   0  0  0  0  0  0  0  0  0  0  0  0
   43.8404   55.7042   18.3883 N   0  0  0  0  0  0  0  0  0  0  0  0
  2  1  1  6  0  0  0
  2  3  1  0  0  0  0
  2  5  1  0  0  0  0
  3  4  1  0  0  0  0
  3 17  1  0  0  0  0
  5  6  1  0  0  0  0
  7  6  1  1  0  0  0
  7  8  1  0  0  0  0
  7  9  1  0  0  0  0
 10  9  1  6  0  0  0
 10 11  1  0  0  0  0
 10 12  1  0  0  0  0
 11 16  1  0  0  0  0
 12 13  1  1  0  0  0
 12 14  1  0  0  0  0
 14 15  1  1  0  0  0
 14 16  1  0  0  0  0
 16 27  1  6  0  0  0
 18 19  2  0  0  0  0
 18 23  1  0  0  0  0
 19 20  1  0  0  0  0
 20 21  2  0  0  0  0
 21 22  1  0  0  0  0
 21 27  1  0  0  0  0
 22 23  2  0  0  0  0
 22 25  1  0  0  0  0
 23 24  1  0  0  0  0
 25 26  2  0  0  0  0
 26 27  1  0  0  0  0
M  END
>  <CHROM.1>
-33.46298550,57.28159056,-93.11910474,-72.80008352,163.40099401,48.96805721
-37.05380080,46.63406892,54.79331821,18.81303173,-0.33606424,0.20248005,-0.94156116

>  <Name>
ligand

>  <RI>
0

>  <Rbt.Current_Directory>
/home/itssahil/PROJECTS/Mol_Feturizer/New_Systems/rnas/2GIS

>  <Rbt.Executable>
rbdock ($Id: //depot/dev/client3/rdock/2013.1/src/exe/rbdock.cxx#4 $)

>  <Rbt.Library>
libRbt.so (2013.1, Build901 2013/11/27)

>  <Rbt.Parameter_File>
/export/apps/rDock/src/rDock_2013.1_src/data/scripts/dock_solv.prm

>  <Rbt.Receptor>
prm/blind_docking_80.prm

>  <SCORE>
-23.7285

>  <SCORE.INTER>
-21.4473

>  <SCORE.INTER.CONST>
1

>  <SCORE.INTER.POLAR>
0

>  <SCORE.INTER.ROT>
7

>  <SCORE.INTER.SOLV>
16.1027

>  <SCORE.INTER.VDW>
-27.9324

>  <SCORE.INTER.norm>
-0.794344

>  <SCORE.INTRA>
-2.28121

>  <SCORE.INTRA.DIHEDRAL>
-2.41073

>  <SCORE.INTRA.DIHEDRAL.0>
9.40024

>  <SCORE.INTRA.POLAR>
0

>  <SCORE.INTRA.POLAR.0>
0

>  <SCORE.INTRA.REPUL>
0

>  <SCORE.INTRA.REPUL.0>
0

>  <SCORE.INTRA.SOLV>
-1.15224

>  <SCORE.INTRA.SOLV.lig_0>
-47.1049

>  <SCORE.INTRA.VDW>
-0.499723

>  <SCORE.INTRA.VDW.0>
-1.50278

>  <SCORE.INTRA.norm>
-0.0844891

>  <SCORE.RESTR>
0

>  <SCORE.RESTR.CAVITY>
0

>  <SCORE.RESTR.norm>
0

>  <SCORE.SYSTEM>
0

>  <SCORE.SYSTEM.CONST>
0

>  <SCORE.SYSTEM.DIHEDRAL>
0

>  <SCORE.SYSTEM.SOLV>
0

>  <SCORE.SYSTEM.norm>
0

>  <SCORE.heavy>
27

>  <SCORE.norm>
-0.878833

>  <RMSD>
13.640

$$$$
ligand
 OpenBabel11021811433D
libRbt.so/2013.1/901 2013/11/27
 27 29  0  0  0  0  0  0  0  0999 V2000
   54.8679   59.7777   17.4371 N   0  0  0  0  0  0  0  0  0  0  0  0
   55.8999   58.8121   17.8276 C   0  0  2  0  0  0  0  0  0  0  0  0
   57.2580   59.3064   17.3623 C   0  0  0  0  0  0  0  0  0  0  0  0
   58.2608   58.6282   17.5674 O   0  0  0  0  0  0  0  0  0  0  0  0
   55.6109   57.4256   17.2184 C   0  0  0  0  0  0  0  0  0  0  0  0
   54.2240   56.9618   17.6611 C   0  0  0  0  0  0  0  0  0  0  0  0
   53.6655   55.3633   16.9421 S   0  0  2  0  0  0  0  0  0  0  0  0
   53.6958   55.6511   15.1453 C   0  0  0  0  0  0  0  0  0  0  0  0
   51.9129   55.5935   17.3083 C   0  0  0  0  0  0  0  0  0  0  0  0
   51.5252   55.2173   18.7489 C   0  0  1  0  0  0  0  0  0  0  0  0
   50.4784   56.1208   19.2121 O   0  0  0  0  0  0  0  0  0  0  0  0
   50.8664   53.8730   18.5751 C   0  0  1  0  0  0  0  0  0  0  0  0
   51.8110   52.8338   18.8332 O   0  0  0  0  0  0  0  0  0  0  0  0
   49.7649   53.8628   19.6278 C   0  0  1  0  0  0  0  0  0  0  0  0
   50.1678   53.1976   20.8193 O   0  0  0  0  0  0  0  0  0  0  0  0
   49.4245   55.3693   19.9224 C   0  0  2  0  0  0  0  0  0  0  0  0
   57.3680   60.4141   16.8363 O   0  0  0  0  0  0  0  0  0  0  0  0
   44.1799   55.1123   19.8256 N   0  0  0  0  0  0  0  0  0  0  0  0
   45.0183   54.4357   20.6183 C   0  0  0  0  0  0  0  0  0  0  0  0
   46.3279   54.6148   20.5468 N   0  0  0  0  0  0  0  0  0  0  0  0
   46.8713   55.4583   19.6538 C   0  0  0  0  0  0  0  0  0  0  0  0
   46.0237   56.1882   18.7813 C   0  0  0  0  0  0  0  0  0  0  0  0
   44.6264   55.9817   18.9044 C   0  0  0  0  0  0  0  0  0  0  0  0
   43.7421   56.6575   18.0938 N   0  0  0  0  0  0  0  0  0  0  0  0
   46.8120   56.9479   17.9948 N   0  0  0  0  0  0  0  0  0  0  0  0
   48.0567   56.7356   18.3076 C   0  0  0  0  0  0  0  0  0  0  0  0
   48.1526   55.8303   19.3275 N   0  0  0  0  0  0  0  0  0  0  0  0
  2  1  1  6  0  0  0
  2  3  1  0  0  0  0
  2  5  1  0  0  0  0
  3  4  1  0  0  0  0
  3 17  1  0  0  0  0
  5  6  1  0  0  0  0
  7  6  1  1  0  0  0
  7  8  1  0  0  0  0
  7  9  1  0  0  0  0
 10  9  1  6  0  0  0
 10 11  1  0  0  0  0
 10 12  1  0  0  0  0
 11 16  1  0  0  0  0
 12 13  1  1  0  0  0
 12 14  1  0  0  0  0
 14 15  1  1  0  0  0
 14 16  1  0  0  0  0
 16 27  1  6  0  0  0
 18 19  2  0  0  0  0
 18 23  1  0  0  0  0
 19 20  1  0  0  0  0
 20 21  2  0  0  0  0
 21 22  1  0  0  0  0
 21 27  1  0  0  0  0
 22 23  2  0  0  0  0
 22 25  1  0  0  0  0
 23 24  1  0  0  0  0
 25 26  2  0  0  0  0
 26 27  1  0  0  0  0
M  END
>  <CHROM.1>
-178.59643663,-57.18716045,176.41249102,-58.92430641,-82.47325833,145.01899697
-178.62739132,50.91141520,56.12914255,18.38946374,0.31791313,0.13998026,-0.27078777

>  <Name>
ligand

>  <RI>
0

>  <Rbt.Current_Directory>
/home/itssahil/PROJECTS/Mol_Feturizer/New_Systems/rnas/2GIS

>  <Rbt.Executable>
rbdock ($Id: //depot/dev/client3/rdock/2013.1/src/exe/rbdock.cxx#4 $)

>  <Rbt.Library>
libRbt.so (2013.1, Build901 2013/11/27)

>  <Rbt.Parameter_File>
/export/apps/rDock/src/rDock_2013.1_src/data/scripts/dock_solv.prm

>  <Rbt.Receptor>
prm/blind_docking_100.prm

>  <SCORE>
-16.8822

>  <SCORE.INTER>
-14.5953

>  <SCORE.INTER.CONST>
1

>  <SCORE.INTER.POLAR>
0

>  <SCORE.INTER.ROT>
7

>  <SCORE.INTER.SOLV>
9.96852

>  <SCORE.INTER.VDW>
-21.3197

>  <SCORE.INTER.norm>
-0.540567

>  <SCORE.INTRA>
-2.2869

>  <SCORE.INTRA.DIHEDRAL>
-2.12937

>  <SCORE.INTRA.DIHEDRAL.0>
9.40024

>  <SCORE.INTRA.POLAR>
0

>  <SCORE.INTRA.POLAR.0>
0

>  <SCORE.INTRA.REPUL>
0

>  <SCORE.INTRA.REPUL.0>
0

>  <SCORE.INTRA.SOLV>
-2.33779

>  <SCORE.INTRA.SOLV.lig_0>
-47.1049

>  <SCORE.INTRA.VDW>
-0.0533172

>  <SCORE.INTRA.VDW.0>
-1.50278

>  <SCORE.INTRA.norm>
-0.0847

>  <SCORE.RESTR>
0

>  <SCORE.RESTR.CAVITY>
0

>  <SCORE.RESTR.norm>
0

>  <SCORE.SYSTEM>
0

>  <SCORE.SYSTEM.CONST>
0

>  <SCORE.SYSTEM.DIHEDRAL>
0

>  <SCORE.SYSTEM.SOLV>
0

>  <SCORE.SYSTEM.norm>
0

>  <SCORE.heavy>
27

>  <SCORE.norm>
-0.625266

>  <RMSD>
13.790

$$$$
ligand
 OpenBabel11021811433D
libRbt.so/2013.1/901 2013/11/27
 27 29  0  0  0  0  0  0  0  0999 V2000
   54.7466   61.4745   17.4292 N   0  0  0  0  0  0  0  0  0  0  0  0
   53.4971   60.8012   17.7969 C   0  0  2  0  0  0  0  0  0  0  0  0
   52.7784   61.6128   18.8600 C   0  0  0  0  0  0  0  0  0  0  0  0
   51.6536   62.0530   18.6395 O   0  0  0  0  0  0  0  0  0  0  0  0
   53.7758   59.3793   18.3236 C   0  0  0  0  0  0  0  0  0  0  0  0
   54.2898   58.5107   17.1765 C   0  0  0  0  0  0  0  0  0  0  0  0
   54.8132   56.8126   17.6527 S   0  0  2  0  0  0  0  0  0  0  0  0
   55.6695   56.1824   16.1757 C   0  0  0  0  0  0  0  0  0  0  0  0
   53.1851   56.0547   17.4689 C   0  0  0  0  0  0  0  0  0  0  0  0
   53.2252   54.5224   17.3368 C   0  0  1  0  0  0  0  0  0  0  0  0
   53.6639   53.9463   18.6027 O   0  0  0  0  0  0  0  0  0  0  0  0
   51.7681   54.1627   17.1998 C   0  0  1  0  0  0  0  0  0  0  0  0
   51.4336   54.0141   15.8197 O   0  0  0  0  0  0  0  0  0  0  0  0
   51.6482   52.8265   17.9222 C   0  0  1  0  0  0  0  0  0  0  0  0
   51.7152   51.7240   17.0251 O   0  0  0  0  0  0  0  0  0  0  0  0
   52.8350   52.7756   18.9522 C   0  0  2  0  0  0  0  0  0  0  0  0
   53.3433   61.8860   19.9193 O   0  0  0  0  0  0  0  0  0  0  0  0
   52.7687   51.0470   23.9110 N   0  0  0  0  0  0  0  0  0  0  0  0
   53.3089   50.4500   22.8429 C   0  0  0  0  0  0  0  0  0  0  0  0
   53.2681   51.0134   21.6458 N   0  0  0  0  0  0  0  0  0  0  0  0
   52.6546   52.1917   21.4474 C   0  0  0  0  0  0  0  0  0  0  0  0
   52.0542   52.8572   22.5469 C   0  0  0  0  0  0  0  0  0  0  0  0
   52.1378   52.2289   23.8151 C   0  0  0  0  0  0  0  0  0  0  0  0
   51.5811   52.8169   24.9287 N   0  0  0  0  0  0  0  0  0  0  0  0
   51.5128   54.0001   22.0803 N   0  0  0  0  0  0  0  0  0  0  0  0
   51.7243   54.0795   20.7992 C   0  0  0  0  0  0  0  0  0  0  0  0
   52.4283   52.9946   20.3561 N   0  0  0  0  0  0  0  0  0  0  0  0
  2  1  1  1  0  0  0
  2  3  1  0  0  0  0
  2  5  1  0  0  0  0
  3  4  1  0  0  0  0
  3 17  1  0  0  0  0
  5  6  1  0  0  0  0
  7  6  1  6  0  0  0
  7  8  1  0  0  0  0
  7  9  1  0  0  0  0
 10  9  1  1  0  0  0
 10 11  1  0  0  0  0
 10 12  1  0  0  0  0
 11 16  1  0  0  0  0
 12 13  1  6  0  0  0
 12 14  1  0  0  0  0
 14 15  1  6  0  0  0
 14 16  1  0  0  0  0
 16 27  1  1  0  0  0
 18 19  2  0  0  0  0
 18 23  1  0  0  0  0
 19 20  1  0  0  0  0
 20 21  2  0  0  0  0
 21 22  1  0  0  0  0
 21 27  1  0  0  0  0
 22 23  2  0  0  0  0
 22 25  1  0  0  0  0
 23 24  1  0  0  0  0
 25 26  2  0  0  0  0
 26 27  1  0  0  0  0
M  END
>  <CHROM.1>
119.68053868,-68.00753263,174.99287920,-168.80022205,161.36940693,67.88109545
-121.62535531,52.97065065,55.43100739,19.32645059,0.60375581,1.40418986,0.52287404

>  <Name>
ligand

>  <RI>
0

>  <Rbt.Current_Directory>
/home/itssahil/PROJECTS/Mol_Feturizer/New_Systems/rnas/2GIS

>  <Rbt.Executable>
rbdock ($Id: //depot/dev/client3/rdock/2013.1/src/exe/rbdock.cxx#4 $)

>  <Rbt.Library>
libRbt.so (2013.1, Build901 2013/11/27)

>  <Rbt.Parameter_File>
/export/apps/rDock/src/rDock_2013.1_src/data/scripts/dock_solv.prm

>  <Rbt.Receptor>
prm/blind_docking_100.prm

>  <SCORE>
-17.0971

>  <SCORE.INTER>
-13.0552

>  <SCORE.INTER.CONST>
1

>  <SCORE.INTER.POLAR>
0

>  <SCORE.INTER.ROT>
7

>  <SCORE.INTER.SOLV>
8.50002

>  <SCORE.INTER.VDW>
-19.8034

>  <SCORE.INTER.norm>
-0.483524

>  <SCORE.INTRA>
-4.0419

>  <SCORE.INTRA.DIHEDRAL>
-4.19181

>  <SCORE.INTRA.DIHEDRAL.0>
9.40024

>  <SCORE.INTRA.POLAR>
0

>  <SCORE.INTRA.POLAR.0>
0

>  <SCORE.INTRA.REPUL>
0

>  <SCORE.INTRA.REPUL.0>
0

>  <SCORE.INTRA.SOLV>
-2.50058

>  <SCORE.INTRA.SOLV.lig_0>
-47.1049

>  <SCORE.INTRA.VDW>
-0.695705

>  <SCORE.INTRA.VDW.0>
-1.50278

>  <SCORE.INTRA.norm>
-0.1497

>  <SCORE.RESTR>
0

>  <SCORE.RESTR.CAVITY>
0

>  <SCORE.RESTR.norm>
0

>  <SCORE.SYSTEM>
0

>  <SCORE.SYSTEM.CONST>
0

>  <SCORE.SYSTEM.DIHEDRAL>
0

>  <SCORE.SYSTEM.SOLV>
0

>  <SCORE.SYSTEM.norm>
0

>  <SCORE.heavy>
27

>  <SCORE.norm>
-0.633224

>  <RMSD>
13.851

$$$$
ligand
 OpenBabel11021811433D
libRbt.so/2013.1/901 2013/11/27
 27 29  0  0  0  0  0  0  0  0999 V2000
   53.5687   50.7049   25.3036 N   0  0  0  0  0  0  0  0  0  0  0  0
   54.0167   50.0115   24.0919 C   0  0  2  0  0  0  0  0  0  0  0  0
   55.3731   49.3773   24.3434 C   0  0  0  0  0  0  0  0  0  0  0  0
   56.3487   50.0867   24.5724 O   0  0  0  0  0  0  0  0  0  0  0  0
   54.1086   50.9896   22.9037 C   0  0  0  0  0  0  0  0  0  0  0  0
   52.6990   51.4028   22.4832 C   0  0  0  0  0  0  0  0  0  0  0  0
   52.5293   53.1443   21.9151 S   0  0  2  0  0  0  0  0  0  0  0  0
   52.6231   54.1213   23.4477 C   0  0  0  0  0  0  0  0  0  0  0  0
   50.7457   53.0814   21.6436 C   0  0  0  0  0  0  0  0  0  0  0  0
   50.1251   54.4411   21.2786 C   0  0  1  0  0  0  0  0  0  0  0  0
   51.0660   55.1876   20.4514 O   0  0  0  0  0  0  0  0  0  0  0  0
   48.9885   54.0535   20.3679 C   0  0  1  0  0  0  0  0  0  0  0  0
   47.7718   53.9897   21.1122 O   0  0  0  0  0  0  0  0  0  0  0  0
   48.9293   55.1852   19.3493 C   0  0  1  0  0  0  0  0  0  0  0  0
   47.9525   56.1623   19.6895 O   0  0  0  0  0  0  0  0  0  0  0  0
   50.3653   55.8247   19.3187 C   0  0  2  0  0  0  0  0  0  0  0  0
   55.5132   48.1572   24.2561 O   0  0  0  0  0  0  0  0  0  0  0  0
   52.6746   52.1006   16.4238 N   0  0  0  0  0  0  0  0  0  0  0  0
   51.9885   51.9455   17.5615 C   0  0  0  0  0  0  0  0  0  0  0  0
   51.4395   52.9789   18.1801 N   0  0  0  0  0  0  0  0  0  0  0  0
   51.5757   54.2296   17.7094 C   0  0  0  0  0  0  0  0  0  0  0  0
   52.3067   54.4468   16.5132 C   0  0  0  0  0  0  0  0  0  0  0  0
   52.8615   53.3107   15.8717 C   0  0  0  0  0  0  0  0  0  0  0  0
   53.5809   53.4437   14.7053 N   0  0  0  0  0  0  0  0  0  0  0  0
   52.2943   55.7722   16.2675 N   0  0  0  0  0  0  0  0  0  0  0  0
   51.6305   56.3738   17.2108 C   0  0  0  0  0  0  0  0  0  0  0  0
   51.1602   55.4715   18.1238 N   0  0  0  0  0  0  0  0  0  0  0  0
  2  1  1  1  0  0  0
  2  3  1  0  0  0  0
  2  5  1  0  0  0  0
  3  4  1  0  0  0  0
  3 17  1  0  0  0  0
  5  6  1  0  0  0  0
  7  6  1  1  0  0  0
  7  8  1  0  0  0  0
  7  9  1  0  0  0  0
 10  9  1  6  0  0  0
 10 11  1  0  0  0  0
 10 12  1  0  0  0  0
 11 16  1  0  0  0  0
 12 13  1  1  0  0  0
 12 14  1  0  0  0  0
 14 15  1  1  0  0  0
 14 16  1  0  0  0  0
 16 27  1  6  0  0  0
 18 19  2  0  0  0  0
 18 23  1  0  0  0  0
 19 20  1  0  0  0  0
 20 21  2  0  0  0  0
 21 22  1  0  0  0  0
 21 27  1  0  0  0  0
 22 23  2  0  0  0  0
 22 25  1  0  0  0  0
 23 24  1  0  0  0  0
 25 26  2  0  0  0  0
 26 27  1  0  0  0  0
M  END
>  <CHROM.1>
-64.52796317,-70.20619488,144.20445938,-74.27095249,173.91476542,35.76174915
51.96150127,52.02788267,53.16136491,20.37632384,1.01908890,-0.64324762,1.84061807

>  <Name>
ligand

>  <RI>
0

>  <Rbt.Current_Directory>
/home/itssahil/PROJECTS/Mol_Feturizer/New_Systems/rnas/2GIS

>  <Rbt.Executable>
rbdock ($Id: //depot/dev/client3/rdock/2013.1/src/exe/rbdock.cxx#4 $)

>  <Rbt.Library>
libRbt.so (2013.1, Build901 2013/11/27)

>  <Rbt.Parameter_File>
/export/apps/rDock/src/rDock_2013.1_src/data/scripts/dock_solv.prm

>  <Rbt.Receptor>
prm/blind_docking_80.prm

>  <SCORE>
-13.8524

>  <SCORE.INTER>
-11.1307

>  <SCORE.INTER.CONST>
1

>  <SCORE.INTER.POLAR>
0

>  <SCORE.INTER.ROT>
7

>  <SCORE.INTER.SOLV>
22.0536

>  <SCORE.INTER.VDW>
-23.0383

>  <SCORE.INTER.norm>
-0.412248

>  <SCORE.INTRA>
-2.72176

>  <SCORE.INTRA.DIHEDRAL>
-0.378045

>  <SCORE.INTRA.DIHEDRAL.0>
9.40024

>  <SCORE.INTRA.POLAR>
0

>  <SCORE.INTRA.POLAR.0>
0

>  <SCORE.INTRA.REPUL>
0

>  <SCORE.INTRA.REPUL.0>
0

>  <SCORE.INTRA.SOLV>
-1.60455

>  <SCORE.INTRA.SOLV.lig_0>
-47.1049

>  <SCORE.INTRA.VDW>
-1.73046

>  <SCORE.INTRA.VDW.0>
-1.50278

>  <SCORE.INTRA.norm>
-0.100806

>  <SCORE.RESTR>
0

>  <SCORE.RESTR.CAVITY>
0

>  <SCORE.RESTR.norm>
0

>  <SCORE.SYSTEM>
0

>  <SCORE.SYSTEM.CONST>
0

>  <SCORE.SYSTEM.DIHEDRAL>
0

>  <SCORE.SYSTEM.SOLV>
0

>  <SCORE.SYSTEM.norm>
0

>  <SCORE.heavy>
27

>  <SCORE.norm>
-0.513054

>  <RMSD>
13.860

$$$$
ligand
 OpenBabel11021811433D
libRbt.so/2013.1/901 2013/11/27
 27 29  0  0  0  0  0  0  0  0999 V2000
   54.4125   58.4456   13.5904 N   0  0  0  0  0  0  0  0  0  0  0  0
   53.5238   58.7524   14.7155 C   0  0  2  0  0  0  0  0  0  0  0  0
   53.8436   60.1369   15.2506 C   0  0  0  0  0  0  0  0  0  0  0  0
   53.0746   61.0698   15.0367 O   0  0  0  0  0  0  0  0  0  0  0  0
   53.6818   57.7080   15.8386 C   0  0  0  0  0  0  0  0  0  0  0  0
   53.2073   56.3477   15.3297 C   0  0  0  0  0  0  0  0  0  0  0  0
   53.2487   54.9891   16.5693 S   0  0  2  0  0  0  0  0  0  0  0  0
   53.1526   53.4726   15.5678 C   0  0  0  0  0  0  0  0  0  0  0  0
   51.5341   55.1695   17.1046 C   0  0  0  0  0  0  0  0  0  0  0  0
   51.3851   55.6656   18.5533 C   0  0  1  0  0  0  0  0  0  0  0  0
   49.9724   55.6618   18.9153 O   0  0  0  0  0  0  0  0  0  0  0  0
   52.0210   54.5563   19.3511 C   0  0  1  0  0  0  0  0  0  0  0  0
   53.3767   54.8904   19.6499 O   0  0  0  0  0  0  0  0  0  0  0  0
   51.1938   54.5000   20.6295 C   0  0  1  0  0  0  0  0  0  0  0  0
   51.7974   55.2296   21.6914 O   0  0  0  0  0  0  0  0  0  0  0  0
   49.7879   55.1053   20.2703 C   0  0  2  0  0  0  0  0  0  0  0  0
   54.9023   60.3430   15.8443 O   0  0  0  0  0  0  0  0  0  0  0  0
   44.6456   54.0486   20.1209 N   0  0  0  0  0  0  0  0  0  0  0  0
   45.2324   55.2391   20.2870 C   0  0  0  0  0  0  0  0  0  0  0  0
   46.5503   55.3627   20.2852 N   0  0  0  0  0  0  0  0  0  0  0  0
   47.3533   54.2945   20.1492 C   0  0  0  0  0  0  0  0  0  0  0  0
   46.7780   53.0084   19.9843 C   0  0  0  0  0  0  0  0  0  0  0  0
   45.3629   52.9228   19.9722 C   0  0  0  0  0  0  0  0  0  0  0  0
   44.7336   51.7085   19.8134 N   0  0  0  0  0  0  0  0  0  0  0  0
   47.7900   52.1245   19.8753 N   0  0  0  0  0  0  0  0  0  0  0  0
   48.9216   52.7593   19.9685 C   0  0  0  0  0  0  0  0  0  0  0  0
   48.7130   54.1004   20.1330 N   0  0  0  0  0  0  0  0  0  0  0  0
  2  1  1  6  0  0  0
  2  3  1  0  0  0  0
  2  5  1  0  0  0  0
  3  4  1  0  0  0  0
  3 17  1  0  0  0  0
  5  6  1  0  0  0  0
  7  6  1  6  0  0  0
  7  8  1  0  0  0  0
  7  9  1  0  0  0  0
 10  9  1  6  0  0  0
 10 11  1  0  0  0  0
 10 12  1  0  0  0  0
 11 16  1  0  0  0  0
 12 13  1  1  0  0  0
 12 14  1  0  0  0  0
 14 15  1  1  0  0  0
 14 16  1  0  0  0  0
 16 27  1  6  0  0  0
 18 19  2  0  0  0  0
 18 23  1  0  0  0  0
 19 20  1  0  0  0  0
 20 21  2  0  0  0  0
 21 22  1  0  0  0  0
 21 27  1  0  0  0  0
 22 23  2  0  0  0  0
 22 25  1  0  0  0  0
 23 24  1  0  0  0  0
 25 26  2  0  0  0  0
 26 27  1  0  0  0  0
M  END
>  <CHROM.1>
106.96656241,-65.20365728,-177.20070755,-162.71207732,-112.75522310,-175.06658025
-83.78063727,50.63573396,55.50980776,18.19001193,0.72696277,0.23021599,-0.52899750

>  <Name>
ligand

>  <RI>
0

>  <Rbt.Current_Directory>
/home/itssahil/PROJECTS/Mol_Feturizer/New_Systems/rnas/2GIS

>  <Rbt.Executable>
rbdock ($Id: //depot/dev/client3/rdock/2013.1/src/exe/rbdock.cxx#4 $)

>  <Rbt.Library>
libRbt.so (2013.1, Build901 2013/11/27)

>  <Rbt.Parameter_File>
/export/apps/rDock/src/rDock_2013.1_src/data/scripts/dock_solv.prm

>  <Rbt.Receptor>
prm/blind_docking_100.prm

>  <SCORE>
-12.4776

>  <SCORE.INTER>
-10.9246

>  <SCORE.INTER.CONST>
1

>  <SCORE.INTER.POLAR>
0

>  <SCORE.INTER.ROT>
7

>  <SCORE.INTER.SOLV>
20.7507

>  <SCORE.INTER.VDW>
-22.4666

>  <SCORE.INTER.norm>
-0.404613

>  <SCORE.INTRA>
-1.82971

>  <SCORE.INTRA.DIHEDRAL>
-0.496439

>  <SCORE.INTRA.DIHEDRAL.0>
9.40024

>  <SCORE.INTRA.POLAR>
0

>  <SCORE.INTRA.POLAR.0>
0

>  <SCORE.INTRA.REPUL>
0

>  <SCORE.INTRA.REPUL.0>
0

>  <SCORE.INTRA.SOLV>
-2.24479

>  <SCORE.INTRA.SOLV.lig_0>
-47.1049

>  <SCORE.INTRA.VDW>
-0.45909

>  <SCORE.INTRA.VDW.0>
-1.50278

>  <SCORE.INTRA.norm>
-0.0677669

>  <SCORE.RESTR>
0.276659

>  <SCORE.RESTR.CAVITY>
0.276659

>  <SCORE.RESTR.norm>
0.0102466

>  <SCORE.SYSTEM>
0

>  <SCORE.SYSTEM.CONST>
0

>  <SCORE.SYSTEM.DIHEDRAL>
0

>  <SCORE.SYSTEM.SOLV>
0

>  <SCORE.SYSTEM.norm>
0

>  <SCORE.heavy>
27

>  <SCORE.norm>
-0.462133

>  <RMSD>
13.901

$$$$
ligand
 OpenBabel11021811433D
libRbt.so/2013.1/901 2013/11/27
 27 29  0  0  0  0  0  0  0  0999 V2000
   55.1185   51.2181   21.8055 N   0  0  0  0  0  0  0  0  0  0  0  0
   54.1931   51.9590   22.6685 C   0  0  2  0  0  0  0  0  0  0  0  0
   54.5674   51.7347   24.1228 C   0  0  0  0  0  0  0  0  0  0  0  0
   54.8692   52.6899   24.8328 O   0  0  0  0  0  0  0  0  0  0  0  0
   52.7389   51.5076   22.4269 C   0  0  0  0  0  0  0  0  0  0  0  0
   51.7961   52.3961   23.2371 C   0  0  0  0  0  0  0  0  0  0  0  0
   51.7302   54.1567   22.7078 S   0  0  2  0  0  0  0  0  0  0  0  0
   50.7691   54.9773   24.0174 C   0  0  0  0  0  0  0  0  0  0  0  0
   50.4701   53.9245   21.4361 C   0  0  0  0  0  0  0  0  0  0  0  0
   49.9983   55.2354   20.7832 C   0  0  1  0  0  0  0  0  0  0  0  0
   51.0322   55.7131   19.8723 O   0  0  0  0  0  0  0  0  0  0  0  0
   48.8558   54.7800   19.9122 C   0  0  1  0  0  0  0  0  0  0  0  0
   47.6176   54.9771   20.5954 O   0  0  0  0  0  0  0  0  0  0  0  0
   48.9386   55.6869   18.6906 C   0  0  1  0  0  0  0  0  0  0  0  0
   48.0541   56.7973   18.7862 O   0  0  0  0  0  0  0  0  0  0  0  0
   50.4313   56.1734   18.6047 C   0  0  2  0  0  0  0  0  0  0  0  0
   54.6316   50.5924   24.5776 O   0  0  0  0  0  0  0  0  0  0  0  0
   55.0208   55.6879   16.0982 N   0  0  0  0  0  0  0  0  0  0  0  0
   54.7269   56.5022   17.1178 C   0  0  0  0  0  0  0  0  0  0  0  0
   53.5239   56.5065   17.6700 N   0  0  0  0  0  0  0  0  0  0  0  0
   52.5393   55.7176   17.2090 C   0  0  0  0  0  0  0  0  0  0  0  0
   52.7983   54.8465   16.1198 C   0  0  0  0  0  0  0  0  0  0  0  0
   54.1053   54.8588   15.5705 C   0  0  0  0  0  0  0  0  0  0  0  0
   54.4313   54.0383   14.5140 N   0  0  0  0  0  0  0  0  0  0  0  0
   51.6573   54.1786   15.8569 N   0  0  0  0  0  0  0  0  0  0  0  0
   50.7326   54.5742   16.6820 C   0  0  0  0  0  0  0  0  0  0  0  0
   51.2215   55.5183   17.5415 N   0  0  0  0  0  0  0  0  0  0  0  0
  2  1  1  6  0  0  0
  2  3  1  0  0  0  0
  2  5  1  0  0  0  0
  3  4  1  0  0  0  0
  3 17  1  0  0  0  0
  5  6  1  0  0  0  0
  7  6  1  1  0  0  0
  7  8  1  0  0  0  0
  7  9  1  0  0  0  0
 10  9  1  6  0  0  0
 10 11  1  0  0  0  0
 10 12  1  0  0  0  0
 11 16  1  0  0  0  0
 12 13  1  1  0  0  0
 12 14  1  0  0  0  0
 14 15  1  1  0  0  0
 14 16  1  0  0  0  0
 16 27  1  6  0  0  0
 18 19  2  0  0  0  0
 18 23  1  0  0  0  0
 19 20  1  0  0  0  0
 20 21  2  0  0  0  0
 21 22  1  0  0  0  0
 21 27  1  0  0  0  0
 22 23  2  0  0  0  0
 22 25  1  0  0  0  0
 23 24  1  0  0  0  0
 25 26  2  0  0  0  0
 26 27  1  0  0  0  0
M  END
>  <CHROM.1>
120.27432660,-174.33480951,66.45185803,-170.67177665,174.81438695,74.65972839
-66.54910945,52.03805056,54.30325712,20.01133886,-1.38484831,0.38420265,-1.21185531

>  <Name>
ligand

>  <RI>
0

>  <Rbt.Current_Directory>
/home/itssahil/PROJECTS/Mol_Feturizer/New_Systems/rnas/2GIS

>  <Rbt.Executable>
rbdock ($Id: //depot/dev/client3/rdock/2013.1/src/exe/rbdock.cxx#4 $)

>  <Rbt.Library>
libRbt.so (2013.1, Build901 2013/11/27)

>  <Rbt.Parameter_File>
/export/apps/rDock/src/rDock_2013.1_src/data/scripts/dock_solv.prm

>  <Rbt.Receptor>
prm/blind_docking_100.prm

>  <SCORE>
-13.5784

>  <SCORE.INTER>
-9.07654

>  <SCORE.INTER.CONST>
1

>  <SCORE.INTER.POLAR>
0

>  <SCORE.INTER.ROT>
7

>  <SCORE.INTER.SOLV>
17.2796

>  <SCORE.INTER.VDW>
-20.0776

>  <SCORE.INTER.norm>
-0.336168

>  <SCORE.INTRA>
-4.50186

>  <SCORE.INTRA.DIHEDRAL>
-4.3074

>  <SCORE.INTRA.DIHEDRAL.0>
9.40024

>  <SCORE.INTRA.POLAR>
0

>  <SCORE.INTRA.POLAR.0>
0

>  <SCORE.INTRA.REPUL>
0

>  <SCORE.INTRA.REPUL.0>
0

>  <SCORE.INTRA.SOLV>
-3.0502

>  <SCORE.INTRA.SOLV.lig_0>
-47.1049

>  <SCORE.INTRA.VDW>
-0.823058

>  <SCORE.INTRA.VDW.0>
-1.50278

>  <SCORE.INTRA.norm>
-0.166736

>  <SCORE.RESTR>
0

>  <SCORE.RESTR.CAVITY>
0

>  <SCORE.RESTR.norm>
0

>  <SCORE.SYSTEM>
0

>  <SCORE.SYSTEM.CONST>
0

>  <SCORE.SYSTEM.DIHEDRAL>
0

>  <SCORE.SYSTEM.SOLV>
0

>  <SCORE.SYSTEM.norm>
0

>  <SCORE.heavy>
27

>  <SCORE.norm>
-0.502904

>  <RMSD>
13.977

$$$$
ligand
 OpenBabel11021811433D
libRbt.so/2013.1/901 2013/11/27
 27 29  0  0  0  0  0  0  0  0999 V2000
   54.6561   61.5582   16.9936 N   0  0  0  0  0  0  0  0  0  0  0  0
   53.5178   60.9811   17.7156 C   0  0  2  0  0  0  0  0  0  0  0  0
   52.9867   61.9929   18.7153 C   0  0  0  0  0  0  0  0  0  0  0  0
   53.7581   62.5549   19.4877 O   0  0  0  0  0  0  0  0  0  0  0  0
   53.9322   59.6894   18.4482 C   0  0  0  0  0  0  0  0  0  0  0  0
   53.9926   58.5397   17.4438 C   0  0  0  0  0  0  0  0  0  0  0  0
   54.3881   56.8923   18.1608 S   0  0  2  0  0  0  0  0  0  0  0  0
   56.0466   56.5143   17.5139 C   0  0  0  0  0  0  0  0  0  0  0  0
   53.3439   55.9413   17.0365 C   0  0  0  0  0  0  0  0  0  0  0  0
   53.3503   54.4281   17.3141 C   0  0  1  0  0  0  0  0  0  0  0  0
   52.8762   54.1908   18.6727 O   0  0  0  0  0  0  0  0  0  0  0  0
   52.2652   53.9184   16.4008 C   0  0  1  0  0  0  0  0  0  0  0  0
   52.8410   53.4361   15.1865 O   0  0  0  0  0  0  0  0  0  0  0  0
   51.6339   52.7721   17.1812 C   0  0  1  0  0  0  0  0  0  0  0  0
   52.1617   51.5076   16.7979 O   0  0  0  0  0  0  0  0  0  0  0  0
   51.9289   53.0586   18.6988 C   0  0  2  0  0  0  0  0  0  0  0  0
   51.7770   62.2061   18.7988 O   0  0  0  0  0  0  0  0  0  0  0  0
   46.8828   52.4595   20.0255 N   0  0  0  0  0  0  0  0  0  0  0  0
   47.6117   51.6904   19.2092 C   0  0  0  0  0  0  0  0  0  0  0  0
   48.8888   51.9503   18.9775 N   0  0  0  0  0  0  0  0  0  0  0  0
   49.4972   53.0148   19.5260 C   0  0  0  0  0  0  0  0  0  0  0  0
   48.7620   53.8686   20.3878 C   0  0  0  0  0  0  0  0  0  0  0  0
   47.4025   53.5433   20.6250 C   0  0  0  0  0  0  0  0  0  0  0  0
   46.6272   54.3241   21.4526 N   0  0  0  0  0  0  0  0  0  0  0  0
   49.5953   54.8474   20.7935 N   0  0  0  0  0  0  0  0  0  0  0  0
   50.7623   54.6663   20.2479 C   0  0  0  0  0  0  0  0  0  0  0  0
   50.7611   53.5486   19.4607 N   0  0  0  0  0  0  0  0  0  0  0  0
  2  1  1  1  0  0  0
  2  3  1  0  0  0  0
  2  5  1  0  0  0  0
  3  4  1  0  0  0  0
  3 17  1  0  0  0  0
  5  6  1  0  0  0  0
  7  6  1  6  0  0  0
  7  8  1  0  0  0  0
  7  9  1  0  0  0  0
 10  9  1  1  0  0  0
 10 11  1  0  0  0  0
 10 12  1  0  0  0  0
 11 16  1  0  0  0  0
 12 13  1  6  0  0  0
 12 14  1  0  0  0  0
 14 15  1  6  0  0  0
 14 16  1  0  0  0  0
 16 27  1  1  0  0  0
 18 19  2  0  0  0  0
 18 23  1  0  0  0  0
 19 20  1  0  0  0  0
 20 21  2  0  0  0  0
 21 22  1  0  0  0  0
 21 27  1  0  0  0  0
 22 23  2  0  0  0  0
 22 25  1  0  0  0  0
 23 24  1  0  0  0  0
 25 26  2  0  0  0  0
 26 27  1  0  0  0  0
M  END
>  <CHROM.1>
-50.02121816,-78.57087891,-176.93589387,-111.55193018,-178.69967196,59.55276515
164.07455874,51.78684922,55.82839035,18.50071421,0.91096566,0.55773647,0.23919871

>  <Name>
ligand

>  <RI>
0

>  <Rbt.Current_Directory>
/home/itssahil/PROJECTS/Mol_Feturizer/New_Systems/rnas/2GIS

>  <Rbt.Executable>
rbdock ($Id: //depot/dev/client3/rdock/2013.1/src/exe/rbdock.cxx#4 $)

>  <Rbt.Library>
libRbt.so (2013.1, Build901 2013/11/27)

>  <Rbt.Parameter_File>
/export/apps/rDock/src/rDock_2013.1_src/data/scripts/dock_solv.prm

>  <Rbt.Receptor>
prm/blind_docking_100.prm

>  <SCORE>
-16.3023

>  <SCORE.INTER>
-13.5773

>  <SCORE.INTER.CONST>
1

>  <SCORE.INTER.POLAR>
0

>  <SCORE.INTER.ROT>
7

>  <SCORE.INTER.SOLV>
12.6991

>  <SCORE.INTER.VDW>
-21.5512

>  <SCORE.INTER.norm>
-0.502861

>  <SCORE.INTRA>
-2.73275

>  <SCORE.INTRA.DIHEDRAL>
-1.17791

>  <SCORE.INTRA.DIHEDRAL.0>
9.40024

>  <SCORE.INTRA.POLAR>
0

>  <SCORE.INTRA.POLAR.0>
0

>  <SCORE.INTRA.REPUL>
0

>  <SCORE.INTRA.REPUL.0>
0

>  <SCORE.INTRA.SOLV>
-2.6172

>  <SCORE.INTRA.SOLV.lig_0>
-47.1049

>  <SCORE.INTRA.VDW>
-0.835198

>  <SCORE.INTRA.VDW.0>
-1.50278

>  <SCORE.INTRA.norm>
-0.101213

>  <SCORE.RESTR>
0.00766519

>  <SCORE.RESTR.CAVITY>
0.00766519

>  <SCORE.RESTR.norm>
0.000283896

>  <SCORE.SYSTEM>
0

>  <SCORE.SYSTEM.CONST>
0

>  <SCORE.SYSTEM.DIHEDRAL>
0

>  <SCORE.SYSTEM.SOLV>
0

>  <SCORE.SYSTEM.norm>
0

>  <SCORE.heavy>
27

>  <SCORE.norm>
-0.60379

>  <RMSD>
14.135

$$$$
ligand
 OpenBabel11021811433D
libRbt.so/2013.1/901 2013/11/27
 27 29  0  0  0  0  0  0  0  0999 V2000
   54.5721   46.0274   19.0505 N   0  0  0  0  0  0  0  0  0  0  0  0
   55.5989   47.0725   18.9923 C   0  0  2  0  0  0  0  0  0  0  0  0
   56.7451   46.6078   18.1116 C   0  0  0  0  0  0  0  0  0  0  0  0
   57.2947   45.5332   18.3367 O   0  0  0  0  0  0  0  0  0  0  0  0
   56.1242   47.4030   20.4036 C   0  0  0  0  0  0  0  0  0  0  0  0
   55.0709   48.2171   21.1535 C   0  0  0  0  0  0  0  0  0  0  0  0
   55.6555   49.0168   22.7036 S   0  0  2  0  0  0  0  0  0  0  0  0
   56.0220   47.6204   23.8116 C   0  0  0  0  0  0  0  0  0  0  0  0
   54.0213   49.5134   23.2880 C   0  0  0  0  0  0  0  0  0  0  0  0
   53.9646   50.9554   23.8214 C   0  0  1  0  0  0  0  0  0  0  0  0
   54.2021   51.8808   22.7195 O   0  0  0  0  0  0  0  0  0  0  0  0
   52.5127   51.1154   24.1923 C   0  0  1  0  0  0  0  0  0  0  0  0
   52.3391   50.8675   25.5876 O   0  0  0  0  0  0  0  0  0  0  0  0
   52.2077   52.5731   23.8699 C   0  0  1  0  0  0  0  0  0  0  0  0
   52.3026   53.4075   25.0185 O   0  0  0  0  0  0  0  0  0  0  0  0
   53.2530   53.0101   22.7797 C   0  0  2  0  0  0  0  0  0  0  0  0
   57.1686   47.3326   17.2110 O   0  0  0  0  0  0  0  0  0  0  0  0
   53.5552   51.6934   17.7046 N   0  0  0  0  0  0  0  0  0  0  0  0
   54.3710   51.3211   18.6971 C   0  0  0  0  0  0  0  0  0  0  0  0
   54.1633   51.7162   19.9432 N   0  0  0  0  0  0  0  0  0  0  0  0
   53.1445   52.5333   20.2578 C   0  0  0  0  0  0  0  0  0  0  0  0
   52.2601   52.9670   19.2371 C   0  0  0  0  0  0  0  0  0  0  0  0
   52.5066   52.5047   17.9197 C   0  0  0  0  0  0  0  0  0  0  0  0
   51.6885   52.8813   16.8782 N   0  0  0  0  0  0  0  0  0  0  0  0
   51.3422   53.7694   19.8124 N   0  0  0  0  0  0  0  0  0  0  0  0
   51.5983   53.8658   21.0841 C   0  0  0  0  0  0  0  0  0  0  0  0
   52.6953   53.1202   21.4156 N   0  0  0  0  0  0  0  0  0  0  0  0
  2  1  1  1  0  0  0
  2  3  1  0  0  0  0
  2  5  1  0  0  0  0
  3  4  1  0  0  0  0
  3 17  1  0  0  0  0
  5  6  1  0  0  0  0
  7  6  1  6  0  0  0
  7  8  1  0  0  0  0
  7  9  1  0  0  0  0
 10  9  1  6  0  0  0
 10 11  1  0  0  0  0
 10 12  1  0  0  0  0
 11 16  1  0  0  0  0
 12 13  1  1  0  0  0
 12 14  1  0  0  0  0
 14 15  1  1  0  0  0
 14 16  1  0  0  0  0
 16 27  1  6  0  0  0
 18 19  2  0  0  0  0
 18 23  1  0  0  0  0
 19 20  1  0  0  0  0
 20 21  2  0  0  0  0
 21 22  1  0  0  0  0
 21 27  1  0  0  0  0
 22 23  2  0  0  0  0
 22 25  1  0  0  0  0
 23 24  1  0  0  0  0
 25 26  2  0  0  0  0
 26 27  1  0  0  0  0
M  END
>  <CHROM.1>
-53.63936802,-74.27991977,-167.07562540,-66.31113414,-135.19643022,66.18055916
-13.38921306,54.06430339,50.40216127,21.03122889,0.41834508,0.99594848,-1.52888595

>  <Name>
ligand

>  <RI>
0

>  <Rbt.Current_Directory>
/home/itssahil/PROJECTS/Mol_Feturizer/New_Systems/rnas/2GIS

>  <Rbt.Executable>
rbdock ($Id: //depot/dev/client3/rdock/2013.1/src/exe/rbdock.cxx#4 $)

>  <Rbt.Library>
libRbt.so (2013.1, Build901 2013/11/27)

>  <Rbt.Parameter_File>
/export/apps/rDock/src/rDock_2013.1_src/data/scripts/dock_solv.prm

>  <Rbt.Receptor>
prm/blind_docking_100.prm

>  <SCORE>
-19.1305

>  <SCORE.INTER>
-16.179

>  <SCORE.INTER.CONST>
1

>  <SCORE.INTER.POLAR>
0

>  <SCORE.INTER.ROT>
7

>  <SCORE.INTER.SOLV>
16.6201

>  <SCORE.INTER.VDW>
-24.5927

>  <SCORE.INTER.norm>
-0.599221

>  <SCORE.INTRA>
-2.95156

>  <SCORE.INTRA.DIHEDRAL>
-0.445967

>  <SCORE.INTRA.DIHEDRAL.0>
9.40024

>  <SCORE.INTRA.POLAR>
0

>  <SCORE.INTRA.POLAR.0>
0

>  <SCORE.INTRA.REPUL>
0

>  <SCORE.INTRA.REPUL.0>
0

>  <SCORE.INTRA.SOLV>
-2.56059

>  <SCORE.INTRA.SOLV.lig_0>
-47.1049

>  <SCORE.INTRA.VDW>
-1.44828

>  <SCORE.INTRA.VDW.0>
-1.50278

>  <SCORE.INTRA.norm>
-0.109317

>  <SCORE.RESTR>
0

>  <SCORE.RESTR.CAVITY>
0

>  <SCORE.RESTR.norm>
0

>  <SCORE.SYSTEM>
0

>  <SCORE.SYSTEM.CONST>
0

>  <SCORE.SYSTEM.DIHEDRAL>
0

>  <SCORE.SYSTEM.SOLV>
0

>  <SCORE.SYSTEM.norm>
0

>  <SCORE.heavy>
27

>  <SCORE.norm>
-0.708538

>  <RMSD>
14.137

$$$$
ligand
 OpenBabel11021811433D
libRbt.so/2013.1/901 2013/11/27
 27 29  0  0  0  0  0  0  0  0999 V2000
   51.4589   53.7377   17.5164 N   0  0  0  0  0  0  0  0  0  0  0  0
   51.0521   53.9995   18.9005 C   0  0  2  0  0  0  0  0  0  0  0  0
   50.1896   55.2481   18.9474 C   0  0  0  0  0  0  0  0  0  0  0  0
   50.4906   56.2272   18.2705 O   0  0  0  0  0  0  0  0  0  0  0  0
   52.2849   54.1808   19.8084 C   0  0  0  0  0  0  0  0  0  0  0  0
   51.8336   54.2111   21.2679 C   0  0  0  0  0  0  0  0  0  0  0  0
   51.5499   52.5632   22.0350 S   0  0  2  0  0  0  0  0  0  0  0  0
   50.9292   52.9512   23.7012 C   0  0  0  0  0  0  0  0  0  0  0  0
   53.2874   52.2124   22.3768 C   0  0  0  0  0  0  0  0  0  0  0  0
   53.5029   51.1472   23.4658 C   0  0  1  0  0  0  0  0  0  0  0  0
   53.3218   49.8238   22.8804 O   0  0  0  0  0  0  0  0  0  0  0  0
   54.9749   51.2710   23.7648 C   0  0  1  0  0  0  0  0  0  0  0  0
   55.1685   52.1056   24.9070 O   0  0  0  0  0  0  0  0  0  0  0  0
   55.4110   49.8433   24.0701 C   0  0  1  0  0  0  0  0  0  0  0  0
   55.4360   49.5775   25.4677 O   0  0  0  0  0  0  0  0  0  0  0  0
   54.3788   48.9040   23.3459 C   0  0  2  0  0  0  0  0  0  0  0  0
   49.2244   55.3069   19.7095 O   0  0  0  0  0  0  0  0  0  0  0  0
   56.3095   44.6074   21.0237 N   0  0  0  0  0  0  0  0  0  0  0  0
   55.9326   44.7494   22.2992 C   0  0  0  0  0  0  0  0  0  0  0  0
   55.4417   45.8938   22.7481 N   0  0  0  0  0  0  0  0  0  0  0  0
   55.3320   46.9692   21.9506 C   0  0  0  0  0  0  0  0  0  0  0  0
   55.7321   46.8721   20.5931 C   0  0  0  0  0  0  0  0  0  0  0  0
   56.2338   45.6229   20.1480 C   0  0  0  0  0  0  0  0  0  0  0  0
   56.6385   45.4529   18.8430 N   0  0  0  0  0  0  0  0  0  0  0  0
   55.5244   48.0763   20.0239 N   0  0  0  0  0  0  0  0  0  0  0  0
   55.0444   48.8919   20.9165 C   0  0  0  0  0  0  0  0  0  0  0  0
   54.9000   48.2618   22.1211 N   0  0  0  0  0  0  0  0  0  0  0  0
  2  1  1  6  0  0  0
  2  3  1  0  0  0  0
  2  5  1  0  0  0  0
  3  4  1  0  0  0  0
  3 17  1  0  0  0  0
  5  6  1  0  0  0  0
  7  6  1  6  0  0  0
  7  8  1  0  0  0  0
  7  9  1  0  0  0  0
 10  9  1  6  0  0  0
 10 11  1  0  0  0  0
 10 12  1  0  0  0  0
 11 16  1  0  0  0  0
 12 13  1  1  0  0  0
 12 14  1  0  0  0  0
 14 15  1  1  0  0  0
 14 16  1  0  0  0  0
 16 27  1  6  0  0  0
 18 19  2  0  0  0  0
 18 23  1  0  0  0  0
 19 20  1  0  0  0  0
 20 21  2  0  0  0  0
 21 22  1  0  0  0  0
 21 27  1  0  0  0  0
 22 23  2  0  0  0  0
 22 25  1  0  0  0  0
 23 24  1  0  0  0  0
 25 26  2  0  0  0  0
 26 27  1  0  0  0  0
M  END
>  <CHROM.1>
-41.38962766,-170.37715415,81.71454038,-176.42327696,159.34803782,79.94525636
-143.77897999,53.59457323,50.55235653,21.57705943,3.03200354,-1.02397492
1.22696865

>  <Name>
ligand

>  <RI>
0

>  <Rbt.Current_Directory>
/home/itssahil/PROJECTS/Mol_Feturizer/New_Systems/rnas/2GIS

>  <Rbt.Executable>
rbdock ($Id: //depot/dev/client3/rdock/2013.1/src/exe/rbdock.cxx#4 $)

>  <Rbt.Library>
libRbt.so (2013.1, Build901 2013/11/27)

>  <Rbt.Parameter_File>
/export/apps/rDock/src/rDock_2013.1_src/data/scripts/dock_solv.prm

>  <Rbt.Receptor>
prm/blind_docking_100.prm

>  <SCORE>
-13.3003

>  <SCORE.INTER>
-9.92325

>  <SCORE.INTER.CONST>
1

>  <SCORE.INTER.POLAR>
0

>  <SCORE.INTER.ROT>
7

>  <SCORE.INTER.SOLV>
17.1308

>  <SCORE.INTER.VDW>
-20.5924

>  <SCORE.INTER.norm>
-0.367528

>  <SCORE.INTRA>
-3.37709

>  <SCORE.INTRA.DIHEDRAL>
-2.15243

>  <SCORE.INTRA.DIHEDRAL.0>
9.40024

>  <SCORE.INTRA.POLAR>
0

>  <SCORE.INTRA.POLAR.0>
0

>  <SCORE.INTRA.REPUL>
0

>  <SCORE.INTRA.REPUL.0>
0

>  <SCORE.INTRA.SOLV>
-3.10066

>  <SCORE.INTRA.SOLV.lig_0>
-47.1049

>  <SCORE.INTRA.VDW>
-0.750548

>  <SCORE.INTRA.VDW.0>
-1.50278

>  <SCORE.INTRA.norm>
-0.125077

>  <SCORE.RESTR>
0

>  <SCORE.RESTR.CAVITY>
0

>  <SCORE.RESTR.norm>
0

>  <SCORE.SYSTEM>
0

>  <SCORE.SYSTEM.CONST>
0

>  <SCORE.SYSTEM.DIHEDRAL>
0

>  <SCORE.SYSTEM.SOLV>
0

>  <SCORE.SYSTEM.norm>
0

>  <SCORE.heavy>
27

>  <SCORE.norm>
-0.492605

>  <RMSD>
14.295

$$$$
ligand
 OpenBabel11021811433D
libRbt.so/2013.1/901 2013/11/27
 27 29  0  0  0  0  0  0  0  0999 V2000
   48.3841   54.2977   23.8143 N   0  0  0  0  0  0  0  0  0  0  0  0
   49.5487   53.7740   23.0937 C   0  0  2  0  0  0  0  0  0  0  0  0
   50.3253   52.8357   24.0003 C   0  0  0  0  0  0  0  0  0  0  0  0
   50.2217   52.9357   25.2197 O   0  0  0  0  0  0  0  0  0  0  0  0
   50.4631   54.9225   22.6229 C   0  0  0  0  0  0  0  0  0  0  0  0
   49.7859   55.6635   21.4710 C   0  0  0  0  0  0  0  0  0  0  0  0
   49.7963   54.7804   19.8572 S   0  0  2  0  0  0  0  0  0  0  0  0
   48.9444   53.2104   20.2059 C   0  0  0  0  0  0  0  0  0  0  0  0
   51.5260   54.2694   19.9326 C   0  0  0  0  0  0  0  0  0  0  0  0
   51.8436   53.0266   19.0830 C   0  0  1  0  0  0  0  0  0  0  0  0
   51.7733   53.3841   17.6709 O   0  0  0  0  0  0  0  0  0  0  0  0
   53.3019   52.7864   19.3783 C   0  0  1  0  0  0  0  0  0  0  0  0
   53.4325   51.8004   20.4027 O   0  0  0  0  0  0  0  0  0  0  0  0
   53.8636   52.2627   18.0623 C   0  0  1  0  0  0  0  0  0  0  0  0
   53.9247   50.8415   18.0330 O   0  0  0  0  0  0  0  0  0  0  0  0
   52.9106   52.7997   16.9329 C   0  0  2  0  0  0  0  0  0  0  0  0
   51.1080   52.0157   23.5199 O   0  0  0  0  0  0  0  0  0  0  0  0
   53.9371   57.9361   16.5510 N   0  0  0  0  0  0  0  0  0  0  0  0
   53.3392   57.2934   17.5602 C   0  0  0  0  0  0  0  0  0  0  0  0
   53.1608   55.9821   17.5312 N   0  0  0  0  0  0  0  0  0  0  0  0
   53.5428   55.2470   16.4740 C   0  0  0  0  0  0  0  0  0  0  0  0
   54.1688   55.8853   15.3726 C   0  0  0  0  0  0  0  0  0  0  0  0
   54.3586   57.2881   15.4526 C   0  0  0  0  0  0  0  0  0  0  0  0
   54.9618   57.9754   14.4233 N   0  0  0  0  0  0  0  0  0  0  0  0
   54.4444   54.9341   14.4580 N   0  0  0  0  0  0  0  0  0  0  0  0
   54.0338   53.7831   14.9039 C   0  0  0  0  0  0  0  0  0  0  0  0
   53.4746   53.9153   16.1444 N   0  0  0  0  0  0  0  0  0  0  0  0
  2  1  1  1  0  0  0
  2  3  1  0  0  0  0
  2  5  1  0  0  0  0
  3  4  1  0  0  0  0
  3 17  1  0  0  0  0
  5  6  1  0  0  0  0
  7  6  1  1  0  0  0
  7  8  1  0  0  0  0
  7  9  1  0  0  0  0
 10  9  1  1  0  0  0
 10 11  1  0  0  0  0
 10 12  1  0  0  0  0
 11 16  1  0  0  0  0
 12 13  1  1  0  0  0
 12 14  1  0  0  0  0
 14 15  1  1  0  0  0
 14 16  1  0  0  0  0
 16 27  1  1  0  0  0
 18 19  2  0  0  0  0
 18 23  1  0  0  0  0
 19 20  1  0  0  0  0
 20 21  2  0  0  0  0
 21 22  1  0  0  0  0
 21 27  1  0  0  0  0
 22 23  2  0  0  0  0
 22 25  1  0  0  0  0
 23 24  1  0  0  0  0
 25 26  2  0  0  0  0
 26 27  1  0  0  0  0
M  END
>  <CHROM.1>
-23.18464540,-72.09543034,-74.63192709,58.45579854,155.96602302,70.55794424
33.66335273,52.08467553,54.24056047,19.11213812,2.50486630,-0.94504003,2.69331227

>  <Name>
ligand

>  <RI>
0

>  <Rbt.Current_Directory>
/home/itssahil/PROJECTS/Mol_Feturizer/New_Systems/rnas/2GIS

>  <Rbt.Executable>
rbdock ($Id: //depot/dev/client3/rdock/2013.1/src/exe/rbdock.cxx#4 $)

>  <Rbt.Library>
libRbt.so (2013.1, Build901 2013/11/27)

>  <Rbt.Parameter_File>
/export/apps/rDock/src/rDock_2013.1_src/data/scripts/dock_solv.prm

>  <Rbt.Receptor>
prm/blind_docking_100.prm

>  <SCORE>
-12.4778

>  <SCORE.INTER>
-10.2571

>  <SCORE.INTER.CONST>
1

>  <SCORE.INTER.POLAR>
0

>  <SCORE.INTER.ROT>
7

>  <SCORE.INTER.SOLV>
10.008

>  <SCORE.INTER.VDW>
-18.4407

>  <SCORE.INTER.norm>
-0.379893

>  <SCORE.INTRA>
-2.22069

>  <SCORE.INTRA.DIHEDRAL>
-3.62319

>  <SCORE.INTRA.DIHEDRAL.0>
9.40024

>  <SCORE.INTRA.POLAR>
0

>  <SCORE.INTRA.POLAR.0>
0

>  <SCORE.INTRA.REPUL>
0

>  <SCORE.INTRA.REPUL.0>
0

>  <SCORE.INTRA.SOLV>
-1.38053

>  <SCORE.INTRA.SOLV.lig_0>
-47.1049

>  <SCORE.INTRA.VDW>
0.281172

>  <SCORE.INTRA.VDW.0>
-1.50278

>  <SCORE.INTRA.norm>
-0.0822477

>  <SCORE.RESTR>
0

>  <SCORE.RESTR.CAVITY>
0

>  <SCORE.RESTR.norm>
0

>  <SCORE.SYSTEM>
0

>  <SCORE.SYSTEM.CONST>
0

>  <SCORE.SYSTEM.DIHEDRAL>
0

>  <SCORE.SYSTEM.SOLV>
0

>  <SCORE.SYSTEM.norm>
0

>  <SCORE.heavy>
27

>  <SCORE.norm>
-0.46214

>  <RMSD>
14.448

$$$$
ligand
 OpenBabel11021811433D
libRbt.so/2013.1/901 2013/11/27
 27 29  0  0  0  0  0  0  0  0999 V2000
   54.5183   46.9942   18.8287 N   0  0  0  0  0  0  0  0  0  0  0  0
   55.8607   47.1669   19.3925 C   0  0  2  0  0  0  0  0  0  0  0  0
   56.8999   46.8750   18.3247 C   0  0  0  0  0  0  0  0  0  0  0  0
   56.5453   46.6213   17.1769 O   0  0  0  0  0  0  0  0  0  0  0  0
   56.0726   46.2303   20.5987 C   0  0  0  0  0  0  0  0  0  0  0  0
   55.3170   46.7861   21.8048 C   0  0  0  0  0  0  0  0  0  0  0  0
   55.9853   48.3558   22.4931 S   0  0  2  0  0  0  0  0  0  0  0  0
   55.6262   48.2469   24.2739 C   0  0  0  0  0  0  0  0  0  0  0  0
   54.6312   49.4041   21.9219 C   0  0  0  0  0  0  0  0  0  0  0  0
   54.5079   50.7318   22.6895 C   0  0  1  0  0  0  0  0  0  0  0  0
   54.4844   51.8338   21.7346 O   0  0  0  0  0  0  0  0  0  0  0  0
   53.1181   50.6534   23.2672 C   0  0  1  0  0  0  0  0  0  0  0  0
   53.1790   50.1798   24.6129 O   0  0  0  0  0  0  0  0  0  0  0  0
   52.6224   52.0938   23.2331 C   0  0  1  0  0  0  0  0  0  0  0  0
   52.8009   52.7521   24.4818 O   0  0  0  0  0  0  0  0  0  0  0  0
   53.4450   52.8151   22.1038 C   0  0  2  0  0  0  0  0  0  0  0  0
   58.0947   46.8287   18.6182 O   0  0  0  0  0  0  0  0  0  0  0  0
   52.7578   51.7715   17.0028 N   0  0  0  0  0  0  0  0  0  0  0  0
   53.6828   51.2641   17.8250 C   0  0  0  0  0  0  0  0  0  0  0  0
   53.7283   51.6048   19.1033 N   0  0  0  0  0  0  0  0  0  0  0  0
   52.8688   52.4981   19.6205 C   0  0  0  0  0  0  0  0  0  0  0  0
   51.8782   53.0749   18.7848 C   0  0  0  0  0  0  0  0  0  0  0  0
   51.8518   52.6678   17.4269 C   0  0  0  0  0  0  0  0  0  0  0  0
   50.9169   53.1825   16.5571 N   0  0  0  0  0  0  0  0  0  0  0  0
   51.1594   53.9287   19.5408 N   0  0  0  0  0  0  0  0  0  0  0  0
   51.6321   53.9256   20.7528 C   0  0  0  0  0  0  0  0  0  0  0  0
   52.6832   53.0582   20.8610 N   0  0  0  0  0  0  0  0  0  0  0  0
  2  1  1  6  0  0  0
  2  3  1  0  0  0  0
  2  5  1  0  0  0  0
  3  4  1  0  0  0  0
  3 17  1  0  0  0  0
  5  6  1  0  0  0  0
  7  6  1  6  0  0  0
  7  8  1  0  0  0  0
  7  9  1  0  0  0  0
 10  9  1  6  0  0  0
 10 11  1  0  0  0  0
 10 12  1  0  0  0  0
 11 16  1  0  0  0  0
 12 13  1  1  0  0  0
 12 14  1  0  0  0  0
 14 15  1  1  0  0  0
 14 16  1  0  0  0  0
 16 27  1  6  0  0  0
 18 19  2  0  0  0  0
 18 23  1  0  0  0  0
 19 20  1  0  0  0  0
 20 21  2  0  0  0  0
 21 22  1  0  0  0  0
 21 27  1  0  0  0  0
 22 23  2  0  0  0  0
 22 25  1  0  0  0  0
 23 24  1  0  0  0  0
 25 26  2  0  0  0  0
 26 27  1  0  0  0  0
M  END
>  <CHROM.1>
3.86942169,-75.36658813,-68.30964957,-148.05031815,159.37132525,127.48263107
0.60782208,54.10938492,50.26264640,20.63825667,0.03944116,0.95796929,-1.64264205

>  <Name>
ligand

>  <RI>
0

>  <Rbt.Current_Directory>
/home/itssahil/PROJECTS/Mol_Feturizer/New_Systems/rnas/2GIS

>  <Rbt.Executable>
rbdock ($Id: //depot/dev/client3/rdock/2013.1/src/exe/rbdock.cxx#4 $)

>  <Rbt.Library>
libRbt.so (2013.1, Build901 2013/11/27)

>  <Rbt.Parameter_File>
/export/apps/rDock/src/rDock_2013.1_src/data/scripts/dock_solv.prm

>  <Rbt.Receptor>
prm/blind_docking_80.prm

>  <SCORE>
-16.1066

>  <SCORE.INTER>
-16.3795

>  <SCORE.INTER.CONST>
1

>  <SCORE.INTER.POLAR>
0

>  <SCORE.INTER.ROT>
7

>  <SCORE.INTER.SOLV>
19.0675

>  <SCORE.INTER.VDW>
-25.5422

>  <SCORE.INTER.norm>
-0.606648

>  <SCORE.INTRA>
0.272868

>  <SCORE.INTRA.DIHEDRAL>
3.58342

>  <SCORE.INTRA.DIHEDRAL.0>
9.40024

>  <SCORE.INTRA.POLAR>
0

>  <SCORE.INTRA.POLAR.0>
0

>  <SCORE.INTRA.REPUL>
0

>  <SCORE.INTRA.REPUL.0>
0

>  <SCORE.INTRA.SOLV>
-1.34738

>  <SCORE.INTRA.SOLV.lig_0>
-47.1049

>  <SCORE.INTRA.VDW>
-0.845151

>  <SCORE.INTRA.VDW.0>
-1.50278

>  <SCORE.INTRA.norm>
0.0101062

>  <SCORE.RESTR>
0

>  <SCORE.RESTR.CAVITY>
0

>  <SCORE.RESTR.norm>
0

>  <SCORE.SYSTEM>
0

>  <SCORE.SYSTEM.CONST>
0

>  <SCORE.SYSTEM.DIHEDRAL>
0

>  <SCORE.SYSTEM.SOLV>
0

>  <SCORE.SYSTEM.norm>
0

>  <SCORE.heavy>
27

>  <SCORE.norm>
-0.596542

>  <RMSD>
14.482

$$$$
ligand
 OpenBabel11021811433D
libRbt.so/2013.1/901 2013/11/27
 27 29  0  0  0  0  0  0  0  0999 V2000
   55.8731   58.1845   17.6482 N   0  0  0  0  0  0  0  0  0  0  0  0
   56.9058   57.4872   16.8753 C   0  0  2  0  0  0  0  0  0  0  0  0
   57.9736   58.4781   16.4472 C   0  0  0  0  0  0  0  0  0  0  0  0
   59.1025   58.0820   16.1712 O   0  0  0  0  0  0  0  0  0  0  0  0
   56.2948   56.8075   15.6337 C   0  0  0  0  0  0  0  0  0  0  0  0
   55.4218   55.6360   16.0811 C   0  0  0  0  0  0  0  0  0  0  0  0
   53.9278   55.3337   15.0511 S   0  0  2  0  0  0  0  0  0  0  0  0
   52.7320   56.5778   15.6293 C   0  0  0  0  0  0  0  0  0  0  0  0
   53.3745   53.8672   15.9468 C   0  0  0  0  0  0  0  0  0  0  0  0
   53.6419   53.9270   17.4607 C   0  0  1  0  0  0  0  0  0  0  0  0
   52.9036   55.0479   18.0311 O   0  0  0  0  0  0  0  0  0  0  0  0
   52.9619   52.6811   17.9674 C   0  0  1  0  0  0  0  0  0  0  0  0
   53.9172   51.6286   18.1021 O   0  0  0  0  0  0  0  0  0  0  0  0
   52.4208   53.0854   19.3332 C   0  0  1  0  0  0  0  0  0  0  0  0
   53.2922   52.7011   20.3904 O   0  0  0  0  0  0  0  0  0  0  0  0
   52.2524   54.6481   19.2944 C   0  0  2  0  0  0  0  0  0  0  0  0
   57.7311   59.6851   16.4366 O   0  0  0  0  0  0  0  0  0  0  0  0
   47.1928   53.9382   20.5101 N   0  0  0  0  0  0  0  0  0  0  0  0
   48.2376   53.1927   20.8863 C   0  0  0  0  0  0  0  0  0  0  0  0
   49.4711   53.5015   20.5183 N   0  0  0  0  0  0  0  0  0  0  0  0
   49.7216   54.5567   19.7258 C   0  0  0  0  0  0  0  0  0  0  0  0
   48.6444   55.3698   19.2889 C   0  0  0  0  0  0  0  0  0  0  0  0
   47.3417   55.0155   19.7219 C   0  0  0  0  0  0  0  0  0  0  0  0
   46.2478   55.7598   19.3406 N   0  0  0  0  0  0  0  0  0  0  0  0
   49.1622   56.3437   18.5140 N   0  0  0  0  0  0  0  0  0  0  0  0
   50.4512   56.1863   18.4370 C   0  0  0  0  0  0  0  0  0  0  0  0
   50.8520   55.1034   19.1688 N   0  0  0  0  0  0  0  0  0  0  0  0
  2  1  1  6  0  0  0
  2  3  1  0  0  0  0
  2  5  1  0  0  0  0
  3  4  1  0  0  0  0
  3 17  1  0  0  0  0
  5  6  1  0  0  0  0
  7  6  1  1  0  0  0
  7  8  1  0  0  0  0
  7  9  1  0  0  0  0
 10  9  1  6  0  0  0
 10 11  1  0  0  0  0
 10 12  1  0  0  0  0
 11 16  1  0  0  0  0
 12 13  1  1  0  0  0
 12 14  1  0  0  0  0
 14 15  1  1  0  0  0
 14 16  1  0  0  0  0
 16 27  1  6  0  0  0
 18 19  2  0  0  0  0
 18 23  1  0  0  0  0
 19 20  1  0  0  0  0
 20 21  2  0  0  0  0
 21 22  1  0  0  0  0
 21 27  1  0  0  0  0
 22 23  2  0  0  0  0
 22 25  1  0  0  0  0
 23 24  1  0  0  0  0
 25 26  2  0  0  0  0
 26 27  1  0  0  0  0
M  END
>  <CHROM.1>
157.19330554,-69.52853838,145.61865433,-79.53413441,35.51921061,61.92842278
150.09795686,52.71068309,55.30511561,17.91070698,0.42130145,0.32219190,-0.24773609

>  <Name>
ligand

>  <RI>
0

>  <Rbt.Current_Directory>
/home/itssahil/PROJECTS/Mol_Feturizer/New_Systems/rnas/2GIS

>  <Rbt.Executable>
rbdock ($Id: //depot/dev/client3/rdock/2013.1/src/exe/rbdock.cxx#4 $)

>  <Rbt.Library>
libRbt.so (2013.1, Build901 2013/11/27)

>  <Rbt.Parameter_File>
/export/apps/rDock/src/rDock_2013.1_src/data/scripts/dock_solv.prm

>  <Rbt.Receptor>
prm/blind_docking_100.prm

>  <SCORE>
-14.4491

>  <SCORE.INTER>
-14.0376

>  <SCORE.INTER.CONST>
1

>  <SCORE.INTER.POLAR>
0

>  <SCORE.INTER.ROT>
7

>  <SCORE.INTER.SOLV>
12.5686

>  <SCORE.INTER.VDW>
-21.8146

>  <SCORE.INTER.norm>
-0.51991

>  <SCORE.INTRA>
-0.42209

>  <SCORE.INTRA.DIHEDRAL>
-1.09686

>  <SCORE.INTRA.DIHEDRAL.0>
9.40024

>  <SCORE.INTRA.POLAR>
0

>  <SCORE.INTRA.POLAR.0>
0

>  <SCORE.INTRA.REPUL>
0

>  <SCORE.INTRA.REPUL.0>
0

>  <SCORE.INTRA.SOLV>
-1.55214

>  <SCORE.INTRA.SOLV.lig_0>
-47.1049

>  <SCORE.INTRA.VDW>
0.902409

>  <SCORE.INTRA.VDW.0>
-1.50278

>  <SCORE.INTRA.norm>
-0.015633

>  <SCORE.RESTR>
0.0106008

>  <SCORE.RESTR.CAVITY>
0.0106008

>  <SCORE.RESTR.norm>
0.000392621

>  <SCORE.SYSTEM>
0

>  <SCORE.SYSTEM.CONST>
0

>  <SCORE.SYSTEM.DIHEDRAL>
0

>  <SCORE.SYSTEM.SOLV>
0

>  <SCORE.SYSTEM.norm>
0

>  <SCORE.heavy>
27

>  <SCORE.norm>
-0.53515

>  <RMSD>
14.506

$$$$
ligand
 OpenBabel11021811433D
libRbt.so/2013.1/901 2013/11/27
 27 29  0  0  0  0  0  0  0  0999 V2000
   50.5795   54.7525   25.4198 N   0  0  0  0  0  0  0  0  0  0  0  0
   51.4501   54.2636   24.3460 C   0  0  2  0  0  0  0  0  0  0  0  0
   52.8623   54.0929   24.8771 C   0  0  0  0  0  0  0  0  0  0  0  0
   53.3240   52.9671   25.0408 O   0  0  0  0  0  0  0  0  0  0  0  0
   51.4538   55.2431   23.1555 C   0  0  0  0  0  0  0  0  0  0  0  0
   52.2275   54.6197   21.9947 C   0  0  0  0  0  0  0  0  0  0  0  0
   51.6260   52.9693   21.4483 S   0  0  2  0  0  0  0  0  0  0  0  0
   52.7556   51.7953   22.2596 C   0  0  0  0  0  0  0  0  0  0  0  0
   52.3318   53.0509   19.7888 C   0  0  0  0  0  0  0  0  0  0  0  0
   51.3873   53.6672   18.7423 C   0  0  1  0  0  0  0  0  0  0  0  0
   51.6584   55.0965   18.6388 O   0  0  0  0  0  0  0  0  0  0  0  0
   51.8764   53.0576   17.4537 C   0  0  1  0  0  0  0  0  0  0  0  0
   51.0799   51.9195   17.1234 O   0  0  0  0  0  0  0  0  0  0  0  0
   51.6771   54.1624   16.4236 C   0  0  1  0  0  0  0  0  0  0  0  0
   50.4583   54.0120   15.7049 O   0  0  0  0  0  0  0  0  0  0  0  0
   51.6851   55.5160   17.2235 C   0  0  2  0  0  0  0  0  0  0  0  0
   53.5249   55.0775   25.2049 O   0  0  0  0  0  0  0  0  0  0  0  0
   56.1804   56.3233   14.6307 N   0  0  0  0  0  0  0  0  0  0  0  0
   55.2535   55.3891   14.3914 C   0  0  0  0  0  0  0  0  0  0  0  0
   54.1503   55.3123   15.1188 N   0  0  0  0  0  0  0  0  0  0  0  0
   53.9306   56.1477   16.1474 C   0  0  0  0  0  0  0  0  0  0  0  0
   54.8913   57.1467   16.4496 C   0  0  0  0  0  0  0  0  0  0  0  0
   56.0492   57.2070   15.6336 C   0  0  0  0  0  0  0  0  0  0  0  0
   57.0235   58.1520   15.8650 N   0  0  0  0  0  0  0  0  0  0  0  0
   54.4348   57.8372   17.5136 N   0  0  0  0  0  0  0  0  0  0  0  0
   53.2917   57.3398   17.8853 C   0  0  0  0  0  0  0  0  0  0  0  0
   52.9294   56.2995   17.0755 N   0  0  0  0  0  0  0  0  0  0  0  0
  2  1  1  1  0  0  0
  2  3  1  0  0  0  0
  2  5  1  0  0  0  0
  3  4  1  0  0  0  0
  3 17  1  0  0  0  0
  5  6  1  0  0  0  0
  7  6  1  1  0  0  0
  7  8  1  0  0  0  0
  7  9  1  0  0  0  0
 10  9  1  1  0  0  0
 10 11  1  0  0  0  0
 10 12  1  0  0  0  0
 11 16  1  0  0  0  0
 12 13  1  6  0  0  0
 12 14  1  0  0  0  0
 14 15  1  1  0  0  0
 14 16  1  0  0  0  0
 16 27  1  1  0  0  0
 18 19  2  0  0  0  0
 18 23  1  0  0  0  0
 19 20  1  0  0  0  0
 20 21  2  0  0  0  0
 21 22  1  0  0  0  0
 21 27  1  0  0  0  0
 22 23  2  0  0  0  0
 22 25  1  0  0  0  0
 23 24  1  0  0  0  0
 25 26  2  0  0  0  0
 26 27  1  0  0  0  0
M  END
>  <CHROM.1>
108.92076352,-173.00408821,55.70337098,-98.85620842,-90.06921826,93.34232296
128.14325461,52.85301298,54.78403294,19.29432570,-1.94372380,-0.78377934
-1.56369228

>  <Name>
ligand

>  <RI>
0

>  <Rbt.Current_Directory>
/home/itssahil/PROJECTS/Mol_Feturizer/New_Systems/rnas/2GIS

>  <Rbt.Executable>
rbdock ($Id: //depot/dev/client3/rdock/2013.1/src/exe/rbdock.cxx#4 $)

>  <Rbt.Library>
libRbt.so (2013.1, Build901 2013/11/27)

>  <Rbt.Parameter_File>
/export/apps/rDock/src/rDock_2013.1_src/data/scripts/dock_solv.prm

>  <Rbt.Receptor>
prm/blind_docking_100.prm

>  <SCORE>
-11.3236

>  <SCORE.INTER>
-9.02778

>  <SCORE.INTER.CONST>
1

>  <SCORE.INTER.POLAR>
0

>  <SCORE.INTER.ROT>
7

>  <SCORE.INTER.SOLV>
13.179

>  <SCORE.INTER.VDW>
-18.6782

>  <SCORE.INTER.norm>
-0.334362

>  <SCORE.INTRA>
-2.29592

>  <SCORE.INTRA.DIHEDRAL>
0.614956

>  <SCORE.INTRA.DIHEDRAL.0>
9.40024

>  <SCORE.INTRA.POLAR>
0

>  <SCORE.INTRA.POLAR.0>
0

>  <SCORE.INTRA.REPUL>
0

>  <SCORE.INTRA.REPUL.0>
0

>  <SCORE.INTRA.SOLV>
-2.94122

>  <SCORE.INTRA.SOLV.lig_0>
-47.1049

>  <SCORE.INTRA.VDW>
-1.13279

>  <SCORE.INTRA.VDW.0>
-1.50278

>  <SCORE.INTRA.norm>
-0.085034

>  <SCORE.RESTR>
8.0086e-05

>  <SCORE.RESTR.CAVITY>
8.0086e-05

>  <SCORE.RESTR.norm>
2.96615e-06

>  <SCORE.SYSTEM>
0

>  <SCORE.SYSTEM.CONST>
0

>  <SCORE.SYSTEM.DIHEDRAL>
0

>  <SCORE.SYSTEM.SOLV>
0

>  <SCORE.SYSTEM.norm>
0

>  <SCORE.heavy>
27

>  <SCORE.norm>
-0.419393

>  <RMSD>
14.613

$$$$
ligand
 OpenBabel11021811433D
libRbt.so/2013.1/901 2013/11/27
 27 29  0  0  0  0  0  0  0  0999 V2000
   51.8016   42.5283   21.6194 N   0  0  0  0  0  0  0  0  0  0  0  0
   53.1948   42.9834   21.5772 C   0  0  2  0  0  0  0  0  0  0  0  0
   53.8037   42.8794   22.9642 C   0  0  0  0  0  0  0  0  0  0  0  0
   54.9750   42.5357   23.0956 O   0  0  0  0  0  0  0  0  0  0  0  0
   53.2804   44.4388   21.0760 C   0  0  0  0  0  0  0  0  0  0  0  0
   54.7435   44.7961   20.8188 C   0  0  0  0  0  0  0  0  0  0  0  0
   55.0509   46.5461   20.3421 S   0  0  2  0  0  0  0  0  0  0  0  0
   56.8259   46.5911   19.9425 C   0  0  0  0  0  0  0  0  0  0  0  0
   55.0495   47.2029   22.0236 C   0  0  0  0  0  0  0  0  0  0  0  0
   56.0733   48.3286   22.2511 C   0  0  1  0  0  0  0  0  0  0  0  0
   55.9900   49.2787   21.1479 O   0  0  0  0  0  0  0  0  0  0  0  0
   55.5190   49.0428   23.4569 C   0  0  1  0  0  0  0  0  0  0  0  0
   56.1642   48.5692   24.6393 O   0  0  0  0  0  0  0  0  0  0  0  0
   55.8670   50.5058   23.2117 C   0  0  1  0  0  0  0  0  0  0  0  0
   57.0614   50.8925   23.8814 O   0  0  0  0  0  0  0  0  0  0  0  0
   56.0281   50.6645   21.6557 C   0  0  2  0  0  0  0  0  0  0  0  0
   53.1104   43.0768   23.9623 O   0  0  0  0  0  0  0  0  0  0  0  0
   51.3171   52.9456   22.0854 N   0  0  0  0  0  0  0  0  0  0  0  0
   52.0531   52.3972   23.0583 C   0  0  0  0  0  0  0  0  0  0  0  0
   53.2413   51.8701   22.8082 N   0  0  0  0  0  0  0  0  0  0  0  0
   53.7431   51.8345   21.5627 C   0  0  0  0  0  0  0  0  0  0  0  0
   52.9935   52.3910   20.4947 C   0  0  0  0  0  0  0  0  0  0  0  0
   51.7348   52.9631   20.8090 C   0  0  0  0  0  0  0  0  0  0  0  0
   50.9528   53.5247   19.8248 N   0  0  0  0  0  0  0  0  0  0  0  0
   53.7123   52.2236   19.3667 N   0  0  0  0  0  0  0  0  0  0  0  0
   54.8219   51.6094   19.6563 C   0  0  0  0  0  0  0  0  0  0  0  0
   54.8967   51.3496   20.9964 N   0  0  0  0  0  0  0  0  0  0  0  0
  2  1  1  1  0  0  0
  2  3  1  0  0  0  0
  2  5  1  0  0  0  0
  3  4  1  0  0  0  0
  3 17  1  0  0  0  0
  5  6  1  0  0  0  0
  7  6  1  1  0  0  0
  7  8  1  0  0  0  0
  7  9  1  0  0  0  0
 10  9  1  6  0  0  0
 10 11  1  0  0  0  0
 10 12  1  0  0  0  0
 11 16  1  0  0  0  0
 12 13  1  1  0  0  0
 12 14  1  0  0  0  0
 14 15  1  1  0  0  0
 14 16  1  0  0  0  0
 16 27  1  6  0  0  0
 18 19  2  0  0  0  0
 18 23  1  0  0  0  0
 19 20  1  0  0  0  0
 20 21  2  0  0  0  0
 21 22  1  0  0  0  0
 21 27  1  0  0  0  0
 22 23  2  0  0  0  0
 22 25  1  0  0  0  0
 23 24  1  0  0  0  0
 25 26  2  0  0  0  0
 26 27  1  0  0  0  0
M  END
>  <CHROM.1>
142.72947741,-170.42585766,-175.28401429,-174.18363034,142.98776893,46.12860508
112.45417152,54.31673303,48.45854220,21.76085454,1.48746289,0.38681022,3.08177964

>  <Name>
ligand

>  <RI>
0

>  <Rbt.Current_Directory>
/home/itssahil/PROJECTS/Mol_Feturizer/New_Systems/rnas/2GIS

>  <Rbt.Executable>
rbdock ($Id: //depot/dev/client3/rdock/2013.1/src/exe/rbdock.cxx#4 $)

>  <Rbt.Library>
libRbt.so (2013.1, Build901 2013/11/27)

>  <Rbt.Parameter_File>
/export/apps/rDock/src/rDock_2013.1_src/data/scripts/dock_solv.prm

>  <Rbt.Receptor>
prm/blind_docking_100.prm

>  <SCORE>
-15.0085

>  <SCORE.INTER>
-12.4857

>  <SCORE.INTER.CONST>
1

>  <SCORE.INTER.POLAR>
0

>  <SCORE.INTER.ROT>
7

>  <SCORE.INTER.SOLV>
12.3428

>  <SCORE.INTER.VDW>
-20.7047

>  <SCORE.INTER.norm>
-0.462434

>  <SCORE.INTRA>
-2.52277

>  <SCORE.INTRA.DIHEDRAL>
-2.26935

>  <SCORE.INTRA.DIHEDRAL.0>
9.40024

>  <SCORE.INTRA.POLAR>
0

>  <SCORE.INTRA.POLAR.0>
0

>  <SCORE.INTRA.REPUL>
0

>  <SCORE.INTRA.REPUL.0>
0

>  <SCORE.INTRA.SOLV>
-3.00917

>  <SCORE.INTRA.SOLV.lig_0>
-47.1049

>  <SCORE.INTRA.VDW>
0.116494

>  <SCORE.INTRA.VDW.0>
-1.50278

>  <SCORE.INTRA.norm>
-0.0934358

>  <SCORE.RESTR>
0

>  <SCORE.RESTR.CAVITY>
0

>  <SCORE.RESTR.norm>
0

>  <SCORE.SYSTEM>
0

>  <SCORE.SYSTEM.CONST>
0

>  <SCORE.SYSTEM.DIHEDRAL>
0

>  <SCORE.SYSTEM.SOLV>
0

>  <SCORE.SYSTEM.norm>
0

>  <SCORE.heavy>
27

>  <SCORE.norm>
-0.555869

>  <RMSD>
14.721

$$$$
ligand
 OpenBabel11021811433D
libRbt.so/2013.1/901 2013/11/27
 27 29  0  0  0  0  0  0  0  0999 V2000
   50.8424   53.8158   18.1537 N   0  0  0  0  0  0  0  0  0  0  0  0
   51.1882   55.0201   18.9153 C   0  0  2  0  0  0  0  0  0  0  0  0
   50.0137   55.4207   19.7901 C   0  0  0  0  0  0  0  0  0  0  0  0
   48.8970   55.5494   19.2964 O   0  0  0  0  0  0  0  0  0  0  0  0
   51.5549   56.1801   17.9683 C   0  0  0  0  0  0  0  0  0  0  0  0
   52.7754   55.7844   17.1386 C   0  0  0  0  0  0  0  0  0  0  0  0
   53.3196   57.0318   15.9007 S   0  0  2  0  0  0  0  0  0  0  0  0
   54.7825   56.2768   15.1249 C   0  0  0  0  0  0  0  0  0  0  0  0
   54.0875   58.1538   17.0882 C   0  0  0  0  0  0  0  0  0  0  0  0
   54.7249   59.3974   16.4445 C   0  0  1  0  0  0  0  0  0  0  0  0
   54.0188   60.5873   16.9054 O   0  0  0  0  0  0  0  0  0  0  0  0
   56.0854   59.4455   17.0911 C   0  0  1  0  0  0  0  0  0  0  0  0
   57.0494   58.8284   16.2374 O   0  0  0  0  0  0  0  0  0  0  0  0
   56.3755   60.9348   17.2304 C   0  0  1  0  0  0  0  0  0  0  0  0
   57.1757   61.4275   16.1621 O   0  0  0  0  0  0  0  0  0  0  0  0
   54.9778   61.6546   17.2534 C   0  0  2  0  0  0  0  0  0  0  0  0
   50.1874   55.6792   20.9813 O   0  0  0  0  0  0  0  0  0  0  0  0
   55.3585   61.2105   22.4725 N   0  0  0  0  0  0  0  0  0  0  0  0
   55.9880   60.4859   21.5411 C   0  0  0  0  0  0  0  0  0  0  0  0
   55.8109   60.7210   20.2505 N   0  0  0  0  0  0  0  0  0  0  0  0
   54.9674   61.6747   19.8222 C   0  0  0  0  0  0  0  0  0  0  0  0
   54.2657   62.4605   20.7721 C   0  0  0  0  0  0  0  0  0  0  0  0
   54.4993   62.1892   22.1440 C   0  0  0  0  0  0  0  0  0  0  0  0
   53.8563   62.9132   23.1228 N   0  0  0  0  0  0  0  0  0  0  0  0
   53.4949   63.3288   20.0873 N   0  0  0  0  0  0  0  0  0  0  0  0
   53.6613   63.1318   18.8122 C   0  0  0  0  0  0  0  0  0  0  0  0
   54.5621   62.1276   18.5904 N   0  0  0  0  0  0  0  0  0  0  0  0
  2  1  1  6  0  0  0
  2  3  1  0  0  0  0
  2  5  1  0  0  0  0
  3  4  1  0  0  0  0
  3 17  1  0  0  0  0
  5  6  1  0  0  0  0
  7  6  1  1  0  0  0
  7  8  1  0  0  0  0
  7  9  1  0  0  0  0
 10  9  1  1  0  0  0
 10 11  1  0  0  0  0
 10 12  1  0  0  0  0
 11 16  1  0  0  0  0
 12 13  1  6  0  0  0
 12 14  1  0  0  0  0
 14 15  1  6  0  0  0
 14 16  1  0  0  0  0
 16 27  1  1  0  0  0
 18 19  2  0  0  0  0
 18 23  1  0  0  0  0
 19 20  1  0  0  0  0
 20 21  2  0  0  0  0
 21 22  1  0  0  0  0
 21 27  1  0  0  0  0
 22 23  2  0  0  0  0
 22 25  1  0  0  0  0
 23 24  1  0  0  0  0
 25 26  2  0  0  0  0
 26 27  1  0  0  0  0
M  END
>  <CHROM.1>
-51.90273921,-61.37115325,177.79544183,178.94553484,179.17379569,115.86471070
90.11934105,53.82653919,59.12723605,18.51717836,2.35283738,-0.78651072,-2.28421473

>  <Name>
ligand

>  <RI>
0

>  <Rbt.Current_Directory>
/home/itssahil/PROJECTS/Mol_Feturizer/New_Systems/rnas/2GIS

>  <Rbt.Executable>
rbdock ($Id: //depot/dev/client3/rdock/2013.1/src/exe/rbdock.cxx#4 $)

>  <Rbt.Library>
libRbt.so (2013.1, Build901 2013/11/27)

>  <Rbt.Parameter_File>
/export/apps/rDock/src/rDock_2013.1_src/data/scripts/dock_solv.prm

>  <Rbt.Receptor>
prm/blind_docking_100.prm

>  <SCORE>
-8.83294

>  <SCORE.INTER>
-6.01734

>  <SCORE.INTER.CONST>
1

>  <SCORE.INTER.POLAR>
0

>  <SCORE.INTER.ROT>
7

>  <SCORE.INTER.SOLV>
14.4392

>  <SCORE.INTER.VDW>
-17.0913

>  <SCORE.INTER.norm>
-0.222864

>  <SCORE.INTRA>
-2.81561

>  <SCORE.INTRA.DIHEDRAL>
-1.05235

>  <SCORE.INTRA.DIHEDRAL.0>
9.40024

>  <SCORE.INTRA.POLAR>
0

>  <SCORE.INTRA.POLAR.0>
0

>  <SCORE.INTRA.REPUL>
0

>  <SCORE.INTRA.REPUL.0>
0

>  <SCORE.INTRA.SOLV>
-2.32936

>  <SCORE.INTRA.SOLV.lig_0>
-47.1049

>  <SCORE.INTRA.VDW>
-1.12475

>  <SCORE.INTRA.VDW.0>
-1.50278

>  <SCORE.INTRA.norm>
-0.104282

>  <SCORE.RESTR>
0

>  <SCORE.RESTR.CAVITY>
0

>  <SCORE.RESTR.norm>
0

>  <SCORE.SYSTEM>
0

>  <SCORE.SYSTEM.CONST>
0

>  <SCORE.SYSTEM.DIHEDRAL>
0

>  <SCORE.SYSTEM.SOLV>
0

>  <SCORE.SYSTEM.norm>
0

>  <SCORE.heavy>
27

>  <SCORE.norm>
-0.327146

>  <RMSD>
14.762

$$$$
ligand
 OpenBabel11021811433D
libRbt.so/2013.1/901 2013/11/27
 27 29  0  0  0  0  0  0  0  0999 V2000
   57.1349   59.5775   18.4475 N   0  0  0  0  0  0  0  0  0  0  0  0
   57.3386   59.8785   17.0270 C   0  0  2  0  0  0  0  0  0  0  0  0
   56.2949   60.8806   16.5669 C   0  0  0  0  0  0  0  0  0  0  0  0
   55.1037   60.5852   16.6018 O   0  0  0  0  0  0  0  0  0  0  0  0
   57.2434   58.5961   16.1765 C   0  0  0  0  0  0  0  0  0  0  0  0
   56.0182   57.7941   16.6128 C   0  0  0  0  0  0  0  0  0  0  0  0
   55.8331   56.1481   15.8122 S   0  0  2  0  0  0  0  0  0  0  0  0
   54.7895   56.4777   14.3582 C   0  0  0  0  0  0  0  0  0  0  0  0
   54.6180   55.5047   16.9821 C   0  0  0  0  0  0  0  0  0  0  0  0
   54.5193   53.9694   16.9928 C   0  0  1  0  0  0  0  0  0  0  0  0
   54.4112   53.5085   18.3722 O   0  0  0  0  0  0  0  0  0  0  0  0
   53.1725   53.7189   16.3646 C   0  0  1  0  0  0  0  0  0  0  0  0
   53.3313   53.4406   14.9732 O   0  0  0  0  0  0  0  0  0  0  0  0
   52.6472   52.4895   17.0956 C   0  0  1  0  0  0  0  0  0  0  0  0
   52.8945   51.2893   16.3725 O   0  0  0  0  0  0  0  0  0  0  0  0
   53.3791   52.4590   18.4868 C   0  0  2  0  0  0  0  0  0  0  0  0
   56.6407   61.9656   16.0989 O   0  0  0  0  0  0  0  0  0  0  0  0
   49.5019   55.4978   20.3075 N   0  0  0  0  0  0  0  0  0  0  0  0
   49.9967   55.4582   19.0654 C   0  0  0  0  0  0  0  0  0  0  0  0
   50.9701   54.6227   18.7390 N   0  0  0  0  0  0  0  0  0  0  0  0
   51.5236   53.8033   19.6482 C   0  0  0  0  0  0  0  0  0  0  0  0
   51.0424   53.8187   20.9826 C   0  0  0  0  0  0  0  0  0  0  0  0
   49.9857   54.7143   21.2853 C   0  0  0  0  0  0  0  0  0  0  0  0
   49.4653   54.7825   22.5582 N   0  0  0  0  0  0  0  0  0  0  0  0
   51.7611   52.9175   21.6813 N   0  0  0  0  0  0  0  0  0  0  0  0
   52.6369   52.3673   20.8922 C   0  0  0  0  0  0  0  0  0  0  0  0
   52.5324   52.8715   19.6257 N   0  0  0  0  0  0  0  0  0  0  0  0
  2  1  1  1  0  0  0
  2  3  1  0  0  0  0
  2  5  1  0  0  0  0
  3  4  1  0  0  0  0
  3 17  1  0  0  0  0
  5  6  1  0  0  0  0
  7  6  1  1  0  0  0
  7  8  1  0  0  0  0
  7  9  1  0  0  0  0
 10  9  1  1  0  0  0
 10 11  1  0  0  0  0
 10 12  1  0  0  0  0
 11 16  1  0  0  0  0
 12 13  1  6  0  0  0
 12 14  1  0  0  0  0
 14 15  1  6  0  0  0
 14 16  1  0  0  0  0
 16 27  1  1  0  0  0
 18 19  2  0  0  0  0
 18 23  1  0  0  0  0
 19 20  1  0  0  0  0
 20 21  2  0  0  0  0
 21 22  1  0  0  0  0
 21 27  1  0  0  0  0
 22 23  2  0  0  0  0
 22 25  1  0  0  0  0
 23 24  1  0  0  0  0
 25 26  2  0  0  0  0
 26 27  1  0  0  0  0
M  END
>  <CHROM.1>
-62.40074886,46.07546841,-174.47071126,-92.14911880,-159.80070461,138.09899633
80.03460608,53.68652421,55.59509590,17.88345856,0.47973268,0.84355394,0.42306304

>  <Name>
ligand

>  <RI>
0

>  <Rbt.Current_Directory>
/home/itssahil/PROJECTS/Mol_Feturizer/New_Systems/rnas/2GIS

>  <Rbt.Executable>
rbdock ($Id: //depot/dev/client3/rdock/2013.1/src/exe/rbdock.cxx#4 $)

>  <Rbt.Library>
libRbt.so (2013.1, Build901 2013/11/27)

>  <Rbt.Parameter_File>
/export/apps/rDock/src/rDock_2013.1_src/data/scripts/dock_solv.prm

>  <Rbt.Receptor>
prm/blind_docking_100.prm

>  <SCORE>
-13.7083

>  <SCORE.INTER>
-12.7391

>  <SCORE.INTER.CONST>
1

>  <SCORE.INTER.POLAR>
0

>  <SCORE.INTER.ROT>
7

>  <SCORE.INTER.SOLV>
10.258

>  <SCORE.INTER.VDW>
-20.1787

>  <SCORE.INTER.norm>
-0.471819

>  <SCORE.INTRA>
-0.971185

>  <SCORE.INTRA.DIHEDRAL>
1.95815

>  <SCORE.INTRA.DIHEDRAL.0>
9.40024

>  <SCORE.INTRA.POLAR>
0

>  <SCORE.INTRA.POLAR.0>
0

>  <SCORE.INTRA.REPUL>
0

>  <SCORE.INTRA.REPUL.0>
0

>  <SCORE.INTRA.SOLV>
-2.08268

>  <SCORE.INTRA.SOLV.lig_0>
-47.1049

>  <SCORE.INTRA.VDW>
-0.908918

>  <SCORE.INTRA.VDW.0>
-1.50278

>  <SCORE.INTRA.norm>
-0.0359698

>  <SCORE.RESTR>
0.00202157

>  <SCORE.RESTR.CAVITY>
0.00202157

>  <SCORE.RESTR.norm>
7.48731e-05

>  <SCORE.SYSTEM>
0

>  <SCORE.SYSTEM.CONST>
0

>  <SCORE.SYSTEM.DIHEDRAL>
0

>  <SCORE.SYSTEM.SOLV>
0

>  <SCORE.SYSTEM.norm>
0

>  <SCORE.heavy>
27

>  <SCORE.norm>
-0.507714

>  <RMSD>
14.945

$$$$
ligand
 OpenBabel11021811433D
libRbt.so/2013.1/901 2013/11/27
 27 29  0  0  0  0  0  0  0  0999 V2000
   52.0598   59.5863   12.0326 N   0  0  0  0  0  0  0  0  0  0  0  0
   53.5134   59.5261   12.2147 C   0  0  2  0  0  0  0  0  0  0  0  0
   54.0896   58.4335   11.3317 C   0  0  0  0  0  0  0  0  0  0  0  0
   53.4112   57.4488   11.0529 O   0  0  0  0  0  0  0  0  0  0  0  0
   53.8695   59.2496   13.6890 C   0  0  0  0  0  0  0  0  0  0  0  0
   53.2147   57.9403   14.1267 C   0  0  0  0  0  0  0  0  0  0  0  0
   53.6736   57.3589   15.8106 S   0  0  2  0  0  0  0  0  0  0  0  0
   55.3819   56.7603   15.6222 C   0  0  0  0  0  0  0  0  0  0  0  0
   52.7459   55.8122   15.7358 C   0  0  0  0  0  0  0  0  0  0  0  0
   52.9387   54.9124   16.9688 C   0  0  1  0  0  0  0  0  0  0  0  0
   52.2057   55.4820   18.0936 O   0  0  0  0  0  0  0  0  0  0  0  0
   52.1983   53.6577   16.5833 C   0  0  1  0  0  0  0  0  0  0  0  0
   53.1147   52.6960   16.0599 O   0  0  0  0  0  0  0  0  0  0  0  0
   51.6015   53.1634   17.8953 C   0  0  1  0  0  0  0  0  0  0  0  0
   52.4073   52.1635   18.5079 O   0  0  0  0  0  0  0  0  0  0  0  0
   51.4807   54.4248   18.8261 C   0  0  2  0  0  0  0  0  0  0  0  0
   55.2567   58.4992   10.9454 O   0  0  0  0  0  0  0  0  0  0  0  0
   46.6483   53.7440   20.7667 N   0  0  0  0  0  0  0  0  0  0  0  0
   47.7015   52.9285   20.8875 C   0  0  0  0  0  0  0  0  0  0  0  0
   48.8750   53.2373   20.3585 N   0  0  0  0  0  0  0  0  0  0  0  0
   49.0486   54.3658   19.6511 C   0  0  0  0  0  0  0  0  0  0  0  0
   47.9572   55.2563   19.4831 C   0  0  0  0  0  0  0  0  0  0  0  0
   46.7235   54.8973   20.0825 C   0  0  0  0  0  0  0  0  0  0  0  0
   45.6211   55.7137   19.9644 N   0  0  0  0  0  0  0  0  0  0  0  0
   48.3932   56.2938   18.7410 N   0  0  0  0  0  0  0  0  0  0  0  0
   49.6445   56.1053   18.4393 C   0  0  0  0  0  0  0  0  0  0  0  0
   50.1022   54.9353   18.9784 N   0  0  0  0  0  0  0  0  0  0  0  0
  2  1  1  1  0  0  0
  2  3  1  0  0  0  0
  2  5  1  0  0  0  0
  3  4  1  0  0  0  0
  3 17  1  0  0  0  0
  5  6  1  0  0  0  0
  7  6  1  6  0  0  0
  7  8  1  0  0  0  0
  7  9  1  0  0  0  0
 10  9  1  6  0  0  0
 10 11  1  0  0  0  0
 10 12  1  0  0  0  0
 11 16  1  0  0  0  0
 12 13  1  1  0  0  0
 12 14  1  0  0  0  0
 14 15  1  1  0  0  0
 14 16  1  0  0  0  0
 16 27  1  6  0  0  0
 18 19  2  0  0  0  0
 18 23  1  0  0  0  0
 19 20  1  0  0  0  0
 20 21  2  0  0  0  0
 21 22  1  0  0  0  0
 21 27  1  0  0  0  0
 22 23  2  0  0  0  0
 22 25  1  0  0  0  0
 23 24  1  0  0  0  0
 25 26  2  0  0  0  0
 26 27  1  0  0  0  0
M  END
>  <CHROM.1>
-29.66505326,57.77206660,173.91761058,-73.18579517,175.74403029,73.88312310
-176.10760956,51.47886266,55.81180152,16.63358670,0.88612512,0.45938908,-0.71102320

>  <Name>
ligand

>  <RI>
0

>  <Rbt.Current_Directory>
/home/itssahil/PROJECTS/Mol_Feturizer/New_Systems/rnas/2GIS

>  <Rbt.Executable>
rbdock ($Id: //depot/dev/client3/rdock/2013.1/src/exe/rbdock.cxx#4 $)

>  <Rbt.Library>
libRbt.so (2013.1, Build901 2013/11/27)

>  <Rbt.Parameter_File>
/export/apps/rDock/src/rDock_2013.1_src/data/scripts/dock_solv.prm

>  <Rbt.Receptor>
prm/blind_docking_100.prm

>  <SCORE>
-16.0983

>  <SCORE.INTER>
-12.0022

>  <SCORE.INTER.CONST>
1

>  <SCORE.INTER.POLAR>
0

>  <SCORE.INTER.ROT>
7

>  <SCORE.INTER.SOLV>
12.9745

>  <SCORE.INTER.VDW>
-20.593

>  <SCORE.INTER.norm>
-0.444526

>  <SCORE.INTRA>
-4.0961

>  <SCORE.INTRA.DIHEDRAL>
-5.43035

>  <SCORE.INTRA.DIHEDRAL.0>
9.40024

>  <SCORE.INTRA.POLAR>
0

>  <SCORE.INTRA.POLAR.0>
0

>  <SCORE.INTRA.REPUL>
0

>  <SCORE.INTRA.REPUL.0>
0

>  <SCORE.INTRA.SOLV>
-2.45507

>  <SCORE.INTRA.SOLV.lig_0>
-47.1049

>  <SCORE.INTRA.VDW>
-0.153394

>  <SCORE.INTRA.VDW.0>
-1.50278

>  <SCORE.INTRA.norm>
-0.151707

>  <SCORE.RESTR>
0

>  <SCORE.RESTR.CAVITY>
0

>  <SCORE.RESTR.norm>
0

>  <SCORE.SYSTEM>
0

>  <SCORE.SYSTEM.CONST>
0

>  <SCORE.SYSTEM.DIHEDRAL>
0

>  <SCORE.SYSTEM.SOLV>
0

>  <SCORE.SYSTEM.norm>
0

>  <SCORE.heavy>
27

>  <SCORE.norm>
-0.596233

>  <RMSD>
15.329

$$$$
ligand
 OpenBabel11021811433D
libRbt.so/2013.1/901 2013/11/27
 27 29  0  0  0  0  0  0  0  0999 V2000
   46.1676   57.3587   18.7576 N   0  0  0  0  0  0  0  0  0  0  0  0
   45.8282   55.9570   19.0217 C   0  0  2  0  0  0  0  0  0  0  0  0
   44.4369   55.8777   19.6244 C   0  0  0  0  0  0  0  0  0  0  0  0
   43.9953   54.7982   20.0082 O   0  0  0  0  0  0  0  0  0  0  0  0
   46.8514   55.3174   19.9814 C   0  0  0  0  0  0  0  0  0  0  0  0
   48.2486   55.4298   19.3734 C   0  0  0  0  0  0  0  0  0  0  0  0
   49.5316   54.3686   20.1558 S   0  0  2  0  0  0  0  0  0  0  0  0
   50.0940   55.3378   21.5898 C   0  0  0  0  0  0  0  0  0  0  0  0
   50.8308   54.7263   18.9546 C   0  0  0  0  0  0  0  0  0  0  0  0
   51.5151   53.4703   18.3879 C   0  0  1  0  0  0  0  0  0  0  0  0
   51.9447   53.7378   17.0202 O   0  0  0  0  0  0  0  0  0  0  0  0
   52.7758   53.3801   19.2089 C   0  0  1  0  0  0  0  0  0  0  0  0
   52.5838   52.4707   20.2928 O   0  0  0  0  0  0  0  0  0  0  0  0
   53.8124   52.8340   18.2348 C   0  0  1  0  0  0  0  0  0  0  0  0
   53.9692   51.4247   18.3528 O   0  0  0  0  0  0  0  0  0  0  0  0
   53.3077   53.2167   16.7956 C   0  0  2  0  0  0  0  0  0  0  0  0
   43.7237   56.8801   19.6723 O   0  0  0  0  0  0  0  0  0  0  0  0
   55.7737   55.1361   12.5747 N   0  0  0  0  0  0  0  0  0  0  0  0
   55.1864   53.9418   12.7071 C   0  0  0  0  0  0  0  0  0  0  0  0
   54.5805   53.5940   13.8315 N   0  0  0  0  0  0  0  0  0  0  0  0
   54.5582   54.4121   14.8966 C   0  0  0  0  0  0  0  0  0  0  0  0
   55.1800   55.6842   14.8096 C   0  0  0  0  0  0  0  0  0  0  0  0
   55.8003   56.0251   13.5811 C   0  0  0  0  0  0  0  0  0  0  0  0
   56.4209   57.2438   13.4217 N   0  0  0  0  0  0  0  0  0  0  0  0
   55.0181   56.2949   16.0005 N   0  0  0  0  0  0  0  0  0  0  0  0
   54.3639   55.5036   16.7993 C   0  0  0  0  0  0  0  0  0  0  0  0
   54.0500   54.3311   16.1701 N   0  0  0  0  0  0  0  0  0  0  0  0
  2  1  1  1  0  0  0
  2  3  1  0  0  0  0
  2  5  1  0  0  0  0
  3  4  1  0  0  0  0
  3 17  1  0  0  0  0
  5  6  1  0  0  0  0
  7  6  1  6  0  0  0
  7  8  1  0  0  0  0
  7  9  1  0  0  0  0
 10  9  1  1  0  0  0
 10 11  1  0  0  0  0
 10 12  1  0  0  0  0
 11 16  1  0  0  0  0
 12 13  1  1  0  0  0
 12 14  1  0  0  0  0
 14 15  1  6  0  0  0
 14 16  1  0  0  0  0
 16 27  1  1  0  0  0
 18 19  2  0  0  0  0
 18 23  1  0  0  0  0
 19 20  1  0  0  0  0
 20 21  2  0  0  0  0
 21 22  1  0  0  0  0
 21 27  1  0  0  0  0
 22 23  2  0  0  0  0
 22 25  1  0  0  0  0
 23 24  1  0  0  0  0
 25 26  2  0  0  0  0
 26 27  1  0  0  0  0
M  END
>  <CHROM.1>
-174.89867866,-57.80972858,-165.39566755,-83.75033369,-129.78099046,148.91117921
-113.30156059,51.29581619,54.72667184,17.64611768,2.77676448,-0.38283828
2.18283272

>  <Name>
ligand

>  <RI>
0

>  <Rbt.Current_Directory>
/home/itssahil/PROJECTS/Mol_Feturizer/New_Systems/rnas/2GIS

>  <Rbt.Executable>
rbdock ($Id: //depot/dev/client3/rdock/2013.1/src/exe/rbdock.cxx#4 $)

>  <Rbt.Library>
libRbt.so (2013.1, Build901 2013/11/27)

>  <Rbt.Parameter_File>
/export/apps/rDock/src/rDock_2013.1_src/data/scripts/dock_solv.prm

>  <Rbt.Receptor>
prm/blind_docking_100.prm

>  <SCORE>
-15.6935

>  <SCORE.INTER>
-15.0881

>  <SCORE.INTER.CONST>
1

>  <SCORE.INTER.POLAR>
0

>  <SCORE.INTER.ROT>
7

>  <SCORE.INTER.SOLV>
19.4674

>  <SCORE.INTER.VDW>
-24.8146

>  <SCORE.INTER.norm>
-0.55882

>  <SCORE.INTRA>
-0.620227

>  <SCORE.INTRA.DIHEDRAL>
2.23212

>  <SCORE.INTRA.DIHEDRAL.0>
9.40024

>  <SCORE.INTRA.POLAR>
0

>  <SCORE.INTRA.POLAR.0>
0

>  <SCORE.INTRA.REPUL>
0

>  <SCORE.INTRA.REPUL.0>
0

>  <SCORE.INTRA.SOLV>
-2.28811

>  <SCORE.INTRA.SOLV.lig_0>
-47.1049

>  <SCORE.INTRA.VDW>
-0.59223

>  <SCORE.INTRA.VDW.0>
-1.50278

>  <SCORE.INTRA.norm>
-0.0229714

>  <SCORE.RESTR>
0.0148083

>  <SCORE.RESTR.CAVITY>
0.0148083

>  <SCORE.RESTR.norm>
0.000548457

>  <SCORE.SYSTEM>
0

>  <SCORE.SYSTEM.CONST>
0

>  <SCORE.SYSTEM.DIHEDRAL>
0

>  <SCORE.SYSTEM.SOLV>
0

>  <SCORE.SYSTEM.norm>
0

>  <SCORE.heavy>
27

>  <SCORE.norm>
-0.581243

>  <RMSD>
15.625

$$$$
ligand
 OpenBabel11021811433D
libRbt.so/2013.1/901 2013/11/27
 27 29  0  0  0  0  0  0  0  0999 V2000
   51.1786   51.3084   24.7839 N   0  0  0  0  0  0  0  0  0  0  0  0
   52.3596   51.7486   25.5331 C   0  0  2  0  0  0  0  0  0  0  0  0
   52.1831   53.1976   25.9511 C   0  0  0  0  0  0  0  0  0  0  0  0
   51.9217   53.4715   27.1190 O   0  0  0  0  0  0  0  0  0  0  0  0
   53.6352   51.6020   24.6797 C   0  0  0  0  0  0  0  0  0  0  0  0
   53.8748   50.1220   24.3851 C   0  0  0  0  0  0  0  0  0  0  0  0
   55.3318   49.7603   23.3217 S   0  0  2  0  0  0  0  0  0  0  0  0
   54.8878   50.4701   21.7058 C   0  0  0  0  0  0  0  0  0  0  0  0
   54.9466   48.0161   23.0605 C   0  0  0  0  0  0  0  0  0  0  0  0
   55.9346   47.2954   22.1269 C   0  0  1  0  0  0  0  0  0  0  0  0
   56.2845   46.0046   22.7084 O   0  0  0  0  0  0  0  0  0  0  0  0
   55.0873   46.9904   20.9185 C   0  0  1  0  0  0  0  0  0  0  0  0
   55.2824   47.9961   19.9238 O   0  0  0  0  0  0  0  0  0  0  0  0
   55.6147   45.6480   20.4270 C   0  0  1  0  0  0  0  0  0  0  0  0
   56.5623   45.7964   19.3761 O   0  0  0  0  0  0  0  0  0  0  0  0
   56.2738   44.9518   21.6732 C   0  0  2  0  0  0  0  0  0  0  0  0
   52.2379   54.0964   25.1114 O   0  0  0  0  0  0  0  0  0  0  0  0
   51.5392   42.8487   22.5345 N   0  0  0  0  0  0  0  0  0  0  0  0
   51.8244   43.9918   21.9013 C   0  0  0  0  0  0  0  0  0  0  0  0
   53.0748   44.3947   21.7386 N   0  0  0  0  0  0  0  0  0  0  0  0
   54.1069   43.6897   22.2306 C   0  0  0  0  0  0  0  0  0  0  0  0
   53.8542   42.4773   22.9224 C   0  0  0  0  0  0  0  0  0  0  0  0
   52.5023   42.0720   23.0572 C   0  0  0  0  0  0  0  0  0  0  0  0
   52.1805   40.9052   23.7135 N   0  0  0  0  0  0  0  0  0  0  0  0
   55.0449   41.9779   23.3098 N   0  0  0  0  0  0  0  0  0  0  0  0
   55.9905   42.7829   22.9225 C   0  0  0  0  0  0  0  0  0  0  0  0
   55.4707   43.8523   22.2478 N   0  0  0  0  0  0  0  0  0  0  0  0
  2  1  1  6  0  0  0
  2  3  1  0  0  0  0
  2  5  1  0  0  0  0
  3  4  1  0  0  0  0
  3 17  1  0  0  0  0
  5  6  1  0  0  0  0
  7  6  1  1  0  0  0
  7  8  1  0  0  0  0
  7  9  1  0  0  0  0
 10  9  1  1  0  0  0
 10 11  1  0  0  0  0
 10 12  1  0  0  0  0
 11 16  1  0  0  0  0
 12 13  1  6  0  0  0
 12 14  1  0  0  0  0
 14 15  1  6  0  0  0
 14 16  1  0  0  0  0
 16 27  1  1  0  0  0
 18 19  2  0  0  0  0
 18 23  1  0  0  0  0
 19 20  1  0  0  0  0
 20 21  2  0  0  0  0
 21 22  1  0  0  0  0
 21 27  1  0  0  0  0
 22 23  2  0  0  0  0
 22 25  1  0  0  0  0
 23 24  1  0  0  0  0
 25 26  2  0  0  0  0
 26 27  1  0  0  0  0
M  END
>  <CHROM.1>
105.25943386,-64.52475776,177.97110807,-66.59877608,177.61052281,135.28577403
85.23286922,54.12290810,47.21175652,22.95563462,1.75972391,0.71025376,0.17944490

>  <Name>
ligand

>  <RI>
0

>  <Rbt.Current_Directory>
/home/itssahil/PROJECTS/Mol_Feturizer/New_Systems/rnas/2GIS

>  <Rbt.Executable>
rbdock ($Id: //depot/dev/client3/rdock/2013.1/src/exe/rbdock.cxx#4 $)

>  <Rbt.Library>
libRbt.so (2013.1, Build901 2013/11/27)

>  <Rbt.Parameter_File>
/export/apps/rDock/src/rDock_2013.1_src/data/scripts/dock_solv.prm

>  <Rbt.Receptor>
prm/blind_docking_80.prm

>  <SCORE>
-18.3788

>  <SCORE.INTER>
-15.3543

>  <SCORE.INTER.CONST>
1

>  <SCORE.INTER.POLAR>
0

>  <SCORE.INTER.ROT>
7

>  <SCORE.INTER.SOLV>
15.3108

>  <SCORE.INTER.VDW>
-23.6065

>  <SCORE.INTER.norm>
-0.568678

>  <SCORE.INTRA>
-3.04244

>  <SCORE.INTRA.DIHEDRAL>
-1.94239

>  <SCORE.INTRA.DIHEDRAL.0>
9.40024

>  <SCORE.INTRA.POLAR>
0

>  <SCORE.INTRA.POLAR.0>
0

>  <SCORE.INTRA.REPUL>
0

>  <SCORE.INTRA.REPUL.0>
0

>  <SCORE.INTRA.SOLV>
-2.22198

>  <SCORE.INTRA.SOLV.lig_0>
-47.1049

>  <SCORE.INTRA.VDW>
-0.960249

>  <SCORE.INTRA.VDW.0>
-1.50278

>  <SCORE.INTRA.norm>
-0.112683

>  <SCORE.RESTR>
0.0179775

>  <SCORE.RESTR.CAVITY>
0.0179775

>  <SCORE.RESTR.norm>
0.000665832

>  <SCORE.SYSTEM>
0

>  <SCORE.SYSTEM.CONST>
0

>  <SCORE.SYSTEM.DIHEDRAL>
0

>  <SCORE.SYSTEM.SOLV>
0

>  <SCORE.SYSTEM.norm>
0

>  <SCORE.heavy>
27

>  <SCORE.norm>
-0.680695

>  <RMSD>
15.803

$$$$
ligand
 OpenBabel11021811433D
libRbt.so/2013.1/901 2013/11/27
 27 29  0  0  0  0  0  0  0  0999 V2000
   48.4928   53.2407   22.0416 N   0  0  0  0  0  0  0  0  0  0  0  0
   49.4716   54.0882   21.3533 C   0  0  2  0  0  0  0  0  0  0  0  0
   49.0144   55.5351   21.4060 C   0  0  0  0  0  0  0  0  0  0  0  0
   49.4909   56.2989   22.2409 O   0  0  0  0  0  0  0  0  0  0  0  0
   49.6423   53.6466   19.8861 C   0  0  0  0  0  0  0  0  0  0  0  0
   50.6904   54.5322   19.2139 C   0  0  0  0  0  0  0  0  0  0  0  0
   51.0236   54.1481   17.4459 S   0  0  2  0  0  0  0  0  0  0  0  0
   52.1249   52.7004   17.5070 C   0  0  0  0  0  0  0  0  0  0  0  0
   52.2088   55.4841   17.1825 C   0  0  0  0  0  0  0  0  0  0  0  0
   52.7279   55.5772   15.7372 C   0  0  1  0  0  0  0  0  0  0  0  0
   52.8694   56.9819   15.3713 O   0  0  0  0  0  0  0  0  0  0  0  0
   54.1294   55.0350   15.8523 C   0  0  1  0  0  0  0  0  0  0  0  0
   54.1449   53.6529   15.4943 O   0  0  0  0  0  0  0  0  0  0  0  0
   54.9259   55.8538   14.8439 C   0  0  1  0  0  0  0  0  0  0  0  0
   55.0683   55.1798   13.5989 O   0  0  0  0  0  0  0  0  0  0  0  0
   54.1420   57.2038   14.6566 C   0  0  2  0  0  0  0  0  0  0  0  0
   48.1212   55.9310   20.6567 O   0  0  0  0  0  0  0  0  0  0  0  0
   53.9118   62.2976   15.9143 N   0  0  0  0  0  0  0  0  0  0  0  0
   53.0235   61.5870   15.2107 C   0  0  0  0  0  0  0  0  0  0  0  0
   53.2012   60.2952   14.9832 N   0  0  0  0  0  0  0  0  0  0  0  0
   54.2959   59.6515   15.4210 C   0  0  0  0  0  0  0  0  0  0  0  0
   55.2738   60.3656   16.1599 C   0  0  0  0  0  0  0  0  0  0  0  0
   55.0352   61.7427   16.3981 C   0  0  0  0  0  0  0  0  0  0  0  0
   55.9384   62.4995   17.1104 N   0  0  0  0  0  0  0  0  0  0  0  0
   56.2575   59.4982   16.4714 N   0  0  0  0  0  0  0  0  0  0  0  0
   55.9658   58.3294   15.9802 C   0  0  0  0  0  0  0  0  0  0  0  0
   54.7653   58.3640   15.3270 N   0  0  0  0  0  0  0  0  0  0  0  0
  2  1  1  6  0  0  0
  2  3  1  0  0  0  0
  2  5  1  0  0  0  0
  3  4  1  0  0  0  0
  3 17  1  0  0  0  0
  5  6  1  0  0  0  0
  7  6  1  1  0  0  0
  7  8  1  0  0  0  0
  7  9  1  0  0  0  0
 10  9  1  1  0  0  0
 10 11  1  0  0  0  0
 10 12  1  0  0  0  0
 11 16  1  0  0  0  0
 12 13  1  6  0  0  0
 12 14  1  0  0  0  0
 14 15  1  6  0  0  0
 14 16  1  0  0  0  0
 16 27  1  1  0  0  0
 18 19  2  0  0  0  0
 18 23  1  0  0  0  0
 19 20  1  0  0  0  0
 20 21  2  0  0  0  0
 21 22  1  0  0  0  0
 21 27  1  0  0  0  0
 22 23  2  0  0  0  0
 22 25  1  0  0  0  0
 23 24  1  0  0  0  0
 25 26  2  0  0  0  0
 26 27  1  0  0  0  0
M  END
>  <CHROM.1>
99.35848715,-178.75293810,-179.88858608,-79.19665938,-177.41493958,141.97754306
-62.39638918,52.67337212,56.78730269,17.20823001,2.66101579,-0.85519689,-2.87724316

>  <Name>
ligand

>  <RI>
0

>  <Rbt.Current_Directory>
/home/itssahil/PROJECTS/Mol_Feturizer/New_Systems/rnas/2GIS

>  <Rbt.Executable>
rbdock ($Id: //depot/dev/client3/rdock/2013.1/src/exe/rbdock.cxx#4 $)

>  <Rbt.Library>
libRbt.so (2013.1, Build901 2013/11/27)

>  <Rbt.Parameter_File>
/export/apps/rDock/src/rDock_2013.1_src/data/scripts/dock_solv.prm

>  <Rbt.Receptor>
prm/blind_docking_100.prm

>  <SCORE>
-13.4271

>  <SCORE.INTER>
-10.86

>  <SCORE.INTER.CONST>
1

>  <SCORE.INTER.POLAR>
0

>  <SCORE.INTER.ROT>
7

>  <SCORE.INTER.SOLV>
11.5115

>  <SCORE.INTER.VDW>
-19.3438

>  <SCORE.INTER.norm>
-0.402222

>  <SCORE.INTRA>
-2.56709

>  <SCORE.INTRA.DIHEDRAL>
-2.23095

>  <SCORE.INTRA.DIHEDRAL.0>
9.40024

>  <SCORE.INTRA.POLAR>
0

>  <SCORE.INTRA.POLAR.0>
0

>  <SCORE.INTRA.REPUL>
0

>  <SCORE.INTRA.REPUL.0>
0

>  <SCORE.INTRA.SOLV>
-2.88863

>  <SCORE.INTRA.SOLV.lig_0>
-47.1049

>  <SCORE.INTRA.VDW>
-0.00729377

>  <SCORE.INTRA.VDW.0>
-1.50278

>  <SCORE.INTRA.norm>
-0.0950772

>  <SCORE.RESTR>
0

>  <SCORE.RESTR.CAVITY>
0

>  <SCORE.RESTR.norm>
0

>  <SCORE.SYSTEM>
0

>  <SCORE.SYSTEM.CONST>
0

>  <SCORE.SYSTEM.DIHEDRAL>
0

>  <SCORE.SYSTEM.SOLV>
0

>  <SCORE.SYSTEM.norm>
0

>  <SCORE.heavy>
27

>  <SCORE.norm>
-0.497299

>  <RMSD>
15.810

$$$$
ligand
 OpenBabel11021811433D
libRbt.so/2013.1/901 2013/11/27
 27 29  0  0  0  0  0  0  0  0999 V2000
   53.3077   53.5900   25.0093 N   0  0  0  0  0  0  0  0  0  0  0  0
   53.1635   52.1534   24.7538 C   0  0  2  0  0  0  0  0  0  0  0  0
   52.3972   51.5103   25.8961 C   0  0  0  0  0  0  0  0  0  0  0  0
   51.6531   50.5588   25.6764 O   0  0  0  0  0  0  0  0  0  0  0  0
   54.5436   51.4823   24.6064 C   0  0  0  0  0  0  0  0  0  0  0  0
   54.3507   49.9889   24.3472 C   0  0  0  0  0  0  0  0  0  0  0  0
   55.8158   49.1178   23.6553 S   0  0  2  0  0  0  0  0  0  0  0  0
   56.1967   50.0344   22.1299 C   0  0  0  0  0  0  0  0  0  0  0  0
   54.9035   47.7042   23.0009 C   0  0  0  0  0  0  0  0  0  0  0  0
   55.7774   46.7112   22.2152 C   0  0  1  0  0  0  0  0  0  0  0  0
   55.3480   45.3518   22.5225 O   0  0  0  0  0  0  0  0  0  0  0  0
   55.3657   46.9640   20.7876 C   0  0  1  0  0  0  0  0  0  0  0  0
   56.2865   47.8636   20.1700 O   0  0  0  0  0  0  0  0  0  0  0  0
   55.4443   45.5907   20.1321 C   0  0  1  0  0  0  0  0  0  0  0  0
   56.6754   45.3933   19.4466 O   0  0  0  0  0  0  0  0  0  0  0  0
   55.2807   44.5406   21.2908 C   0  0  2  0  0  0  0  0  0  0  0  0
   52.4693   51.9786   27.0324 O   0  0  0  0  0  0  0  0  0  0  0  0
   51.5817   42.1020   24.1109 N   0  0  0  0  0  0  0  0  0  0  0  0
   52.7573   42.5761   24.5380 C   0  0  0  0  0  0  0  0  0  0  0  0
   53.5915   43.1908   23.7142 N   0  0  0  0  0  0  0  0  0  0  0  0
   53.3071   43.3352   22.4094 C   0  0  0  0  0  0  0  0  0  0  0  0
   52.0783   42.8363   21.9059 C   0  0  0  0  0  0  0  0  0  0  0  0
   51.2051   42.2024   22.8257 C   0  0  0  0  0  0  0  0  0  0  0  0
   49.9938   41.6965   22.4102 N   0  0  0  0  0  0  0  0  0  0  0  0
   52.0444   43.1047   20.5853 N   0  0  0  0  0  0  0  0  0  0  0  0
   53.1439   43.7114   20.2458 C   0  0  0  0  0  0  0  0  0  0  0  0
   53.9569   43.8847   21.3312 N   0  0  0  0  0  0  0  0  0  0  0  0
  2  1  1  1  0  0  0
  2  3  1  0  0  0  0
  2  5  1  0  0  0  0
  3  4  1  0  0  0  0
  3 17  1  0  0  0  0
  5  6  1  0  0  0  0
  7  6  1  1  0  0  0
  7  8  1  0  0  0  0
  7  9  1  0  0  0  0
 10  9  1  1  0  0  0
 10 11  1  0  0  0  0
 10 12  1  0  0  0  0
 11 16  1  0  0  0  0
 12 13  1  6  0  0  0
 12 14  1  0  0  0  0
 14 15  1  1  0  0  0
 14 16  1  0  0  0  0
 16 27  1  6  0  0  0
 18 19  2  0  0  0  0
 18 23  1  0  0  0  0
 19 20  1  0  0  0  0
 20 21  2  0  0  0  0
 21 22  1  0  0  0  0
 21 27  1  0  0  0  0
 22 23  2  0  0  0  0
 22 25  1  0  0  0  0
 23 24  1  0  0  0  0
 25 26  2  0  0  0  0
 26 27  1  0  0  0  0
M  END
>  <CHROM.1>
146.81781388,179.78281843,162.53261587,-56.81646905,176.10133541,140.83776145
-40.21932287,53.94375521,46.86366524,22.89051113,1.44569622,0.69229260,0.42237773

>  <Name>
ligand

>  <RI>
0

>  <Rbt.Current_Directory>
/home/itssahil/PROJECTS/Mol_Feturizer/New_Systems/rnas/2GIS

>  <Rbt.Executable>
rbdock ($Id: //depot/dev/client3/rdock/2013.1/src/exe/rbdock.cxx#4 $)

>  <Rbt.Library>
libRbt.so (2013.1, Build901 2013/11/27)

>  <Rbt.Parameter_File>
/export/apps/rDock/src/rDock_2013.1_src/data/scripts/dock_solv.prm

>  <Rbt.Receptor>
prm/blind_docking_80.prm

>  <SCORE>
-17.7535

>  <SCORE.INTER>
-16.0708

>  <SCORE.INTER.CONST>
1

>  <SCORE.INTER.POLAR>
0

>  <SCORE.INTER.ROT>
7

>  <SCORE.INTER.SOLV>
12.4383

>  <SCORE.INTER.VDW>
-23.1266

>  <SCORE.INTER.norm>
-0.595213

>  <SCORE.INTRA>
-1.68273

>  <SCORE.INTRA.DIHEDRAL>
-1.0062

>  <SCORE.INTRA.DIHEDRAL.0>
9.40024

>  <SCORE.INTRA.POLAR>
0

>  <SCORE.INTRA.POLAR.0>
0

>  <SCORE.INTRA.REPUL>
0

>  <SCORE.INTRA.REPUL.0>
0

>  <SCORE.INTRA.SOLV>
-2.84365

>  <SCORE.INTRA.SOLV.lig_0>
-47.1049

>  <SCORE.INTRA.VDW>
0.242196

>  <SCORE.INTRA.VDW.0>
-1.50278

>  <SCORE.INTRA.norm>
-0.0623232

>  <SCORE.RESTR>
0

>  <SCORE.RESTR.CAVITY>
0

>  <SCORE.RESTR.norm>
0

>  <SCORE.SYSTEM>
0

>  <SCORE.SYSTEM.CONST>
0

>  <SCORE.SYSTEM.DIHEDRAL>
0

>  <SCORE.SYSTEM.SOLV>
0

>  <SCORE.SYSTEM.norm>
0

>  <SCORE.heavy>
27

>  <SCORE.norm>
-0.657537

>  <RMSD>
15.942

$$$$
ligand
 OpenBabel11021811433D
libRbt.so/2013.1/901 2013/11/27
 27 29  0  0  0  0  0  0  0  0999 V2000
   51.6059   51.1346   24.7059 N   0  0  0  0  0  0  0  0  0  0  0  0
   52.6707   51.7443   23.9032 C   0  0  2  0  0  0  0  0  0  0  0  0
   52.0546   52.5657   22.7847 C   0  0  0  0  0  0  0  0  0  0  0  0
   50.8454   52.5115   22.5784 O   0  0  0  0  0  0  0  0  0  0  0  0
   53.5962   50.6634   23.3099 C   0  0  0  0  0  0  0  0  0  0  0  0
   54.2112   49.8494   24.4473 C   0  0  0  0  0  0  0  0  0  0  0  0
   55.6627   48.8206   23.9792 S   0  0  2  0  0  0  0  0  0  0  0  0
   56.8156   50.0030   23.2145 C   0  0  0  0  0  0  0  0  0  0  0  0
   54.9027   48.0738   22.5219 C   0  0  0  0  0  0  0  0  0  0  0  0
   55.9064   47.3777   21.5864 C   0  0  1  0  0  0  0  0  0  0  0  0
   56.3420   46.1284   22.1998 O   0  0  0  0  0  0  0  0  0  0  0  0
   55.0481   46.9860   20.4111 C   0  0  1  0  0  0  0  0  0  0  0  0
   55.1622   47.9668   19.3798 O   0  0  0  0  0  0  0  0  0  0  0  0
   55.6376   45.6589   19.9496 C   0  0  1  0  0  0  0  0  0  0  0  0
   56.5495   45.8238   18.8698 O   0  0  0  0  0  0  0  0  0  0  0  0
   56.3650   45.0424   21.1998 C   0  0  2  0  0  0  0  0  0  0  0  0
   52.7704   53.2378   22.0419 O   0  0  0  0  0  0  0  0  0  0  0  0
   51.9933   42.1472   21.4960 N   0  0  0  0  0  0  0  0  0  0  0  0
   52.2341   43.1861   20.6888 C   0  0  0  0  0  0  0  0  0  0  0  0
   53.3978   43.8168   20.7078 N   0  0  0  0  0  0  0  0  0  0  0  0
   54.3729   43.4610   21.5604 C   0  0  0  0  0  0  0  0  0  0  0  0
   54.1597   42.3739   22.4464 C   0  0  0  0  0  0  0  0  0  0  0  0
   52.9069   41.7134   22.3798 C   0  0  0  0  0  0  0  0  0  0  0  0
   52.6294   40.6480   23.2067 N   0  0  0  0  0  0  0  0  0  0  0  0
   55.2778   42.2303   23.1855 N   0  0  0  0  0  0  0  0  0  0  0  0
   56.1412   43.1369   22.8320 C   0  0  0  0  0  0  0  0  0  0  0  0
   55.6390   43.9202   21.8304 N   0  0  0  0  0  0  0  0  0  0  0  0
  2  1  1  6  0  0  0
  2  3  1  0  0  0  0
  2  5  1  0  0  0  0
  3  4  1  0  0  0  0
  3 17  1  0  0  0  0
  5  6  1  0  0  0  0
  7  6  1  1  0  0  0
  7  8  1  0  0  0  0
  7  9  1  0  0  0  0
 10  9  1  1  0  0  0
 10 11  1  0  0  0  0
 10 12  1  0  0  0  0
 11 16  1  0  0  0  0
 12 13  1  6  0  0  0
 12 14  1  0  0  0  0
 14 15  1  6  0  0  0
 14 16  1  0  0  0  0
 16 27  1  1  0  0  0
 18 19  2  0  0  0  0
 18 23  1  0  0  0  0
 19 20  1  0  0  0  0
 20 21  2  0  0  0  0
 21 22  1  0  0  0  0
 21 27  1  0  0  0  0
 22 23  2  0  0  0  0
 22 25  1  0  0  0  0
 23 24  1  0  0  0  0
 25 26  2  0  0  0  0
 26 27  1  0  0  0  0
M  END
>  <CHROM.1>
-8.29058161,-59.09507771,-164.56194866,54.65559469,165.30687459,73.70177076
105.48618121,54.33703309,46.90698494,22.19630406,1.70401035,0.39042580,0.10846455

>  <Name>
ligand

>  <RI>
0

>  <Rbt.Current_Directory>
/home/itssahil/PROJECTS/Mol_Feturizer/New_Systems/rnas/2GIS

>  <Rbt.Executable>
rbdock ($Id: //depot/dev/client3/rdock/2013.1/src/exe/rbdock.cxx#4 $)

>  <Rbt.Library>
libRbt.so (2013.1, Build901 2013/11/27)

>  <Rbt.Parameter_File>
/export/apps/rDock/src/rDock_2013.1_src/data/scripts/dock_solv.prm

>  <Rbt.Receptor>
prm/blind_docking_100.prm

>  <SCORE>
-20.0562

>  <SCORE.INTER>
-17.179

>  <SCORE.INTER.CONST>
1

>  <SCORE.INTER.POLAR>
0

>  <SCORE.INTER.ROT>
7

>  <SCORE.INTER.SOLV>
15.3

>  <SCORE.INTER.VDW>
-24.8193

>  <SCORE.INTER.norm>
-0.63626

>  <SCORE.INTRA>
-2.87713

>  <SCORE.INTRA.DIHEDRAL>
-4.56778

>  <SCORE.INTRA.DIHEDRAL.0>
9.40024

>  <SCORE.INTRA.POLAR>
0

>  <SCORE.INTRA.POLAR.0>
0

>  <SCORE.INTRA.REPUL>
0

>  <SCORE.INTRA.REPUL.0>
0

>  <SCORE.INTRA.SOLV>
-2.40338

>  <SCORE.INTRA.SOLV.lig_0>
-47.1049

>  <SCORE.INTRA.VDW>
0.608454

>  <SCORE.INTRA.VDW.0>
-1.50278

>  <SCORE.INTRA.norm>
-0.10656

>  <SCORE.RESTR>
0

>  <SCORE.RESTR.CAVITY>
0

>  <SCORE.RESTR.norm>
0

>  <SCORE.SYSTEM>
0

>  <SCORE.SYSTEM.CONST>
0

>  <SCORE.SYSTEM.DIHEDRAL>
0

>  <SCORE.SYSTEM.SOLV>
0

>  <SCORE.SYSTEM.norm>
0

>  <SCORE.heavy>
27

>  <SCORE.norm>
-0.74282

>  <RMSD>
16.335

$$$$
ligand
 OpenBabel11021811433D
libRbt.so/2013.1/901 2013/11/27
 27 29  0  0  0  0  0  0  0  0999 V2000
   53.5780   53.0751   23.7584 N   0  0  0  0  0  0  0  0  0  0  0  0
   53.8315   51.8899   22.9332 C   0  0  2  0  0  0  0  0  0  0  0  0
   53.1050   52.0310   21.6074 C   0  0  0  0  0  0  0  0  0  0  0  0
   53.6884   51.7742   20.5580 O   0  0  0  0  0  0  0  0  0  0  0  0
   53.3615   50.6105   23.6537 C   0  0  0  0  0  0  0  0  0  0  0  0
   54.2366   50.3768   24.8842 C   0  0  0  0  0  0  0  0  0  0  0  0
   55.8176   49.4919   24.5651 S   0  0  2  0  0  0  0  0  0  0  0  0
   56.5492   50.3853   23.1585 C   0  0  0  0  0  0  0  0  0  0  0  0
   55.0748   48.0714   23.7350 C   0  0  0  0  0  0  0  0  0  0  0  0
   56.0635   47.2715   22.8693 C   0  0  1  0  0  0  0  0  0  0  0  0
   55.9001   45.8497   23.1494 O   0  0  0  0  0  0  0  0  0  0  0  0
   55.5313   47.4838   21.4753 C   0  0  1  0  0  0  0  0  0  0  0  0
   56.2409   48.5494   20.8431 O   0  0  0  0  0  0  0  0  0  0  0  0
   55.8135   46.1644   20.7675 C   0  0  1  0  0  0  0  0  0  0  0  0
   57.0182   46.2082   20.0117 O   0  0  0  0  0  0  0  0  0  0  0  0
   55.9060   45.0719   21.8945 C   0  0  2  0  0  0  0  0  0  0  0  0
   51.9526   52.4630   21.5746 O   0  0  0  0  0  0  0  0  0  0  0  0
   53.9781   40.2278   22.5261 N   0  0  0  0  0  0  0  0  0  0  0  0
   55.2619   40.6027   22.5124 C   0  0  0  0  0  0  0  0  0  0  0  0
   55.6064   41.8719   22.3616 N   0  0  0  0  0  0  0  0  0  0  0  0
   54.6833   42.8312   22.1835 C   0  0  0  0  0  0  0  0  0  0  0  0
   53.3087   42.4811   22.1762 C   0  0  0  0  0  0  0  0  0  0  0  0
   52.9822   41.1138   22.3608 C   0  0  0  0  0  0  0  0  0  0  0  0
   51.6692   40.6996   22.3685 N   0  0  0  0  0  0  0  0  0  0  0  0
   52.6046   43.6136   21.9789 N   0  0  0  0  0  0  0  0  0  0  0  0
   53.4296   44.6121   21.8578 C   0  0  0  0  0  0  0  0  0  0  0  0
   54.7239   44.1892   21.9807 N   0  0  0  0  0  0  0  0  0  0  0  0
  2  1  1  1  0  0  0
  2  3  1  0  0  0  0
  2  5  1  0  0  0  0
  3  4  1  0  0  0  0
  3 17  1  0  0  0  0
  5  6  1  0  0  0  0
  7  6  1  6  0  0  0
  7  8  1  0  0  0  0
  7  9  1  0  0  0  0
 10  9  1  1  0  0  0
 10 11  1  0  0  0  0
 10 12  1  0  0  0  0
 11 16  1  0  0  0  0
 12 13  1  6  0  0  0
 12 14  1  0  0  0  0
 14 15  1  1  0  0  0
 14 16  1  0  0  0  0
 16 27  1  1  0  0  0
 18 19  2  0  0  0  0
 18 23  1  0  0  0  0
 19 20  1  0  0  0  0
 20 21  2  0  0  0  0
 21 22  1  0  0  0  0
 21 27  1  0  0  0  0
 22 23  2  0  0  0  0
 22 25  1  0  0  0  0
 23 24  1  0  0  0  0
 25 26  2  0  0  0  0
 26 27  1  0  0  0  0
M  END
>  <CHROM.1>
133.83607893,-66.83537748,-84.36647037,49.40558110,160.49609988,133.30754364
-107.89831252,54.60284834,46.90283513,22.44851381,1.56216390,0.00709706,0.06692215

>  <Name>
ligand

>  <RI>
0

>  <Rbt.Current_Directory>
/home/itssahil/PROJECTS/Mol_Feturizer/New_Systems/rnas/2GIS

>  <Rbt.Executable>
rbdock ($Id: //depot/dev/client3/rdock/2013.1/src/exe/rbdock.cxx#4 $)

>  <Rbt.Library>
libRbt.so (2013.1, Build901 2013/11/27)

>  <Rbt.Parameter_File>
/export/apps/rDock/src/rDock_2013.1_src/data/scripts/dock_solv.prm

>  <Rbt.Receptor>
prm/blind_docking_100.prm

>  <SCORE>
-18.7701

>  <SCORE.INTER>
-18.9596

>  <SCORE.INTER.CONST>
1

>  <SCORE.INTER.POLAR>
0

>  <SCORE.INTER.ROT>
7

>  <SCORE.INTER.SOLV>
11.3622

>  <SCORE.INTER.VDW>
-24.6938

>  <SCORE.INTER.norm>
-0.702208

>  <SCORE.INTRA>
0.189529

>  <SCORE.INTRA.DIHEDRAL>
0.867817

>  <SCORE.INTRA.DIHEDRAL.0>
9.40024

>  <SCORE.INTRA.POLAR>
0

>  <SCORE.INTRA.POLAR.0>
0

>  <SCORE.INTRA.REPUL>
0

>  <SCORE.INTRA.REPUL.0>
0

>  <SCORE.INTRA.SOLV>
-1.38896

>  <SCORE.INTRA.SOLV.lig_0>
-47.1049

>  <SCORE.INTRA.VDW>
0.450099

>  <SCORE.INTRA.VDW.0>
-1.50278

>  <SCORE.INTRA.norm>
0.0070196

>  <SCORE.RESTR>
0

>  <SCORE.RESTR.CAVITY>
0

>  <SCORE.RESTR.norm>
0

>  <SCORE.SYSTEM>
0

>  <SCORE.SYSTEM.CONST>
0

>  <SCORE.SYSTEM.DIHEDRAL>
0

>  <SCORE.SYSTEM.SOLV>
0

>  <SCORE.SYSTEM.norm>
0

>  <SCORE.heavy>
27

>  <SCORE.norm>
-0.695188

>  <RMSD>
16.354

$$$$
ligand
 OpenBabel11021811433D
libRbt.so/2013.1/901 2013/11/27
 27 29  0  0  0  0  0  0  0  0999 V2000
   55.2175   65.8740   18.0778 N   0  0  0  0  0  0  0  0  0  0  0  0
   55.3168   64.9678   19.2262 C   0  0  2  0  0  0  0  0  0  0  0  0
   54.8346   65.6807   20.4770 C   0  0  0  0  0  0  0  0  0  0  0  0
   55.2332   66.8144   20.7290 O   0  0  0  0  0  0  0  0  0  0  0  0
   56.7695   64.4907   19.4231 C   0  0  0  0  0  0  0  0  0  0  0  0
   56.8101   63.4548   20.5455 C   0  0  0  0  0  0  0  0  0  0  0  0
   55.8344   61.9260   20.2369 S   0  0  2  0  0  0  0  0  0  0  0  0
   56.1119   60.9155   21.7248 C   0  0  0  0  0  0  0  0  0  0  0  0
   57.0059   61.1843   19.0811 C   0  0  0  0  0  0  0  0  0  0  0  0
   56.6487   59.7443   18.6738 C   0  0  1  0  0  0  0  0  0  0  0  0
   55.2943   59.7240   18.1334 O   0  0  0  0  0  0  0  0  0  0  0  0
   57.5660   59.4927   17.5047 C   0  0  1  0  0  0  0  0  0  0  0  0
   58.7352   58.8024   17.9463 O   0  0  0  0  0  0  0  0  0  0  0  0
   56.7453   58.6068   16.5756 C   0  0  1  0  0  0  0  0  0  0  0  0
   57.0453   57.2265   16.7472 O   0  0  0  0  0  0  0  0  0  0  0  0
   55.2368   58.8923   16.9149 C   0  0  2  0  0  0  0  0  0  0  0  0
   54.0946   65.1033   21.2737 O   0  0  0  0  0  0  0  0  0  0  0  0
   51.7559   59.1841   12.9932 N   0  0  0  0  0  0  0  0  0  0  0  0
   52.1180   58.0998   13.6876 C   0  0  0  0  0  0  0  0  0  0  0  0
   53.0009   58.1757   14.6709 N   0  0  0  0  0  0  0  0  0  0  0  0
   53.5939   59.3377   14.9909 C   0  0  0  0  0  0  0  0  0  0  0  0
   53.2533   60.5131   14.2736 C   0  0  0  0  0  0  0  0  0  0  0  0
   52.2889   60.3917   13.2415 C   0  0  0  0  0  0  0  0  0  0  0  0
   51.9062   61.4900   12.5046 N   0  0  0  0  0  0  0  0  0  0  0  0
   53.9840   61.5240   14.7848 N   0  0  0  0  0  0  0  0  0  0  0  0
   54.7399   61.0633   15.7380 C   0  0  0  0  0  0  0  0  0  0  0  0
   54.5372   59.7225   15.9122 N   0  0  0  0  0  0  0  0  0  0  0  0
  2  1  1  6  0  0  0
  2  3  1  0  0  0  0
  2  5  1  0  0  0  0
  3  4  1  0  0  0  0
  3 17  1  0  0  0  0
  5  6  1  0  0  0  0
  7  6  1  1  0  0  0
  7  8  1  0  0  0  0
  7  9  1  0  0  0  0
 10  9  1  6  0  0  0
 10 11  1  0  0  0  0
 10 12  1  0  0  0  0
 11 16  1  0  0  0  0
 12 13  1  1  0  0  0
 12 14  1  0  0  0  0
 14 15  1  1  0  0  0
 14 16  1  0  0  0  0
 16 27  1  6  0  0  0
 18 19  2  0  0  0  0
 18 23  1  0  0  0  0
 19 20  1  0  0  0  0
 20 21  2  0  0  0  0
 21 22  1  0  0  0  0
 21 27  1  0  0  0  0
 22 23  2  0  0  0  0
 22 25  1  0  0  0  0
 23 24  1  0  0  0  0
 25 26  2  0  0  0  0
 26 27  1  0  0  0  0
M  END
>  <CHROM.1>
-47.23765809,-174.94717172,61.77641317,179.19617342,172.94408998,55.36097537
-139.60044463,55.12413017,61.26339938,17.50624244,1.16192699,-0.80983902
0.56778581

>  <Name>
ligand

>  <RI>
0

>  <Rbt.Current_Directory>
/home/itssahil/PROJECTS/Mol_Feturizer/New_Systems/rnas/2GIS

>  <Rbt.Executable>
rbdock ($Id: //depot/dev/client3/rdock/2013.1/src/exe/rbdock.cxx#4 $)

>  <Rbt.Library>
libRbt.so (2013.1, Build901 2013/11/27)

>  <Rbt.Parameter_File>
/export/apps/rDock/src/rDock_2013.1_src/data/scripts/dock_solv.prm

>  <Rbt.Receptor>
prm/blind_docking_100.prm

>  <SCORE>
-11.3634

>  <SCORE.INTER>
-5.88973

>  <SCORE.INTER.CONST>
1

>  <SCORE.INTER.POLAR>
0

>  <SCORE.INTER.ROT>
7

>  <SCORE.INTER.SOLV>
5.52949

>  <SCORE.INTER.VDW>
-14.0363

>  <SCORE.INTER.norm>
-0.218138

>  <SCORE.INTRA>
-5.50253

>  <SCORE.INTRA.DIHEDRAL>
-5.97195

>  <SCORE.INTRA.DIHEDRAL.0>
9.40024

>  <SCORE.INTRA.POLAR>
0

>  <SCORE.INTRA.POLAR.0>
0

>  <SCORE.INTRA.REPUL>
0

>  <SCORE.INTRA.REPUL.0>
0

>  <SCORE.INTRA.SOLV>
-2.99615

>  <SCORE.INTRA.SOLV.lig_0>
-47.1049

>  <SCORE.INTRA.VDW>
-1.01848

>  <SCORE.INTRA.VDW.0>
-1.50278

>  <SCORE.INTRA.norm>
-0.203797

>  <SCORE.RESTR>
0.0288546

>  <SCORE.RESTR.CAVITY>
0.0288546

>  <SCORE.RESTR.norm>
0.00106869

>  <SCORE.SYSTEM>
0

>  <SCORE.SYSTEM.CONST>
0

>  <SCORE.SYSTEM.DIHEDRAL>
0

>  <SCORE.SYSTEM.SOLV>
0

>  <SCORE.SYSTEM.norm>
0

>  <SCORE.heavy>
27

>  <SCORE.norm>
-0.420867

>  <RMSD>
16.968

$$$$
ligand
 OpenBabel11021811433D
libRbt.so/2013.1/901 2013/11/27
 27 29  0  0  0  0  0  0  0  0999 V2000
   48.8196   55.8647   19.1494 N   0  0  0  0  0  0  0  0  0  0  0  0
   49.8363   54.8542   19.4575 C   0  0  2  0  0  0  0  0  0  0  0  0
   50.1346   54.8734   20.9461 C   0  0  0  0  0  0  0  0  0  0  0  0
   50.0298   55.9201   21.5792 O   0  0  0  0  0  0  0  0  0  0  0  0
   51.1298   55.1185   18.6613 C   0  0  0  0  0  0  0  0  0  0  0  0
   50.8404   54.9671   17.1686 C   0  0  0  0  0  0  0  0  0  0  0  0
   52.3260   54.8787   16.0872 S   0  0  2  0  0  0  0  0  0  0  0  0
   53.3491   53.5784   16.8453 C   0  0  0  0  0  0  0  0  0  0  0  0
   53.1156   56.3700   16.7287 C   0  0  0  0  0  0  0  0  0  0  0  0
   54.6058   56.4888   16.3650 C   0  0  1  0  0  0  0  0  0  0  0  0
   54.7501   56.4137   14.9158 O   0  0  0  0  0  0  0  0  0  0  0  0
   54.9268   57.9125   16.7410 C   0  0  1  0  0  0  0  0  0  0  0  0
   55.5081   57.9498   18.0446 O   0  0  0  0  0  0  0  0  0  0  0  0
   55.9430   58.3507   15.6937 C   0  0  1  0  0  0  0  0  0  0  0  0
   57.2816   58.2223   16.1586 O   0  0  0  0  0  0  0  0  0  0  0  0
   55.7025   57.4356   14.4379 C   0  0  2  0  0  0  0  0  0  0  0  0
   50.5428   53.8578   21.5100 O   0  0  0  0  0  0  0  0  0  0  0  0
   55.7549   58.9253    9.4021 N   0  0  0  0  0  0  0  0  0  0  0  0
   56.7046   58.2604   10.0691 C   0  0  0  0  0  0  0  0  0  0  0  0
   56.5491   57.9311   11.3418 N   0  0  0  0  0  0  0  0  0  0  0  0
   55.4461   58.2789   12.0250 C   0  0  0  0  0  0  0  0  0  0  0  0
   54.4165   58.9974   11.3646 C   0  0  0  0  0  0  0  0  0  0  0  0
   54.6145   59.3128    9.9966 C   0  0  0  0  0  0  0  0  0  0  0  0
   53.6575   60.0055    9.2895 N   0  0  0  0  0  0  0  0  0  0  0  0
   53.4384   59.2203   12.2650 N   0  0  0  0  0  0  0  0  0  0  0  0
   53.7885   58.7098   13.4091 C   0  0  0  0  0  0  0  0  0  0  0  0
   55.0148   58.1122   13.3184 N   0  0  0  0  0  0  0  0  0  0  0  0
  2  1  1  1  0  0  0
  2  3  1  0  0  0  0
  2  5  1  0  0  0  0
  3  4  1  0  0  0  0
  3 17  1  0  0  0  0
  5  6  1  0  0  0  0
  7  6  1  1  0  0  0
  7  8  1  0  0  0  0
  7  9  1  0  0  0  0
 10  9  1  6  0  0  0
 10 11  1  0  0  0  0
 10 12  1  0  0  0  0
 11 16  1  0  0  0  0
 12 13  1  1  0  0  0
 12 14  1  0  0  0  0
 14 15  1  1  0  0  0
 14 16  1  0  0  0  0
 16 27  1  6  0  0  0
 18 19  2  0  0  0  0
 18 23  1  0  0  0  0
 19 20  1  0  0  0  0
 20 21  2  0  0  0  0
 21 22  1  0  0  0  0
 21 27  1  0  0  0  0
 22 23  2  0  0  0  0
 22 25  1  0  0  0  0
 23 24  1  0  0  0  0
 25 26  2  0  0  0  0
 26 27  1  0  0  0  0
M  END
>  <CHROM.1>
-30.30959761,-64.14819407,-167.09330732,51.49620360,164.10820591,55.95054666
-124.55057926,53.55199668,56.91114897,15.47222292,2.05359625,0.27153330,1.85161943

>  <Name>
ligand

>  <RI>
0

>  <Rbt.Current_Directory>
/home/itssahil/PROJECTS/Mol_Feturizer/New_Systems/rnas/2GIS

>  <Rbt.Executable>
rbdock ($Id: //depot/dev/client3/rdock/2013.1/src/exe/rbdock.cxx#4 $)

>  <Rbt.Library>
libRbt.so (2013.1, Build901 2013/11/27)

>  <Rbt.Parameter_File>
/export/apps/rDock/src/rDock_2013.1_src/data/scripts/dock_solv.prm

>  <Rbt.Receptor>
prm/blind_docking_100.prm

>  <SCORE>
-15.2475

>  <SCORE.INTER>
-11.6803

>  <SCORE.INTER.CONST>
1

>  <SCORE.INTER.POLAR>
0

>  <SCORE.INTER.ROT>
7

>  <SCORE.INTER.SOLV>
13.1919

>  <SCORE.INTER.VDW>
-20.4509

>  <SCORE.INTER.norm>
-0.432605

>  <SCORE.INTRA>
-3.56716

>  <SCORE.INTRA.DIHEDRAL>
-5.3932

>  <SCORE.INTRA.DIHEDRAL.0>
9.40024

>  <SCORE.INTRA.POLAR>
0

>  <SCORE.INTRA.POLAR.0>
0

>  <SCORE.INTRA.REPUL>
0

>  <SCORE.INTRA.REPUL.0>
0

>  <SCORE.INTRA.SOLV>
-2.43683

>  <SCORE.INTRA.SOLV.lig_0>
-47.1049

>  <SCORE.INTRA.VDW>
0.34786

>  <SCORE.INTRA.VDW.0>
-1.50278

>  <SCORE.INTRA.norm>
-0.132117

>  <SCORE.RESTR>
0

>  <SCORE.RESTR.CAVITY>
0

>  <SCORE.RESTR.norm>
0

>  <SCORE.SYSTEM>
0

>  <SCORE.SYSTEM.CONST>
0

>  <SCORE.SYSTEM.DIHEDRAL>
0

>  <SCORE.SYSTEM.SOLV>
0

>  <SCORE.SYSTEM.norm>
0

>  <SCORE.heavy>
27

>  <SCORE.norm>
-0.564722

>  <RMSD>
17.947

$$$$
ligand
 OpenBabel11021811433D
libRbt.so/2013.1/901 2013/11/27
 27 29  0  0  0  0  0  0  0  0999 V2000
   61.3826   47.7271   14.0183 N   0  0  0  0  0  0  0  0  0  0  0  0
   60.7672   46.5240   14.5873 C   0  0  2  0  0  0  0  0  0  0  0  0
   61.2168   45.3052   13.8014 C   0  0  0  0  0  0  0  0  0  0  0  0
   60.9878   45.2331   12.5973 O   0  0  0  0  0  0  0  0  0  0  0  0
   59.2294   46.6286   14.5561 C   0  0  0  0  0  0  0  0  0  0  0  0
   58.7726   47.6308   15.6152 C   0  0  0  0  0  0  0  0  0  0  0  0
   58.7381   46.9887   17.3388 S   0  0  2  0  0  0  0  0  0  0  0  0
   58.7097   45.1802   17.1373 C   0  0  0  0  0  0  0  0  0  0  0  0
   56.9924   47.3396   17.6360 C   0  0  0  0  0  0  0  0  0  0  0  0
   56.2449   46.2038   18.3559 C   0  0  1  0  0  0  0  0  0  0  0  0
   56.7789   46.0623   19.7056 O   0  0  0  0  0  0  0  0  0  0  0  0
   54.8569   46.7690   18.5158 C   0  0  1  0  0  0  0  0  0  0  0  0
   54.0188   46.3013   17.4587 O   0  0  0  0  0  0  0  0  0  0  0  0
   54.3841   46.2136   19.8536 C   0  0  1  0  0  0  0  0  0  0  0  0
   53.5866   45.0456   19.6977 O   0  0  0  0  0  0  0  0  0  0  0  0
   55.6826   45.8918   20.6797 C   0  0  2  0  0  0  0  0  0  0  0  0
   61.7543   44.3592   14.3777 O   0  0  0  0  0  0  0  0  0  0  0  0
   55.7856   50.8881   22.2945 N   0  0  0  0  0  0  0  0  0  0  0  0
   55.4156   50.4223   21.0965 C   0  0  0  0  0  0  0  0  0  0  0  0
   55.4211   49.1255   20.8309 N   0  0  0  0  0  0  0  0  0  0  0  0
   55.8290   48.2263   21.7416 C   0  0  0  0  0  0  0  0  0  0  0  0
   56.2445   48.6728   23.0223 C   0  0  0  0  0  0  0  0  0  0  0  0
   56.2045   50.0679   23.2721 C   0  0  0  0  0  0  0  0  0  0  0  0
   56.5899   50.5745   24.4929 N   0  0  0  0  0  0  0  0  0  0  0  0
   56.6021   47.5845   23.7329 N   0  0  0  0  0  0  0  0  0  0  0  0
   56.4485   46.5246   22.9944 C   0  0  0  0  0  0  0  0  0  0  0  0
   55.9695   46.8600   21.7587 N   0  0  0  0  0  0  0  0  0  0  0  0
  2  1  1  6  0  0  0
  2  3  1  0  0  0  0
  2  5  1  0  0  0  0
  3  4  1  0  0  0  0
  3 17  1  0  0  0  0
  5  6  1  0  0  0  0
  7  6  1  6  0  0  0
  7  8  1  0  0  0  0
  7  9  1  0  0  0  0
 10  9  1  6  0  0  0
 10 11  1  0  0  0  0
 10 12  1  0  0  0  0
 11 16  1  0  0  0  0
 12 13  1  6  0  0  0
 12 14  1  0  0  0  0
 14 15  1  6  0  0  0
 14 16  1  0  0  0  0
 16 27  1  1  0  0  0
 18 19  2  0  0  0  0
 18 23  1  0  0  0  0
 19 20  1  0  0  0  0
 20 21  2  0  0  0  0
 21 22  1  0  0  0  0
 21 27  1  0  0  0  0
 22 23  2  0  0  0  0
 22 25  1  0  0  0  0
 23 24  1  0  0  0  0
 25 26  2  0  0  0  0
 26 27  1  0  0  0  0
M  END
>  <CHROM.1>
-58.99307582,-72.83933646,-78.93940029,-19.40970759,136.76680656,65.95234678
73.83017005,57.30840579,47.11754985,18.74173820,-0.96007924,0.53131461,0.91477685

>  <Name>
ligand

>  <RI>
0

>  <Rbt.Current_Directory>
/home/itssahil/PROJECTS/Mol_Feturizer/New_Systems/rnas/2GIS

>  <Rbt.Executable>
rbdock ($Id: //depot/dev/client3/rdock/2013.1/src/exe/rbdock.cxx#4 $)

>  <Rbt.Library>
libRbt.so (2013.1, Build901 2013/11/27)

>  <Rbt.Parameter_File>
/export/apps/rDock/src/rDock_2013.1_src/data/scripts/dock_solv.prm

>  <Rbt.Receptor>
prm/blind_docking_100.prm

>  <SCORE>
2.63635

>  <SCORE.INTER>
1.50314

>  <SCORE.INTER.CONST>
1

>  <SCORE.INTER.POLAR>
0

>  <SCORE.INTER.ROT>
7

>  <SCORE.INTER.SOLV>
22.6421

>  <SCORE.INTER.VDW>
-14.8119

>  <SCORE.INTER.norm>
0.0556718

>  <SCORE.INTRA>
1.13321

>  <SCORE.INTRA.DIHEDRAL>
2.71787

>  <SCORE.INTRA.DIHEDRAL.0>
9.40024

>  <SCORE.INTRA.POLAR>
0

>  <SCORE.INTRA.POLAR.0>
0

>  <SCORE.INTRA.REPUL>
0

>  <SCORE.INTRA.REPUL.0>
0

>  <SCORE.INTRA.SOLV>
-2.19916

>  <SCORE.INTRA.SOLV.lig_0>
-47.1049

>  <SCORE.INTRA.VDW>
0.873858

>  <SCORE.INTRA.VDW.0>
-1.50278

>  <SCORE.INTRA.norm>
0.0419708

>  <SCORE.RESTR>
0

>  <SCORE.RESTR.CAVITY>
0

>  <SCORE.RESTR.norm>
0

>  <SCORE.SYSTEM>
0

>  <SCORE.SYSTEM.CONST>
0

>  <SCORE.SYSTEM.DIHEDRAL>
0

>  <SCORE.SYSTEM.SOLV>
0

>  <SCORE.SYSTEM.norm>
0

>  <SCORE.heavy>
27

>  <SCORE.norm>
0.0976426

>  <RMSD>
18.498

$$$$
ligand
 OpenBabel11021811433D
libRbt.so/2013.1/901 2013/11/27
 27 29  0  0  0  0  0  0  0  0999 V2000
   54.5607   60.8294   11.1635 N   0  0  0  0  0  0  0  0  0  0  0  0
   54.6270   59.9603    9.9845 C   0  0  2  0  0  0  0  0  0  0  0  0
   53.3702   60.1398    9.1517 C   0  0  0  0  0  0  0  0  0  0  0  0
   52.3313   59.5734    9.4793 O   0  0  0  0  0  0  0  0  0  0  0  0
   54.7721   58.4830   10.4009 C   0  0  0  0  0  0  0  0  0  0  0  0
   56.1400   58.2761   11.0496 C   0  0  0  0  0  0  0  0  0  0  0  0
   56.3111   56.7385   12.0449 S   0  0  2  0  0  0  0  0  0  0  0  0
   55.5745   55.4471   10.9951 C   0  0  0  0  0  0  0  0  0  0  0  0
   54.9505   57.0938   13.1768 C   0  0  0  0  0  0  0  0  0  0  0  0
   55.1562   56.5265   14.5921 C   0  0  1  0  0  0  0  0  0  0  0  0
   56.2664   57.2256   15.2289 O   0  0  0  0  0  0  0  0  0  0  0  0
   53.9127   56.9772   15.3144 C   0  0  1  0  0  0  0  0  0  0  0  0
   52.9452   55.9272   15.3144 O   0  0  0  0  0  0  0  0  0  0  0  0
   54.3914   57.2582   16.7334 C   0  0  1  0  0  0  0  0  0  0  0  0
   54.1599   56.1579   17.6053 O   0  0  0  0  0  0  0  0  0  0  0  0
   55.9296   57.5657   16.6256 C   0  0  2  0  0  0  0  0  0  0  0  0
   53.4035   60.8001    8.1130 O   0  0  0  0  0  0  0  0  0  0  0  0
   54.6680   62.5814   15.7134 N   0  0  0  0  0  0  0  0  0  0  0  0
   53.9854   61.4877   15.3573 C   0  0  0  0  0  0  0  0  0  0  0  0
   54.4148   60.2758   15.6723 N   0  0  0  0  0  0  0  0  0  0  0  0
   55.5694   60.0924   16.3338 C   0  0  0  0  0  0  0  0  0  0  0  0
   56.3363   61.2213   16.7208 C   0  0  0  0  0  0  0  0  0  0  0  0
   55.8307   62.5016   16.3811 C   0  0  0  0  0  0  0  0  0  0  0  0
   56.5187   63.6431   16.7265 N   0  0  0  0  0  0  0  0  0  0  0  0
   57.4334   60.7651   17.3574 N   0  0  0  0  0  0  0  0  0  0  0  0
   57.4020   59.4648   17.3812 C   0  0  0  0  0  0  0  0  0  0  0  0
   56.2729   58.9959   16.7693 N   0  0  0  0  0  0  0  0  0  0  0  0
  2  1  1  1  0  0  0
  2  3  1  0  0  0  0
  2  5  1  0  0  0  0
  3  4  1  0  0  0  0
  3 17  1  0  0  0  0
  5  6  1  0  0  0  0
  7  6  1  6  0  0  0
  7  8  1  0  0  0  0
  7  9  1  0  0  0  0
 10  9  1  6  0  0  0
 10 11  1  0  0  0  0
 10 12  1  0  0  0  0
 11 16  1  0  0  0  0
 12 13  1  1  0  0  0
 12 14  1  0  0  0  0
 14 15  1  1  0  0  0
 14 16  1  0  0  0  0
 16 27  1  6  0  0  0
 18 19  2  0  0  0  0
 18 23  1  0  0  0  0
 19 20  1  0  0  0  0
 20 21  2  0  0  0  0
 21 22  1  0  0  0  0
 21 27  1  0  0  0  0
 22 23  2  0  0  0  0
 22 25  1  0  0  0  0
 23 24  1  0  0  0  0
 25 26  2  0  0  0  0
 26 27  1  0  0  0  0
M  END
>  <CHROM.1>
-79.70383444,-67.53757546,162.69991256,45.51785321,-148.52384339,67.03697932
77.58166502,55.10199537,58.92793445,13.95537028,3.12734548,1.35457510,3.02829727

>  <Name>
ligand

>  <RI>
0

>  <Rbt.Current_Directory>
/home/itssahil/PROJECTS/Mol_Feturizer/New_Systems/rnas/2GIS

>  <Rbt.Executable>
rbdock ($Id: //depot/dev/client3/rdock/2013.1/src/exe/rbdock.cxx#4 $)

>  <Rbt.Library>
libRbt.so (2013.1, Build901 2013/11/27)

>  <Rbt.Parameter_File>
/export/apps/rDock/src/rDock_2013.1_src/data/scripts/dock_solv.prm

>  <Rbt.Receptor>
prm/blind_docking_100.prm

>  <SCORE>
-12.4045

>  <SCORE.INTER>
-10.3812

>  <SCORE.INTER.CONST>
1

>  <SCORE.INTER.POLAR>
0

>  <SCORE.INTER.ROT>
7

>  <SCORE.INTER.SOLV>
13.0454

>  <SCORE.INTER.VDW>
-19.536

>  <SCORE.INTER.norm>
-0.38449

>  <SCORE.INTRA>
-2.02852

>  <SCORE.INTRA.DIHEDRAL>
-1.32745

>  <SCORE.INTRA.DIHEDRAL.0>
9.40024

>  <SCORE.INTRA.POLAR>
0

>  <SCORE.INTRA.POLAR.0>
0

>  <SCORE.INTRA.REPUL>
0

>  <SCORE.INTRA.REPUL.0>
0

>  <SCORE.INTRA.SOLV>
-2.16414

>  <SCORE.INTRA.SOLV.lig_0>
-47.1049

>  <SCORE.INTRA.VDW>
-0.282729

>  <SCORE.INTRA.VDW.0>
-1.50278

>  <SCORE.INTRA.norm>
-0.0751305

>  <SCORE.RESTR>
0.00528746

>  <SCORE.RESTR.CAVITY>
0.00528746

>  <SCORE.RESTR.norm>
0.000195832

>  <SCORE.SYSTEM>
0

>  <SCORE.SYSTEM.CONST>
0

>  <SCORE.SYSTEM.DIHEDRAL>
0

>  <SCORE.SYSTEM.SOLV>
0

>  <SCORE.SYSTEM.norm>
0

>  <SCORE.heavy>
27

>  <SCORE.norm>
-0.459424

>  <RMSD>
18.512

$$$$
ligand
 OpenBabel11021811433D
libRbt.so/2013.1/901 2013/11/27
 27 29  0  0  0  0  0  0  0  0999 V2000
   54.4470   65.4662   18.3156 N   0  0  0  0  0  0  0  0  0  0  0  0
   53.0865   64.9480   18.1416 C   0  0  2  0  0  0  0  0  0  0  0  0
   52.1073   65.8343   18.8906 C   0  0  0  0  0  0  0  0  0  0  0  0
   50.9061   65.7641   18.6466 O   0  0  0  0  0  0  0  0  0  0  0  0
   52.9821   63.4994   18.6588 C   0  0  0  0  0  0  0  0  0  0  0  0
   53.6586   62.5601   17.6614 C   0  0  0  0  0  0  0  0  0  0  0  0
   53.7261   60.7935   18.1701 S   0  0  2  0  0  0  0  0  0  0  0  0
   54.9371   60.7696   19.5284 C   0  0  0  0  0  0  0  0  0  0  0  0
   54.7383   60.2362   16.7831 C   0  0  0  0  0  0  0  0  0  0  0  0
   54.7726   58.7073   16.6146 C   0  0  1  0  0  0  0  0  0  0  0  0
   53.8921   58.3292   15.5152 O   0  0  0  0  0  0  0  0  0  0  0  0
   56.1766   58.4584   16.1266 C   0  0  1  0  0  0  0  0  0  0  0  0
   57.0142   58.0967   17.2249 O   0  0  0  0  0  0  0  0  0  0  0  0
   56.0301   57.2877   15.1623 C   0  0  1  0  0  0  0  0  0  0  0  0
   56.3254   56.0418   15.7828 O   0  0  0  0  0  0  0  0  0  0  0  0
   54.5410   57.3167   14.6586 C   0  0  2  0  0  0  0  0  0  0  0  0
   52.5181   66.6691   19.6970 O   0  0  0  0  0  0  0  0  0  0  0  0
   56.7527   58.5318   10.0528 N   0  0  0  0  0  0  0  0  0  0  0  0
   57.3540   58.0613   11.1510 C   0  0  0  0  0  0  0  0  0  0  0  0
   56.6647   57.7782   12.2450 N   0  0  0  0  0  0  0  0  0  0  0  0
   55.3386   57.9821   12.3091 C   0  0  0  0  0  0  0  0  0  0  0  0
   54.6578   58.4932   11.1743 C   0  0  0  0  0  0  0  0  0  0  0  0
   55.4304   58.7643   10.0168 C   0  0  0  0  0  0  0  0  0  0  0  0
   54.8380   59.2591    8.8766 N   0  0  0  0  0  0  0  0  0  0  0  0
   53.3549   58.6050   11.5016 N   0  0  0  0  0  0  0  0  0  0  0  0
   53.1903   58.2166   12.7322 C   0  0  0  0  0  0  0  0  0  0  0  0
   54.3785   57.8168   13.2774 N   0  0  0  0  0  0  0  0  0  0  0  0
  2  1  1  1  0  0  0
  2  3  1  0  0  0  0
  2  5  1  0  0  0  0
  3  4  1  0  0  0  0
  3 17  1  0  0  0  0
  5  6  1  0  0  0  0
  7  6  1  6  0  0  0
  7  8  1  0  0  0  0
  7  9  1  0  0  0  0
 10  9  1  6  0  0  0
 10 11  1  0  0  0  0
 10 12  1  0  0  0  0
 11 16  1  0  0  0  0
 12 13  1  1  0  0  0
 12 14  1  0  0  0  0
 14 15  1  1  0  0  0
 14 16  1  0  0  0  0
 16 27  1  6  0  0  0
 18 19  2  0  0  0  0
 18 23  1  0  0  0  0
 19 20  1  0  0  0  0
 20 21  2  0  0  0  0
 21 22  1  0  0  0  0
 21 27  1  0  0  0  0
 22 23  2  0  0  0  0
 22 25  1  0  0  0  0
 23 24  1  0  0  0  0
 25 26  2  0  0  0  0
 26 27  1  0  0  0  0
M  END
>  <CHROM.1>
163.99717253,-74.70975398,176.21102618,-70.82100887,-165.91157390,102.61904475
128.54721908,54.52820520,60.23971609,15.41574045,2.26194245,-1.13719431,1.45313035

>  <Name>
ligand

>  <RI>
0

>  <Rbt.Current_Directory>
/home/itssahil/PROJECTS/Mol_Feturizer/New_Systems/rnas/2GIS

>  <Rbt.Executable>
rbdock ($Id: //depot/dev/client3/rdock/2013.1/src/exe/rbdock.cxx#4 $)

>  <Rbt.Library>
libRbt.so (2013.1, Build901 2013/11/27)

>  <Rbt.Parameter_File>
/export/apps/rDock/src/rDock_2013.1_src/data/scripts/dock_solv.prm

>  <Rbt.Receptor>
prm/blind_docking_100.prm

>  <SCORE>
-11.5873

>  <SCORE.INTER>
-9.52083

>  <SCORE.INTER.CONST>
1

>  <SCORE.INTER.POLAR>
0

>  <SCORE.INTER.ROT>
7

>  <SCORE.INTER.SOLV>
15.0927

>  <SCORE.INTER.VDW>
-19.6448

>  <SCORE.INTER.norm>
-0.352623

>  <SCORE.INTRA>
-2.0665

>  <SCORE.INTRA.DIHEDRAL>
0.0888778

>  <SCORE.INTRA.DIHEDRAL.0>
9.40024

>  <SCORE.INTRA.POLAR>
0

>  <SCORE.INTRA.POLAR.0>
0

>  <SCORE.INTRA.REPUL>
0

>  <SCORE.INTRA.REPUL.0>
0

>  <SCORE.INTRA.SOLV>
-2.53466

>  <SCORE.INTRA.SOLV.lig_0>
-47.1049

>  <SCORE.INTRA.VDW>
-0.843613

>  <SCORE.INTRA.VDW.0>
-1.50278

>  <SCORE.INTRA.norm>
-0.0765372

>  <SCORE.RESTR>
0

>  <SCORE.RESTR.CAVITY>
0

>  <SCORE.RESTR.norm>
0

>  <SCORE.SYSTEM>
0

>  <SCORE.SYSTEM.CONST>
0

>  <SCORE.SYSTEM.DIHEDRAL>
0

>  <SCORE.SYSTEM.SOLV>
0

>  <SCORE.SYSTEM.norm>
0

>  <SCORE.heavy>
27

>  <SCORE.norm>
-0.429161

>  <RMSD>
18.678

$$$$
ligand
 OpenBabel11021811433D
libRbt.so/2013.1/901 2013/11/27
 27 29  0  0  0  0  0  0  0  0999 V2000
   56.9100   64.0969   19.3360 N   0  0  0  0  0  0  0  0  0  0  0  0
   56.2556   64.5757   18.1143 C   0  0  2  0  0  0  0  0  0  0  0  0
   55.7732   66.0001   18.3233 C   0  0  0  0  0  0  0  0  0  0  0  0
   56.1785   66.8986   17.5912 O   0  0  0  0  0  0  0  0  0  0  0  0
   55.0657   63.6699   17.7396 C   0  0  0  0  0  0  0  0  0  0  0  0
   55.5941   62.3154   17.2699 C   0  0  0  0  0  0  0  0  0  0  0  0
   54.3084   61.0353   16.9652 S   0  0  2  0  0  0  0  0  0  0  0  0
   53.9532   60.3620   18.6182 C   0  0  0  0  0  0  0  0  0  0  0  0
   55.4360   59.7876   16.3090 C   0  0  0  0  0  0  0  0  0  0  0  0
   54.8130   58.3853   16.1976 C   0  0  1  0  0  0  0  0  0  0  0  0
   53.5202   58.4898   15.5307 O   0  0  0  0  0  0  0  0  0  0  0  0
   55.7286   57.6918   15.2218 C   0  0  1  0  0  0  0  0  0  0  0  0
   56.6989   56.9216   15.9317 O   0  0  0  0  0  0  0  0  0  0  0  0
   54.8009   56.7783   14.4303 C   0  0  1  0  0  0  0  0  0  0  0  0
   54.7959   55.4491   14.9380 O   0  0  0  0  0  0  0  0  0  0  0  0
   53.3667   57.4149   14.5302 C   0  0  2  0  0  0  0  0  0  0  0  0
   55.0259   66.2702   19.2638 O   0  0  0  0  0  0  0  0  0  0  0  0
   54.6116   59.5527    9.8975 N   0  0  0  0  0  0  0  0  0  0  0  0
   55.4368   58.9940   10.7896 C   0  0  0  0  0  0  0  0  0  0  0  0
   54.9799   58.4730   11.9174 N   0  0  0  0  0  0  0  0  0  0  0  0
   53.6736   58.5125   12.2280 C   0  0  0  0  0  0  0  0  0  0  0  0
   52.7605   59.1075   11.3200 C   0  0  0  0  0  0  0  0  0  0  0  0
   53.2888   59.6358   10.1150 C   0  0  0  0  0  0  0  0  0  0  0  0
   52.4627   60.2255    9.1846 N   0  0  0  0  0  0  0  0  0  0  0  0
   51.5318   59.0196   11.8673 N   0  0  0  0  0  0  0  0  0  0  0  0
   51.6226   58.4344   13.0256 C   0  0  0  0  0  0  0  0  0  0  0  0
   52.9188   58.0951   13.2970 N   0  0  0  0  0  0  0  0  0  0  0  0
  2  1  1  1  0  0  0
  2  3  1  0  0  0  0
  2  5  1  0  0  0  0
  3  4  1  0  0  0  0
  3 17  1  0  0  0  0
  5  6  1  0  0  0  0
  7  6  1  1  0  0  0
  7  8  1  0  0  0  0
  7  9  1  0  0  0  0
 10  9  1  6  0  0  0
 10 11  1  0  0  0  0
 10 12  1  0  0  0  0
 11 16  1  0  0  0  0
 12 13  1  1  0  0  0
 12 14  1  0  0  0  0
 14 15  1  1  0  0  0
 14 16  1  0  0  0  0
 16 27  1  6  0  0  0
 18 19  2  0  0  0  0
 18 23  1  0  0  0  0
 19 20  1  0  0  0  0
 20 21  2  0  0  0  0
 21 22  1  0  0  0  0
 21 27  1  0  0  0  0
 22 23  2  0  0  0  0
 22 25  1  0  0  0  0
 23 24  1  0  0  0  0
 25 26  2  0  0  0  0
 26 27  1  0  0  0  0
M  END
>  <CHROM.1>
121.09943440,-69.82925076,173.21447927,-81.98208100,167.09084741,48.87246245
96.53662328,54.52573185,60.30143808,15.02553742,-0.75190048,1.26805549,3.12097340

>  <Name>
ligand

>  <RI>
0

>  <Rbt.Current_Directory>
/home/itssahil/PROJECTS/Mol_Feturizer/New_Systems/rnas/2GIS

>  <Rbt.Executable>
rbdock ($Id: //depot/dev/client3/rdock/2013.1/src/exe/rbdock.cxx#4 $)

>  <Rbt.Library>
libRbt.so (2013.1, Build901 2013/11/27)

>  <Rbt.Parameter_File>
/export/apps/rDock/src/rDock_2013.1_src/data/scripts/dock_solv.prm

>  <Rbt.Receptor>
prm/blind_docking_100.prm

>  <SCORE>
-9.22203

>  <SCORE.INTER>
-4.6507

>  <SCORE.INTER.CONST>
1

>  <SCORE.INTER.POLAR>
0

>  <SCORE.INTER.ROT>
7

>  <SCORE.INTER.SOLV>
9.23899

>  <SCORE.INTER.VDW>
-14.4468

>  <SCORE.INTER.norm>
-0.172248

>  <SCORE.INTRA>
-4.57133

>  <SCORE.INTRA.DIHEDRAL>
-4.63546

>  <SCORE.INTRA.DIHEDRAL.0>
9.40024

>  <SCORE.INTRA.POLAR>
0

>  <SCORE.INTRA.POLAR.0>
0

>  <SCORE.INTRA.REPUL>
0

>  <SCORE.INTRA.REPUL.0>
0

>  <SCORE.INTRA.SOLV>
-2.44772

>  <SCORE.INTRA.SOLV.lig_0>
-47.1049

>  <SCORE.INTRA.VDW>
-1.02974

>  <SCORE.INTRA.VDW.0>
-1.50278

>  <SCORE.INTRA.norm>
-0.169309

>  <SCORE.RESTR>
0

>  <SCORE.RESTR.CAVITY>
0

>  <SCORE.RESTR.norm>
0

>  <SCORE.SYSTEM>
0

>  <SCORE.SYSTEM.CONST>
0

>  <SCORE.SYSTEM.DIHEDRAL>
0

>  <SCORE.SYSTEM.SOLV>
0

>  <SCORE.SYSTEM.norm>
0

>  <SCORE.heavy>
27

>  <SCORE.norm>
-0.341557

>  <RMSD>
18.811

$$$$
ligand
 OpenBabel11021811433D
libRbt.so/2013.1/901 2013/11/27
 27 29  0  0  0  0  0  0  0  0999 V2000
   39.8720   26.5152   10.4672 N   0  0  0  0  0  0  0  0  0  0  0  0
   40.5514   27.4714   11.3471 C   0  0  2  0  0  0  0  0  0  0  0  0
   41.4924   28.3349   10.5260 C   0  0  0  0  0  0  0  0  0  0  0  0
   42.7034   28.2784   10.7204 O   0  0  0  0  0  0  0  0  0  0  0  0
   41.3421   26.7363   12.4477 C   0  0  0  0  0  0  0  0  0  0  0  0
   40.4176   25.7454   13.1534 C   0  0  0  0  0  0  0  0  0  0  0  0
   41.2681   24.3939   14.0670 S   0  0  2  0  0  0  0  0  0  0  0  0
   40.5173   22.8728   13.4076 C   0  0  0  0  0  0  0  0  0  0  0  0
   40.3517   24.6021   15.6083 C   0  0  0  0  0  0  0  0  0  0  0  0
   40.9349   25.6820   16.5361 C   0  0  1  0  0  0  0  0  0  0  0  0
   41.0483   26.9343   15.7974 O   0  0  0  0  0  0  0  0  0  0  0  0
   39.8294   25.8903   17.5391 C   0  0  1  0  0  0  0  0  0  0  0  0
   40.0850   25.1138   18.7097 O   0  0  0  0  0  0  0  0  0  0  0  0
   39.8998   27.3776   17.8625 C   0  0  1  0  0  0  0  0  0  0  0  0
   40.6428   27.6339   19.0487 O   0  0  0  0  0  0  0  0  0  0  0  0
   40.5803   28.0653   16.6231 C   0  0  2  0  0  0  0  0  0  0  0  0
   41.0427   29.1389    9.7092 O   0  0  0  0  0  0  0  0  0  0  0  0
   39.7427   30.6513   12.1295 N   0  0  0  0  0  0  0  0  0  0  0  0
   40.8761   30.0736   12.5427 C   0  0  0  0  0  0  0  0  0  0  0  0
   40.9401   29.4338   13.6998 N   0  0  0  0  0  0  0  0  0  0  0  0
   39.8797   29.3659   14.5215 C   0  0  0  0  0  0  0  0  0  0  0  0
   38.6589   29.9755   14.1337 C   0  0  0  0  0  0  0  0  0  0  0  0
   38.6277   30.6333   12.8781 C   0  0  0  0  0  0  0  0  0  0  0  0
   37.4770   31.2449   12.4337 N   0  0  0  0  0  0  0  0  0  0  0  0
   37.7702   29.7661   15.1254 N   0  0  0  0  0  0  0  0  0  0  0  0
   38.3465   29.0942   16.0786 C   0  0  0  0  0  0  0  0  0  0  0  0
   39.6460   28.8155   15.7581 N   0  0  0  0  0  0  0  0  0  0  0  0
  2  1  1  6  0  0  0
  2  3  1  0  0  0  0
  2  5  1  0  0  0  0
  3  4  1  0  0  0  0
  3 17  1  0  0  0  0
  5  6  1  0  0  0  0
  7  6  1  6  0  0  0
  7  8  1  0  0  0  0
  7  9  1  0  0  0  0
 10  9  1  6  0  0  0
 10 11  1  0  0  0  0
 10 12  1  0  0  0  0
 11 16  1  0  0  0  0
 12 13  1  1  0  0  0
 12 14  1  0  0  0  0
 14 15  1  1  0  0  0
 14 16  1  0  0  0  0
 16 27  1  6  0  0  0
 18 19  2  0  0  0  0
 18 23  1  0  0  0  0
 19 20  1  0  0  0  0
 20 21  2  0  0  0  0
 21 22  1  0  0  0  0
 21 27  1  0  0  0  0
 22 23  2  0  0  0  0
 22 25  1  0  0  0  0
 23 24  1  0  0  0  0
 25 26  2  0  0  0  0
 26 27  1  0  0  0  0
M  END
>  <CHROM.1>
-115.79660822,-52.06532089,159.79460620,-126.38850254,-84.75859206,54.29203767
-56.79097925,40.25764302,27.54906545,14.18853807,-1.59699626,-1.17925071
2.07741513

>  <Name>
ligand

>  <RI>
0

>  <Rbt.Current_Directory>
/home/itssahil/PROJECTS/Mol_Feturizer/New_Systems/rnas/2GIS

>  <Rbt.Executable>
rbdock ($Id: //depot/dev/client3/rdock/2013.1/src/exe/rbdock.cxx#4 $)

>  <Rbt.Library>
libRbt.so (2013.1, Build901 2013/11/27)

>  <Rbt.Parameter_File>
/export/apps/rDock/src/rDock_2013.1_src/data/scripts/dock_solv.prm

>  <Rbt.Receptor>
prm/blind_docking_60.prm

>  <SCORE>
-0.906641

>  <SCORE.INTER>
-4.45581

>  <SCORE.INTER.CONST>
1

>  <SCORE.INTER.POLAR>
0

>  <SCORE.INTER.ROT>
7

>  <SCORE.INTER.SOLV>
11.6822

>  <SCORE.INTER.VDW>
-15.1313

>  <SCORE.INTER.norm>
-0.16503

>  <SCORE.INTRA>
-1.19626

>  <SCORE.INTRA.DIHEDRAL>
0.789568

>  <SCORE.INTRA.DIHEDRAL.0>
9.40024

>  <SCORE.INTRA.POLAR>
0

>  <SCORE.INTRA.POLAR.0>
0

>  <SCORE.INTRA.REPUL>
0

>  <SCORE.INTRA.REPUL.0>
0

>  <SCORE.INTRA.SOLV>
-1.92046

>  <SCORE.INTRA.SOLV.lig_0>
-47.1049

>  <SCORE.INTRA.VDW>
-0.630812

>  <SCORE.INTRA.VDW.0>
-1.50278

>  <SCORE.INTRA.norm>
-0.0443058

>  <SCORE.RESTR>
4.74543

>  <SCORE.RESTR.CAVITY>
4.74543

>  <SCORE.RESTR.norm>
0.175757

>  <SCORE.SYSTEM>
0

>  <SCORE.SYSTEM.CONST>
0

>  <SCORE.SYSTEM.DIHEDRAL>
0

>  <SCORE.SYSTEM.SOLV>
0

>  <SCORE.SYSTEM.norm>
0

>  <SCORE.heavy>
27

>  <SCORE.norm>
-0.0335793

>  <RMSD>
34.932

$$$$
ligand
 OpenBabel11021811433D
libRbt.so/2013.1/901 2013/11/27
 27 29  0  0  0  0  0  0  0  0999 V2000
   40.3624   28.2709    9.5499 N   0  0  0  0  0  0  0  0  0  0  0  0
   40.4831   27.8618   10.9528 C   0  0  2  0  0  0  0  0  0  0  0  0
   41.9405   27.9216   11.3742 C   0  0  0  0  0  0  0  0  0  0  0  0
   42.2503   27.7081   12.5429 O   0  0  0  0  0  0  0  0  0  0  0  0
   39.9381   26.4339   11.1554 C   0  0  0  0  0  0  0  0  0  0  0  0
   39.8300   26.1454   12.6520 C   0  0  0  0  0  0  0  0  0  0  0  0
   40.8191   24.7131   13.2475 S   0  0  2  0  0  0  0  0  0  0  0  0
   39.9686   23.2651   12.5461 C   0  0  0  0  0  0  0  0  0  0  0  0
   40.1707   24.7233   14.9322 C   0  0  0  0  0  0  0  0  0  0  0  0
   40.8853   25.7152   15.8663 C   0  0  1  0  0  0  0  0  0  0  0  0
   40.9545   27.0181   15.2148 O   0  0  0  0  0  0  0  0  0  0  0  0
   39.9042   25.8695   16.9999 C   0  0  1  0  0  0  0  0  0  0  0  0
   40.2637   24.9994   18.0734 O   0  0  0  0  0  0  0  0  0  0  0  0
   40.0550   27.3254   17.4231 C   0  0  1  0  0  0  0  0  0  0  0  0
   40.9318   27.4729   18.5340 O   0  0  0  0  0  0  0  0  0  0  0  0
   40.6151   28.0918   16.1697 C   0  0  2  0  0  0  0  0  0  0  0  0
   42.8080   28.2458   10.5628 O   0  0  0  0  0  0  0  0  0  0  0  0
   39.3856   31.0823   12.0312 N   0  0  0  0  0  0  0  0  0  0  0  0
   40.5429   30.4578   12.2751 C   0  0  0  0  0  0  0  0  0  0  0  0
   40.7091   29.7153   13.3583 N   0  0  0  0  0  0  0  0  0  0  0  0
   39.7345   29.5844   14.2734 C   0  0  0  0  0  0  0  0  0  0  0  0
   38.4934   30.2393   14.0663 C   0  0  0  0  0  0  0  0  0  0  0  0
   38.3503   31.0083   12.8837 C   0  0  0  0  0  0  0  0  0  0  0  0
   37.1733   31.6697   12.6137 N   0  0  0  0  0  0  0  0  0  0  0  0
   37.7037   29.9505   15.1199 N   0  0  0  0  0  0  0  0  0  0  0  0
   38.3587   29.1891   15.9467 C   0  0  0  0  0  0  0  0  0  0  0  0
   39.6142   28.9269   15.4734 N   0  0  0  0  0  0  0  0  0  0  0  0
  2  1  1  6  0  0  0
  2  3  1  0  0  0  0
  2  5  1  0  0  0  0
  3  4  1  0  0  0  0
  3 17  1  0  0  0  0
  5  6  1  0  0  0  0
  7  6  1  6  0  0  0
  7  8  1  0  0  0  0
  7  9  1  0  0  0  0
 10  9  1  6  0  0  0
 10 11  1  0  0  0  0
 10 12  1  0  0  0  0
 11 16  1  0  0  0  0
 12 13  1  1  0  0  0
 12 14  1  0  0  0  0
 14 15  1  1  0  0  0
 14 16  1  0  0  0  0
 16 27  1  6  0  0  0
 18 19  2  0  0  0  0
 18 23  1  0  0  0  0
 19 20  1  0  0  0  0
 20 21  2  0  0  0  0
 21 22  1  0  0  0  0
 21 27  1  0  0  0  0
 22 23  2  0  0  0  0
 22 25  1  0  0  0  0
 23 24  1  0  0  0  0
 25 26  2  0  0  0  0
 26 27  1  0  0  0  0
M  END
>  <CHROM.1>
174.85427475,-169.20017711,-120.48668600,-70.15312009,-83.82789469,49.57612270
-58.00295428,40.16345847,27.68581297,13.90631697,-1.79505685,-1.18587241
2.05094657

>  <Name>
ligand

>  <RI>
0

>  <Rbt.Current_Directory>
/home/itssahil/PROJECTS/Mol_Feturizer/New_Systems/rnas/2GIS

>  <Rbt.Executable>
rbdock ($Id: //depot/dev/client3/rdock/2013.1/src/exe/rbdock.cxx#4 $)

>  <Rbt.Library>
libRbt.so (2013.1, Build901 2013/11/27)

>  <Rbt.Parameter_File>
/export/apps/rDock/src/rDock_2013.1_src/data/scripts/dock_solv.prm

>  <Rbt.Receptor>
prm/blind_docking_60.prm

>  <SCORE>
-1.46923

>  <SCORE.INTER>
-3.09828

>  <SCORE.INTER.CONST>
1

>  <SCORE.INTER.POLAR>
0

>  <SCORE.INTER.ROT>
7

>  <SCORE.INTER.SOLV>
10.4871

>  <SCORE.INTER.VDW>
-13.8279

>  <SCORE.INTER.norm>
-0.114751

>  <SCORE.INTRA>
-3.07106

>  <SCORE.INTRA.DIHEDRAL>
0.925647

>  <SCORE.INTRA.DIHEDRAL.0>
9.40024

>  <SCORE.INTRA.POLAR>
0

>  <SCORE.INTRA.POLAR.0>
0

>  <SCORE.INTRA.REPUL>
0

>  <SCORE.INTRA.REPUL.0>
0

>  <SCORE.INTRA.SOLV>
-2.41729

>  <SCORE.INTRA.SOLV.lig_0>
-47.1049

>  <SCORE.INTRA.VDW>
-2.32524

>  <SCORE.INTRA.VDW.0>
-1.50278

>  <SCORE.INTRA.norm>
-0.113743

>  <SCORE.RESTR>
4.70011

>  <SCORE.RESTR.CAVITY>
4.70011

>  <SCORE.RESTR.norm>
0.174078

>  <SCORE.SYSTEM>
0

>  <SCORE.SYSTEM.CONST>
0

>  <SCORE.SYSTEM.DIHEDRAL>
0

>  <SCORE.SYSTEM.SOLV>
0

>  <SCORE.SYSTEM.norm>
0

>  <SCORE.heavy>
27

>  <SCORE.norm>
-0.0544161

>  <RMSD>
34.965

$$$$
ligand
 OpenBabel11021811433D
libRbt.so/2013.1/901 2013/11/27
 27 29  0  0  0  0  0  0  0  0999 V2000
   40.4077   26.1431   19.0655 N   0  0  0  0  0  0  0  0  0  0  0  0
   40.8174   26.1433   17.6576 C   0  0  2  0  0  0  0  0  0  0  0  0
   40.7683   27.5609   17.1161 C   0  0  0  0  0  0  0  0  0  0  0  0
   40.3371   28.4711   17.8184 O   0  0  0  0  0  0  0  0  0  0  0  0
   39.8989   25.2312   16.8201 C   0  0  0  0  0  0  0  0  0  0  0  0
   40.6856   24.6824   15.6307 C   0  0  0  0  0  0  0  0  0  0  0  0
   39.6628   24.0772   14.2265 S   0  0  2  0  0  0  0  0  0  0  0  0
   40.8810   23.4451   13.0313 C   0  0  0  0  0  0  0  0  0  0  0  0
   39.3037   25.7069   13.5382 C   0  0  0  0  0  0  0  0  0  0  0  0
   40.3402   26.1877   12.5079 C   0  0  1  0  0  0  0  0  0  0  0  0
   39.7636   27.2729   11.7226 O   0  0  0  0  0  0  0  0  0  0  0  0
   41.4002   26.8193   13.3733 C   0  0  1  0  0  0  0  0  0  0  0  0
   42.4525   25.8839   13.6106 O   0  0  0  0  0  0  0  0  0  0  0  0
   41.9078   27.9897   12.5402 C   0  0  1  0  0  0  0  0  0  0  0  0
   43.0898   27.6619   11.8191 O   0  0  0  0  0  0  0  0  0  0  0  0
   40.7428   28.3648   11.5532 C   0  0  2  0  0  0  0  0  0  0  0  0
   41.0997   27.7925   15.9532 O   0  0  0  0  0  0  0  0  0  0  0  0
   37.9601   31.0265   15.1245 N   0  0  0  0  0  0  0  0  0  0  0  0
   38.4746   29.7970   15.2376 C   0  0  0  0  0  0  0  0  0  0  0  0
   39.1766   29.2521   14.2566 N   0  0  0  0  0  0  0  0  0  0  0  0
   39.3739   29.8972   13.0950 C   0  0  0  0  0  0  0  0  0  0  0  0
   38.8357   31.1982   12.9218 C   0  0  0  0  0  0  0  0  0  0  0  0
   38.1073   31.7529   14.0044 C   0  0  0  0  0  0  0  0  0  0  0  0
   37.5584   33.0121   13.9101 N   0  0  0  0  0  0  0  0  0  0  0  0
   39.1711   31.6122   11.6836 N   0  0  0  0  0  0  0  0  0  0  0  0
   39.8541   30.6763   11.0921 C   0  0  0  0  0  0  0  0  0  0  0  0
   40.0142   29.5980   11.9172 N   0  0  0  0  0  0  0  0  0  0  0  0
  2  1  1  1  0  0  0
  2  3  1  0  0  0  0
  2  5  1  0  0  0  0
  3  4  1  0  0  0  0
  3 17  1  0  0  0  0
  5  6  1  0  0  0  0
  7  6  1  1  0  0  0
  7  8  1  0  0  0  0
  7  9  1  0  0  0  0
 10  9  1  1  0  0  0
 10 11  1  0  0  0  0
 10 12  1  0  0  0  0
 11 16  1  0  0  0  0
 12 13  1  6  0  0  0
 12 14  1  0  0  0  0
 14 15  1  6  0  0  0
 14 16  1  0  0  0  0
 16 27  1  1  0  0  0
 18 19  2  0  0  0  0
 18 23  1  0  0  0  0
 19 20  1  0  0  0  0
 20 21  2  0  0  0  0
 21 22  1  0  0  0  0
 21 27  1  0  0  0  0
 22 23  2  0  0  0  0
 22 25  1  0  0  0  0
 23 24  1  0  0  0  0
 25 26  2  0  0  0  0
 26 27  1  0  0  0  0
M  END
>  <CHROM.1>
-4.82765037,-151.30876689,-159.53135705,-177.89040432,89.46888917,162.31740539
57.15653876,40.10622390,27.78185768,14.13737972,0.79100136,-1.19796150,2.02245407

>  <Name>
ligand

>  <RI>
0

>  <Rbt.Current_Directory>
/home/itssahil/PROJECTS/Mol_Feturizer/New_Systems/rnas/2GIS

>  <Rbt.Executable>
rbdock ($Id: //depot/dev/client3/rdock/2013.1/src/exe/rbdock.cxx#4 $)

>  <Rbt.Library>
libRbt.so (2013.1, Build901 2013/11/27)

>  <Rbt.Parameter_File>
/export/apps/rDock/src/rDock_2013.1_src/data/scripts/dock_solv.prm

>  <Rbt.Receptor>
prm/blind_docking_60.prm

>  <SCORE>
4.38939

>  <SCORE.INTER>
-0.626125

>  <SCORE.INTER.CONST>
1

>  <SCORE.INTER.POLAR>
0

>  <SCORE.INTER.ROT>
7

>  <SCORE.INTER.SOLV>
13.6442

>  <SCORE.INTER.VDW>
-13.2321

>  <SCORE.INTER.norm>
-0.0231898

>  <SCORE.INTRA>
-0.292463

>  <SCORE.INTRA.DIHEDRAL>
2.19383

>  <SCORE.INTRA.DIHEDRAL.0>
9.40024

>  <SCORE.INTRA.POLAR>
0

>  <SCORE.INTRA.POLAR.0>
0

>  <SCORE.INTRA.REPUL>
0

>  <SCORE.INTRA.REPUL.0>
0

>  <SCORE.INTRA.SOLV>
-2.25526

>  <SCORE.INTRA.SOLV.lig_0>
-47.1049

>  <SCORE.INTRA.VDW>
-0.261745

>  <SCORE.INTRA.VDW.0>
-1.50278

>  <SCORE.INTRA.norm>
-0.0108319

>  <SCORE.RESTR>
5.30797

>  <SCORE.RESTR.CAVITY>
5.30797

>  <SCORE.RESTR.norm>
0.196592

>  <SCORE.SYSTEM>
0

>  <SCORE.SYSTEM.CONST>
0

>  <SCORE.SYSTEM.DIHEDRAL>
0

>  <SCORE.SYSTEM.SOLV>
0

>  <SCORE.SYSTEM.norm>
0

>  <SCORE.heavy>
27

>  <SCORE.norm>
0.16257

>  <RMSD>
34.992

$$$$
ligand
 OpenBabel11021811433D
libRbt.so/2013.1/901 2013/11/27
 27 29  0  0  0  0  0  0  0  0999 V2000
   39.8947   27.5633    9.6313 N   0  0  0  0  0  0  0  0  0  0  0  0
   40.4456   27.4489   10.9853 C   0  0  2  0  0  0  0  0  0  0  0  0
   41.8561   28.0104   11.0073 C   0  0  0  0  0  0  0  0  0  0  0  0
   42.6630   27.6091   11.8412 O   0  0  0  0  0  0  0  0  0  0  0  0
   40.4606   25.9782   11.4477 C   0  0  0  0  0  0  0  0  0  0  0  0
   40.4364   25.9317   12.9747 C   0  0  0  0  0  0  0  0  0  0  0  0
   41.0611   24.3707   13.7214 S   0  0  2  0  0  0  0  0  0  0  0  0
   40.3100   23.0616   12.7044 C   0  0  0  0  0  0  0  0  0  0  0  0
   39.9560   24.3886   15.1487 C   0  0  0  0  0  0  0  0  0  0  0  0
   40.3805   25.3755   16.2500 C   0  0  1  0  0  0  0  0  0  0  0  0
   41.1618   26.4512   15.6506 O   0  0  0  0  0  0  0  0  0  0  0  0
   39.0704   25.9948   16.6638 C   0  0  1  0  0  0  0  0  0  0  0  0
   38.5621   25.3266   17.8187 O   0  0  0  0  0  0  0  0  0  0  0  0
   39.4334   27.4358   17.0008 C   0  0  1  0  0  0  0  0  0  0  0  0
   39.6412   27.6243   18.3958 O   0  0  0  0  0  0  0  0  0  0  0  0
   40.7454   27.7582   16.1967 C   0  0  2  0  0  0  0  0  0  0  0  0
   42.1766   28.9127   10.2334 O   0  0  0  0  0  0  0  0  0  0  0  0
   37.9022   31.4874   13.8324 N   0  0  0  0  0  0  0  0  0  0  0  0
   37.6996   30.9442   15.0377 C   0  0  0  0  0  0  0  0  0  0  0  0
   38.5134   30.0185   15.5207 N   0  0  0  0  0  0  0  0  0  0  0  0
   39.5568   29.5630   14.8078 C   0  0  0  0  0  0  0  0  0  0  0  0
   39.8047   30.0984   13.5178 C   0  0  0  0  0  0  0  0  0  0  0  0
   38.9208   31.1018   13.0465 C   0  0  0  0  0  0  0  0  0  0  0  0
   39.1005   31.6700   11.8053 N   0  0  0  0  0  0  0  0  0  0  0  0
   40.8932   29.4749   13.0243 N   0  0  0  0  0  0  0  0  0  0  0  0
   41.3180   28.6069   13.8951 C   0  0  0  0  0  0  0  0  0  0  0  0
   40.5353   28.6218   15.0159 N   0  0  0  0  0  0  0  0  0  0  0  0
  2  1  1  6  0  0  0
  2  3  1  0  0  0  0
  2  5  1  0  0  0  0
  3  4  1  0  0  0  0
  3 17  1  0  0  0  0
  5  6  1  0  0  0  0
  7  6  1  6  0  0  0
  7  8  1  0  0  0  0
  7  9  1  0  0  0  0
 10  9  1  6  0  0  0
 10 11  1  0  0  0  0
 10 12  1  0  0  0  0
 11 16  1  0  0  0  0
 12 13  1  1  0  0  0
 12 14  1  0  0  0  0
 14 15  1  1  0  0  0
 14 16  1  0  0  0  0
 16 27  1  6  0  0  0
 18 19  2  0  0  0  0
 18 23  1  0  0  0  0
 19 20  1  0  0  0  0
 20 21  2  0  0  0  0
 21 22  1  0  0  0  0
 21 27  1  0  0  0  0
 22 23  2  0  0  0  0
 22 25  1  0  0  0  0
 23 24  1  0  0  0  0
 25 26  2  0  0  0  0
 26 27  1  0  0  0  0
M  END
>  <CHROM.1>
-153.82995656,-155.37810741,-158.39829366,-43.76029315,-77.15864310,25.97510576
141.19023989,40.16519728,27.57475637,13.96988178,-1.50116120,-1.17471384
2.44816660

>  <Name>
ligand

>  <RI>
0

>  <Rbt.Current_Directory>
/home/itssahil/PROJECTS/Mol_Feturizer/New_Systems/rnas/2GIS

>  <Rbt.Executable>
rbdock ($Id: //depot/dev/client3/rdock/2013.1/src/exe/rbdock.cxx#4 $)

>  <Rbt.Library>
libRbt.so (2013.1, Build901 2013/11/27)

>  <Rbt.Parameter_File>
/export/apps/rDock/src/rDock_2013.1_src/data/scripts/dock_solv.prm

>  <Rbt.Receptor>
prm/blind_docking_60.prm

>  <SCORE>
0.902371

>  <SCORE.INTER>
-3.64524

>  <SCORE.INTER.CONST>
1

>  <SCORE.INTER.POLAR>
0

>  <SCORE.INTER.ROT>
7

>  <SCORE.INTER.SOLV>
9.54063

>  <SCORE.INTER.VDW>
-13.877

>  <SCORE.INTER.norm>
-0.135009

>  <SCORE.INTRA>
0.0781231

>  <SCORE.INTRA.DIHEDRAL>
2.19388

>  <SCORE.INTRA.DIHEDRAL.0>
9.40024

>  <SCORE.INTRA.POLAR>
0

>  <SCORE.INTRA.POLAR.0>
0

>  <SCORE.INTRA.REPUL>
0

>  <SCORE.INTRA.REPUL.0>
0

>  <SCORE.INTRA.SOLV>
-2.73922

>  <SCORE.INTRA.SOLV.lig_0>
-47.1049

>  <SCORE.INTRA.VDW>
0.350792

>  <SCORE.INTRA.VDW.0>
-1.50278

>  <SCORE.INTRA.norm>
0.00289345

>  <SCORE.RESTR>
4.46949

>  <SCORE.RESTR.CAVITY>
4.46949

>  <SCORE.RESTR.norm>
0.165537

>  <SCORE.SYSTEM>
0

>  <SCORE.SYSTEM.CONST>
0

>  <SCORE.SYSTEM.DIHEDRAL>
0

>  <SCORE.SYSTEM.SOLV>
0

>  <SCORE.SYSTEM.norm>
0

>  <SCORE.heavy>
27

>  <SCORE.norm>
0.0334212

>  <RMSD>
34.997

$$$$
ligand
 OpenBabel11021811433D
libRbt.so/2013.1/901 2013/11/27
 27 29  0  0  0  0  0  0  0  0999 V2000
   38.9496   26.5771   10.8837 N   0  0  0  0  0  0  0  0  0  0  0  0
   40.0854   27.2808   11.4875 C   0  0  2  0  0  0  0  0  0  0  0  0
   40.8600   28.0133   10.4065 C   0  0  0  0  0  0  0  0  0  0  0  0
   41.9923   28.4282   10.6376 O   0  0  0  0  0  0  0  0  0  0  0  0
   41.0154   26.2927   12.2193 C   0  0  0  0  0  0  0  0  0  0  0  0
   40.2482   25.6366   13.3663 C   0  0  0  0  0  0  0  0  0  0  0  0
   41.1336   24.2687   14.2202 S   0  0  2  0  0  0  0  0  0  0  0  0
   40.6301   22.7771   13.3072 C   0  0  0  0  0  0  0  0  0  0  0  0
   40.0348   24.1964   15.6507 C   0  0  0  0  0  0  0  0  0  0  0  0
   40.3059   25.2909   16.6974 C   0  0  1  0  0  0  0  0  0  0  0  0
   41.2370   26.2644   16.1388 O   0  0  0  0  0  0  0  0  0  0  0  0
   38.9768   25.9952   16.7931 C   0  0  1  0  0  0  0  0  0  0  0  0
   38.2355   25.4822   17.9003 O   0  0  0  0  0  0  0  0  0  0  0  0
   39.3482   27.4534   17.0324 C   0  0  1  0  0  0  0  0  0  0  0  0
   39.3120   27.7964   18.4129 O   0  0  0  0  0  0  0  0  0  0  0  0
   40.7982   27.6385   16.4534 C   0  0  2  0  0  0  0  0  0  0  0  0
   40.3342   28.2496    9.3186 O   0  0  0  0  0  0  0  0  0  0  0  0
   38.5692   31.0771   13.1688 N   0  0  0  0  0  0  0  0  0  0  0  0
   38.1164   30.6711   14.3601 C   0  0  0  0  0  0  0  0  0  0  0  0
   38.7964   29.8062   15.0961 N   0  0  0  0  0  0  0  0  0  0  0  0
   39.9522   29.2757   14.6637 C   0  0  0  0  0  0  0  0  0  0  0  0
   40.4663   29.6645   13.4000 C   0  0  0  0  0  0  0  0  0  0  0  0
   39.7169   30.6079   12.6526 C   0  0  0  0  0  0  0  0  0  0  0  0
   40.1551   31.0346   11.4190 N   0  0  0  0  0  0  0  0  0  0  0  0
   41.6185   28.9916   13.2085 N   0  0  0  0  0  0  0  0  0  0  0  0
   41.8407   28.2266   14.2370 C   0  0  0  0  0  0  0  0  0  0  0  0
   40.8486   28.3650   15.1674 N   0  0  0  0  0  0  0  0  0  0  0  0
  2  1  1  6  0  0  0
  2  3  1  0  0  0  0
  2  5  1  0  0  0  0
  3  4  1  0  0  0  0
  3 17  1  0  0  0  0
  5  6  1  0  0  0  0
  7  6  1  6  0  0  0
  7  8  1  0  0  0  0
  7  9  1  0  0  0  0
 10  9  1  6  0  0  0
 10 11  1  0  0  0  0
 10 12  1  0  0  0  0
 11 16  1  0  0  0  0
 12 13  1  1  0  0  0
 12 14  1  0  0  0  0
 14 15  1  1  0  0  0
 14 16  1  0  0  0  0
 16 27  1  6  0  0  0
 18 19  2  0  0  0  0
 18 23  1  0  0  0  0
 19 20  1  0  0  0  0
 20 21  2  0  0  0  0
 21 22  1  0  0  0  0
 21 27  1  0  0  0  0
 22 23  2  0  0  0  0
 22 25  1  0  0  0  0
 23 24  1  0  0  0  0
 25 26  2  0  0  0  0
 26 27  1  0  0  0  0
M  END
>  <CHROM.1>
-164.60591259,-62.87600627,172.54880274,-90.68678782,-79.19423608,10.35423798
138.99314769,40.18454878,27.38509579,14.03180269,-1.35720523,-1.28187344
2.41023742

>  <Name>
ligand

>  <RI>
0

>  <Rbt.Current_Directory>
/home/itssahil/PROJECTS/Mol_Feturizer/New_Systems/rnas/2GIS

>  <Rbt.Executable>
rbdock ($Id: //depot/dev/client3/rdock/2013.1/src/exe/rbdock.cxx#4 $)

>  <Rbt.Library>
libRbt.so (2013.1, Build901 2013/11/27)

>  <Rbt.Parameter_File>
/export/apps/rDock/src/rDock_2013.1_src/data/scripts/dock_solv.prm

>  <Rbt.Receptor>
prm/blind_docking_60.prm

>  <SCORE>
-0.577409

>  <SCORE.INTER>
-3.81235

>  <SCORE.INTER.CONST>
1

>  <SCORE.INTER.POLAR>
0

>  <SCORE.INTER.ROT>
7

>  <SCORE.INTER.SOLV>
9.43458

>  <SCORE.INTER.VDW>
-13.9531

>  <SCORE.INTER.norm>
-0.141198

>  <SCORE.INTRA>
-1.44809

>  <SCORE.INTRA.DIHEDRAL>
0.290001

>  <SCORE.INTRA.DIHEDRAL.0>
9.40024

>  <SCORE.INTRA.POLAR>
0

>  <SCORE.INTRA.POLAR.0>
0

>  <SCORE.INTRA.REPUL>
0

>  <SCORE.INTRA.REPUL.0>
0

>  <SCORE.INTRA.SOLV>
0.560839

>  <SCORE.INTRA.SOLV.lig_0>
-47.1049

>  <SCORE.INTRA.VDW>
-1.87351

>  <SCORE.INTRA.VDW.0>
-1.50278

>  <SCORE.INTRA.norm>
-0.053633

>  <SCORE.RESTR>
4.68303

>  <SCORE.RESTR.CAVITY>
4.68303

>  <SCORE.RESTR.norm>
0.173445

>  <SCORE.SYSTEM>
0

>  <SCORE.SYSTEM.CONST>
0

>  <SCORE.SYSTEM.DIHEDRAL>
0

>  <SCORE.SYSTEM.SOLV>
0

>  <SCORE.SYSTEM.norm>
0

>  <SCORE.heavy>
27

>  <SCORE.norm>
-0.0213855

>  <RMSD>
35.137

$$$$
ligand
 OpenBabel11021811433D
libRbt.so/2013.1/901 2013/11/27
 27 29  0  0  0  0  0  0  0  0999 V2000
   38.8284   26.5845   10.8740 N   0  0  0  0  0  0  0  0  0  0  0  0
   39.9818   27.3150   11.4088 C   0  0  2  0  0  0  0  0  0  0  0  0
   40.6949   28.0338   10.2773 C   0  0  0  0  0  0  0  0  0  0  0  0
   40.1527   28.1416    9.1810 O   0  0  0  0  0  0  0  0  0  0  0  0
   40.9584   26.3543   12.1161 C   0  0  0  0  0  0  0  0  0  0  0  0
   40.2482   25.6973   13.2987 C   0  0  0  0  0  0  0  0  0  0  0  0
   41.1842   24.3442   14.1218 S   0  0  2  0  0  0  0  0  0  0  0  0
   40.6858   22.8464   13.2161 C   0  0  0  0  0  0  0  0  0  0  0  0
   40.1269   24.2440   15.5815 C   0  0  0  0  0  0  0  0  0  0  0  0
   40.4009   25.3428   16.6230 C   0  0  1  0  0  0  0  0  0  0  0  0
   41.2696   26.3539   16.0315 O   0  0  0  0  0  0  0  0  0  0  0  0
   39.0514   25.9953   16.7801 C   0  0  1  0  0  0  0  0  0  0  0  0
   38.3784   25.4488   17.9145 O   0  0  0  0  0  0  0  0  0  0  0  0
   39.3771   27.4654   17.0130 C   0  0  1  0  0  0  0  0  0  0  0  0
   39.3873   27.7998   18.3960 O   0  0  0  0  0  0  0  0  0  0  0  0
   40.7929   27.7087   16.3738 C   0  0  2  0  0  0  0  0  0  0  0  0
   41.8414   28.4542   10.4347 O   0  0  0  0  0  0  0  0  0  0  0  0
   38.2804   31.0518   13.1969 N   0  0  0  0  0  0  0  0  0  0  0  0
   37.8924   30.6186   14.4014 C   0  0  0  0  0  0  0  0  0  0  0  0
   38.6401   29.7839   15.1060 N   0  0  0  0  0  0  0  0  0  0  0  0
   39.8031   29.3119   14.6276 C   0  0  0  0  0  0  0  0  0  0  0  0
   40.2504   29.7312   13.3484 C   0  0  0  0  0  0  0  0  0  0  0  0
   39.4293   30.6410   12.6355 C   0  0  0  0  0  0  0  0  0  0  0  0
   39.8001   31.0944   11.3894 N   0  0  0  0  0  0  0  0  0  0  0  0
   41.4257   29.1156   13.1099 N   0  0  0  0  0  0  0  0  0  0  0  0
   41.7226   28.3572   14.1243 C   0  0  0  0  0  0  0  0  0  0  0  0
   40.7604   28.4430   15.0917 N   0  0  0  0  0  0  0  0  0  0  0  0
  2  1  1  6  0  0  0
  2  3  1  0  0  0  0
  2  5  1  0  0  0  0
  3  4  1  0  0  0  0
  3 17  1  0  0  0  0
  5  6  1  0  0  0  0
  7  6  1  6  0  0  0
  7  8  1  0  0  0  0
  7  9  1  0  0  0  0
 10  9  1  6  0  0  0
 10 11  1  0  0  0  0
 10 12  1  0  0  0  0
 11 16  1  0  0  0  0
 12 13  1  1  0  0  0
 12 14  1  0  0  0  0
 14 15  1  1  0  0  0
 14 16  1  0  0  0  0
 16 27  1  6  0  0  0
 18 19  2  0  0  0  0
 18 23  1  0  0  0  0
 19 20  1  0  0  0  0
 20 21  2  0  0  0  0
 21 22  1  0  0  0  0
 21 27  1  0  0  0  0
 22 23  2  0  0  0  0
 22 25  1  0  0  0  0
 23 24  1  0  0  0  0
 25 26  2  0  0  0  0
 26 27  1  0  0  0  0
M  END
>  <CHROM.1>
12.95867435,-62.01995000,171.86106081,-89.49575214,-78.97417785,11.60525651
138.33009552,40.11291117,27.41993519,13.96859363,-1.50607092,-1.26943271
2.24366856

>  <Name>
ligand

>  <RI>
0

>  <Rbt.Current_Directory>
/home/itssahil/PROJECTS/Mol_Feturizer/New_Systems/rnas/2GIS

>  <Rbt.Executable>
rbdock ($Id: //depot/dev/client3/rdock/2013.1/src/exe/rbdock.cxx#4 $)

>  <Rbt.Library>
libRbt.so (2013.1, Build901 2013/11/27)

>  <Rbt.Parameter_File>
/export/apps/rDock/src/rDock_2013.1_src/data/scripts/dock_solv.prm

>  <Rbt.Receptor>
prm/blind_docking_60.prm

>  <SCORE>
-0.433293

>  <SCORE.INTER>
-3.302

>  <SCORE.INTER.CONST>
1

>  <SCORE.INTER.POLAR>
0

>  <SCORE.INTER.ROT>
7

>  <SCORE.INTER.SOLV>
8.58599

>  <SCORE.INTER.VDW>
-13.33

>  <SCORE.INTER.norm>
-0.122296

>  <SCORE.INTRA>
-1.75352

>  <SCORE.INTRA.DIHEDRAL>
0.271281

>  <SCORE.INTRA.DIHEDRAL.0>
9.40024

>  <SCORE.INTRA.POLAR>
0

>  <SCORE.INTRA.POLAR.0>
0

>  <SCORE.INTRA.REPUL>
0

>  <SCORE.INTRA.REPUL.0>
0

>  <SCORE.INTRA.SOLV>
0.127778

>  <SCORE.INTRA.SOLV.lig_0>
-47.1049

>  <SCORE.INTRA.VDW>
-1.95305

>  <SCORE.INTRA.VDW.0>
-1.50278

>  <SCORE.INTRA.norm>
-0.0649452

>  <SCORE.RESTR>
4.62222

>  <SCORE.RESTR.CAVITY>
4.62222

>  <SCORE.RESTR.norm>
0.171193

>  <SCORE.SYSTEM>
0

>  <SCORE.SYSTEM.CONST>
0

>  <SCORE.SYSTEM.DIHEDRAL>
0

>  <SCORE.SYSTEM.SOLV>
0

>  <SCORE.SYSTEM.norm>
0

>  <SCORE.heavy>
27

>  <SCORE.norm>
-0.0160479

>  <RMSD>
35.153

$$$$
ligand
 OpenBabel11021811433D
libRbt.so/2013.1/901 2013/11/27
 27 29  0  0  0  0  0  0  0  0999 V2000
   39.8992   25.3394   18.4045 N   0  0  0  0  0  0  0  0  0  0  0  0
   40.7368   25.5717   17.2237 C   0  0  2  0  0  0  0  0  0  0  0  0
   40.4015   26.9253   16.6233 C   0  0  0  0  0  0  0  0  0  0  0  0
   39.2605   27.1581   16.2344 O   0  0  0  0  0  0  0  0  0  0  0  0
   40.5200   24.4649   16.1725 C   0  0  0  0  0  0  0  0  0  0  0  0
   41.2549   24.8423   14.8871 C   0  0  0  0  0  0  0  0  0  0  0  0
   40.1934   25.5259   13.5492 S   0  0  2  0  0  0  0  0  0  0  0  0
   40.2066   24.2326   12.2689 C   0  0  0  0  0  0  0  0  0  0  0  0
   41.4236   26.6777   12.9020 C   0  0  0  0  0  0  0  0  0  0  0  0
   41.1197   27.1750   11.4781 C   0  0  1  0  0  0  0  0  0  0  0  0
   39.7776   27.7448   11.4487 O   0  0  0  0  0  0  0  0  0  0  0  0
   42.0674   28.3366   11.3228 C   0  0  1  0  0  0  0  0  0  0  0  0
   43.2486   27.9104   10.6433 O   0  0  0  0  0  0  0  0  0  0  0  0
   41.2934   29.3328   10.4683 C   0  0  1  0  0  0  0  0  0  0  0  0
   41.6329   29.2346    9.0901 O   0  0  0  0  0  0  0  0  0  0  0  0
   39.7703   29.0102   10.6881 C   0  0  2  0  0  0  0  0  0  0  0  0
   41.2837   27.7697   16.4659 O   0  0  0  0  0  0  0  0  0  0  0  0
   38.5778   30.6298   15.5395 N   0  0  0  0  0  0  0  0  0  0  0  0
   39.3329   29.5832   15.1882 C   0  0  0  0  0  0  0  0  0  0  0  0
   39.5675   29.3002   13.9166 N   0  0  0  0  0  0  0  0  0  0  0  0
   39.0312   30.0320   12.9261 C   0  0  0  0  0  0  0  0  0  0  0  0
   38.2114   31.1440   13.2484 C   0  0  0  0  0  0  0  0  0  0  0  0
   38.0017   31.4241   14.6224 C   0  0  0  0  0  0  0  0  0  0  0  0
   37.2202   32.4889   15.0111 N   0  0  0  0  0  0  0  0  0  0  0  0
   37.8044   31.6953   12.0876 N   0  0  0  0  0  0  0  0  0  0  0  0
   38.2965   31.0119   11.0961 C   0  0  0  0  0  0  0  0  0  0  0  0
   39.0651   29.9782   11.5541 N   0  0  0  0  0  0  0  0  0  0  0  0
  2  1  1  1  0  0  0
  2  3  1  0  0  0  0
  2  5  1  0  0  0  0
  3  4  1  0  0  0  0
  3 17  1  0  0  0  0
  5  6  1  0  0  0  0
  7  6  1  1  0  0  0
  7  8  1  0  0  0  0
  7  9  1  0  0  0  0
 10  9  1  1  0  0  0
 10 11  1  0  0  0  0
 10 12  1  0  0  0  0
 11 16  1  0  0  0  0
 12 13  1  6  0  0  0
 12 14  1  0  0  0  0
 14 15  1  6  0  0  0
 14 16  1  0  0  0  0
 16 27  1  1  0  0  0
 18 19  2  0  0  0  0
 18 23  1  0  0  0  0
 19 20  1  0  0  0  0
 20 21  2  0  0  0  0
 21 22  1  0  0  0  0
 21 27  1  0  0  0  0
 22 23  2  0  0  0  0
 22 25  1  0  0  0  0
 23 24  1  0  0  0  0
 25 26  2  0  0  0  0
 26 27  1  0  0  0  0
M  END
>  <CHROM.1>
-59.67384317,172.16257150,-101.49144430,-111.10894740,161.90194521,54.47961602
31.47939650,40.02923030,28.12021137,13.50303657,1.24467306,-1.02125603,2.13907026

>  <Name>
ligand

>  <RI>
0

>  <Rbt.Current_Directory>
/home/itssahil/PROJECTS/Mol_Feturizer/New_Systems/rnas/2GIS

>  <Rbt.Executable>
rbdock ($Id: //depot/dev/client3/rdock/2013.1/src/exe/rbdock.cxx#4 $)

>  <Rbt.Library>
libRbt.so (2013.1, Build901 2013/11/27)

>  <Rbt.Parameter_File>
/export/apps/rDock/src/rDock_2013.1_src/data/scripts/dock_solv.prm

>  <Rbt.Receptor>
prm/blind_docking_60.prm

>  <SCORE>
7.51641

>  <SCORE.INTER>
3.16531

>  <SCORE.INTER.CONST>
1

>  <SCORE.INTER.POLAR>
0

>  <SCORE.INTER.ROT>
7

>  <SCORE.INTER.SOLV>
12.7717

>  <SCORE.INTER.VDW>
-10.4137

>  <SCORE.INTER.norm>
0.117234

>  <SCORE.INTRA>
-2.21153

>  <SCORE.INTRA.DIHEDRAL>
2.32337

>  <SCORE.INTRA.DIHEDRAL.0>
9.40024

>  <SCORE.INTRA.POLAR>
0

>  <SCORE.INTRA.POLAR.0>
0

>  <SCORE.INTRA.REPUL>
0

>  <SCORE.INTRA.REPUL.0>
0

>  <SCORE.INTRA.SOLV>
-2.96135

>  <SCORE.INTRA.SOLV.lig_0>
-47.1049

>  <SCORE.INTRA.VDW>
-1.89255

>  <SCORE.INTRA.VDW.0>
-1.50278

>  <SCORE.INTRA.norm>
-0.0819087

>  <SCORE.RESTR>
6.56264

>  <SCORE.RESTR.CAVITY>
6.56264

>  <SCORE.RESTR.norm>
0.243061

>  <SCORE.SYSTEM>
0

>  <SCORE.SYSTEM.CONST>
0

>  <SCORE.SYSTEM.DIHEDRAL>
0

>  <SCORE.SYSTEM.SOLV>
0

>  <SCORE.SYSTEM.norm>
0

>  <SCORE.heavy>
27

>  <SCORE.norm>
0.278386

>  <RMSD>
35.166

$$$$
ligand
 OpenBabel11021811433D
libRbt.so/2013.1/901 2013/11/27
 27 29  0  0  0  0  0  0  0  0999 V2000
   36.8546   30.3594   13.9926 N   0  0  0  0  0  0  0  0  0  0  0  0
   38.0649   29.9774   13.2583 C   0  0  2  0  0  0  0  0  0  0  0  0
   39.2543   30.7442   13.8086 C   0  0  0  0  0  0  0  0  0  0  0  0
   39.8471   30.3277   14.7998 O   0  0  0  0  0  0  0  0  0  0  0  0
   37.9063   30.2680   11.7525 C   0  0  0  0  0  0  0  0  0  0  0  0
   38.8956   29.4075   10.9681 C   0  0  0  0  0  0  0  0  0  0  0  0
   40.6574   29.9199   11.1011 S   0  0  2  0  0  0  0  0  0  0  0  0
   41.4876   29.0021    9.7667 C   0  0  0  0  0  0  0  0  0  0  0  0
   41.0456   28.8916   12.5332 C   0  0  0  0  0  0  0  0  0  0  0  0
   41.3361   27.4222   12.1817 C   0  0  1  0  0  0  0  0  0  0  0  0
   42.0073   26.7862   13.3095 O   0  0  0  0  0  0  0  0  0  0  0  0
   39.9575   26.8159   12.1235 C   0  0  1  0  0  0  0  0  0  0  0  0
   39.5013   26.7793   10.7710 O   0  0  0  0  0  0  0  0  0  0  0  0
   40.1533   25.4019   12.6564 C   0  0  1  0  0  0  0  0  0  0  0  0
   40.3097   24.4511   11.6095 O   0  0  0  0  0  0  0  0  0  0  0  0
   41.4388   25.4470   13.5606 C   0  0  2  0  0  0  0  0  0  0  0  0
   39.5886   31.8162   13.3036 O   0  0  0  0  0  0  0  0  0  0  0  0
   39.8945   27.9980   17.8837 N   0  0  0  0  0  0  0  0  0  0  0  0
   40.0143   28.4858   16.6440 C   0  0  0  0  0  0  0  0  0  0  0  0
   40.3996   27.7180   15.6369 N   0  0  0  0  0  0  0  0  0  0  0  0
   40.7174   26.4263   15.8233 C   0  0  0  0  0  0  0  0  0  0  0  0
   40.6198   25.8665   17.1231 C   0  0  0  0  0  0  0  0  0  0  0  0
   40.1844   26.7182   18.1697 C   0  0  0  0  0  0  0  0  0  0  0  0
   40.0626   26.2442   19.4566 N   0  0  0  0  0  0  0  0  0  0  0  0
   40.9941   24.5745   17.0354 N   0  0  0  0  0  0  0  0  0  0  0  0
   41.3167   24.3074   15.8037 C   0  0  0  0  0  0  0  0  0  0  0  0
   41.1603   25.4106   15.0115 N   0  0  0  0  0  0  0  0  0  0  0  0
  2  1  1  1  0  0  0
  2  3  1  0  0  0  0
  2  5  1  0  0  0  0
  3  4  1  0  0  0  0
  3 17  1  0  0  0  0
  5  6  1  0  0  0  0
  7  6  1  6  0  0  0
  7  8  1  0  0  0  0
  7  9  1  0  0  0  0
 10  9  1  1  0  0  0
 10 11  1  0  0  0  0
 10 12  1  0  0  0  0
 11 16  1  0  0  0  0
 12 13  1  6  0  0  0
 12 14  1  0  0  0  0
 14 15  1  6  0  0  0
 14 16  1  0  0  0  0
 16 27  1  1  0  0  0
 18 19  2  0  0  0  0
 18 23  1  0  0  0  0
 19 20  1  0  0  0  0
 20 21  2  0  0  0  0
 21 22  1  0  0  0  0
 21 27  1  0  0  0  0
 22 23  2  0  0  0  0
 22 25  1  0  0  0  0
 23 24  1  0  0  0  0
 25 26  2  0  0  0  0
 26 27  1  0  0  0  0
M  END
>  <CHROM.1>
84.09794458,-158.51585873,-72.51735642,-166.18762737,80.90273089,163.45625144
36.21972508,40.15910621,27.83026438,13.84492418,1.94538057,1.18888584,-1.32763515

>  <Name>
ligand

>  <RI>
0

>  <Rbt.Current_Directory>
/home/itssahil/PROJECTS/Mol_Feturizer/New_Systems/rnas/2GIS

>  <Rbt.Executable>
rbdock ($Id: //depot/dev/client3/rdock/2013.1/src/exe/rbdock.cxx#4 $)

>  <Rbt.Library>
libRbt.so (2013.1, Build901 2013/11/27)

>  <Rbt.Parameter_File>
/export/apps/rDock/src/rDock_2013.1_src/data/scripts/dock_solv.prm

>  <Rbt.Receptor>
prm/blind_docking_60.prm

>  <SCORE>
6.00057

>  <SCORE.INTER>
-0.807212

>  <SCORE.INTER.CONST>
1

>  <SCORE.INTER.POLAR>
0

>  <SCORE.INTER.ROT>
7

>  <SCORE.INTER.SOLV>
11.2221

>  <SCORE.INTER.VDW>
-12.5455

>  <SCORE.INTER.norm>
-0.0298967

>  <SCORE.INTRA>
0.812819

>  <SCORE.INTRA.DIHEDRAL>
0.0576077

>  <SCORE.INTRA.DIHEDRAL.0>
9.40024

>  <SCORE.INTRA.POLAR>
0

>  <SCORE.INTRA.POLAR.0>
0

>  <SCORE.INTRA.REPUL>
0

>  <SCORE.INTRA.REPUL.0>
0

>  <SCORE.INTRA.SOLV>
-2.11595

>  <SCORE.INTRA.SOLV.lig_0>
-47.1049

>  <SCORE.INTRA.VDW>
1.84199

>  <SCORE.INTRA.VDW.0>
-1.50278

>  <SCORE.INTRA.norm>
0.0301044

>  <SCORE.RESTR>
5.99496

>  <SCORE.RESTR.CAVITY>
5.99496

>  <SCORE.RESTR.norm>
0.222035

>  <SCORE.SYSTEM>
0

>  <SCORE.SYSTEM.CONST>
0

>  <SCORE.SYSTEM.DIHEDRAL>
0

>  <SCORE.SYSTEM.SOLV>
0

>  <SCORE.SYSTEM.norm>
0

>  <SCORE.heavy>
27

>  <SCORE.norm>
0.222243

>  <RMSD>
35.311

$$$$
ligand
 OpenBabel11021811433D
libRbt.so/2013.1/901 2013/11/27
 27 29  0  0  0  0  0  0  0  0999 V2000
   40.8855   23.1522   12.9991 N   0  0  0  0  0  0  0  0  0  0  0  0
   40.4653   24.1406   13.9974 C   0  0  2  0  0  0  0  0  0  0  0  0
   40.8280   25.5337   13.5146 C   0  0  0  0  0  0  0  0  0  0  0  0
   40.0061   26.2003   12.8920 O   0  0  0  0  0  0  0  0  0  0  0  0
   41.1389   23.8661   15.3568 C   0  0  0  0  0  0  0  0  0  0  0  0
   40.4128   24.6550   16.4454 C   0  0  0  0  0  0  0  0  0  0  0  0
   40.8778   26.4306   16.5690 S   0  0  2  0  0  0  0  0  0  0  0  0
   40.5060   26.8667   18.2963 C   0  0  0  0  0  0  0  0  0  0  0  0
   39.4174   27.0678   15.7204 C   0  0  0  0  0  0  0  0  0  0  0  0
   39.2398   28.5907   15.8493 C   0  0  1  0  0  0  0  0  0  0  0  0
   40.1934   29.2577   14.9703 O   0  0  0  0  0  0  0  0  0  0  0  0
   37.8814   28.8194   15.2379 C   0  0  1  0  0  0  0  0  0  0  0  0
   36.8915   28.8774   16.2652 O   0  0  0  0  0  0  0  0  0  0  0  0
   38.0102   30.1716   14.5475 C   0  0  1  0  0  0  0  0  0  0  0  0
   37.5159   31.2346   15.3538 O   0  0  0  0  0  0  0  0  0  0  0  0
   39.5413   30.3685   14.2488 C   0  0  2  0  0  0  0  0  0  0  0  0
   41.9643   25.9743   13.6890 O   0  0  0  0  0  0  0  0  0  0  0  0
   42.6614   28.0608   10.7102 N   0  0  0  0  0  0  0  0  0  0  0  0
   42.6939   27.9279   12.0408 C   0  0  0  0  0  0  0  0  0  0  0  0
   41.8274   28.5599   12.8167 N   0  0  0  0  0  0  0  0  0  0  0  0
   40.9009   29.3859   12.3032 C   0  0  0  0  0  0  0  0  0  0  0  0
   40.8357   29.5706   10.8983 C   0  0  0  0  0  0  0  0  0  0  0  0
   41.7692   28.8598   10.1023 C   0  0  0  0  0  0  0  0  0  0  0  0
   41.7642   28.9869    8.7313 N   0  0  0  0  0  0  0  0  0  0  0  0
   39.8346   30.4389   10.6513 N   0  0  0  0  0  0  0  0  0  0  0  0
   39.2969   30.8008   11.7792 C   0  0  0  0  0  0  0  0  0  0  0  0
   39.9109   30.1787   12.8305 N   0  0  0  0  0  0  0  0  0  0  0  0
  2  1  1  6  0  0  0
  2  3  1  0  0  0  0
  2  5  1  0  0  0  0
  3  4  1  0  0  0  0
  3 17  1  0  0  0  0
  5  6  1  0  0  0  0
  7  6  1  1  0  0  0
  7  8  1  0  0  0  0
  7  9  1  0  0  0  0
 10  9  1  6  0  0  0
 10 11  1  0  0  0  0
 10 12  1  0  0  0  0
 11 16  1  0  0  0  0
 12 13  1  1  0  0  0
 12 14  1  0  0  0  0
 14 15  1  1  0  0  0
 14 16  1  0  0  0  0
 16 27  1  6  0  0  0
 18 19  2  0  0  0  0
 18 23  1  0  0  0  0
 19 20  1  0  0  0  0
 20 21  2  0  0  0  0
 21 22  1  0  0  0  0
 21 27  1  0  0  0  0
 22 23  2  0  0  0  0
 22 25  1  0  0  0  0
 23 24  1  0  0  0  0
 25 26  2  0  0  0  0
 26 27  1  0  0  0  0
M  END
>  <CHROM.1>
93.22850502,-164.93568671,-80.42085390,-154.69650250,167.83430094,75.53560430
-15.35679442,40.26531927,27.83317670,13.87557783,-1.71842095,0.96772478,-0.78660174

>  <Name>
ligand

>  <RI>
0

>  <Rbt.Current_Directory>
/home/itssahil/PROJECTS/Mol_Feturizer/New_Systems/rnas/2GIS

>  <Rbt.Executable>
rbdock ($Id: //depot/dev/client3/rdock/2013.1/src/exe/rbdock.cxx#4 $)

>  <Rbt.Library>
libRbt.so (2013.1, Build901 2013/11/27)

>  <Rbt.Parameter_File>
/export/apps/rDock/src/rDock_2013.1_src/data/scripts/dock_solv.prm

>  <Rbt.Receptor>
prm/blind_docking_60.prm

>  <SCORE>
-2.31971

>  <SCORE.INTER>
-3.28529

>  <SCORE.INTER.CONST>
1

>  <SCORE.INTER.POLAR>
0

>  <SCORE.INTER.ROT>
7

>  <SCORE.INTER.SOLV>
14.5868

>  <SCORE.INTER.VDW>
-15.3191

>  <SCORE.INTER.norm>
-0.121678

>  <SCORE.INTRA>
-3.94674

>  <SCORE.INTRA.DIHEDRAL>
-0.577668

>  <SCORE.INTRA.DIHEDRAL.0>
9.40024

>  <SCORE.INTRA.POLAR>
0

>  <SCORE.INTRA.POLAR.0>
0

>  <SCORE.INTRA.REPUL>
0

>  <SCORE.INTRA.REPUL.0>
0

>  <SCORE.INTRA.SOLV>
-2.939

>  <SCORE.INTRA.SOLV.lig_0>
-47.1049

>  <SCORE.INTRA.VDW>
-2.18841

>  <SCORE.INTRA.VDW.0>
-1.50278

>  <SCORE.INTRA.norm>
-0.146176

>  <SCORE.RESTR>
4.91232

>  <SCORE.RESTR.CAVITY>
4.91232

>  <SCORE.RESTR.norm>
0.181938

>  <SCORE.SYSTEM>
0

>  <SCORE.SYSTEM.CONST>
0

>  <SCORE.SYSTEM.DIHEDRAL>
0

>  <SCORE.SYSTEM.SOLV>
0

>  <SCORE.SYSTEM.norm>
0

>  <SCORE.heavy>
27

>  <SCORE.norm>
-0.0859153

>  <RMSD>
35.330

$$$$
ligand
 OpenBabel11021811433D
libRbt.so/2013.1/901 2013/11/27
 27 29  0  0  0  0  0  0  0  0999 V2000
   38.0109   29.3701   13.6078 N   0  0  0  0  0  0  0  0  0  0  0  0
   39.1437   30.1561   13.1089 C   0  0  2  0  0  0  0  0  0  0  0  0
   39.1814   31.4974   13.8192 C   0  0  0  0  0  0  0  0  0  0  0  0
   38.8575   31.5750   15.0009 O   0  0  0  0  0  0  0  0  0  0  0  0
   39.0312   30.3731   11.5866 C   0  0  0  0  0  0  0  0  0  0  0  0
   40.4331   30.5032   10.9930 C   0  0  0  0  0  0  0  0  0  0  0  0
   41.2459   28.9144   10.5465 S   0  0  2  0  0  0  0  0  0  0  0  0
   40.0323   28.0814    9.4762 C   0  0  0  0  0  0  0  0  0  0  0  0
   40.9440   28.0970   12.1275 C   0  0  0  0  0  0  0  0  0  0  0  0
   41.1599   26.5741   12.0901 C   0  0  1  0  0  0  0  0  0  0  0  0
   41.8532   26.1611   13.3048 O   0  0  0  0  0  0  0  0  0  0  0  0
   39.7569   26.0369   12.2097 C   0  0  1  0  0  0  0  0  0  0  0  0
   39.2415   25.7353   10.9128 O   0  0  0  0  0  0  0  0  0  0  0  0
   39.9186   24.7610   13.0268 C   0  0  1  0  0  0  0  0  0  0  0  0
   39.9913   23.6027   12.2038 O   0  0  0  0  0  0  0  0  0  0  0  0
   41.2428   24.9352   13.8565 C   0  0  2  0  0  0  0  0  0  0  0  0
   39.4744   32.5198   13.1988 O   0  0  0  0  0  0  0  0  0  0  0  0
   39.9350   28.4054   17.5752 N   0  0  0  0  0  0  0  0  0  0  0  0
   40.0111   28.6092   16.2555 C   0  0  0  0  0  0  0  0  0  0  0  0
   40.3378   27.6308   15.4260 N   0  0  0  0  0  0  0  0  0  0  0  0
   40.6381   26.4017   15.8771 C   0  0  0  0  0  0  0  0  0  0  0  0
   40.5854   26.1401   17.2703 C   0  0  0  0  0  0  0  0  0  0  0  0
   40.2119   27.2103   18.1220 C   0  0  0  0  0  0  0  0  0  0  0  0
   40.1361   27.0302   19.4849 N   0  0  0  0  0  0  0  0  0  0  0  0
   40.9304   24.8497   17.4521 N   0  0  0  0  0  0  0  0  0  0  0  0
   41.1947   24.3129   16.2969 C   0  0  0  0  0  0  0  0  0  0  0  0
   41.0260   25.2221   15.2900 N   0  0  0  0  0  0  0  0  0  0  0  0
  2  1  1  1  0  0  0
  2  3  1  0  0  0  0
  2  5  1  0  0  0  0
  3  4  1  0  0  0  0
  3 17  1  0  0  0  0
  5  6  1  0  0  0  0
  7  6  1  1  0  0  0
  7  8  1  0  0  0  0
  7  9  1  0  0  0  0
 10  9  1  1  0  0  0
 10 11  1  0  0  0  0
 10 12  1  0  0  0  0
 11 16  1  0  0  0  0
 12 13  1  6  0  0  0
 12 14  1  0  0  0  0
 14 15  1  6  0  0  0
 14 16  1  0  0  0  0
 16 27  1  1  0  0  0
 18 19  2  0  0  0  0
 18 23  1  0  0  0  0
 19 20  1  0  0  0  0
 20 21  2  0  0  0  0
 21 22  1  0  0  0  0
 21 27  1  0  0  0  0
 22 23  2  0  0  0  0
 22 25  1  0  0  0  0
 23 24  1  0  0  0  0
 25 26  2  0  0  0  0
 26 27  1  0  0  0  0
M  END
>  <CHROM.1>
35.59406235,-150.70583341,86.36311884,53.16776548,165.38206937,138.37287818
37.41717923,40.20468737,27.67410291,13.82132053,2.05124342,1.35907599,-1.42588183

>  <Name>
ligand

>  <RI>
0

>  <Rbt.Current_Directory>
/home/itssahil/PROJECTS/Mol_Feturizer/New_Systems/rnas/2GIS

>  <Rbt.Executable>
rbdock ($Id: //depot/dev/client3/rdock/2013.1/src/exe/rbdock.cxx#4 $)

>  <Rbt.Library>
libRbt.so (2013.1, Build901 2013/11/27)

>  <Rbt.Parameter_File>
/export/apps/rDock/src/rDock_2013.1_src/data/scripts/dock_solv.prm

>  <Rbt.Receptor>
prm/blind_docking_60.prm

>  <SCORE>
5.33196

>  <SCORE.INTER>
-2.20305

>  <SCORE.INTER.CONST>
1

>  <SCORE.INTER.POLAR>
0

>  <SCORE.INTER.ROT>
7

>  <SCORE.INTER.SOLV>
10.2558

>  <SCORE.INTER.VDW>
-13.154

>  <SCORE.INTER.norm>
-0.0815946

>  <SCORE.INTRA>
1.9513

>  <SCORE.INTRA.DIHEDRAL>
3.02317

>  <SCORE.INTRA.DIHEDRAL.0>
9.40024

>  <SCORE.INTRA.POLAR>
0

>  <SCORE.INTRA.POLAR.0>
0

>  <SCORE.INTRA.REPUL>
0

>  <SCORE.INTRA.REPUL.0>
0

>  <SCORE.INTRA.SOLV>
-0.482754

>  <SCORE.INTRA.SOLV.lig_0>
-47.1049

>  <SCORE.INTRA.VDW>
0.681092

>  <SCORE.INTRA.VDW.0>
-1.50278

>  <SCORE.INTRA.norm>
0.0722704

>  <SCORE.RESTR>
5.58371

>  <SCORE.RESTR.CAVITY>
5.58371

>  <SCORE.RESTR.norm>
0.206804

>  <SCORE.SYSTEM>
0

>  <SCORE.SYSTEM.CONST>
0

>  <SCORE.SYSTEM.DIHEDRAL>
0

>  <SCORE.SYSTEM.SOLV>
0

>  <SCORE.SYSTEM.norm>
0

>  <SCORE.heavy>
27

>  <SCORE.norm>
0.19748

>  <RMSD>
35.358

$$$$
ligand
 OpenBabel11021811433D
libRbt.so/2013.1/901 2013/11/27
 27 29  0  0  0  0  0  0  0  0999 V2000
   38.0194   29.4356   13.4538 N   0  0  0  0  0  0  0  0  0  0  0  0
   39.1637   30.0700   14.1155 C   0  0  2  0  0  0  0  0  0  0  0  0
   38.9155   31.5631   14.2355 C   0  0  0  0  0  0  0  0  0  0  0  0
   39.0092   32.2820   13.2446 O   0  0  0  0  0  0  0  0  0  0  0  0
   40.4627   29.8175   13.3244 C   0  0  0  0  0  0  0  0  0  0  0  0
   40.2247   30.1443   11.8509 C   0  0  0  0  0  0  0  0  0  0  0  0
   41.0400   29.0091   10.6547 S   0  0  2  0  0  0  0  0  0  0  0  0
   40.4736   29.5981    9.0285 C   0  0  0  0  0  0  0  0  0  0  0  0
   39.9298   27.6130   10.9324 C   0  0  0  0  0  0  0  0  0  0  0  0
   40.6355   26.3564   11.4709 C   0  0  1  0  0  0  0  0  0  0  0  0
   41.4058   26.7137   12.6566 O   0  0  0  0  0  0  0  0  0  0  0  0
   39.4857   25.5143   11.9610 C   0  0  1  0  0  0  0  0  0  0  0  0
   39.1200   24.5642   10.9599 O   0  0  0  0  0  0  0  0  0  0  0  0
   40.0448   24.8044   13.1879 C   0  0  1  0  0  0  0  0  0  0  0  0
   40.5085   23.4939   12.8844 O   0  0  0  0  0  0  0  0  0  0  0  0
   41.2238   25.7009   13.7153 C   0  0  2  0  0  0  0  0  0  0  0  0
   38.6827   32.0668   15.3346 O   0  0  0  0  0  0  0  0  0  0  0  0
   39.1008   25.7851   18.5182 N   0  0  0  0  0  0  0  0  0  0  0  0
   39.1743   24.7506   17.6735 C   0  0  0  0  0  0  0  0  0  0  0  0
   39.7592   24.8676   16.4918 N   0  0  0  0  0  0  0  0  0  0  0  0
   40.2740   26.0373   16.0783 C   0  0  0  0  0  0  0  0  0  0  0  0
   40.2076   27.1674   16.9332 C   0  0  0  0  0  0  0  0  0  0  0  0
   39.5905   26.9940   18.1979 C   0  0  0  0  0  0  0  0  0  0  0  0
   39.4923   28.0451   19.0818 N   0  0  0  0  0  0  0  0  0  0  0  0
   40.7852   28.1985   16.2849 N   0  0  0  0  0  0  0  0  0  0  0  0
   41.1852   27.7952   15.1146 C   0  0  0  0  0  0  0  0  0  0  0  0
   40.9008   26.4700   14.9353 N   0  0  0  0  0  0  0  0  0  0  0  0
  2  1  1  6  0  0  0
  2  3  1  0  0  0  0
  2  5  1  0  0  0  0
  3  4  1  0  0  0  0
  3 17  1  0  0  0  0
  5  6  1  0  0  0  0
  7  6  1  1  0  0  0
  7  8  1  0  0  0  0
  7  9  1  0  0  0  0
 10  9  1  1  0  0  0
 10 11  1  0  0  0  0
 10 12  1  0  0  0  0
 11 16  1  0  0  0  0
 12 13  1  6  0  0  0
 12 14  1  0  0  0  0
 14 15  1  6  0  0  0
 14 16  1  0  0  0  0
 16 27  1  1  0  0  0
 18 19  2  0  0  0  0
 18 23  1  0  0  0  0
 19 20  1  0  0  0  0
 20 21  2  0  0  0  0
 21 22  1  0  0  0  0
 21 27  1  0  0  0  0
 22 23  2  0  0  0  0
 22 25  1  0  0  0  0
 23 24  1  0  0  0  0
 25 26  2  0  0  0  0
 26 27  1  0  0  0  0
M  END
>  <CHROM.1>
-74.51977588,48.85671638,-141.43812343,176.32219054,-118.73159624,52.95135827
159.21623245,40.00230014,27.68479487,13.90307391,1.27250067,1.39456054,-0.78521721

>  <Name>
ligand

>  <RI>
0

>  <Rbt.Current_Directory>
/home/itssahil/PROJECTS/Mol_Feturizer/New_Systems/rnas/2GIS

>  <Rbt.Executable>
rbdock ($Id: //depot/dev/client3/rdock/2013.1/src/exe/rbdock.cxx#4 $)

>  <Rbt.Library>
libRbt.so (2013.1, Build901 2013/11/27)

>  <Rbt.Parameter_File>
/export/apps/rDock/src/rDock_2013.1_src/data/scripts/dock_solv.prm

>  <Rbt.Receptor>
prm/blind_docking_60.prm

>  <SCORE>
7.66482

>  <SCORE.INTER>
-0.941611

>  <SCORE.INTER.CONST>
1

>  <SCORE.INTER.POLAR>
0

>  <SCORE.INTER.ROT>
7

>  <SCORE.INTER.SOLV>
8.38232

>  <SCORE.INTER.VDW>
-11.6885

>  <SCORE.INTER.norm>
-0.0348745

>  <SCORE.INTRA>
0.94024

>  <SCORE.INTRA.DIHEDRAL>
2.79577

>  <SCORE.INTRA.DIHEDRAL.0>
9.40024

>  <SCORE.INTRA.POLAR>
0

>  <SCORE.INTRA.POLAR.0>
0

>  <SCORE.INTRA.REPUL>
0

>  <SCORE.INTRA.REPUL.0>
0

>  <SCORE.INTRA.SOLV>
-0.898108

>  <SCORE.INTRA.SOLV.lig_0>
-47.1049

>  <SCORE.INTRA.VDW>
-0.00858791

>  <SCORE.INTRA.VDW.0>
-1.50278

>  <SCORE.INTRA.norm>
0.0348237

>  <SCORE.RESTR>
7.66619

>  <SCORE.RESTR.CAVITY>
7.66619

>  <SCORE.RESTR.norm>
0.283933

>  <SCORE.SYSTEM>
0

>  <SCORE.SYSTEM.CONST>
0

>  <SCORE.SYSTEM.DIHEDRAL>
0

>  <SCORE.SYSTEM.SOLV>
0

>  <SCORE.SYSTEM.norm>
0

>  <SCORE.heavy>
27

>  <SCORE.norm>
0.283882

>  <RMSD>
35.360

$$$$
ligand
 OpenBabel11021811433D
libRbt.so/2013.1/901 2013/11/27
 27 29  0  0  0  0  0  0  0  0999 V2000
   36.6615   30.9974   13.6045 N   0  0  0  0  0  0  0  0  0  0  0  0
   37.8872   31.7299   13.9378 C   0  0  2  0  0  0  0  0  0  0  0  0
   38.9824   31.3587   12.9539 C   0  0  0  0  0  0  0  0  0  0  0  0
   38.7395   31.3221   11.7509 O   0  0  0  0  0  0  0  0  0  0  0  0
   38.3437   31.4081   15.3748 C   0  0  0  0  0  0  0  0  0  0  0  0
   38.0978   29.9273   15.6600 C   0  0  0  0  0  0  0  0  0  0  0  0
   39.2016   28.7620   14.7610 S   0  0  2  0  0  0  0  0  0  0  0  0
   38.4124   28.5717   13.1322 C   0  0  0  0  0  0  0  0  0  0  0  0
   38.6324   27.2722   15.6068 C   0  0  0  0  0  0  0  0  0  0  0  0
   39.2163   25.9703   15.0312 C   0  0  1  0  0  0  0  0  0  0  0  0
   39.3572   26.1092   13.5863 O   0  0  0  0  0  0  0  0  0  0  0  0
   40.6176   25.9612   15.5860 C   0  0  1  0  0  0  0  0  0  0  0  0
   40.6664   25.1573   16.7649 O   0  0  0  0  0  0  0  0  0  0  0  0
   41.4495   25.3288   14.4771 C   0  0  1  0  0  0  0  0  0  0  0  0
   41.6573   23.9374   14.6896 O   0  0  0  0  0  0  0  0  0  0  0  0
   40.6586   25.5731   13.1404 C   0  0  2  0  0  0  0  0  0  0  0  0
   40.0974   31.0322   13.3612 O   0  0  0  0  0  0  0  0  0  0  0  0
   40.1937   28.6358    8.8994 N   0  0  0  0  0  0  0  0  0  0  0  0
   39.3275   27.7201    9.3470 C   0  0  0  0  0  0  0  0  0  0  0  0
   39.5666   27.0281   10.4498 N   0  0  0  0  0  0  0  0  0  0  0  0
   40.7029   27.1929   11.1470 C   0  0  0  0  0  0  0  0  0  0  0  0
   41.6592   28.1424   10.7041 C   0  0  0  0  0  0  0  0  0  0  0  0
   41.3550   28.8764    9.5297 C   0  0  0  0  0  0  0  0  0  0  0  0
   42.2339   29.8172    9.0417 N   0  0  0  0  0  0  0  0  0  0  0  0
   42.6933   28.1070   11.5680 N   0  0  0  0  0  0  0  0  0  0  0  0
   42.4514   27.2169   12.4853 C   0  0  0  0  0  0  0  0  0  0  0  0
   41.2361   26.6258   12.2787 N   0  0  0  0  0  0  0  0  0  0  0  0
  2  1  1  6  0  0  0
  2  3  1  0  0  0  0
  2  5  1  0  0  0  0
  3  4  1  0  0  0  0
  3 17  1  0  0  0  0
  5  6  1  0  0  0  0
  7  6  1  1  0  0  0
  7  8  1  0  0  0  0
  7  9  1  0  0  0  0
 10  9  1  1  0  0  0
 10 11  1  0  0  0  0
 10 12  1  0  0  0  0
 11 16  1  0  0  0  0
 12 13  1  1  0  0  0
 12 14  1  0  0  0  0
 14 15  1  1  0  0  0
 14 16  1  0  0  0  0
 16 27  1  6  0  0  0
 18 19  2  0  0  0  0
 18 23  1  0  0  0  0
 19 20  1  0  0  0  0
 20 21  2  0  0  0  0
 21 22  1  0  0  0  0
 21 27  1  0  0  0  0
 22 23  2  0  0  0  0
 22 25  1  0  0  0  0
 23 24  1  0  0  0  0
 25 26  2  0  0  0  0
 26 27  1  0  0  0  0
M  END
>  <CHROM.1>
45.78049934,38.29097144,70.47301101,-83.47989058,173.57878998,-35.38653515
-57.45124068,39.94234274,28.16113584,13.07438222,1.99401894,0.98271793,-0.90902210

>  <Name>
ligand

>  <RI>
0

>  <Rbt.Current_Directory>
/home/itssahil/PROJECTS/Mol_Feturizer/New_Systems/rnas/2GIS

>  <Rbt.Executable>
rbdock ($Id: //depot/dev/client3/rdock/2013.1/src/exe/rbdock.cxx#4 $)

>  <Rbt.Library>
libRbt.so (2013.1, Build901 2013/11/27)

>  <Rbt.Parameter_File>
/export/apps/rDock/src/rDock_2013.1_src/data/scripts/dock_solv.prm

>  <Rbt.Receptor>
prm/blind_docking_60.prm

>  <SCORE>
10.2041

>  <SCORE.INTER>
2.22678

>  <SCORE.INTER.CONST>
1

>  <SCORE.INTER.POLAR>
0

>  <SCORE.INTER.ROT>
7

>  <SCORE.INTER.SOLV>
11.5068

>  <SCORE.INTER.VDW>
-10.6178

>  <SCORE.INTER.norm>
0.0824732

>  <SCORE.INTRA>
2.96612

>  <SCORE.INTRA.DIHEDRAL>
-1.5287

>  <SCORE.INTRA.DIHEDRAL.0>
9.40024

>  <SCORE.INTRA.POLAR>
0

>  <SCORE.INTRA.POLAR.0>
0

>  <SCORE.INTRA.REPUL>
0

>  <SCORE.INTRA.REPUL.0>
0

>  <SCORE.INTRA.SOLV>
0.166699

>  <SCORE.INTRA.SOLV.lig_0>
-47.1049

>  <SCORE.INTRA.VDW>
3.64711

>  <SCORE.INTRA.VDW.0>
-1.50278

>  <SCORE.INTRA.norm>
0.109856

>  <SCORE.RESTR>
5.01116

>  <SCORE.RESTR.CAVITY>
5.01116

>  <SCORE.RESTR.norm>
0.185599

>  <SCORE.SYSTEM>
0

>  <SCORE.SYSTEM.CONST>
0

>  <SCORE.SYSTEM.DIHEDRAL>
0

>  <SCORE.SYSTEM.SOLV>
0

>  <SCORE.SYSTEM.norm>
0

>  <SCORE.heavy>
27

>  <SCORE.norm>
0.377928

>  <RMSD>
35.512

$$$$
ligand
 OpenBabel11021811433D
libRbt.so/2013.1/901 2013/11/27
 27 29  0  0  0  0  0  0  0  0999 V2000
   40.7904   29.5044   13.6503 N   0  0  0  0  0  0  0  0  0  0  0  0
   40.0817   30.7339   13.2812 C   0  0  2  0  0  0  0  0  0  0  0  0
   38.5882   30.5323   13.4654 C   0  0  0  0  0  0  0  0  0  0  0  0
   38.1246   29.3966   13.5188 O   0  0  0  0  0  0  0  0  0  0  0  0
   40.3812   31.1205   11.8191 C   0  0  0  0  0  0  0  0  0  0  0  0
   39.7911   30.0617   10.8888 C   0  0  0  0  0  0  0  0  0  0  0  0
   40.8758   28.6118   10.5637 S   0  0  2  0  0  0  0  0  0  0  0  0
   40.0708   27.7598    9.1715 C   0  0  0  0  0  0  0  0  0  0  0  0
   40.2995   27.6273   11.9627 C   0  0  0  0  0  0  0  0  0  0  0  0
   40.9923   26.2591   12.0861 C   0  0  1  0  0  0  0  0  0  0  0  0
   41.7058   26.1992   13.3566 O   0  0  0  0  0  0  0  0  0  0  0  0
   39.8298   25.3090   12.2176 C   0  0  1  0  0  0  0  0  0  0  0  0
   39.5177   24.7461   10.9431 O   0  0  0  0  0  0  0  0  0  0  0  0
   40.3405   24.2296   13.1642 C   0  0  1  0  0  0  0  0  0  0  0  0
   40.8294   23.0908   12.4652 O   0  0  0  0  0  0  0  0  0  0  0  0
   41.4866   24.8941   14.0111 C   0  0  2  0  0  0  0  0  0  0  0  0
   37.8307   31.5023   13.4978 O   0  0  0  0  0  0  0  0  0  0  0  0
   39.7852   28.4661   17.4646 N   0  0  0  0  0  0  0  0  0  0  0  0
   40.0220   28.6371   16.1593 C   0  0  0  0  0  0  0  0  0  0  0  0
   40.4337   27.6357   15.3979 N   0  0  0  0  0  0  0  0  0  0  0  0
   40.6620   26.4150   15.9100 C   0  0  0  0  0  0  0  0  0  0  0  0
   40.4388   26.1878   17.2923 C   0  0  0  0  0  0  0  0  0  0  0  0
   39.9792   27.2820   18.0680 C   0  0  0  0  0  0  0  0  0  0  0  0
   39.7378   27.1358   19.4156 N   0  0  0  0  0  0  0  0  0  0  0  0
   40.7431   24.8989   17.5438 N   0  0  0  0  0  0  0  0  0  0  0  0
   41.1375   24.3317   16.4415 C   0  0  0  0  0  0  0  0  0  0  0  0
   41.1026   25.2178   15.4010 N   0  0  0  0  0  0  0  0  0  0  0  0
  2  1  1  6  0  0  0
  2  3  1  0  0  0  0
  2  5  1  0  0  0  0
  3  4  1  0  0  0  0
  3 17  1  0  0  0  0
  5  6  1  0  0  0  0
  7  6  1  1  0  0  0
  7  8  1  0  0  0  0
  7  9  1  0  0  0  0
 10  9  1  1  0  0  0
 10 11  1  0  0  0  0
 10 12  1  0  0  0  0
 11 16  1  0  0  0  0
 12 13  1  6  0  0  0
 12 14  1  0  0  0  0
 14 15  1  6  0  0  0
 14 16  1  0  0  0  0
 16 27  1  1  0  0  0
 18 19  2  0  0  0  0
 18 23  1  0  0  0  0
 19 20  1  0  0  0  0
 20 21  2  0  0  0  0
 21 22  1  0  0  0  0
 21 27  1  0  0  0  0
 22 23  2  0  0  0  0
 22 25  1  0  0  0  0
 23 24  1  0  0  0  0
 25 26  2  0  0  0  0
 26 27  1  0  0  0  0
M  END
>  <CHROM.1>
-19.32774677,66.08800685,-86.27545479,-167.67679663,-179.47821434,118.26641875
17.10335503,40.21953819,27.39382373,13.78283957,1.94866511,1.32365978,-1.40804626

>  <Name>
ligand

>  <RI>
0

>  <Rbt.Current_Directory>
/home/itssahil/PROJECTS/Mol_Feturizer/New_Systems/rnas/2GIS

>  <Rbt.Executable>
rbdock ($Id: //depot/dev/client3/rdock/2013.1/src/exe/rbdock.cxx#4 $)

>  <Rbt.Library>
libRbt.so (2013.1, Build901 2013/11/27)

>  <Rbt.Parameter_File>
/export/apps/rDock/src/rDock_2013.1_src/data/scripts/dock_solv.prm

>  <Rbt.Receptor>
prm/blind_docking_60.prm

>  <SCORE>
11.7462

>  <SCORE.INTER>
2.31678

>  <SCORE.INTER.CONST>
1

>  <SCORE.INTER.POLAR>
0

>  <SCORE.INTER.ROT>
7

>  <SCORE.INTER.SOLV>
13.2148

>  <SCORE.INTER.VDW>
-11.1271

>  <SCORE.INTER.norm>
0.0858068

>  <SCORE.INTRA>
3.87441

>  <SCORE.INTRA.DIHEDRAL>
2.36611

>  <SCORE.INTRA.DIHEDRAL.0>
9.40024

>  <SCORE.INTRA.POLAR>
0

>  <SCORE.INTRA.POLAR.0>
0

>  <SCORE.INTRA.REPUL>
0.223437

>  <SCORE.INTRA.REPUL.0>
0

>  <SCORE.INTRA.SOLV>
2.59501

>  <SCORE.INTRA.SOLV.lig_0>
-47.1049

>  <SCORE.INTRA.VDW>
0.276662

>  <SCORE.INTRA.VDW.0>
-1.50278

>  <SCORE.INTRA.norm>
0.143497

>  <SCORE.RESTR>
5.55502

>  <SCORE.RESTR.CAVITY>
5.55502

>  <SCORE.RESTR.norm>
0.205741

>  <SCORE.SYSTEM>
0

>  <SCORE.SYSTEM.CONST>
0

>  <SCORE.SYSTEM.DIHEDRAL>
0

>  <SCORE.SYSTEM.SOLV>
0

>  <SCORE.SYSTEM.norm>
0

>  <SCORE.heavy>
27

>  <SCORE.norm>
0.435045

>  <RMSD>
35.553

$$$$
ligand
 OpenBabel11021811433D
libRbt.so/2013.1/901 2013/11/27
 27 29  0  0  0  0  0  0  0  0999 V2000
   41.1126   25.4862   13.3904 N   0  0  0  0  0  0  0  0  0  0  0  0
   41.2044   26.3579   12.2150 C   0  0  2  0  0  0  0  0  0  0  0  0
   41.9031   27.6507   12.5967 C   0  0  0  0  0  0  0  0  0  0  0  0
   41.6410   28.1974   13.6644 O   0  0  0  0  0  0  0  0  0  0  0  0
   39.8030   26.6671   11.6518 C   0  0  0  0  0  0  0  0  0  0  0  0
   39.9474   27.3524   10.2938 C   0  0  0  0  0  0  0  0  0  0  0  0
   39.0602   28.9552   10.1263 S   0  0  2  0  0  0  0  0  0  0  0  0
   39.9981   29.8492    8.8483 C   0  0  0  0  0  0  0  0  0  0  0  0
   39.7213   29.6955   11.6341 C   0  0  0  0  0  0  0  0  0  0  0  0
   38.6749   29.8755   12.7476 C   0  0  1  0  0  0  0  0  0  0  0  0
   38.4379   28.5886   13.3914 O   0  0  0  0  0  0  0  0  0  0  0  0
   39.4087   30.7172   13.7598 C   0  0  1  0  0  0  0  0  0  0  0  0
   39.0741   32.0934   13.5791 O   0  0  0  0  0  0  0  0  0  0  0  0
   38.8898   30.2163   15.1020 C   0  0  1  0  0  0  0  0  0  0  0  0
   37.8364   31.0288   15.6068 O   0  0  0  0  0  0  0  0  0  0  0  0
   38.3878   28.7464   14.8584 C   0  0  2  0  0  0  0  0  0  0  0  0
   42.6853   28.1881   11.8122 O   0  0  0  0  0  0  0  0  0  0  0  0
   39.8154   23.6932   14.9525 N   0  0  0  0  0  0  0  0  0  0  0  0
   38.8275   24.2519   14.2447 C   0  0  0  0  0  0  0  0  0  0  0  0
   38.5895   25.5527   14.3036 N   0  0  0  0  0  0  0  0  0  0  0  0
   39.3083   26.3604   15.1006 C   0  0  0  0  0  0  0  0  0  0  0  0
   40.3580   25.8122   15.8817 C   0  0  0  0  0  0  0  0  0  0  0  0
   40.5923   24.4180   15.7741 C   0  0  0  0  0  0  0  0  0  0  0  0
   41.5959   23.8161   16.4996 N   0  0  0  0  0  0  0  0  0  0  0  0
   40.9089   26.8226   16.5836 N   0  0  0  0  0  0  0  0  0  0  0  0
   40.2814   27.9272   16.3036 C   0  0  0  0  0  0  0  0  0  0  0  0
   39.2885   27.7027   15.3910 N   0  0  0  0  0  0  0  0  0  0  0  0
  2  1  1  1  0  0  0
  2  3  1  0  0  0  0
  2  5  1  0  0  0  0
  3  4  1  0  0  0  0
  3 17  1  0  0  0  0
  5  6  1  0  0  0  0
  7  6  1  1  0  0  0
  7  8  1  0  0  0  0
  7  9  1  0  0  0  0
 10  9  1  6  0  0  0
 10 11  1  0  0  0  0
 10 12  1  0  0  0  0
 11 16  1  0  0  0  0
 12 13  1  6  0  0  0
 12 14  1  0  0  0  0
 14 15  1  6  0  0  0
 14 16  1  0  0  0  0
 16 27  1  1  0  0  0
 18 19  2  0  0  0  0
 18 23  1  0  0  0  0
 19 20  1  0  0  0  0
 20 21  2  0  0  0  0
 21 22  1  0  0  0  0
 21 27  1  0  0  0  0
 22 23  2  0  0  0  0
 22 25  1  0  0  0  0
 23 24  1  0  0  0  0
 25 26  2  0  0  0  0
 26 27  1  0  0  0  0
M  END
>  <CHROM.1>
-41.42631541,-169.57558033,-126.34697025,154.11458323,-110.71217519,77.68048577
-50.71333174,39.86201137,27.77662358,13.49427205,-1.13716602,1.20309271,-1.09368210

>  <Name>
ligand

>  <RI>
0

>  <Rbt.Current_Directory>
/home/itssahil/PROJECTS/Mol_Feturizer/New_Systems/rnas/2GIS

>  <Rbt.Executable>
rbdock ($Id: //depot/dev/client3/rdock/2013.1/src/exe/rbdock.cxx#4 $)

>  <Rbt.Library>
libRbt.so (2013.1, Build901 2013/11/27)

>  <Rbt.Parameter_File>
/export/apps/rDock/src/rDock_2013.1_src/data/scripts/dock_solv.prm

>  <Rbt.Receptor>
prm/blind_docking_60.prm

>  <SCORE>
13.7403

>  <SCORE.INTER>
8.30017

>  <SCORE.INTER.CONST>
1

>  <SCORE.INTER.POLAR>
0

>  <SCORE.INTER.ROT>
7

>  <SCORE.INTER.SOLV>
18.8577

>  <SCORE.INTER.VDW>
-9.01911

>  <SCORE.INTER.norm>
0.307414

>  <SCORE.INTRA>
1.90346

>  <SCORE.INTRA.DIHEDRAL>
5.03261

>  <SCORE.INTRA.DIHEDRAL.0>
9.40024

>  <SCORE.INTRA.POLAR>
0

>  <SCORE.INTRA.POLAR.0>
0

>  <SCORE.INTRA.REPUL>
0

>  <SCORE.INTRA.REPUL.0>
0

>  <SCORE.INTRA.SOLV>
3.35682

>  <SCORE.INTRA.SOLV.lig_0>
-47.1049

>  <SCORE.INTRA.VDW>
-2.29126

>  <SCORE.INTRA.VDW.0>
-1.50278

>  <SCORE.INTRA.norm>
0.0704984

>  <SCORE.RESTR>
3.53671

>  <SCORE.RESTR.CAVITY>
3.53671

>  <SCORE.RESTR.norm>
0.130989

>  <SCORE.SYSTEM>
0

>  <SCORE.SYSTEM.CONST>
0

>  <SCORE.SYSTEM.DIHEDRAL>
0

>  <SCORE.SYSTEM.SOLV>
0

>  <SCORE.SYSTEM.norm>
0

>  <SCORE.heavy>
27

>  <SCORE.norm>
0.508901

>  <RMSD>
35.623

$$$$
ligand
 OpenBabel11021811433D
libRbt.so/2013.1/901 2013/11/27
 27 29  0  0  0  0  0  0  0  0999 V2000
   40.6223   22.6214   14.3391 N   0  0  0  0  0  0  0  0  0  0  0  0
   40.2548   23.9507   13.8413 C   0  0  2  0  0  0  0  0  0  0  0  0
   41.4577   24.8733   13.9254 C   0  0  0  0  0  0  0  0  0  0  0  0
   41.3725   26.0304   13.5236 O   0  0  0  0  0  0  0  0  0  0  0  0
   39.0870   24.5379   14.6588 C   0  0  0  0  0  0  0  0  0  0  0  0
   39.5709   24.8475   16.0747 C   0  0  0  0  0  0  0  0  0  0  0  0
   40.4629   26.4449   16.2664 S   0  0  2  0  0  0  0  0  0  0  0  0
   40.3571   26.8002   18.0482 C   0  0  0  0  0  0  0  0  0  0  0  0
   39.1347   27.4818   15.6188 C   0  0  0  0  0  0  0  0  0  0  0  0
   39.5496   28.9438   15.3789 C   0  0  1  0  0  0  0  0  0  0  0  0
   40.6882   28.9727   14.4681 O   0  0  0  0  0  0  0  0  0  0  0  0
   38.3824   29.4969   14.6021 C   0  0  1  0  0  0  0  0  0  0  0  0
   37.4857   30.1679   15.4876 O   0  0  0  0  0  0  0  0  0  0  0  0
   39.0185   30.4900   13.6373 C   0  0  1  0  0  0  0  0  0  0  0  0
   38.9632   31.8246   14.1277 O   0  0  0  0  0  0  0  0  0  0  0  0
   40.5103   30.0292   13.4521 C   0  0  2  0  0  0  0  0  0  0  0  0
   42.5378   24.4484   14.3361 O   0  0  0  0  0  0  0  0  0  0  0  0
   39.4992   29.6787    8.3105 N   0  0  0  0  0  0  0  0  0  0  0  0
   38.9483   30.5139    9.1982 C   0  0  0  0  0  0  0  0  0  0  0  0
   39.3147   30.5054   10.4702 N   0  0  0  0  0  0  0  0  0  0  0  0
   40.2305   29.6364   10.9289 C   0  0  0  0  0  0  0  0  0  0  0  0
   40.8331   28.7209   10.0284 C   0  0  0  0  0  0  0  0  0  0  0  0
   40.4267   28.7767    8.6712 C   0  0  0  0  0  0  0  0  0  0  0  0
   40.9701   27.9213    7.7392 N   0  0  0  0  0  0  0  0  0  0  0  0
   41.7010   27.9705   10.7361 N   0  0  0  0  0  0  0  0  0  0  0  0
   41.6696   28.3442   11.9817 C   0  0  0  0  0  0  0  0  0  0  0  0
   40.7846   29.3713   12.1575 N   0  0  0  0  0  0  0  0  0  0  0  0
  2  1  1  1  0  0  0
  2  3  1  0  0  0  0
  2  5  1  0  0  0  0
  3  4  1  0  0  0  0
  3 17  1  0  0  0  0
  5  6  1  0  0  0  0
  7  6  1  1  0  0  0
  7  8  1  0  0  0  0
  7  9  1  0  0  0  0
 10  9  1  6  0  0  0
 10 11  1  0  0  0  0
 10 12  1  0  0  0  0
 11 16  1  0  0  0  0
 12 13  1  1  0  0  0
 12 14  1  0  0  0  0
 14 15  1  1  0  0  0
 14 16  1  0  0  0  0
 16 27  1  6  0  0  0
 18 19  2  0  0  0  0
 18 23  1  0  0  0  0
 19 20  1  0  0  0  0
 20 21  2  0  0  0  0
 21 22  1  0  0  0  0
 21 27  1  0  0  0  0
 22 23  2  0  0  0  0
 22 25  1  0  0  0  0
 23 24  1  0  0  0  0
 25 26  2  0  0  0  0
 26 27  1  0  0  0  0
M  END
>  <CHROM.1>
178.12943750,68.26601634,81.83327736,160.01674811,-170.46353225,57.01587230
147.81413291,40.15267342,27.81665554,13.28921259,-1.43903613,1.18437407,-1.04700846

>  <Name>
ligand

>  <RI>
0

>  <Rbt.Current_Directory>
/home/itssahil/PROJECTS/Mol_Feturizer/New_Systems/rnas/2GIS

>  <Rbt.Executable>
rbdock ($Id: //depot/dev/client3/rdock/2013.1/src/exe/rbdock.cxx#4 $)

>  <Rbt.Library>
libRbt.so (2013.1, Build901 2013/11/27)

>  <Rbt.Parameter_File>
/export/apps/rDock/src/rDock_2013.1_src/data/scripts/dock_solv.prm

>  <Rbt.Receptor>
prm/blind_docking_60.prm

>  <SCORE>
4.35376

>  <SCORE.INTER>
1.49003

>  <SCORE.INTER.CONST>
1

>  <SCORE.INTER.POLAR>
0

>  <SCORE.INTER.ROT>
7

>  <SCORE.INTER.SOLV>
13.9419

>  <SCORE.INTER.VDW>
-11.9206

>  <SCORE.INTER.norm>
0.0551865

>  <SCORE.INTRA>
-2.79897

>  <SCORE.INTRA.DIHEDRAL>
-3.10405

>  <SCORE.INTRA.DIHEDRAL.0>
9.40024

>  <SCORE.INTRA.POLAR>
0

>  <SCORE.INTRA.POLAR.0>
0

>  <SCORE.INTRA.REPUL>
0

>  <SCORE.INTRA.REPUL.0>
0

>  <SCORE.INTRA.SOLV>
-2.06734

>  <SCORE.INTRA.SOLV.lig_0>
-47.1049

>  <SCORE.INTRA.VDW>
-0.213275

>  <SCORE.INTRA.VDW.0>
-1.50278

>  <SCORE.INTRA.norm>
-0.103666

>  <SCORE.RESTR>
5.6627

>  <SCORE.RESTR.CAVITY>
5.6627

>  <SCORE.RESTR.norm>
0.209729

>  <SCORE.SYSTEM>
0

>  <SCORE.SYSTEM.CONST>
0

>  <SCORE.SYSTEM.DIHEDRAL>
0

>  <SCORE.SYSTEM.SOLV>
0

>  <SCORE.SYSTEM.norm>
0

>  <SCORE.heavy>
27

>  <SCORE.norm>
0.16125

>  <RMSD>
35.741

$$$$
ligand
 OpenBabel11021811433D
libRbt.so/2013.1/901 2013/11/27
 27 29  0  0  0  0  0  0  0  0999 V2000
   37.5618   29.8937   15.5432 N   0  0  0  0  0  0  0  0  0  0  0  0
   38.8463   30.2133   14.9125 C   0  0  2  0  0  0  0  0  0  0  0  0
   38.6163   31.1551   13.7439 C   0  0  0  0  0  0  0  0  0  0  0  0
   37.4738   31.4829   13.4361 O   0  0  0  0  0  0  0  0  0  0  0  0
   39.5488   28.9318   14.4213 C   0  0  0  0  0  0  0  0  0  0  0  0
   40.4191   28.3736   15.5462 C   0  0  0  0  0  0  0  0  0  0  0  0
   39.4995   27.5892   16.9331 S   0  0  2  0  0  0  0  0  0  0  0  0
   40.2176   28.3453   18.4246 C   0  0  0  0  0  0  0  0  0  0  0  0
   40.3791   26.0138   16.8758 C   0  0  0  0  0  0  0  0  0  0  0  0
   39.9219   25.0888   15.7345 C   0  0  1  0  0  0  0  0  0  0  0  0
   39.5548   25.9015   14.5806 O   0  0  0  0  0  0  0  0  0  0  0  0
   41.1949   24.3777   15.3534 C   0  0  1  0  0  0  0  0  0  0  0  0
   41.2565   23.1105   16.0083 O   0  0  0  0  0  0  0  0  0  0  0  0
   41.0764   24.1912   13.8458 C   0  0  1  0  0  0  0  0  0  0  0  0
   40.5842   22.9012   13.5021 O   0  0  0  0  0  0  0  0  0  0  0  0
   40.0956   25.3113   13.3400 C   0  0  2  0  0  0  0  0  0  0  0  0
   39.5662   31.5420   13.0629 O   0  0  0  0  0  0  0  0  0  0  0  0
   40.5291   28.2501    9.0091 N   0  0  0  0  0  0  0  0  0  0  0  0
   39.6962   27.2257    9.2235 C   0  0  0  0  0  0  0  0  0  0  0  0
   39.6815   26.5813   10.3797 N   0  0  0  0  0  0  0  0  0  0  0  0
   40.5241   26.9077   11.3735 C   0  0  0  0  0  0  0  0  0  0  0  0
   41.4363   27.9782   11.1888 C   0  0  0  0  0  0  0  0  0  0  0  0
   41.4055   28.6545    9.9430 C   0  0  0  0  0  0  0  0  0  0  0  0
   42.2592   29.7053    9.6926 N   0  0  0  0  0  0  0  0  0  0  0  0
   42.1585   28.0933   12.3211 N   0  0  0  0  0  0  0  0  0  0  0  0
   41.7710   27.1844   13.1674 C   0  0  0  0  0  0  0  0  0  0  0  0
   40.7622   26.4283   12.6385 N   0  0  0  0  0  0  0  0  0  0  0  0
  2  1  1  6  0  0  0
  2  3  1  0  0  0  0
  2  5  1  0  0  0  0
  3  4  1  0  0  0  0
  3 17  1  0  0  0  0
  5  6  1  0  0  0  0
  7  6  1  6  0  0  0
  7  8  1  0  0  0  0
  7  9  1  0  0  0  0
 10  9  1  1  0  0  0
 10 11  1  0  0  0  0
 10 12  1  0  0  0  0
 11 16  1  0  0  0  0
 12 13  1  1  0  0  0
 12 14  1  0  0  0  0
 14 15  1  1  0  0  0
 14 16  1  0  0  0  0
 16 27  1  1  0  0  0
 18 19  2  0  0  0  0
 18 23  1  0  0  0  0
 19 20  1  0  0  0  0
 20 21  2  0  0  0  0
 21 22  1  0  0  0  0
 21 27  1  0  0  0  0
 22 23  2  0  0  0  0
 22 25  1  0  0  0  0
 23 24  1  0  0  0  0
 25 26  2  0  0  0  0
 26 27  1  0  0  0  0
M  END
>  <CHROM.1>
-2.75882775,-89.08908201,72.73707504,-130.73844541,-77.52865450,34.15116741
-122.67738432,40.16553270,27.45504343,13.72591937,1.55003191,-1.21144038
2.17573260

>  <Name>
ligand

>  <RI>
0

>  <Rbt.Current_Directory>
/home/itssahil/PROJECTS/Mol_Feturizer/New_Systems/rnas/2GIS

>  <Rbt.Executable>
rbdock ($Id: //depot/dev/client3/rdock/2013.1/src/exe/rbdock.cxx#4 $)

>  <Rbt.Library>
libRbt.so (2013.1, Build901 2013/11/27)

>  <Rbt.Parameter_File>
/export/apps/rDock/src/rDock_2013.1_src/data/scripts/dock_solv.prm

>  <Rbt.Receptor>
prm/blind_docking_60.prm

>  <SCORE>
-0.849272

>  <SCORE.INTER>
-3.75088

>  <SCORE.INTER.CONST>
1

>  <SCORE.INTER.POLAR>
0

>  <SCORE.INTER.ROT>
7

>  <SCORE.INTER.SOLV>
15.3149

>  <SCORE.INTER.VDW>
-15.8722

>  <SCORE.INTER.norm>
-0.138921

>  <SCORE.INTRA>
-0.020871

>  <SCORE.INTRA.DIHEDRAL>
3.73207

>  <SCORE.INTRA.DIHEDRAL.0>
9.40024

>  <SCORE.INTRA.POLAR>
0

>  <SCORE.INTRA.POLAR.0>
0

>  <SCORE.INTRA.REPUL>
0

>  <SCORE.INTRA.REPUL.0>
0

>  <SCORE.INTRA.SOLV>
-0.969862

>  <SCORE.INTRA.SOLV.lig_0>
-47.1049

>  <SCORE.INTRA.VDW>
-1.40197

>  <SCORE.INTRA.VDW.0>
-1.50278

>  <SCORE.INTRA.norm>
-0.000773002

>  <SCORE.RESTR>
2.92247

>  <SCORE.RESTR.CAVITY>
2.92247

>  <SCORE.RESTR.norm>
0.10824

>  <SCORE.SYSTEM>
0

>  <SCORE.SYSTEM.CONST>
0

>  <SCORE.SYSTEM.DIHEDRAL>
0

>  <SCORE.SYSTEM.SOLV>
0

>  <SCORE.SYSTEM.norm>
0

>  <SCORE.heavy>
27

>  <SCORE.norm>
-0.0314545

>  <RMSD>
35.751

$$$$
ligand
 OpenBabel11021811433D
libRbt.so/2013.1/901 2013/11/27
 27 29  0  0  0  0  0  0  0  0999 V2000
   37.8953   31.2161   13.5182 N   0  0  0  0  0  0  0  0  0  0  0  0
   39.0228   30.4916   14.1130 C   0  0  2  0  0  0  0  0  0  0  0  0
   39.8883   29.9083   13.0103 C   0  0  0  0  0  0  0  0  0  0  0  0
   41.0606   29.6224   13.2372 O   0  0  0  0  0  0  0  0  0  0  0  0
   38.5223   29.3636   15.0372 C   0  0  0  0  0  0  0  0  0  0  0  0
   39.7240   28.6498   15.6544 C   0  0  0  0  0  0  0  0  0  0  0  0
   39.3348   27.5396   17.0687 S   0  0  2  0  0  0  0  0  0  0  0  0
   40.1149   28.3526   18.4978 C   0  0  0  0  0  0  0  0  0  0  0  0
   40.5628   26.2800   16.6636 C   0  0  0  0  0  0  0  0  0  0  0  0
   40.1150   25.3099   15.5566 C   0  0  1  0  0  0  0  0  0  0  0  0
   39.7766   26.0741   14.3615 O   0  0  0  0  0  0  0  0  0  0  0  0
   41.3864   24.5696   15.2297 C   0  0  1  0  0  0  0  0  0  0  0  0
   41.4229   23.3321   15.9411 O   0  0  0  0  0  0  0  0  0  0  0  0
   41.2915   24.3174   13.7300 C   0  0  1  0  0  0  0  0  0  0  0  0
   40.7911   23.0185   13.4352 O   0  0  0  0  0  0  0  0  0  0  0  0
   40.3319   25.4238   13.1580 C   0  0  2  0  0  0  0  0  0  0  0  0
   39.4386   29.7795   11.8714 O   0  0  0  0  0  0  0  0  0  0  0  0
   40.4412   28.6454    9.0118 N   0  0  0  0  0  0  0  0  0  0  0  0
   39.5191   27.7227    9.3077 C   0  0  0  0  0  0  0  0  0  0  0  0
   39.6085   26.9881   10.4052 N   0  0  0  0  0  0  0  0  0  0  0  0
   40.6448   27.1154   11.2502 C   0  0  0  0  0  0  0  0  0  0  0  0
   41.6558   28.0709   10.9720 C   0  0  0  0  0  0  0  0  0  0  0  0
   41.5115   28.8507    9.7967 C   0  0  0  0  0  0  0  0  0  0  0  0
   42.4516   29.7999    9.4634 N   0  0  0  0  0  0  0  0  0  0  0  0
   42.5680   27.9931   11.9614 N   0  0  0  0  0  0  0  0  0  0  0  0
   42.2037   27.0723   12.8050 C   0  0  0  0  0  0  0  0  0  0  0  0
   41.0226   26.5016   12.4195 N   0  0  0  0  0  0  0  0  0  0  0  0
  2  1  1  6  0  0  0
  2  3  1  0  0  0  0
  2  5  1  0  0  0  0
  3  4  1  0  0  0  0
  3 17  1  0  0  0  0
  5  6  1  0  0  0  0
  7  6  1  6  0  0  0
  7  8  1  0  0  0  0
  7  9  1  0  0  0  0
 10  9  1  1  0  0  0
 10 11  1  0  0  0  0
 10 12  1  0  0  0  0
 11 16  1  0  0  0  0
 12 13  1  1  0  0  0
 12 14  1  0  0  0  0
 14 15  1  1  0  0  0
 14 16  1  0  0  0  0
 16 27  1  6  0  0  0
 18 19  2  0  0  0  0
 18 23  1  0  0  0  0
 19 20  1  0  0  0  0
 20 21  2  0  0  0  0
 21 22  1  0  0  0  0
 21 27  1  0  0  0  0
 22 23  2  0  0  0  0
 22 25  1  0  0  0  0
 23 24  1  0  0  0  0
 25 26  2  0  0  0  0
 26 27  1  0  0  0  0
M  END
>  <CHROM.1>
158.06962632,-179.04310341,166.56090810,-112.93474115,-80.30498399,56.96376932
-107.77625463,40.39060071,27.45715440,13.49343045,1.37919932,1.19944849,-0.93323007

>  <Name>
ligand

>  <RI>
0

>  <Rbt.Current_Directory>
/home/itssahil/PROJECTS/Mol_Feturizer/New_Systems/rnas/2GIS

>  <Rbt.Executable>
rbdock ($Id: //depot/dev/client3/rdock/2013.1/src/exe/rbdock.cxx#4 $)

>  <Rbt.Library>
libRbt.so (2013.1, Build901 2013/11/27)

>  <Rbt.Parameter_File>
/export/apps/rDock/src/rDock_2013.1_src/data/scripts/dock_solv.prm

>  <Rbt.Receptor>
prm/blind_docking_60.prm

>  <SCORE>
-8.08402

>  <SCORE.INTER>
-5.2114

>  <SCORE.INTER.CONST>
1

>  <SCORE.INTER.POLAR>
0

>  <SCORE.INTER.ROT>
7

>  <SCORE.INTER.SOLV>
15.6525

>  <SCORE.INTER.VDW>
-16.9584

>  <SCORE.INTER.norm>
-0.193015

>  <SCORE.INTRA>
-4.59183

>  <SCORE.INTRA.DIHEDRAL>
-1.22369

>  <SCORE.INTRA.DIHEDRAL.0>
9.40024

>  <SCORE.INTRA.POLAR>
0

>  <SCORE.INTRA.POLAR.0>
0

>  <SCORE.INTRA.REPUL>
0

>  <SCORE.INTRA.REPUL.0>
0

>  <SCORE.INTRA.SOLV>
-2.83733

>  <SCORE.INTRA.SOLV.lig_0>
-47.1049

>  <SCORE.INTRA.VDW>
-2.56133

>  <SCORE.INTRA.VDW.0>
-1.50278

>  <SCORE.INTRA.norm>
-0.170068

>  <SCORE.RESTR>
1.71922

>  <SCORE.RESTR.CAVITY>
1.71922

>  <SCORE.RESTR.norm>
0.0636746

>  <SCORE.SYSTEM>
0

>  <SCORE.SYSTEM.CONST>
0

>  <SCORE.SYSTEM.DIHEDRAL>
0

>  <SCORE.SYSTEM.SOLV>
0

>  <SCORE.SYSTEM.norm>
0

>  <SCORE.heavy>
27

>  <SCORE.norm>
-0.299408

>  <RMSD>
35.791

$$$$
ligand
 OpenBabel11021811433D
libRbt.so/2013.1/901 2013/11/27
 27 29  0  0  0  0  0  0  0  0999 V2000
   41.8399   25.8929   13.9447 N   0  0  0  0  0  0  0  0  0  0  0  0
   41.5281   24.4774   14.1664 C   0  0  2  0  0  0  0  0  0  0  0  0
   40.1877   24.1489   13.5333 C   0  0  0  0  0  0  0  0  0  0  0  0
   39.3051   25.0012   13.4889 O   0  0  0  0  0  0  0  0  0  0  0  0
   41.4879   24.1553   15.6736 C   0  0  0  0  0  0  0  0  0  0  0  0
   40.4104   25.0087   16.3409 C   0  0  0  0  0  0  0  0  0  0  0  0
   40.8325   26.7880   16.5418 S   0  0  2  0  0  0  0  0  0  0  0  0
   40.0019   27.2684   18.0882 C   0  0  0  0  0  0  0  0  0  0  0  0
   39.6653   27.3994   15.3078 C   0  0  0  0  0  0  0  0  0  0  0  0
   39.5695   28.9339   15.2509 C   0  0  1  0  0  0  0  0  0  0  0  0
   40.5256   29.4350   14.2702 O   0  0  0  0  0  0  0  0  0  0  0  0
   38.2047   29.1594   14.6527 C   0  0  1  0  0  0  0  0  0  0  0  0
   37.2541   29.3970   15.6912 O   0  0  0  0  0  0  0  0  0  0  0  0
   38.3786   30.4075   13.7962 C   0  0  1  0  0  0  0  0  0  0  0  0
   37.9661   31.5869   14.4769 O   0  0  0  0  0  0  0  0  0  0  0  0
   39.9068   30.4826   13.4340 C   0  0  2  0  0  0  0  0  0  0  0  0
   39.9587   23.0117   13.1208 O   0  0  0  0  0  0  0  0  0  0  0  0
   39.8686   26.7974    9.6924 N   0  0  0  0  0  0  0  0  0  0  0  0
   39.4404   26.6870   10.9548 C   0  0  0  0  0  0  0  0  0  0  0  0
   39.4930   27.7116   11.7912 N   0  0  0  0  0  0  0  0  0  0  0  0
   40.0082   28.8945   11.4174 C   0  0  0  0  0  0  0  0  0  0  0  0
   40.4885   29.0565   10.0925 C   0  0  0  0  0  0  0  0  0  0  0  0
   40.3954   27.9403    9.2232 C   0  0  0  0  0  0  0  0  0  0  0  0
   40.8385   28.0239    7.9223 N   0  0  0  0  0  0  0  0  0  0  0  0
   40.9492   30.3184    9.9815 N   0  0  0  0  0  0  0  0  0  0  0  0
   40.7986   30.9283   11.1207 C   0  0  0  0  0  0  0  0  0  0  0  0
   40.2185   30.1002   12.0409 N   0  0  0  0  0  0  0  0  0  0  0  0
  2  1  1  1  0  0  0
  2  3  1  0  0  0  0
  2  5  1  0  0  0  0
  3  4  1  0  0  0  0
  3 17  1  0  0  0  0
  5  6  1  0  0  0  0
  7  6  1  1  0  0  0
  7  8  1  0  0  0  0
  7  9  1  0  0  0  0
 10  9  1  6  0  0  0
 10 11  1  0  0  0  0
 10 12  1  0  0  0  0
 11 16  1  0  0  0  0
 12 13  1  1  0  0  0
 12 14  1  0  0  0  0
 14 15  1  1  0  0  0
 14 16  1  0  0  0  0
 16 27  1  6  0  0  0
 18 19  2  0  0  0  0
 18 23  1  0  0  0  0
 19 20  1  0  0  0  0
 20 21  2  0  0  0  0
 21 22  1  0  0  0  0
 21 27  1  0  0  0  0
 22 23  2  0  0  0  0
 22 25  1  0  0  0  0
 23 24  1  0  0  0  0
 25 26  2  0  0  0  0
 26 27  1  0  0  0  0
M  END
>  <CHROM.1>
-32.42478335,60.11817422,-73.59232047,-147.09309391,173.47214607,91.34709761
52.02141669,39.99531285,27.67591224,13.43210558,-1.41540203,1.28640627,-1.11511572

>  <Name>
ligand

>  <RI>
0

>  <Rbt.Current_Directory>
/home/itssahil/PROJECTS/Mol_Feturizer/New_Systems/rnas/2GIS

>  <Rbt.Executable>
rbdock ($Id: //depot/dev/client3/rdock/2013.1/src/exe/rbdock.cxx#4 $)

>  <Rbt.Library>
libRbt.so (2013.1, Build901 2013/11/27)

>  <Rbt.Parameter_File>
/export/apps/rDock/src/rDock_2013.1_src/data/scripts/dock_solv.prm

>  <Rbt.Receptor>
prm/blind_docking_60.prm

>  <SCORE>
5.57513

>  <SCORE.INTER>
1.62688

>  <SCORE.INTER.CONST>
1

>  <SCORE.INTER.POLAR>
0

>  <SCORE.INTER.ROT>
7

>  <SCORE.INTER.SOLV>
13.4171

>  <SCORE.INTER.VDW>
-11.6545

>  <SCORE.INTER.norm>
0.0602547

>  <SCORE.INTRA>
-0.430677

>  <SCORE.INTRA.DIHEDRAL>
0.427892

>  <SCORE.INTRA.DIHEDRAL.0>
9.40024

>  <SCORE.INTRA.POLAR>
0

>  <SCORE.INTRA.POLAR.0>
0

>  <SCORE.INTRA.REPUL>
0.205053

>  <SCORE.INTRA.REPUL.0>
0

>  <SCORE.INTRA.SOLV>
0.982818

>  <SCORE.INTRA.SOLV.lig_0>
-47.1049

>  <SCORE.INTRA.VDW>
-2.1613

>  <SCORE.INTRA.VDW.0>
-1.50278

>  <SCORE.INTRA.norm>
-0.015951

>  <SCORE.RESTR>
4.37893

>  <SCORE.RESTR.CAVITY>
4.37893

>  <SCORE.RESTR.norm>
0.162183

>  <SCORE.SYSTEM>
0

>  <SCORE.SYSTEM.CONST>
0

>  <SCORE.SYSTEM.DIHEDRAL>
0

>  <SCORE.SYSTEM.SOLV>
0

>  <SCORE.SYSTEM.norm>
0

>  <SCORE.heavy>
27

>  <SCORE.norm>
0.206486

>  <RMSD>
35.808

$$$$
ligand
 OpenBabel11021811433D
libRbt.so/2013.1/901 2013/11/27
 27 29  0  0  0  0  0  0  0  0999 V2000
   38.1527   31.5923   13.8916 N   0  0  0  0  0  0  0  0  0  0  0  0
   39.0908   30.4955   14.1505 C   0  0  2  0  0  0  0  0  0  0  0  0
   39.2001   29.6203   12.9146 C   0  0  0  0  0  0  0  0  0  0  0  0
   39.7255   30.0604   11.8959 O   0  0  0  0  0  0  0  0  0  0  0  0
   38.6249   29.6487   15.3517 C   0  0  0  0  0  0  0  0  0  0  0  0
   39.6810   28.5878   15.6578 C   0  0  0  0  0  0  0  0  0  0  0  0
   39.3085   27.5033   17.0964 S   0  0  2  0  0  0  0  0  0  0  0  0
   40.0982   28.3462   18.5028 C   0  0  0  0  0  0  0  0  0  0  0  0
   40.5376   26.2406   16.7043 C   0  0  0  0  0  0  0  0  0  0  0  0
   40.1008   25.2740   15.5899 C   0  0  1  0  0  0  0  0  0  0  0  0
   39.7428   26.0442   14.4044 O   0  0  0  0  0  0  0  0  0  0  0  0
   41.3829   24.5591   15.2491 C   0  0  1  0  0  0  0  0  0  0  0  0
   41.4445   23.3154   15.9478 O   0  0  0  0  0  0  0  0  0  0  0  0
   41.2845   24.3202   13.7474 C   0  0  1  0  0  0  0  0  0  0  0  0
   40.8049   23.0159   13.4422 O   0  0  0  0  0  0  0  0  0  0  0  0
   40.3030   25.4156   13.1916 C   0  0  2  0  0  0  0  0  0  0  0  0
   38.7075   28.4920   12.9080 O   0  0  0  0  0  0  0  0  0  0  0  0
   40.3662   28.6399    9.0466 N   0  0  0  0  0  0  0  0  0  0  0  0
   39.4672   27.6918    9.3327 C   0  0  0  0  0  0  0  0  0  0  0  0
   39.5654   26.9596   10.4311 N   0  0  0  0  0  0  0  0  0  0  0  0
   40.5887   27.1157   11.2871 C   0  0  0  0  0  0  0  0  0  0  0  0
   41.5754   28.0992   11.0197 C   0  0  0  0  0  0  0  0  0  0  0  0
   41.4219   28.8749    9.8429 C   0  0  0  0  0  0  0  0  0  0  0  0
   42.3386   29.8501    9.5195 N   0  0  0  0  0  0  0  0  0  0  0  0
   42.4789   28.0467   12.0187 N   0  0  0  0  0  0  0  0  0  0  0  0
   42.1315   27.1158   12.8584 C   0  0  0  0  0  0  0  0  0  0  0  0
   40.9710   26.5125   12.4604 N   0  0  0  0  0  0  0  0  0  0  0  0
  2  1  1  6  0  0  0
  2  3  1  0  0  0  0
  2  5  1  0  0  0  0
  3  4  1  0  0  0  0
  3 17  1  0  0  0  0
  5  6  1  0  0  0  0
  7  6  1  6  0  0  0
  7  8  1  0  0  0  0
  7  9  1  0  0  0  0
 10  9  1  1  0  0  0
 10 11  1  0  0  0  0
 10 12  1  0  0  0  0
 11 16  1  0  0  0  0
 12 13  1  1  0  0  0
 12 14  1  0  0  0  0
 14 15  1  1  0  0  0
 14 16  1  0  0  0  0
 16 27  1  6  0  0  0
 18 19  2  0  0  0  0
 18 23  1  0  0  0  0
 19 20  1  0  0  0  0
 20 21  2  0  0  0  0
 21 22  1  0  0  0  0
 21 27  1  0  0  0  0
 22 23  2  0  0  0  0
 22 25  1  0  0  0  0
 23 24  1  0  0  0  0
 25 26  2  0  0  0  0
 26 27  1  0  0  0  0
M  END
>  <CHROM.1>
67.88076908,-175.56072459,178.62436139,-91.92438590,-78.54411646,55.34782440
-109.01074662,40.26882991,27.43163600,13.52792276,1.44462296,1.18551601,-0.99332795

>  <Name>
ligand

>  <RI>
0

>  <Rbt.Current_Directory>
/home/itssahil/PROJECTS/Mol_Feturizer/New_Systems/rnas/2GIS

>  <Rbt.Executable>
rbdock ($Id: //depot/dev/client3/rdock/2013.1/src/exe/rbdock.cxx#4 $)

>  <Rbt.Library>
libRbt.so (2013.1, Build901 2013/11/27)

>  <Rbt.Parameter_File>
/export/apps/rDock/src/rDock_2013.1_src/data/scripts/dock_solv.prm

>  <Rbt.Receptor>
prm/blind_docking_60.prm

>  <SCORE>
-8.05264

>  <SCORE.INTER>
-4.35061

>  <SCORE.INTER.CONST>
1

>  <SCORE.INTER.POLAR>
0

>  <SCORE.INTER.ROT>
7

>  <SCORE.INTER.SOLV>
15.351

>  <SCORE.INTER.VDW>
-16.2841

>  <SCORE.INTER.norm>
-0.161134

>  <SCORE.INTRA>
-5.70054

>  <SCORE.INTRA.DIHEDRAL>
-4.28075

>  <SCORE.INTRA.DIHEDRAL.0>
9.40024

>  <SCORE.INTRA.POLAR>
0

>  <SCORE.INTRA.POLAR.0>
0

>  <SCORE.INTRA.REPUL>
0

>  <SCORE.INTRA.REPUL.0>
0

>  <SCORE.INTRA.SOLV>
-2.51784

>  <SCORE.INTRA.SOLV.lig_0>
-47.1049

>  <SCORE.INTRA.VDW>
-2.30125

>  <SCORE.INTRA.VDW.0>
-1.50278

>  <SCORE.INTRA.norm>
-0.211131

>  <SCORE.RESTR>
1.99851

>  <SCORE.RESTR.CAVITY>
1.99851

>  <SCORE.RESTR.norm>
0.0740189

>  <SCORE.SYSTEM>
0

>  <SCORE.SYSTEM.CONST>
0

>  <SCORE.SYSTEM.DIHEDRAL>
0

>  <SCORE.SYSTEM.SOLV>
0

>  <SCORE.SYSTEM.norm>
0

>  <SCORE.heavy>
27

>  <SCORE.norm>
-0.298246

>  <RMSD>
35.813

$$$$
ligand
 OpenBabel11021811433D
libRbt.so/2013.1/901 2013/11/27
 27 29  0  0  0  0  0  0  0  0999 V2000
   40.4635   22.7202   15.8422 N   0  0  0  0  0  0  0  0  0  0  0  0
   41.2987   23.9063   16.0557 C   0  0  2  0  0  0  0  0  0  0  0  0
   40.5205   24.9367   16.8544 C   0  0  0  0  0  0  0  0  0  0  0  0
   41.1183   25.8146   17.4703 O   0  0  0  0  0  0  0  0  0  0  0  0
   41.7418   24.5134   14.7096 C   0  0  0  0  0  0  0  0  0  0  0  0
   40.5069   24.7943   13.8548 C   0  0  0  0  0  0  0  0  0  0  0  0
   40.2812   26.5509   13.3570 S   0  0  2  0  0  0  0  0  0  0  0  0
   41.9535   27.0977   12.8914 C   0  0  0  0  0  0  0  0  0  0  0  0
   40.1479   27.2067   15.0336 C   0  0  0  0  0  0  0  0  0  0  0  0
   39.7916   28.7024   15.0884 C   0  0  1  0  0  0  0  0  0  0  0  0
   40.6474   29.4306   14.1589 O   0  0  0  0  0  0  0  0  0  0  0  0
   38.4078   28.7361   14.4922 C   0  0  1  0  0  0  0  0  0  0  0  0
   37.4313   28.7304   15.5338 O   0  0  0  0  0  0  0  0  0  0  0  0
   38.3655   30.0559   13.7318 C   0  0  1  0  0  0  0  0  0  0  0  0
   37.7582   31.0937   14.4924 O   0  0  0  0  0  0  0  0  0  0  0  0
   39.8582   30.4169   13.3945 C   0  0  2  0  0  0  0  0  0  0  0  0
   39.2947   24.8587   16.9397 O   0  0  0  0  0  0  0  0  0  0  0  0
   39.8592   27.2427    9.2105 N   0  0  0  0  0  0  0  0  0  0  0  0
   39.3561   26.9962   10.4251 C   0  0  0  0  0  0  0  0  0  0  0  0
   39.4092   27.9024   11.3886 N   0  0  0  0  0  0  0  0  0  0  0  0
   39.9990   29.0939   11.1970 C   0  0  0  0  0  0  0  0  0  0  0  0
   40.5600   29.3966    9.9298 C   0  0  0  0  0  0  0  0  0  0  0  0
   40.4641   28.4061    8.9199 C   0  0  0  0  0  0  0  0  0  0  0  0
   40.9830   28.6302    7.6644 N   0  0  0  0  0  0  0  0  0  0  0  0
   41.0843   30.6362   10.0061 N   0  0  0  0  0  0  0  0  0  0  0  0
   40.8983   31.1039   11.2056 C   0  0  0  0  0  0  0  0  0  0  0  0
   40.2296   30.1980   11.9809 N   0  0  0  0  0  0  0  0  0  0  0  0
  2  1  1  6  0  0  0
  2  3  1  0  0  0  0
  2  5  1  0  0  0  0
  3  4  1  0  0  0  0
  3 17  1  0  0  0  0
  5  6  1  0  0  0  0
  7  6  1  1  0  0  0
  7  8  1  0  0  0  0
  7  9  1  0  0  0  0
 10  9  1  6  0  0  0
 10 11  1  0  0  0  0
 10 12  1  0  0  0  0
 11 16  1  0  0  0  0
 12 13  1  1  0  0  0
 12 14  1  0  0  0  0
 14 15  1  1  0  0  0
 14 16  1  0  0  0  0
 16 27  1  6  0  0  0
 18 19  2  0  0  0  0
 18 23  1  0  0  0  0
 19 20  1  0  0  0  0
 20 21  2  0  0  0  0
 21 22  1  0  0  0  0
 21 27  1  0  0  0  0
 22 23  2  0  0  0  0
 22 25  1  0  0  0  0
 23 24  1  0  0  0  0
 25 26  2  0  0  0  0
 26 27  1  0  0  0  0
M  END
>  <CHROM.1>
158.95536777,54.72777829,120.76041624,42.40379408,-173.87604352,-47.36584384
65.35877502,40.08288496,27.67036853,13.28787964,-1.50424187,1.15732340,-0.96983237

>  <Name>
ligand

>  <RI>
0

>  <Rbt.Current_Directory>
/home/itssahil/PROJECTS/Mol_Feturizer/New_Systems/rnas/2GIS

>  <Rbt.Executable>
rbdock ($Id: //depot/dev/client3/rdock/2013.1/src/exe/rbdock.cxx#4 $)

>  <Rbt.Library>
libRbt.so (2013.1, Build901 2013/11/27)

>  <Rbt.Parameter_File>
/export/apps/rDock/src/rDock_2013.1_src/data/scripts/dock_solv.prm

>  <Rbt.Receptor>
prm/blind_docking_60.prm

>  <SCORE>
9.09294

>  <SCORE.INTER>
3.00561

>  <SCORE.INTER.CONST>
1

>  <SCORE.INTER.POLAR>
0

>  <SCORE.INTER.ROT>
7

>  <SCORE.INTER.SOLV>
14.0338

>  <SCORE.INTER.VDW>
-10.9409

>  <SCORE.INTER.norm>
0.111319

>  <SCORE.INTRA>
1.61925

>  <SCORE.INTRA.DIHEDRAL>
0.847285

>  <SCORE.INTRA.DIHEDRAL.0>
9.40024

>  <SCORE.INTRA.POLAR>
0

>  <SCORE.INTRA.POLAR.0>
0

>  <SCORE.INTRA.REPUL>
0

>  <SCORE.INTRA.REPUL.0>
0

>  <SCORE.INTRA.SOLV>
-1.7946

>  <SCORE.INTRA.SOLV.lig_0>
-47.1049

>  <SCORE.INTRA.VDW>
2.09291

>  <SCORE.INTRA.VDW.0>
-1.50278

>  <SCORE.INTRA.norm>
0.0599722

>  <SCORE.RESTR>
4.46809

>  <SCORE.RESTR.CAVITY>
4.46809

>  <SCORE.RESTR.norm>
0.165485

>  <SCORE.SYSTEM>
0

>  <SCORE.SYSTEM.CONST>
0

>  <SCORE.SYSTEM.DIHEDRAL>
0

>  <SCORE.SYSTEM.SOLV>
0

>  <SCORE.SYSTEM.norm>
0

>  <SCORE.heavy>
27

>  <SCORE.norm>
0.336776

>  <RMSD>
35.816

$$$$
ligand
 OpenBabel11021811433D
libRbt.so/2013.1/901 2013/11/27
 27 29  0  0  0  0  0  0  0  0999 V2000
   40.5001   22.7160   15.8715 N   0  0  0  0  0  0  0  0  0  0  0  0
   41.3295   23.9107   16.0577 C   0  0  2  0  0  0  0  0  0  0  0  0
   40.5614   24.9390   16.8688 C   0  0  0  0  0  0  0  0  0  0  0  0
   39.3340   24.9146   16.8855 O   0  0  0  0  0  0  0  0  0  0  0  0
   41.7344   24.5135   14.6977 C   0  0  0  0  0  0  0  0  0  0  0  0
   40.4749   24.8120   13.8858 C   0  0  0  0  0  0  0  0  0  0  0  0
   40.2748   26.5651   13.3655 S   0  0  2  0  0  0  0  0  0  0  0  0
   41.9500   27.0735   12.8682 C   0  0  0  0  0  0  0  0  0  0  0  0
   40.1780   27.2474   15.0339 C   0  0  0  0  0  0  0  0  0  0  0  0
   39.7816   28.7335   15.0748 C   0  0  1  0  0  0  0  0  0  0  0  0
   40.6209   29.4764   14.1418 O   0  0  0  0  0  0  0  0  0  0  0  0
   38.3996   28.7250   14.4736 C   0  0  1  0  0  0  0  0  0  0  0  0
   37.4198   28.7020   15.5120 O   0  0  0  0  0  0  0  0  0  0  0  0
   38.3247   30.0366   13.7018 C   0  0  1  0  0  0  0  0  0  0  0  0
   37.6872   31.0643   14.4514 O   0  0  0  0  0  0  0  0  0  0  0  0
   39.8084   30.4346   13.3664 C   0  0  2  0  0  0  0  0  0  0  0  0
   41.1616   25.8370   17.4598 O   0  0  0  0  0  0  0  0  0  0  0  0
   39.8522   27.2498    9.1907 N   0  0  0  0  0  0  0  0  0  0  0  0
   39.3416   27.0043   10.4023 C   0  0  0  0  0  0  0  0  0  0  0  0
   39.3841   27.9131   11.3638 N   0  0  0  0  0  0  0  0  0  0  0  0
   39.9701   29.1067   11.1733 C   0  0  0  0  0  0  0  0  0  0  0  0
   40.5387   29.4086    9.9092 C   0  0  0  0  0  0  0  0  0  0  0  0
   40.4541   28.4151    8.9013 C   0  0  0  0  0  0  0  0  0  0  0  0
   40.9808   28.6382    7.6488 N   0  0  0  0  0  0  0  0  0  0  0  0
   41.0571   30.6505    9.9860 N   0  0  0  0  0  0  0  0  0  0  0  0
   40.8608   31.1206   11.1830 C   0  0  0  0  0  0  0  0  0  0  0  0
   40.1906   30.2137   11.9560 N   0  0  0  0  0  0  0  0  0  0  0  0
  2  1  1  6  0  0  0
  2  3  1  0  0  0  0
  2  5  1  0  0  0  0
  3  4  1  0  0  0  0
  3 17  1  0  0  0  0
  5  6  1  0  0  0  0
  7  6  1  1  0  0  0
  7  8  1  0  0  0  0
  7  9  1  0  0  0  0
 10  9  1  6  0  0  0
 10 11  1  0  0  0  0
 10 12  1  0  0  0  0
 11 16  1  0  0  0  0
 12 13  1  1  0  0  0
 12 14  1  0  0  0  0
 14 15  1  1  0  0  0
 14 16  1  0  0  0  0
 16 27  1  6  0  0  0
 18 19  2  0  0  0  0
 18 23  1  0  0  0  0
 19 20  1  0  0  0  0
 20 21  2  0  0  0  0
 21 22  1  0  0  0  0
 21 27  1  0  0  0  0
 22 23  2  0  0  0  0
 22 25  1  0  0  0  0
 23 24  1  0  0  0  0
 25 26  2  0  0  0  0
 26 27  1  0  0  0  0
M  END
>  <CHROM.1>
-23.92352750,56.19266784,122.05542095,40.95240752,-170.99017846,-49.52149711
66.70697656,40.07371851,27.67991456,13.27389558,-1.48577161,1.14905897,-0.98679862

>  <Name>
ligand

>  <RI>
0

>  <Rbt.Current_Directory>
/home/itssahil/PROJECTS/Mol_Feturizer/New_Systems/rnas/2GIS

>  <Rbt.Executable>
rbdock ($Id: //depot/dev/client3/rdock/2013.1/src/exe/rbdock.cxx#4 $)

>  <Rbt.Library>
libRbt.so (2013.1, Build901 2013/11/27)

>  <Rbt.Parameter_File>
/export/apps/rDock/src/rDock_2013.1_src/data/scripts/dock_solv.prm

>  <Rbt.Receptor>
prm/blind_docking_60.prm

>  <SCORE>
8.44307

>  <SCORE.INTER>
3.14367

>  <SCORE.INTER.CONST>
1

>  <SCORE.INTER.POLAR>
0

>  <SCORE.INTER.ROT>
7

>  <SCORE.INTER.SOLV>
14.1384

>  <SCORE.INTER.VDW>
-10.8837

>  <SCORE.INTER.norm>
0.116432

>  <SCORE.INTRA>
0.723149

>  <SCORE.INTRA.DIHEDRAL>
0.700854

>  <SCORE.INTRA.DIHEDRAL.0>
9.40024

>  <SCORE.INTRA.POLAR>
0

>  <SCORE.INTRA.POLAR.0>
0

>  <SCORE.INTRA.REPUL>
0

>  <SCORE.INTRA.REPUL.0>
0

>  <SCORE.INTRA.SOLV>
-1.87712

>  <SCORE.INTRA.SOLV.lig_0>
-47.1049

>  <SCORE.INTRA.VDW>
1.31128

>  <SCORE.INTRA.VDW.0>
-1.50278

>  <SCORE.INTRA.norm>
0.0267833

>  <SCORE.RESTR>
4.57625

>  <SCORE.RESTR.CAVITY>
4.57625

>  <SCORE.RESTR.norm>
0.169491

>  <SCORE.SYSTEM>
0

>  <SCORE.SYSTEM.CONST>
0

>  <SCORE.SYSTEM.DIHEDRAL>
0

>  <SCORE.SYSTEM.SOLV>
0

>  <SCORE.SYSTEM.norm>
0

>  <SCORE.heavy>
27

>  <SCORE.norm>
0.312706

>  <RMSD>
35.818

$$$$
ligand
 OpenBabel11021811433D
libRbt.so/2013.1/901 2013/11/27
 27 29  0  0  0  0  0  0  0  0999 V2000
   40.4784   24.2811   12.8757 N   0  0  0  0  0  0  0  0  0  0  0  0
   40.9606   24.8091   14.1558 C   0  0  2  0  0  0  0  0  0  0  0  0
   41.0435   23.6819   15.1696 C   0  0  0  0  0  0  0  0  0  0  0  0
   40.5133   22.6008   14.9295 O   0  0  0  0  0  0  0  0  0  0  0  0
   40.0234   25.9158   14.6793 C   0  0  0  0  0  0  0  0  0  0  0  0
   40.7296   26.6859   15.7941 C   0  0  0  0  0  0  0  0  0  0  0  0
   39.6881   27.9199   16.6756 S   0  0  2  0  0  0  0  0  0  0  0  0
   38.3286   26.9331   17.3754 C   0  0  0  0  0  0  0  0  0  0  0  0
   38.9079   28.5996   15.1964 C   0  0  0  0  0  0  0  0  0  0  0  0
   39.4311   29.9918   14.8026 C   0  0  1  0  0  0  0  0  0  0  0  0
   40.4560   29.8427   13.7758 O   0  0  0  0  0  0  0  0  0  0  0  0
   38.2416   30.6113   14.1151 C   0  0  1  0  0  0  0  0  0  0  0  0
   37.5203   31.4282   15.0376 O   0  0  0  0  0  0  0  0  0  0  0  0
   38.8559   31.4679   13.0148 C   0  0  1  0  0  0  0  0  0  0  0  0
   38.9853   32.8301   13.4050 O   0  0  0  0  0  0  0  0  0  0  0  0
   40.2657   30.8434   12.7070 C   0  0  2  0  0  0  0  0  0  0  0  0
   41.5857   23.8666   16.2595 O   0  0  0  0  0  0  0  0  0  0  0  0
   39.6199   26.2638   10.2187 N   0  0  0  0  0  0  0  0  0  0  0  0
   39.4308   26.5239   11.5170 C   0  0  0  0  0  0  0  0  0  0  0  0
   39.6146   27.7390   12.0090 N   0  0  0  0  0  0  0  0  0  0  0  0
   40.0298   28.7532   11.2323 C   0  0  0  0  0  0  0  0  0  0  0  0
   40.2577   28.5234    9.8512 C   0  0  0  0  0  0  0  0  0  0  0  0
   40.0300   27.2126    9.3611 C   0  0  0  0  0  0  0  0  0  0  0  0
   40.2272   26.9155    8.0313 N   0  0  0  0  0  0  0  0  0  0  0  0
   40.6656   29.6887    9.3100 N   0  0  0  0  0  0  0  0  0  0  0  0
   40.7127   30.5967   10.2403 C   0  0  0  0  0  0  0  0  0  0  0  0
   40.3262   30.0775   11.4445 N   0  0  0  0  0  0  0  0  0  0  0  0
  2  1  1  6  0  0  0
  2  3  1  0  0  0  0
  2  5  1  0  0  0  0
  3  4  1  0  0  0  0
  3 17  1  0  0  0  0
  5  6  1  0  0  0  0
  7  6  1  6  0  0  0
  7  8  1  0  0  0  0
  7  9  1  0  0  0  0
 10  9  1  6  0  0  0
 10 11  1  0  0  0  0
 10 12  1  0  0  0  0
 11 16  1  0  0  0  0
 12 13  1  1  0  0  0
 12 14  1  0  0  0  0
 14 15  1  1  0  0  0
 14 16  1  0  0  0  0
 16 27  1  6  0  0  0
 18 19  2  0  0  0  0
 18 23  1  0  0  0  0
 19 20  1  0  0  0  0
 20 21  2  0  0  0  0
 21 22  1  0  0  0  0
 21 27  1  0  0  0  0
 22 23  2  0  0  0  0
 22 25  1  0  0  0  0
 23 24  1  0  0  0  0
 25 26  2  0  0  0  0
 26 27  1  0  0  0  0
M  END
>  <CHROM.1>
-12.79098017,-165.23969944,-173.10436201,59.77407892,-105.91874449,96.83308238
26.30078494,39.86417840,27.94044033,13.34787526,-1.11123975,1.31061388,-1.06274782

>  <Name>
ligand

>  <RI>
0

>  <Rbt.Current_Directory>
/home/itssahil/PROJECTS/Mol_Feturizer/New_Systems/rnas/2GIS

>  <Rbt.Executable>
rbdock ($Id: //depot/dev/client3/rdock/2013.1/src/exe/rbdock.cxx#4 $)

>  <Rbt.Library>
libRbt.so (2013.1, Build901 2013/11/27)

>  <Rbt.Parameter_File>
/export/apps/rDock/src/rDock_2013.1_src/data/scripts/dock_solv.prm

>  <Rbt.Receptor>
prm/blind_docking_60.prm

>  <SCORE>
6.68398

>  <SCORE.INTER>
1.11641

>  <SCORE.INTER.CONST>
1

>  <SCORE.INTER.POLAR>
0

>  <SCORE.INTER.ROT>
7

>  <SCORE.INTER.SOLV>
10.5981

>  <SCORE.INTER.VDW>
-11.0551

>  <SCORE.INTER.norm>
0.0413484

>  <SCORE.INTRA>
-0.883873

>  <SCORE.INTRA.DIHEDRAL>
1.55431

>  <SCORE.INTRA.DIHEDRAL.0>
9.40024

>  <SCORE.INTRA.POLAR>
0

>  <SCORE.INTRA.POLAR.0>
0

>  <SCORE.INTRA.REPUL>
0

>  <SCORE.INTRA.REPUL.0>
0

>  <SCORE.INTRA.SOLV>
-1.81715

>  <SCORE.INTRA.SOLV.lig_0>
-47.1049

>  <SCORE.INTRA.VDW>
-0.75245

>  <SCORE.INTRA.VDW.0>
-1.50278

>  <SCORE.INTRA.norm>
-0.032736

>  <SCORE.RESTR>
6.45144

>  <SCORE.RESTR.CAVITY>
6.45144

>  <SCORE.RESTR.norm>
0.238942

>  <SCORE.SYSTEM>
0

>  <SCORE.SYSTEM.CONST>
0

>  <SCORE.SYSTEM.DIHEDRAL>
0

>  <SCORE.SYSTEM.SOLV>
0

>  <SCORE.SYSTEM.norm>
0

>  <SCORE.heavy>
27

>  <SCORE.norm>
0.247555

>  <RMSD>
35.823

$$$$
ligand
 OpenBabel11021811433D
libRbt.so/2013.1/901 2013/11/27
 27 29  0  0  0  0  0  0  0  0999 V2000
   41.6931   25.5279   14.0688 N   0  0  0  0  0  0  0  0  0  0  0  0
   41.5697   24.3006   14.8616 C   0  0  2  0  0  0  0  0  0  0  0  0
   40.7948   23.2622   14.0701 C   0  0  0  0  0  0  0  0  0  0  0  0
   39.9199   22.5992   14.6201 O   0  0  0  0  0  0  0  0  0  0  0  0
   40.8536   24.5817   16.1977 C   0  0  0  0  0  0  0  0  0  0  0  0
   39.8550   25.7215   16.0022 C   0  0  0  0  0  0  0  0  0  0  0  0
   40.5394   27.4125   16.2394 S   0  0  2  0  0  0  0  0  0  0  0  0
   40.2401   27.7687   17.9989 C   0  0  0  0  0  0  0  0  0  0  0  0
   39.1627   28.2841   15.4623 C   0  0  0  0  0  0  0  0  0  0  0  0
   39.4829   29.7417   15.0881 C   0  0  1  0  0  0  0  0  0  0  0  0
   40.4456   29.7519   13.9926 O   0  0  0  0  0  0  0  0  0  0  0  0
   38.1821   30.2275   14.5022 C   0  0  1  0  0  0  0  0  0  0  0  0
   37.4308   30.9206   15.4991 O   0  0  0  0  0  0  0  0  0  0  0  0
   38.6098   31.1859   13.3976 C   0  0  1  0  0  0  0  0  0  0  0  0
   38.5974   32.5416   13.8294 O   0  0  0  0  0  0  0  0  0  0  0  0
   40.0612   30.7518   12.9765 C   0  0  2  0  0  0  0  0  0  0  0  0
   41.0825   23.0367   12.8945 O   0  0  0  0  0  0  0  0  0  0  0  0
   39.8122   26.2022   10.3648 N   0  0  0  0  0  0  0  0  0  0  0  0
   39.6817   26.3987   11.6814 C   0  0  0  0  0  0  0  0  0  0  0  0
   39.7486   27.6123   12.2059 N   0  0  0  0  0  0  0  0  0  0  0  0
   39.9826   28.6926   11.4427 C   0  0  0  0  0  0  0  0  0  0  0  0
   40.1422   28.5335   10.0422 C   0  0  0  0  0  0  0  0  0  0  0  0
   40.0436   27.2194    9.5189 C   0  0  0  0  0  0  0  0  0  0  0  0
   40.1845   26.9882    8.1689 N   0  0  0  0  0  0  0  0  0  0  0  0
   40.3666   29.7558    9.5200 N   0  0  0  0  0  0  0  0  0  0  0  0
   40.3657   30.6351   10.4788 C   0  0  0  0  0  0  0  0  0  0  0  0
   40.1286   30.0367   11.6849 N   0  0  0  0  0  0  0  0  0  0  0  0
  2  1  1  6  0  0  0
  2  3  1  0  0  0  0
  2  5  1  0  0  0  0
  3  4  1  0  0  0  0
  3 17  1  0  0  0  0
  5  6  1  0  0  0  0
  7  6  1  1  0  0  0
  7  8  1  0  0  0  0
  7  9  1  0  0  0  0
 10  9  1  6  0  0  0
 10 11  1  0  0  0  0
 10 12  1  0  0  0  0
 11 16  1  0  0  0  0
 12 13  1  1  0  0  0
 12 14  1  0  0  0  0
 14 15  1  1  0  0  0
 14 16  1  0  0  0  0
 16 27  1  6  0  0  0
 18 19  2  0  0  0  0
 18 23  1  0  0  0  0
 19 20  1  0  0  0  0
 20 21  2  0  0  0  0
 21 22  1  0  0  0  0
 21 27  1  0  0  0  0
 22 23  2  0  0  0  0
 22 25  1  0  0  0  0
 23 24  1  0  0  0  0
 25 26  2  0  0  0  0
 26 27  1  0  0  0  0
M  END
>  <CHROM.1>
-136.00498369,31.19195107,-87.75405970,-91.69956166,-163.99204557,69.10785125
26.32984266,39.97610296,27.74063650,13.44195712,-0.64586144,1.32378715,-1.31996682

>  <Name>
ligand

>  <RI>
0

>  <Rbt.Current_Directory>
/home/itssahil/PROJECTS/Mol_Feturizer/New_Systems/rnas/2GIS

>  <Rbt.Executable>
rbdock ($Id: //depot/dev/client3/rdock/2013.1/src/exe/rbdock.cxx#4 $)

>  <Rbt.Library>
libRbt.so (2013.1, Build901 2013/11/27)

>  <Rbt.Parameter_File>
/export/apps/rDock/src/rDock_2013.1_src/data/scripts/dock_solv.prm

>  <Rbt.Receptor>
prm/blind_docking_60.prm

>  <SCORE>
4.72927

>  <SCORE.INTER>
-0.611725

>  <SCORE.INTER.CONST>
1

>  <SCORE.INTER.POLAR>
0

>  <SCORE.INTER.ROT>
7

>  <SCORE.INTER.SOLV>
13.6502

>  <SCORE.INTER.VDW>
-13.2245

>  <SCORE.INTER.norm>
-0.0226565

>  <SCORE.INTRA>
0.670887

>  <SCORE.INTRA.DIHEDRAL>
2.08971

>  <SCORE.INTRA.DIHEDRAL.0>
9.40024

>  <SCORE.INTRA.POLAR>
0

>  <SCORE.INTRA.POLAR.0>
0

>  <SCORE.INTRA.REPUL>
0.0291787

>  <SCORE.INTRA.REPUL.0>
0

>  <SCORE.INTRA.SOLV>
0.0932122

>  <SCORE.INTRA.SOLV.lig_0>
-47.1049

>  <SCORE.INTRA.VDW>
-0.566467

>  <SCORE.INTRA.VDW.0>
-1.50278

>  <SCORE.INTRA.norm>
0.0248477

>  <SCORE.RESTR>
4.67011

>  <SCORE.RESTR.CAVITY>
4.67011

>  <SCORE.RESTR.norm>
0.172967

>  <SCORE.SYSTEM>
0

>  <SCORE.SYSTEM.CONST>
0

>  <SCORE.SYSTEM.DIHEDRAL>
0

>  <SCORE.SYSTEM.SOLV>
0

>  <SCORE.SYSTEM.norm>
0

>  <SCORE.heavy>
27

>  <SCORE.norm>
0.175158

>  <RMSD>
35.857

$$$$
ligand
 OpenBabel11021811433D
libRbt.so/2013.1/901 2013/11/27
 27 29  0  0  0  0  0  0  0  0999 V2000
   38.5747   30.9981   15.0859 N   0  0  0  0  0  0  0  0  0  0  0  0
   39.2342   29.9013   14.3702 C   0  0  2  0  0  0  0  0  0  0  0  0
   38.7025   29.8315   12.9498 C   0  0  0  0  0  0  0  0  0  0  0  0
   37.7652   30.5480   12.6098 O   0  0  0  0  0  0  0  0  0  0  0  0
   38.9929   28.5573   15.0859 C   0  0  0  0  0  0  0  0  0  0  0  0
   39.6802   28.5845   16.4503 C   0  0  0  0  0  0  0  0  0  0  0  0
   39.3619   27.1203   17.5176 S   0  0  2  0  0  0  0  0  0  0  0  0
   40.1332   27.5550   19.1076 C   0  0  0  0  0  0  0  0  0  0  0  0
   40.6333   26.0706   16.7822 C   0  0  0  0  0  0  0  0  0  0  0  0
   40.1123   25.1615   15.6557 C   0  0  1  0  0  0  0  0  0  0  0  0
   39.7590   25.9841   14.5044 O   0  0  0  0  0  0  0  0  0  0  0  0
   41.3442   24.3920   15.2536 C   0  0  1  0  0  0  0  0  0  0  0  0
   41.3619   23.1265   15.9147 O   0  0  0  0  0  0  0  0  0  0  0  0
   41.1873   24.2035   13.7498 C   0  0  1  0  0  0  0  0  0  0  0  0
   40.6310   22.9352   13.4235 O   0  0  0  0  0  0  0  0  0  0  0  0
   40.2479   25.3640   13.2570 C   0  0  2  0  0  0  0  0  0  0  0  0
   39.1650   29.0138   12.1539 O   0  0  0  0  0  0  0  0  0  0  0  0
   40.5509   28.4508    9.0189 N   0  0  0  0  0  0  0  0  0  0  0  0
   39.6470   27.4988    9.2755 C   0  0  0  0  0  0  0  0  0  0  0  0
   39.6798   26.8049   10.4022 N   0  0  0  0  0  0  0  0  0  0  0  0
   40.6404   27.0048   11.3197 C   0  0  0  0  0  0  0  0  0  0  0  0
   41.6300   27.9939   11.0864 C   0  0  0  0  0  0  0  0  0  0  0  0
   41.5469   28.7280    9.8763 C   0  0  0  0  0  0  0  0  0  0  0  0
   42.4705   29.7060    9.5828 N   0  0  0  0  0  0  0  0  0  0  0  0
   42.4640   27.9882   12.1455 N   0  0  0  0  0  0  0  0  0  0  0  0
   42.0724   27.0802   12.9908 C   0  0  0  0  0  0  0  0  0  0  0  0
   40.9498   26.4464   12.5359 N   0  0  0  0  0  0  0  0  0  0  0  0
  2  1  1  1  0  0  0
  2  3  1  0  0  0  0
  2  5  1  0  0  0  0
  3  4  1  0  0  0  0
  3 17  1  0  0  0  0
  5  6  1  0  0  0  0
  7  6  1  6  0  0  0
  7  8  1  0  0  0  0
  7  9  1  0  0  0  0
 10  9  1  1  0  0  0
 10 11  1  0  0  0  0
 10 12  1  0  0  0  0
 11 16  1  0  0  0  0
 12 13  1  1  0  0  0
 12 14  1  0  0  0  0
 14 15  1  1  0  0  0
 14 16  1  0  0  0  0
 16 27  1  6  0  0  0
 18 19  2  0  0  0  0
 18 23  1  0  0  0  0
 19 20  1  0  0  0  0
 20 21  2  0  0  0  0
 21 22  1  0  0  0  0
 21 27  1  0  0  0  0
 22 23  2  0  0  0  0
 22 25  1  0  0  0  0
 23 24  1  0  0  0  0
 25 26  2  0  0  0  0
 26 27  1  0  0  0  0
M  END
>  <CHROM.1>
-6.56956967,-65.68470518,174.32224304,-173.21101802,-93.89979483,69.07745474
-116.73416081,40.24339776,27.26237900,13.67763043,1.73339486,-1.16739091
2.10666353

>  <Name>
ligand

>  <RI>
0

>  <Rbt.Current_Directory>
/home/itssahil/PROJECTS/Mol_Feturizer/New_Systems/rnas/2GIS

>  <Rbt.Executable>
rbdock ($Id: //depot/dev/client3/rdock/2013.1/src/exe/rbdock.cxx#4 $)

>  <Rbt.Library>
libRbt.so (2013.1, Build901 2013/11/27)

>  <Rbt.Parameter_File>
/export/apps/rDock/src/rDock_2013.1_src/data/scripts/dock_solv.prm

>  <Rbt.Receptor>
prm/blind_docking_60.prm

>  <SCORE>
-2.13524

>  <SCORE.INTER>
-1.00248

>  <SCORE.INTER.CONST>
1

>  <SCORE.INTER.POLAR>
0

>  <SCORE.INTER.ROT>
7

>  <SCORE.INTER.SOLV>
18.8128

>  <SCORE.INTER.VDW>
-15.2059

>  <SCORE.INTER.norm>
-0.037129

>  <SCORE.INTRA>
-4.51524

>  <SCORE.INTRA.DIHEDRAL>
-3.19166

>  <SCORE.INTRA.DIHEDRAL.0>
9.40024

>  <SCORE.INTRA.POLAR>
0

>  <SCORE.INTRA.POLAR.0>
0

>  <SCORE.INTRA.REPUL>
0

>  <SCORE.INTRA.REPUL.0>
0

>  <SCORE.INTRA.SOLV>
-2.23181

>  <SCORE.INTRA.SOLV.lig_0>
-47.1049

>  <SCORE.INTRA.VDW>
-1.8035

>  <SCORE.INTRA.VDW.0>
-1.50278

>  <SCORE.INTRA.norm>
-0.167231

>  <SCORE.RESTR>
3.38248

>  <SCORE.RESTR.CAVITY>
3.38248

>  <SCORE.RESTR.norm>
0.125277

>  <SCORE.SYSTEM>
0

>  <SCORE.SYSTEM.CONST>
0

>  <SCORE.SYSTEM.DIHEDRAL>
0

>  <SCORE.SYSTEM.SOLV>
0

>  <SCORE.SYSTEM.norm>
0

>  <SCORE.heavy>
27

>  <SCORE.norm>
-0.079083

>  <RMSD>
35.891

$$$$
ligand
 OpenBabel11021811433D
libRbt.so/2013.1/901 2013/11/27
 27 29  0  0  0  0  0  0  0  0999 V2000
   40.5113   22.7085   15.9546 N   0  0  0  0  0  0  0  0  0  0  0  0
   39.5634   23.6667   15.3772 C   0  0  2  0  0  0  0  0  0  0  0  0
   39.9737   23.9882   13.9512 C   0  0  0  0  0  0  0  0  0  0  0  0
   40.7879   23.2751   13.3716 O   0  0  0  0  0  0  0  0  0  0  0  0
   39.5165   24.9615   16.2128 C   0  0  0  0  0  0  0  0  0  0  0  0
   40.9044   25.6005   16.2269 C   0  0  0  0  0  0  0  0  0  0  0  0
   40.9347   27.4006   16.6052 S   0  0  2  0  0  0  0  0  0  0  0  0
   39.9945   27.5430   18.1570 C   0  0  0  0  0  0  0  0  0  0  0  0
   39.6854   27.8701   15.3896 C   0  0  0  0  0  0  0  0  0  0  0  0
   39.6076   29.3851   15.1330 C   0  0  1  0  0  0  0  0  0  0  0  0
   40.5150   29.7313   14.0450 O   0  0  0  0  0  0  0  0  0  0  0  0
   38.2151   29.5576   14.5831 C   0  0  1  0  0  0  0  0  0  0  0  0
   37.3265   29.9510   15.6292 O   0  0  0  0  0  0  0  0  0  0  0  0
   38.3586   30.6769   13.5592 C   0  0  1  0  0  0  0  0  0  0  0  0
   38.0005   31.9446   14.0969 O   0  0  0  0  0  0  0  0  0  0  0  0
   39.8654   30.6712   13.1100 C   0  0  2  0  0  0  0  0  0  0  0  0
   39.5418   24.9978   13.3942 O   0  0  0  0  0  0  0  0  0  0  0  0
   39.7333   26.4794    9.9489 N   0  0  0  0  0  0  0  0  0  0  0  0
   39.4019   26.5395   11.2433 C   0  0  0  0  0  0  0  0  0  0  0  0
   39.4660   27.6767   11.9178 N   0  0  0  0  0  0  0  0  0  0  0  0
   39.8971   28.8099   11.3398 C   0  0  0  0  0  0  0  0  0  0  0  0
   40.2735   28.7936    9.9722 C   0  0  0  0  0  0  0  0  0  0  0  0
   40.1711   27.5597    9.2815 C   0  0  0  0  0  0  0  0  0  0  0  0
   40.5158   27.4680    7.9516 N   0  0  0  0  0  0  0  0  0  0  0  0
   40.6654   30.0416    9.6464 N   0  0  0  0  0  0  0  0  0  0  0  0
   40.5679   30.8057   10.6947 C   0  0  0  0  0  0  0  0  0  0  0  0
   40.0945   30.1007   11.7661 N   0  0  0  0  0  0  0  0  0  0  0  0
  2  1  1  1  0  0  0
  2  3  1  0  0  0  0
  2  5  1  0  0  0  0
  3  4  1  0  0  0  0
  3 17  1  0  0  0  0
  5  6  1  0  0  0  0
  7  6  1  6  0  0  0
  7  8  1  0  0  0  0
  7  9  1  0  0  0  0
 10  9  1  6  0  0  0
 10 11  1  0  0  0  0
 10 12  1  0  0  0  0
 11 16  1  0  0  0  0
 12 13  1  1  0  0  0
 12 14  1  0  0  0  0
 14 15  1  1  0  0  0
 14 16  1  0  0  0  0
 16 27  1  6  0  0  0
 18 19  2  0  0  0  0
 18 23  1  0  0  0  0
 19 20  1  0  0  0  0
 20 21  2  0  0  0  0
 21 22  1  0  0  0  0
 21 27  1  0  0  0  0
 22 23  2  0  0  0  0
 22 25  1  0  0  0  0
 23 24  1  0  0  0  0
 25 26  2  0  0  0  0
 26 27  1  0  0  0  0
M  END
>  <CHROM.1>
14.95166980,60.54190496,158.08731877,52.65359099,-166.86024939,90.11508995
48.37890773,39.82122772,27.68823694,13.52202183,-1.30884505,1.37118596,-1.12179672

>  <Name>
ligand

>  <RI>
0

>  <Rbt.Current_Directory>
/home/itssahil/PROJECTS/Mol_Feturizer/New_Systems/rnas/2GIS

>  <Rbt.Executable>
rbdock ($Id: //depot/dev/client3/rdock/2013.1/src/exe/rbdock.cxx#4 $)

>  <Rbt.Library>
libRbt.so (2013.1, Build901 2013/11/27)

>  <Rbt.Parameter_File>
/export/apps/rDock/src/rDock_2013.1_src/data/scripts/dock_solv.prm

>  <Rbt.Receptor>
prm/blind_docking_60.prm

>  <SCORE>
6.43778

>  <SCORE.INTER>
3.61156

>  <SCORE.INTER.CONST>
1

>  <SCORE.INTER.POLAR>
0

>  <SCORE.INTER.ROT>
7

>  <SCORE.INTER.SOLV>
14.6813

>  <SCORE.INTER.VDW>
-10.7527

>  <SCORE.INTER.norm>
0.133762

>  <SCORE.INTRA>
-1.40529

>  <SCORE.INTRA.DIHEDRAL>
-0.780703

>  <SCORE.INTRA.DIHEDRAL.0>
9.40024

>  <SCORE.INTRA.POLAR>
0

>  <SCORE.INTRA.POLAR.0>
0

>  <SCORE.INTRA.REPUL>
0

>  <SCORE.INTRA.REPUL.0>
0

>  <SCORE.INTRA.SOLV>
-2.40835

>  <SCORE.INTRA.SOLV.lig_0>
-47.1049

>  <SCORE.INTRA.VDW>
0.189234

>  <SCORE.INTRA.VDW.0>
-1.50278

>  <SCORE.INTRA.norm>
-0.0520479

>  <SCORE.RESTR>
4.23151

>  <SCORE.RESTR.CAVITY>
4.23151

>  <SCORE.RESTR.norm>
0.156723

>  <SCORE.SYSTEM>
0

>  <SCORE.SYSTEM.CONST>
0

>  <SCORE.SYSTEM.DIHEDRAL>
0

>  <SCORE.SYSTEM.SOLV>
0

>  <SCORE.SYSTEM.norm>
0

>  <SCORE.heavy>
27

>  <SCORE.norm>
0.238436

>  <RMSD>
35.893

$$$$
ligand
 OpenBabel11021811433D
libRbt.so/2013.1/901 2013/11/27
 27 29  0  0  0  0  0  0  0  0999 V2000
   41.1766   23.4987   13.3513 N   0  0  0  0  0  0  0  0  0  0  0  0
   40.9768   23.9682   14.7259 C   0  0  2  0  0  0  0  0  0  0  0  0
   39.6685   23.4168   15.2643 C   0  0  0  0  0  0  0  0  0  0  0  0
   38.8362   22.9491   14.4923 O   0  0  0  0  0  0  0  0  0  0  0  0
   40.9573   25.5088   14.7808 C   0  0  0  0  0  0  0  0  0  0  0  0
   40.6478   25.9565   16.2085 C   0  0  0  0  0  0  0  0  0  0  0  0
   40.7988   27.7645   16.5132 S   0  0  2  0  0  0  0  0  0  0  0  0
   40.1065   27.9920   18.1808 C   0  0  0  0  0  0  0  0  0  0  0  0
   39.3998   28.2477   15.4797 C   0  0  0  0  0  0  0  0  0  0  0  0
   39.4116   29.7315   15.0734 C   0  0  1  0  0  0  0  0  0  0  0  0
   40.3016   29.9057   13.9313 O   0  0  0  0  0  0  0  0  0  0  0  0
   38.0152   29.9429   14.5475 C   0  0  1  0  0  0  0  0  0  0  0  0
   37.1904   30.4975   15.5726 O   0  0  0  0  0  0  0  0  0  0  0  0
   38.1957   30.9428   13.4120 C   0  0  1  0  0  0  0  0  0  0  0  0
   37.9391   32.2790   13.8283 O   0  0  0  0  0  0  0  0  0  0  0  0
   39.6826   30.7903   12.9242 C   0  0  2  0  0  0  0  0  0  0  0  0
   39.4105   23.4941   16.4656 O   0  0  0  0  0  0  0  0  0  0  0  0
   39.9645   26.2168   10.3581 N   0  0  0  0  0  0  0  0  0  0  0  0
   39.8184   26.4099   11.6735 C   0  0  0  0  0  0  0  0  0  0  0  0
   39.7428   27.6281   12.1858 N   0  0  0  0  0  0  0  0  0  0  0  0
   39.8422   28.7207   11.4108 C   0  0  0  0  0  0  0  0  0  0  0  0
   40.0122   28.5673   10.0109 C   0  0  0  0  0  0  0  0  0  0  0  0
   40.0683   27.2456    9.5009 C   0  0  0  0  0  0  0  0  0  0  0  0
   40.2286   27.0189    8.1523 N   0  0  0  0  0  0  0  0  0  0  0  0
   40.0863   29.8023    9.4755 N   0  0  0  0  0  0  0  0  0  0  0  0
   39.9856   30.6850   10.4258 C   0  0  0  0  0  0  0  0  0  0  0  0
   39.8280   30.0751   11.6391 N   0  0  0  0  0  0  0  0  0  0  0  0
  2  1  1  6  0  0  0
  2  3  1  0  0  0  0
  2  5  1  0  0  0  0
  3  4  1  0  0  0  0
  3 17  1  0  0  0  0
  5  6  1  0  0  0  0
  7  6  1  6  0  0  0
  7  8  1  0  0  0  0
  7  9  1  0  0  0  0
 10  9  1  6  0  0  0
 10 11  1  0  0  0  0
 10 12  1  0  0  0  0
 11 16  1  0  0  0  0
 12 13  1  1  0  0  0
 12 14  1  0  0  0  0
 14 15  1  1  0  0  0
 14 16  1  0  0  0  0
 16 27  1  6  0  0  0
 18 19  2  0  0  0  0
 18 23  1  0  0  0  0
 19 20  1  0  0  0  0
 20 21  2  0  0  0  0
 21 22  1  0  0  0  0
 21 27  1  0  0  0  0
 22 23  2  0  0  0  0
 22 25  1  0  0  0  0
 23 24  1  0  0  0  0
 25 26  2  0  0  0  0
 26 27  1  0  0  0  0
M  END
>  <CHROM.1>
-15.84902978,175.97306068,172.38537082,170.81004176,-161.41091275,81.72600067
31.35790951,39.74093548,27.74391592,13.56721934,-1.01810829,1.35726072,-1.22104665

>  <Name>
ligand

>  <RI>
0

>  <Rbt.Current_Directory>
/home/itssahil/PROJECTS/Mol_Feturizer/New_Systems/rnas/2GIS

>  <Rbt.Executable>
rbdock ($Id: //depot/dev/client3/rdock/2013.1/src/exe/rbdock.cxx#4 $)

>  <Rbt.Library>
libRbt.so (2013.1, Build901 2013/11/27)

>  <Rbt.Parameter_File>
/export/apps/rDock/src/rDock_2013.1_src/data/scripts/dock_solv.prm

>  <Rbt.Receptor>
prm/blind_docking_60.prm

>  <SCORE>
3.73439

>  <SCORE.INTER>
1.88534

>  <SCORE.INTER.CONST>
1

>  <SCORE.INTER.POLAR>
0

>  <SCORE.INTER.ROT>
7

>  <SCORE.INTER.SOLV>
13.2656

>  <SCORE.INTER.VDW>
-11.4316

>  <SCORE.INTER.norm>
0.0698273

>  <SCORE.INTRA>
-3.63907

>  <SCORE.INTRA.DIHEDRAL>
-2.778

>  <SCORE.INTRA.DIHEDRAL.0>
9.40024

>  <SCORE.INTRA.POLAR>
0

>  <SCORE.INTRA.POLAR.0>
0

>  <SCORE.INTRA.REPUL>
0

>  <SCORE.INTRA.REPUL.0>
0

>  <SCORE.INTRA.SOLV>
-2.90472

>  <SCORE.INTRA.SOLV.lig_0>
-47.1049

>  <SCORE.INTRA.VDW>
-0.797711

>  <SCORE.INTRA.VDW.0>
-1.50278

>  <SCORE.INTRA.norm>
-0.134781

>  <SCORE.RESTR>
5.48813

>  <SCORE.RESTR.CAVITY>
5.48813

>  <SCORE.RESTR.norm>
0.203264

>  <SCORE.SYSTEM>
0

>  <SCORE.SYSTEM.CONST>
0

>  <SCORE.SYSTEM.DIHEDRAL>
0

>  <SCORE.SYSTEM.SOLV>
0

>  <SCORE.SYSTEM.norm>
0

>  <SCORE.heavy>
27

>  <SCORE.norm>
0.138311

>  <RMSD>
35.896

$$$$
ligand
 OpenBabel11021811433D
libRbt.so/2013.1/901 2013/11/27
 27 29  0  0  0  0  0  0  0  0999 V2000
   38.9173   24.5360   13.3054 N   0  0  0  0  0  0  0  0  0  0  0  0
   40.0131   24.9056   14.2068 C   0  0  2  0  0  0  0  0  0  0  0  0
   41.2072   24.0041   13.9486 C   0  0  0  0  0  0  0  0  0  0  0  0
   41.0463   22.9120   13.4110 O   0  0  0  0  0  0  0  0  0  0  0  0
   39.5747   24.7842   15.6799 C   0  0  0  0  0  0  0  0  0  0  0  0
   40.7320   25.2049   16.5845 C   0  0  0  0  0  0  0  0  0  0  0  0
   40.8940   27.0167   16.8587 S   0  0  2  0  0  0  0  0  0  0  0  0
   39.7665   27.3573   18.2462 C   0  0  0  0  0  0  0  0  0  0  0  0
   39.8810   27.5124   15.4491 C   0  0  0  0  0  0  0  0  0  0  0  0
   39.7596   29.0365   15.2774 C   0  0  1  0  0  0  0  0  0  0  0  0
   40.6368   29.4654   14.1942 O   0  0  0  0  0  0  0  0  0  0  0  0
   38.3528   29.2015   14.7624 C   0  0  1  0  0  0  0  0  0  0  0  0
   37.4746   29.5136   15.8441 O   0  0  0  0  0  0  0  0  0  0  0  0
   38.4480   30.3783   13.7992 C   0  0  1  0  0  0  0  0  0  0  0  0
   38.0678   31.6049   14.4119 O   0  0  0  0  0  0  0  0  0  0  0  0
   39.9456   30.4372   13.3238 C   0  0  2  0  0  0  0  0  0  0  0  0
   42.3289   24.3351   14.3332 O   0  0  0  0  0  0  0  0  0  0  0  0
   39.7941   26.4371    9.9241 N   0  0  0  0  0  0  0  0  0  0  0  0
   39.4746   26.4204   11.2228 C   0  0  0  0  0  0  0  0  0  0  0  0
   39.5422   27.5164   11.9621 N   0  0  0  0  0  0  0  0  0  0  0  0
   39.9653   28.6827   11.4475 C   0  0  0  0  0  0  0  0  0  0  0  0
   40.3290   28.7476   10.0779 C   0  0  0  0  0  0  0  0  0  0  0  0
   40.2231   27.5558    9.3171 C   0  0  0  0  0  0  0  0  0  0  0  0
   40.5556   27.5432    7.9811 N   0  0  0  0  0  0  0  0  0  0  0  0
   40.7148   30.0136    9.8221 N   0  0  0  0  0  0  0  0  0  0  0  0
   40.6253   30.7148   10.9142 C   0  0  0  0  0  0  0  0  0  0  0  0
   40.1635   29.9469   11.9468 N   0  0  0  0  0  0  0  0  0  0  0  0
  2  1  1  6  0  0  0
  2  3  1  0  0  0  0
  2  5  1  0  0  0  0
  3  4  1  0  0  0  0
  3 17  1  0  0  0  0
  5  6  1  0  0  0  0
  7  6  1  6  0  0  0
  7  8  1  0  0  0  0
  7  9  1  0  0  0  0
 10  9  1  6  0  0  0
 10 11  1  0  0  0  0
 10 12  1  0  0  0  0
 11 16  1  0  0  0  0
 12 13  1  1  0  0  0
 12 14  1  0  0  0  0
 14 15  1  1  0  0  0
 14 16  1  0  0  0  0
 16 27  1  6  0  0  0
 18 19  2  0  0  0  0
 18 23  1  0  0  0  0
 19 20  1  0  0  0  0
 20 21  2  0  0  0  0
 21 22  1  0  0  0  0
 21 27  1  0  0  0  0
 22 23  2  0  0  0  0
 22 25  1  0  0  0  0
 23 24  1  0  0  0  0
 25 26  2  0  0  0  0
 26 27  1  0  0  0  0
M  END
>  <CHROM.1>
-21.86866245,-178.82862287,83.26781621,85.41945336,-179.04371050,102.78683172
49.84173776,39.98174250,27.57444121,13.53013042,-1.36880597,1.29343874,-1.23073663

>  <Name>
ligand

>  <RI>
0

>  <Rbt.Current_Directory>
/home/itssahil/PROJECTS/Mol_Feturizer/New_Systems/rnas/2GIS

>  <Rbt.Executable>
rbdock ($Id: //depot/dev/client3/rdock/2013.1/src/exe/rbdock.cxx#4 $)

>  <Rbt.Library>
libRbt.so (2013.1, Build901 2013/11/27)

>  <Rbt.Parameter_File>
/export/apps/rDock/src/rDock_2013.1_src/data/scripts/dock_solv.prm

>  <Rbt.Receptor>
prm/blind_docking_60.prm

>  <SCORE>
6.09696

>  <SCORE.INTER>
-1.62982

>  <SCORE.INTER.CONST>
1

>  <SCORE.INTER.POLAR>
0

>  <SCORE.INTER.ROT>
7

>  <SCORE.INTER.SOLV>
9.96646

>  <SCORE.INTER.VDW>
-12.6754

>  <SCORE.INTER.norm>
-0.0603636

>  <SCORE.INTRA>
3.19142

>  <SCORE.INTRA.DIHEDRAL>
2.36116

>  <SCORE.INTRA.DIHEDRAL.0>
9.40024

>  <SCORE.INTRA.POLAR>
0

>  <SCORE.INTRA.POLAR.0>
0

>  <SCORE.INTRA.REPUL>
0

>  <SCORE.INTRA.REPUL.0>
0

>  <SCORE.INTRA.SOLV>
-1.18982

>  <SCORE.INTRA.SOLV.lig_0>
-47.1049

>  <SCORE.INTRA.VDW>
2.60576

>  <SCORE.INTRA.VDW.0>
-1.50278

>  <SCORE.INTRA.norm>
0.118201

>  <SCORE.RESTR>
4.53536

>  <SCORE.RESTR.CAVITY>
4.53536

>  <SCORE.RESTR.norm>
0.167976

>  <SCORE.SYSTEM>
0

>  <SCORE.SYSTEM.CONST>
0

>  <SCORE.SYSTEM.DIHEDRAL>
0

>  <SCORE.SYSTEM.SOLV>
0

>  <SCORE.SYSTEM.norm>
0

>  <SCORE.heavy>
27

>  <SCORE.norm>
0.225813

>  <RMSD>
35.906

$$$$
ligand
 OpenBabel11021811433D
libRbt.so/2013.1/901 2013/11/27
 27 29  0  0  0  0  0  0  0  0999 V2000
   40.2682   22.6078   15.8760 N   0  0  0  0  0  0  0  0  0  0  0  0
   39.5005   23.7059   15.2804 C   0  0  2  0  0  0  0  0  0  0  0  0
   40.1592   24.1388   13.9827 C   0  0  0  0  0  0  0  0  0  0  0  0
   41.0940   23.4891   13.5229 O   0  0  0  0  0  0  0  0  0  0  0  0
   39.4156   24.9027   16.2487 C   0  0  0  0  0  0  0  0  0  0  0  0
   40.8279   25.3874   16.5729 C   0  0  0  0  0  0  0  0  0  0  0  0
   41.0124   27.2104   16.7376 S   0  0  2  0  0  0  0  0  0  0  0  0
   39.9762   27.6327   18.1729 C   0  0  0  0  0  0  0  0  0  0  0  0
   39.9137   27.6357   15.3699 C   0  0  0  0  0  0  0  0  0  0  0  0
   39.7299   29.1500   15.1692 C   0  0  1  0  0  0  0  0  0  0  0  0
   40.6008   29.5966   14.0880 O   0  0  0  0  0  0  0  0  0  0  0  0
   38.3235   29.2460   14.6361 C   0  0  1  0  0  0  0  0  0  0  0  0
   37.4204   29.5396   15.7024 O   0  0  0  0  0  0  0  0  0  0  0  0
   38.3801   30.4086   13.6528 C   0  0  1  0  0  0  0  0  0  0  0  0
   37.9413   31.6286   14.2389 O   0  0  0  0  0  0  0  0  0  0  0  0
   39.8792   30.5226   13.1926 C   0  0  2  0  0  0  0  0  0  0  0  0
   39.8022   25.1748   13.4214 O   0  0  0  0  0  0  0  0  0  0  0  0
   39.7747   26.4975    9.8208 N   0  0  0  0  0  0  0  0  0  0  0  0
   39.4134   26.4964   11.1086 C   0  0  0  0  0  0  0  0  0  0  0  0
   39.4743   27.5972   11.8412 N   0  0  0  0  0  0  0  0  0  0  0  0
   39.9318   28.7527   11.3315 C   0  0  0  0  0  0  0  0  0  0  0  0
   40.3404   28.8007    9.9739 C   0  0  0  0  0  0  0  0  0  0  0  0
   40.2404   27.6045    9.2193 C   0  0  0  0  0  0  0  0  0  0  0  0
   40.6154   27.5757    7.8949 N   0  0  0  0  0  0  0  0  0  0  0  0
   40.7539   30.0585    9.7210 N   0  0  0  0  0  0  0  0  0  0  0  0
   40.6403   30.7699   10.8041 C   0  0  0  0  0  0  0  0  0  0  0  0
   40.1337   30.0177   11.8272 N   0  0  0  0  0  0  0  0  0  0  0  0
  2  1  1  1  0  0  0
  2  3  1  0  0  0  0
  2  5  1  0  0  0  0
  3  4  1  0  0  0  0
  3 17  1  0  0  0  0
  5  6  1  0  0  0  0
  7  6  1  1  0  0  0
  7  8  1  0  0  0  0
  7  9  1  0  0  0  0
 10  9  1  6  0  0  0
 10 11  1  0  0  0  0
 10 12  1  0  0  0  0
 11 16  1  0  0  0  0
 12 13  1  1  0  0  0
 12 14  1  0  0  0  0
 14 15  1  1  0  0  0
 14 16  1  0  0  0  0
 16 27  1  6  0  0  0
 18 19  2  0  0  0  0
 18 23  1  0  0  0  0
 19 20  1  0  0  0  0
 20 21  2  0  0  0  0
 21 22  1  0  0  0  0
 21 27  1  0  0  0  0
 22 23  2  0  0  0  0
 22 25  1  0  0  0  0
 23 24  1  0  0  0  0
 25 26  2  0  0  0  0
 26 27  1  0  0  0  0
M  END
>  <CHROM.1>
7.63057918,59.41633264,142.71860158,63.68522147,178.00736915,99.22490595
53.41364253,39.87842975,27.60547294,13.56076861,-1.43791858,1.36320534,-1.09124391

>  <Name>
ligand

>  <RI>
0

>  <Rbt.Current_Directory>
/home/itssahil/PROJECTS/Mol_Feturizer/New_Systems/rnas/2GIS

>  <Rbt.Executable>
rbdock ($Id: //depot/dev/client3/rdock/2013.1/src/exe/rbdock.cxx#4 $)

>  <Rbt.Library>
libRbt.so (2013.1, Build901 2013/11/27)

>  <Rbt.Parameter_File>
/export/apps/rDock/src/rDock_2013.1_src/data/scripts/dock_solv.prm

>  <Rbt.Receptor>
prm/blind_docking_60.prm

>  <SCORE>
6.51619

>  <SCORE.INTER>
2.10574

>  <SCORE.INTER.CONST>
1

>  <SCORE.INTER.POLAR>
0

>  <SCORE.INTER.ROT>
7

>  <SCORE.INTER.SOLV>
14.1768

>  <SCORE.INTER.VDW>
-11.5884

>  <SCORE.INTER.norm>
0.0779903

>  <SCORE.INTRA>
0.0694916

>  <SCORE.INTRA.DIHEDRAL>
1.82469

>  <SCORE.INTRA.DIHEDRAL.0>
9.40024

>  <SCORE.INTRA.POLAR>
0

>  <SCORE.INTRA.POLAR.0>
0

>  <SCORE.INTRA.REPUL>
0

>  <SCORE.INTRA.REPUL.0>
0

>  <SCORE.INTRA.SOLV>
-2.31795

>  <SCORE.INTRA.SOLV.lig_0>
-47.1049

>  <SCORE.INTRA.VDW>
0.316117

>  <SCORE.INTRA.VDW.0>
-1.50278

>  <SCORE.INTRA.norm>
0.00257376

>  <SCORE.RESTR>
4.34097

>  <SCORE.RESTR.CAVITY>
4.34097

>  <SCORE.RESTR.norm>
0.160776

>  <SCORE.SYSTEM>
0

>  <SCORE.SYSTEM.CONST>
0

>  <SCORE.SYSTEM.DIHEDRAL>
0

>  <SCORE.SYSTEM.SOLV>
0

>  <SCORE.SYSTEM.norm>
0

>  <SCORE.heavy>
27

>  <SCORE.norm>
0.241341

>  <RMSD>
35.918

$$$$
ligand
 OpenBabel11021811433D
libRbt.so/2013.1/901 2013/11/27
 27 29  0  0  0  0  0  0  0  0999 V2000
   40.6842   30.0910   13.0481 N   0  0  0  0  0  0  0  0  0  0  0  0
   39.2656   30.0502   13.4168 C   0  0  2  0  0  0  0  0  0  0  0  0
   38.6176   31.3826   13.0850 C   0  0  0  0  0  0  0  0  0  0  0  0
   39.2351   32.2192   12.4321 O   0  0  0  0  0  0  0  0  0  0  0  0
   39.0990   29.7470   14.9192 C   0  0  0  0  0  0  0  0  0  0  0  0
   39.9974   28.5703   15.2967 C   0  0  0  0  0  0  0  0  0  0  0  0
   39.4030   27.5516   16.7085 S   0  0  2  0  0  0  0  0  0  0  0  0
   40.1681   28.3262   18.1668 C   0  0  0  0  0  0  0  0  0  0  0  0
   40.5174   26.1609   16.4204 C   0  0  0  0  0  0  0  0  0  0  0  0
   39.8699   24.9957   15.6521 C   0  0  1  0  0  0  0  0  0  0  0  0
   39.0508   25.5337   14.5721 O   0  0  0  0  0  0  0  0  0  0  0  0
   41.0524   24.3380   14.9882 C   0  0  1  0  0  0  0  0  0  0  0  0
   41.4964   23.2323   15.7749 O   0  0  0  0  0  0  0  0  0  0  0  0
   40.5030   23.8528   13.6524 C   0  0  1  0  0  0  0  0  0  0  0  0
   40.1217   22.4827   13.6952 O   0  0  0  0  0  0  0  0  0  0  0  0
   39.2624   24.7634   13.3305 C   0  0  2  0  0  0  0  0  0  0  0  0
   37.4989   31.6540   13.5216 O   0  0  0  0  0  0  0  0  0  0  0  0
   42.4848   28.3540   11.2556 N   0  0  0  0  0  0  0  0  0  0  0  0
   42.6965   27.5883   12.3317 C   0  0  0  0  0  0  0  0  0  0  0  0
   41.7974   26.7043   12.7346 N   0  0  0  0  0  0  0  0  0  0  0  0
   40.6222   26.5620   12.0997 C   0  0  0  0  0  0  0  0  0  0  0  0
   40.3454   27.3618   10.9612 C   0  0  0  0  0  0  0  0  0  0  0  0
   41.3433   28.2820   10.5515 C   0  0  0  0  0  0  0  0  0  0  0  0
   41.1465   29.0893    9.4537 N   0  0  0  0  0  0  0  0  0  0  0  0
   39.1155   27.0275   10.5224 N   0  0  0  0  0  0  0  0  0  0  0  0
   38.6228   26.1063   11.2975 C   0  0  0  0  0  0  0  0  0  0  0  0
   39.5103   25.7769   12.2838 N   0  0  0  0  0  0  0  0  0  0  0  0
  2  1  1  1  0  0  0
  2  3  1  0  0  0  0
  2  5  1  0  0  0  0
  3  4  1  0  0  0  0
  3 17  1  0  0  0  0
  5  6  1  0  0  0  0
  7  6  1  6  0  0  0
  7  8  1  0  0  0  0
  7  9  1  0  0  0  0
 10  9  1  1  0  0  0
 10 11  1  0  0  0  0
 10 12  1  0  0  0  0
 11 16  1  0  0  0  0
 12 13  1  1  0  0  0
 12 14  1  0  0  0  0
 14 15  1  1  0  0  0
 14 16  1  0  0  0  0
 16 27  1  6  0  0  0
 18 19  2  0  0  0  0
 18 23  1  0  0  0  0
 19 20  1  0  0  0  0
 20 21  2  0  0  0  0
 21 22  1  0  0  0  0
 21 27  1  0  0  0  0
 22 23  2  0  0  0  0
 22 25  1  0  0  0  0
 23 24  1  0  0  0  0
 25 26  2  0  0  0  0
 26 27  1  0  0  0  0
M  END
>  <CHROM.1>
9.35004881,-47.00769861,-151.60695638,-90.89085596,-98.20875650,41.81678755
72.05975824,40.07475716,27.33638694,13.63581932,2.04430625,1.29872883,-0.85212338

>  <Name>
ligand

>  <RI>
0

>  <Rbt.Current_Directory>
/home/itssahil/PROJECTS/Mol_Feturizer/New_Systems/rnas/2GIS

>  <Rbt.Executable>
rbdock ($Id: //depot/dev/client3/rdock/2013.1/src/exe/rbdock.cxx#4 $)

>  <Rbt.Library>
libRbt.so (2013.1, Build901 2013/11/27)

>  <Rbt.Parameter_File>
/export/apps/rDock/src/rDock_2013.1_src/data/scripts/dock_solv.prm

>  <Rbt.Receptor>
prm/blind_docking_60.prm

>  <SCORE>
3.66999

>  <SCORE.INTER>
0.509983

>  <SCORE.INTER.CONST>
1

>  <SCORE.INTER.POLAR>
0

>  <SCORE.INTER.ROT>
7

>  <SCORE.INTER.SOLV>
13.9

>  <SCORE.INTER.VDW>
-12.56

>  <SCORE.INTER.norm>
0.0188883

>  <SCORE.INTRA>
-1.36337

>  <SCORE.INTRA.DIHEDRAL>
1.73326

>  <SCORE.INTRA.DIHEDRAL.0>
9.40024

>  <SCORE.INTRA.POLAR>
0

>  <SCORE.INTRA.POLAR.0>
0

>  <SCORE.INTRA.REPUL>
0

>  <SCORE.INTRA.REPUL.0>
0

>  <SCORE.INTRA.SOLV>
1.06844

>  <SCORE.INTRA.SOLV.lig_0>
-47.1049

>  <SCORE.INTRA.VDW>
-2.76423

>  <SCORE.INTRA.VDW.0>
-1.50278

>  <SCORE.INTRA.norm>
-0.0504953

>  <SCORE.RESTR>
4.52338

>  <SCORE.RESTR.CAVITY>
4.52338

>  <SCORE.RESTR.norm>
0.167532

>  <SCORE.SYSTEM>
0

>  <SCORE.SYSTEM.CONST>
0

>  <SCORE.SYSTEM.DIHEDRAL>
0

>  <SCORE.SYSTEM.SOLV>
0

>  <SCORE.SYSTEM.norm>
0

>  <SCORE.heavy>
27

>  <SCORE.norm>
0.135925

>  <RMSD>
35.928

$$$$
ligand
 OpenBabel11021811433D
libRbt.so/2013.1/901 2013/11/27
 27 29  0  0  0  0  0  0  0  0999 V2000
   39.3389   24.6173   14.0710 N   0  0  0  0  0  0  0  0  0  0  0  0
   40.6741   24.8293   14.6388 C   0  0  2  0  0  0  0  0  0  0  0  0
   41.6936   24.0292   13.8478 C   0  0  0  0  0  0  0  0  0  0  0  0
   41.3174   23.1904   13.0339 O   0  0  0  0  0  0  0  0  0  0  0  0
   40.7123   24.4058   16.1207 C   0  0  0  0  0  0  0  0  0  0  0  0
   40.0540   25.4917   16.9704 C   0  0  0  0  0  0  0  0  0  0  0  0
   40.7600   27.1787   16.7710 S   0  0  2  0  0  0  0  0  0  0  0  0
   40.0885   28.1098   18.1832 C   0  0  0  0  0  0  0  0  0  0  0  0
   39.6476   27.6936   15.4458 C   0  0  0  0  0  0  0  0  0  0  0  0
   39.6852   29.2041   15.1557 C   0  0  1  0  0  0  0  0  0  0  0  0
   40.5612   29.4488   14.0157 O   0  0  0  0  0  0  0  0  0  0  0  0
   38.2857   29.4841   14.6715 C   0  0  1  0  0  0  0  0  0  0  0  0
   37.4888   29.9736   15.7503 O   0  0  0  0  0  0  0  0  0  0  0  0
   38.4704   30.5656   13.6142 C   0  0  1  0  0  0  0  0  0  0  0  0
   38.2490   31.8702   14.1372 O   0  0  0  0  0  0  0  0  0  0  0  0
   39.9461   30.4215   13.0910 C   0  0  2  0  0  0  0  0  0  0  0  0
   42.8972   24.1722   14.0640 O   0  0  0  0  0  0  0  0  0  0  0  0
   39.7588   26.0864   10.1324 N   0  0  0  0  0  0  0  0  0  0  0  0
   39.5801   26.1838   11.4544 C   0  0  0  0  0  0  0  0  0  0  0  0
   39.6371   27.3532   12.0720 N   0  0  0  0  0  0  0  0  0  0  0  0
   39.9087   28.4857   11.4027 C   0  0  0  0  0  0  0  0  0  0  0  0
   40.1199   28.4316   10.0010 C   0  0  0  0  0  0  0  0  0  0  0  0
   40.0304   27.1623    9.3757 C   0  0  0  0  0  0  0  0  0  0  0  0
   40.2203   27.0327    8.0182 N   0  0  0  0  0  0  0  0  0  0  0  0
   40.3739   29.6875    9.5823 N   0  0  0  0  0  0  0  0  0  0  0  0
   40.3439   30.4914   10.6046 C   0  0  0  0  0  0  0  0  0  0  0  0
   40.0565   29.8059   11.7520 N   0  0  0  0  0  0  0  0  0  0  0  0
  2  1  1  6  0  0  0
  2  3  1  0  0  0  0
  2  5  1  0  0  0  0
  3  4  1  0  0  0  0
  3 17  1  0  0  0  0
  5  6  1  0  0  0  0
  7  6  1  1  0  0  0
  7  8  1  0  0  0  0
  7  9  1  0  0  0  0
 10  9  1  6  0  0  0
 10 11  1  0  0  0  0
 10 12  1  0  0  0  0
 11 16  1  0  0  0  0
 12 13  1  1  0  0  0
 12 14  1  0  0  0  0
 14 15  1  1  0  0  0
 14 16  1  0  0  0  0
 16 27  1  6  0  0  0
 18 19  2  0  0  0  0
 18 23  1  0  0  0  0
 19 20  1  0  0  0  0
 20 21  2  0  0  0  0
 21 22  1  0  0  0  0
 21 27  1  0  0  0  0
 22 23  2  0  0  0  0
 22 25  1  0  0  0  0
 23 24  1  0  0  0  0
 25 26  2  0  0  0  0
 26 27  1  0  0  0  0
M  END
>  <CHROM.1>
-11.20920274,-77.50995735,-55.28693944,-165.72646617,167.34784612,97.95734080
38.34141618,40.03328762,27.58004840,13.51175647,-1.16696121,1.23620483,-1.42312994

>  <Name>
ligand

>  <RI>
0

>  <Rbt.Current_Directory>
/home/itssahil/PROJECTS/Mol_Feturizer/New_Systems/rnas/2GIS

>  <Rbt.Executable>
rbdock ($Id: //depot/dev/client3/rdock/2013.1/src/exe/rbdock.cxx#4 $)

>  <Rbt.Library>
libRbt.so (2013.1, Build901 2013/11/27)

>  <Rbt.Parameter_File>
/export/apps/rDock/src/rDock_2013.1_src/data/scripts/dock_solv.prm

>  <Rbt.Receptor>
prm/blind_docking_60.prm

>  <SCORE>
0.227781

>  <SCORE.INTER>
-1.64946

>  <SCORE.INTER.CONST>
1

>  <SCORE.INTER.POLAR>
0

>  <SCORE.INTER.ROT>
7

>  <SCORE.INTER.SOLV>
10.2741

>  <SCORE.INTER.VDW>
-12.791

>  <SCORE.INTER.norm>
-0.0610912

>  <SCORE.INTRA>
-2.32886

>  <SCORE.INTRA.DIHEDRAL>
-0.0364196

>  <SCORE.INTRA.DIHEDRAL.0>
9.40024

>  <SCORE.INTRA.POLAR>
0

>  <SCORE.INTRA.POLAR.0>
0

>  <SCORE.INTRA.REPUL>
0

>  <SCORE.INTRA.REPUL.0>
0

>  <SCORE.INTRA.SOLV>
-0.157375

>  <SCORE.INTRA.SOLV.lig_0>
-47.1049

>  <SCORE.INTRA.VDW>
-2.23196

>  <SCORE.INTRA.VDW.0>
-1.50278

>  <SCORE.INTRA.norm>
-0.0862541

>  <SCORE.RESTR>
4.2061

>  <SCORE.RESTR.CAVITY>
4.2061

>  <SCORE.RESTR.norm>
0.155782

>  <SCORE.SYSTEM>
0

>  <SCORE.SYSTEM.CONST>
0

>  <SCORE.SYSTEM.DIHEDRAL>
0

>  <SCORE.SYSTEM.SOLV>
0

>  <SCORE.SYSTEM.norm>
0

>  <SCORE.heavy>
27

>  <SCORE.norm>
0.00843634

>  <RMSD>
35.937

$$$$
ligand
 OpenBabel11021811433D
libRbt.so/2013.1/901 2013/11/27
 27 29  0  0  0  0  0  0  0  0999 V2000
   40.4645   22.8157   15.9690 N   0  0  0  0  0  0  0  0  0  0  0  0
   39.8913   23.7437   14.9892 C   0  0  2  0  0  0  0  0  0  0  0  0
   40.8651   23.9314   13.8395 C   0  0  0  0  0  0  0  0  0  0  0  0
   40.5063   23.7015   12.6880 O   0  0  0  0  0  0  0  0  0  0  0  0
   39.5825   25.1062   15.6411 C   0  0  0  0  0  0  0  0  0  0  0  0
   40.8902   25.7547   16.0928 C   0  0  0  0  0  0  0  0  0  0  0  0
   40.7392   27.4859   16.6962 S   0  0  2  0  0  0  0  0  0  0  0  0
   39.6849   27.3498   18.1734 C   0  0  0  0  0  0  0  0  0  0  0  0
   39.5415   28.0153   15.4536 C   0  0  0  0  0  0  0  0  0  0  0  0
   39.6364   29.5088   15.0966 C   0  0  1  0  0  0  0  0  0  0  0  0
   40.5257   29.6696   13.9521 O   0  0  0  0  0  0  0  0  0  0  0  0
   38.2504   29.8183   14.5921 C   0  0  1  0  0  0  0  0  0  0  0  0
   37.4676   30.3849   15.6433 O   0  0  0  0  0  0  0  0  0  0  0  0
   38.4796   30.8439   13.4888 C   0  0  1  0  0  0  0  0  0  0  0  0
   38.3047   32.1779   13.9518 O   0  0  0  0  0  0  0  0  0  0  0  0
   39.9511   30.6220   12.9813 C   0  0  2  0  0  0  0  0  0  0  0  0
   42.0328   24.2523   14.0619 O   0  0  0  0  0  0  0  0  0  0  0  0
   39.7209   26.1519   10.2341 N   0  0  0  0  0  0  0  0  0  0  0  0
   39.5586   26.3123   11.5521 C   0  0  0  0  0  0  0  0  0  0  0  0
   39.6249   27.5095   12.1128 N   0  0  0  0  0  0  0  0  0  0  0  0
   39.8902   28.6084   11.3872 C   0  0  0  0  0  0  0  0  0  0  0  0
   40.0841   28.4875    9.9872 C   0  0  0  0  0  0  0  0  0  0  0  0
   39.9850   27.1901    9.4240 C   0  0  0  0  0  0  0  0  0  0  0  0
   40.1582   26.9959    8.0720 N   0  0  0  0  0  0  0  0  0  0  0  0
   40.3350   29.7216    9.5064 N   0  0  0  0  0  0  0  0  0  0  0  0
   40.3187   30.5731   10.4897 C   0  0  0  0  0  0  0  0  0  0  0  0
   40.0442   29.9434   11.6717 N   0  0  0  0  0  0  0  0  0  0  0  0
  2  1  1  1  0  0  0
  2  3  1  0  0  0  0
  2  5  1  0  0  0  0
  3  4  1  0  0  0  0
  3 17  1  0  0  0  0
  5  6  1  0  0  0  0
  7  6  1  6  0  0  0
  7  8  1  0  0  0  0
  7  9  1  0  0  0  0
 10  9  1  6  0  0  0
 10 11  1  0  0  0  0
 10 12  1  0  0  0  0
 11 16  1  0  0  0  0
 12 13  1  1  0  0  0
 12 14  1  0  0  0  0
 14 15  1  1  0  0  0
 14 16  1  0  0  0  0
 16 27  1  6  0  0  0
 18 19  2  0  0  0  0
 18 23  1  0  0  0  0
 19 20  1  0  0  0  0
 20 21  2  0  0  0  0
 21 22  1  0  0  0  0
 21 27  1  0  0  0  0
 22 23  2  0  0  0  0
 22 25  1  0  0  0  0
 23 24  1  0  0  0  0
 25 26  2  0  0  0  0
 26 27  1  0  0  0  0
M  END
>  <CHROM.1>
123.93042511,64.49161183,172.36087871,63.51609533,-150.26705389,92.39611716
36.08952854,39.90904808,27.64396865,13.49645571,-1.00898991,1.32251850,-1.32270883

>  <Name>
ligand

>  <RI>
0

>  <Rbt.Current_Directory>
/home/itssahil/PROJECTS/Mol_Feturizer/New_Systems/rnas/2GIS

>  <Rbt.Executable>
rbdock ($Id: //depot/dev/client3/rdock/2013.1/src/exe/rbdock.cxx#4 $)

>  <Rbt.Library>
libRbt.so (2013.1, Build901 2013/11/27)

>  <Rbt.Parameter_File>
/export/apps/rDock/src/rDock_2013.1_src/data/scripts/dock_solv.prm

>  <Rbt.Receptor>
prm/blind_docking_60.prm

>  <SCORE>
5.56304

>  <SCORE.INTER>
1.46742

>  <SCORE.INTER.CONST>
1

>  <SCORE.INTER.POLAR>
0

>  <SCORE.INTER.ROT>
7

>  <SCORE.INTER.SOLV>
14.3059

>  <SCORE.INTER.VDW>
-12.057

>  <SCORE.INTER.norm>
0.0543488

>  <SCORE.INTRA>
-0.562585

>  <SCORE.INTRA.DIHEDRAL>
0.406133

>  <SCORE.INTRA.DIHEDRAL.0>
9.40024

>  <SCORE.INTRA.POLAR>
0

>  <SCORE.INTRA.POLAR.0>
0

>  <SCORE.INTRA.REPUL>
0

>  <SCORE.INTRA.REPUL.0>
0

>  <SCORE.INTRA.SOLV>
-2.46025

>  <SCORE.INTRA.SOLV.lig_0>
-47.1049

>  <SCORE.INTRA.VDW>
0.464473

>  <SCORE.INTRA.VDW.0>
-1.50278

>  <SCORE.INTRA.norm>
-0.0208365

>  <SCORE.RESTR>
4.65821

>  <SCORE.RESTR.CAVITY>
4.65821

>  <SCORE.RESTR.norm>
0.172526

>  <SCORE.SYSTEM>
0

>  <SCORE.SYSTEM.CONST>
0

>  <SCORE.SYSTEM.DIHEDRAL>
0

>  <SCORE.SYSTEM.SOLV>
0

>  <SCORE.SYSTEM.norm>
0

>  <SCORE.heavy>
27

>  <SCORE.norm>
0.206039

>  <RMSD>
35.945

$$$$
ligand
 OpenBabel11021811433D
libRbt.so/2013.1/901 2013/11/27
 27 29  0  0  0  0  0  0  0  0999 V2000
   37.9177   31.6849   13.7589 N   0  0  0  0  0  0  0  0  0  0  0  0
   38.9737   30.7113   14.0536 C   0  0  2  0  0  0  0  0  0  0  0  0
   39.2065   29.8329   12.8372 C   0  0  0  0  0  0  0  0  0  0  0  0
   38.5620   28.7974   12.6960 O   0  0  0  0  0  0  0  0  0  0  0  0
   38.5902   29.8373   15.2644 C   0  0  0  0  0  0  0  0  0  0  0  0
   39.6739   28.7832   15.4862 C   0  0  0  0  0  0  0  0  0  0  0  0
   39.3543   27.6087   16.8656 S   0  0  2  0  0  0  0  0  0  0  0  0
   40.1532   28.3867   18.3038 C   0  0  0  0  0  0  0  0  0  0  0  0
   40.6030   26.3999   16.3774 C   0  0  0  0  0  0  0  0  0  0  0  0
   40.0269   25.1698   15.6549 C   0  0  1  0  0  0  0  0  0  0  0  0
   39.1746   25.6166   14.5591 O   0  0  0  0  0  0  0  0  0  0  0  0
   41.2463   24.5617   15.0109 C   0  0  1  0  0  0  0  0  0  0  0  0
   41.7585   23.5149   15.8358 O   0  0  0  0  0  0  0  0  0  0  0  0
   40.7256   23.9950   13.6959 C   0  0  1  0  0  0  0  0  0  0  0  0
   40.4290   22.6066   13.7903 O   0  0  0  0  0  0  0  0  0  0  0  0
   39.4309   24.8156   13.3456 C   0  0  2  0  0  0  0  0  0  0  0  0
   40.0838   30.1210   12.0228 O   0  0  0  0  0  0  0  0  0  0  0  0
   42.4617   28.4568   11.0791 N   0  0  0  0  0  0  0  0  0  0  0  0
   42.7282   27.7352   12.1733 C   0  0  0  0  0  0  0  0  0  0  0  0
   41.8739   26.8312   12.6261 N   0  0  0  0  0  0  0  0  0  0  0  0
   40.6906   26.6237   12.0253 C   0  0  0  0  0  0  0  0  0  0  0  0
   40.3562   27.3748   10.8693 C   0  0  0  0  0  0  0  0  0  0  0  0
   41.3076   28.3185   10.4062 C   0  0  0  0  0  0  0  0  0  0  0  0
   41.0539   29.0815    9.2885 N   0  0  0  0  0  0  0  0  0  0  0  0
   39.1302   26.9798   10.4718 N   0  0  0  0  0  0  0  0  0  0  0  0
   38.6920   26.0662   11.2876 C   0  0  0  0  0  0  0  0  0  0  0  0
   39.6147   25.8031   12.2616 N   0  0  0  0  0  0  0  0  0  0  0  0
  2  1  1  6  0  0  0
  2  3  1  0  0  0  0
  2  5  1  0  0  0  0
  3  4  1  0  0  0  0
  3 17  1  0  0  0  0
  5  6  1  0  0  0  0
  7  6  1  6  0  0  0
  7  8  1  0  0  0  0
  7  9  1  0  0  0  0
 10  9  1  1  0  0  0
 10 11  1  0  0  0  0
 10 12  1  0  0  0  0
 11 16  1  0  0  0  0
 12 13  1  1  0  0  0
 12 14  1  0  0  0  0
 14 15  1  1  0  0  0
 14 16  1  0  0  0  0
 16 27  1  6  0  0  0
 18 19  2  0  0  0  0
 18 23  1  0  0  0  0
 19 20  1  0  0  0  0
 20 21  2  0  0  0  0
 21 22  1  0  0  0  0
 21 27  1  0  0  0  0
 22 23  2  0  0  0  0
 22 25  1  0  0  0  0
 23 24  1  0  0  0  0
 25 26  2  0  0  0  0
 26 27  1  0  0  0  0
M  END
>  <CHROM.1>
-89.45441260,176.59769132,-178.09920456,-91.79168983,-101.48092608,51.52388622
73.86824118,40.09130034,27.24508482,13.63530314,1.81992772,1.25829075,-0.98024114

>  <Name>
ligand

>  <RI>
0

>  <Rbt.Current_Directory>
/home/itssahil/PROJECTS/Mol_Feturizer/New_Systems/rnas/2GIS

>  <Rbt.Executable>
rbdock ($Id: //depot/dev/client3/rdock/2013.1/src/exe/rbdock.cxx#4 $)

>  <Rbt.Library>
libRbt.so (2013.1, Build901 2013/11/27)

>  <Rbt.Parameter_File>
/export/apps/rDock/src/rDock_2013.1_src/data/scripts/dock_solv.prm

>  <Rbt.Receptor>
prm/blind_docking_60.prm

>  <SCORE>
-3.1828

>  <SCORE.INTER>
-1.7159

>  <SCORE.INTER.CONST>
1

>  <SCORE.INTER.POLAR>
0

>  <SCORE.INTER.ROT>
7

>  <SCORE.INTER.SOLV>
10.6831

>  <SCORE.INTER.VDW>
-12.9716

>  <SCORE.INTER.norm>
-0.063552

>  <SCORE.INTRA>
-4.96449

>  <SCORE.INTRA.DIHEDRAL>
-1.63307

>  <SCORE.INTRA.DIHEDRAL.0>
9.40024

>  <SCORE.INTRA.POLAR>
0

>  <SCORE.INTRA.POLAR.0>
0

>  <SCORE.INTRA.REPUL>
0

>  <SCORE.INTRA.REPUL.0>
0

>  <SCORE.INTRA.SOLV>
-2.21474

>  <SCORE.INTRA.SOLV.lig_0>
-47.1049

>  <SCORE.INTRA.VDW>
-3.04058

>  <SCORE.INTRA.VDW.0>
-1.50278

>  <SCORE.INTRA.norm>
-0.18387

>  <SCORE.RESTR>
3.49759

>  <SCORE.RESTR.CAVITY>
3.49759

>  <SCORE.RESTR.norm>
0.12954

>  <SCORE.SYSTEM>
0

>  <SCORE.SYSTEM.CONST>
0

>  <SCORE.SYSTEM.DIHEDRAL>
0

>  <SCORE.SYSTEM.SOLV>
0

>  <SCORE.SYSTEM.norm>
0

>  <SCORE.heavy>
27

>  <SCORE.norm>
-0.117882

>  <RMSD>
35.992

$$$$
ligand
 OpenBabel11021811433D
libRbt.so/2013.1/901 2013/11/27
 27 29  0  0  0  0  0  0  0  0999 V2000
   39.2708   23.1840   15.5151 N   0  0  0  0  0  0  0  0  0  0  0  0
   39.9611   24.1962   14.7097 C   0  0  2  0  0  0  0  0  0  0  0  0
   40.4907   23.5570   13.4384 C   0  0  0  0  0  0  0  0  0  0  0  0
   41.6357   23.1149   13.4052 O   0  0  0  0  0  0  0  0  0  0  0  0
   41.1238   24.8266   15.5020 C   0  0  0  0  0  0  0  0  0  0  0  0
   40.5592   25.5976   16.6943 C   0  0  0  0  0  0  0  0  0  0  0  0
   40.9162   27.4022   16.7010 S   0  0  2  0  0  0  0  0  0  0  0  0
   40.1020   28.0092   18.2111 C   0  0  0  0  0  0  0  0  0  0  0  0
   39.6992   27.8402   15.4417 C   0  0  0  0  0  0  0  0  0  0  0  0
   39.6220   29.3491   15.1513 C   0  0  1  0  0  0  0  0  0  0  0  0
   40.4807   29.6601   14.0144 O   0  0  0  0  0  0  0  0  0  0  0  0
   38.2069   29.5211   14.6621 C   0  0  1  0  0  0  0  0  0  0  0  0
   37.3710   29.9482   15.7380 O   0  0  0  0  0  0  0  0  0  0  0  0
   38.3119   30.6136   13.6052 C   0  0  1  0  0  0  0  0  0  0  0  0
   37.9895   31.8974   14.1271 O   0  0  0  0  0  0  0  0  0  0  0  0
   39.7962   30.5829   13.0872 C   0  0  2  0  0  0  0  0  0  0  0  0
   39.7993   23.5367   12.4199 O   0  0  0  0  0  0  0  0  0  0  0  0
   39.9274   26.2479   10.1254 N   0  0  0  0  0  0  0  0  0  0  0  0
   39.7330   26.3316   11.4461 C   0  0  0  0  0  0  0  0  0  0  0  0
   39.7053   27.5016   12.0646 N   0  0  0  0  0  0  0  0  0  0  0  0
   39.9036   28.6507   11.3978 C   0  0  0  0  0  0  0  0  0  0  0  0
   40.1280   28.6125    9.9977 C   0  0  0  0  0  0  0  0  0  0  0  0
   40.1301   27.3406    9.3712 C   0  0  0  0  0  0  0  0  0  0  0  0
   40.3383   27.2256    8.0150 N   0  0  0  0  0  0  0  0  0  0  0  0
   40.2985   29.8833    9.5814 N   0  0  0  0  0  0  0  0  0  0  0  0
   40.2062   30.6822   10.6038 C   0  0  0  0  0  0  0  0  0  0  0  0
   39.9581   29.9775   11.7488 N   0  0  0  0  0  0  0  0  0  0  0  0
  2  1  1  1  0  0  0
  2  3  1  0  0  0  0
  2  5  1  0  0  0  0
  3  4  1  0  0  0  0
  3 17  1  0  0  0  0
  5  6  1  0  0  0  0
  7  6  1  1  0  0  0
  7  8  1  0  0  0  0
  7  9  1  0  0  0  0
 10  9  1  6  0  0  0
 10 11  1  0  0  0  0
 10 12  1  0  0  0  0
 11 16  1  0  0  0  0
 12 13  1  1  0  0  0
 12 14  1  0  0  0  0
 14 15  1  1  0  0  0
 14 16  1  0  0  0  0
 16 27  1  6  0  0  0
 18 19  2  0  0  0  0
 18 23  1  0  0  0  0
 19 20  1  0  0  0  0
 20 21  2  0  0  0  0
 21 22  1  0  0  0  0
 21 27  1  0  0  0  0
 22 23  2  0  0  0  0
 22 25  1  0  0  0  0
 23 24  1  0  0  0  0
 25 26  2  0  0  0  0
 26 27  1  0  0  0  0
M  END
>  <CHROM.1>
-92.71475810,-65.15347213,-118.62298943,179.30975640,178.04532490,94.42912550
38.85613491,39.88060700,27.58207602,13.46088162,-1.00846782,1.34830953,-1.33713772

>  <Name>
ligand

>  <RI>
0

>  <Rbt.Current_Directory>
/home/itssahil/PROJECTS/Mol_Feturizer/New_Systems/rnas/2GIS

>  <Rbt.Executable>
rbdock ($Id: //depot/dev/client3/rdock/2013.1/src/exe/rbdock.cxx#4 $)

>  <Rbt.Library>
libRbt.so (2013.1, Build901 2013/11/27)

>  <Rbt.Parameter_File>
/export/apps/rDock/src/rDock_2013.1_src/data/scripts/dock_solv.prm

>  <Rbt.Receptor>
prm/blind_docking_60.prm

>  <SCORE>
2.96645

>  <SCORE.INTER>
-0.829758

>  <SCORE.INTER.CONST>
1

>  <SCORE.INTER.POLAR>
0

>  <SCORE.INTER.ROT>
7

>  <SCORE.INTER.SOLV>
11.1096

>  <SCORE.INTER.VDW>
-12.523

>  <SCORE.INTER.norm>
-0.0307318

>  <SCORE.INTRA>
-1.46095

>  <SCORE.INTRA.DIHEDRAL>
2.91119

>  <SCORE.INTRA.DIHEDRAL.0>
9.40024

>  <SCORE.INTRA.POLAR>
0

>  <SCORE.INTRA.POLAR.0>
0

>  <SCORE.INTRA.REPUL>
0

>  <SCORE.INTRA.REPUL.0>
0

>  <SCORE.INTRA.SOLV>
-2.37323

>  <SCORE.INTRA.SOLV.lig_0>
-47.1049

>  <SCORE.INTRA.VDW>
-1.72992

>  <SCORE.INTRA.VDW.0>
-1.50278

>  <SCORE.INTRA.norm>
-0.0541091

>  <SCORE.RESTR>
5.25715

>  <SCORE.RESTR.CAVITY>
5.25715

>  <SCORE.RESTR.norm>
0.194709

>  <SCORE.SYSTEM>
0

>  <SCORE.SYSTEM.CONST>
0

>  <SCORE.SYSTEM.DIHEDRAL>
0

>  <SCORE.SYSTEM.SOLV>
0

>  <SCORE.SYSTEM.norm>
0

>  <SCORE.heavy>
27

>  <SCORE.norm>
0.109869

>  <RMSD>
36.000

$$$$
ligand
 OpenBabel11021811433D
libRbt.so/2013.1/901 2013/11/27
 27 29  0  0  0  0  0  0  0  0999 V2000
   41.1959   23.0071   13.6374 N   0  0  0  0  0  0  0  0  0  0  0  0
   40.4178   23.9385   14.4602 C   0  0  2  0  0  0  0  0  0  0  0  0
   40.4110   25.3084   13.8055 C   0  0  0  0  0  0  0  0  0  0  0  0
   39.3450   25.8441   13.5151 O   0  0  0  0  0  0  0  0  0  0  0  0
   41.0095   24.0402   15.8802 C   0  0  0  0  0  0  0  0  0  0  0  0
   40.1584   24.9991   16.7114 C   0  0  0  0  0  0  0  0  0  0  0  0
   40.7830   26.7273   16.7982 S   0  0  2  0  0  0  0  0  0  0  0  0
   40.3142   27.2844   18.4661 C   0  0  0  0  0  0  0  0  0  0  0  0
   39.4670   27.4541   15.7989 C   0  0  0  0  0  0  0  0  0  0  0  0
   39.8083   28.8468   15.2411 C   0  0  1  0  0  0  0  0  0  0  0  0
   40.6162   28.6929   14.0368 O   0  0  0  0  0  0  0  0  0  0  0  0
   38.4675   29.3571   14.7792 C   0  0  1  0  0  0  0  0  0  0  0  0
   37.8915   30.1871   15.7881 O   0  0  0  0  0  0  0  0  0  0  0  0
   38.7929   30.1784   13.5378 C   0  0  1  0  0  0  0  0  0  0  0  0
   38.9068   31.5667   13.8279 O   0  0  0  0  0  0  0  0  0  0  0  0
   40.1516   29.6153   12.9818 C   0  0  2  0  0  0  0  0  0  0  0  0
   41.4712   25.8580   13.5061 O   0  0  0  0  0  0  0  0  0  0  0  0
   41.1720   28.9300    7.8758 N   0  0  0  0  0  0  0  0  0  0  0  0
   41.5357   29.9561    8.6530 C   0  0  0  0  0  0  0  0  0  0  0  0
   41.2234   29.9897    9.9389 N   0  0  0  0  0  0  0  0  0  0  0  0
   40.5008   29.0115   10.5094 C   0  0  0  0  0  0  0  0  0  0  0  0
   40.0795   27.9088    9.7229 C   0  0  0  0  0  0  0  0  0  0  0  0
   40.4521   27.9023    8.3549 C   0  0  0  0  0  0  0  0  0  0  0  0
   40.0817   26.8634    7.5307 N   0  0  0  0  0  0  0  0  0  0  0  0
   39.3780   27.0845   10.5263 N   0  0  0  0  0  0  0  0  0  0  0  0
   39.3306   27.5942   11.7222 C   0  0  0  0  0  0  0  0  0  0  0  0
   40.0105   28.7793   11.7713 N   0  0  0  0  0  0  0  0  0  0  0  0
  2  1  1  6  0  0  0
  2  3  1  0  0  0  0
  2  5  1  0  0  0  0
  3  4  1  0  0  0  0
  3 17  1  0  0  0  0
  5  6  1  0  0  0  0
  7  6  1  1  0  0  0
  7  8  1  0  0  0  0
  7  9  1  0  0  0  0
 10  9  1  6  0  0  0
 10 11  1  0  0  0  0
 10 12  1  0  0  0  0
 11 16  1  0  0  0  0
 12 13  1  1  0  0  0
 12 14  1  0  0  0  0
 14 15  1  1  0  0  0
 14 16  1  0  0  0  0
 16 27  1  6  0  0  0
 18 19  2  0  0  0  0
 18 23  1  0  0  0  0
 19 20  1  0  0  0  0
 20 21  2  0  0  0  0
 21 22  1  0  0  0  0
 21 27  1  0  0  0  0
 22 23  2  0  0  0  0
 22 25  1  0  0  0  0
 23 24  1  0  0  0  0
 25 26  2  0  0  0  0
 26 27  1  0  0  0  0
M  END
>  <CHROM.1>
122.47359406,-179.02091860,-96.43098074,-146.34936839,-162.18589055,81.95720442
-130.13114394,40.12883621,27.62095756,13.22395800,-1.68846304,1.29445406
-1.13007540

>  <Name>
ligand

>  <RI>
0

>  <Rbt.Current_Directory>
/home/itssahil/PROJECTS/Mol_Feturizer/New_Systems/rnas/2GIS

>  <Rbt.Executable>
rbdock ($Id: //depot/dev/client3/rdock/2013.1/src/exe/rbdock.cxx#4 $)

>  <Rbt.Library>
libRbt.so (2013.1, Build901 2013/11/27)

>  <Rbt.Parameter_File>
/export/apps/rDock/src/rDock_2013.1_src/data/scripts/dock_solv.prm

>  <Rbt.Receptor>
prm/blind_docking_60.prm

>  <SCORE>
1.67341

>  <SCORE.INTER>
-2.21664

>  <SCORE.INTER.CONST>
1

>  <SCORE.INTER.POLAR>
0

>  <SCORE.INTER.ROT>
7

>  <SCORE.INTER.SOLV>
13.3725

>  <SCORE.INTER.VDW>
-14.2019

>  <SCORE.INTER.norm>
-0.0820978

>  <SCORE.INTRA>
-0.794725

>  <SCORE.INTRA.DIHEDRAL>
4.10048

>  <SCORE.INTRA.DIHEDRAL.0>
9.40024

>  <SCORE.INTRA.POLAR>
0

>  <SCORE.INTRA.POLAR.0>
0

>  <SCORE.INTRA.REPUL>
0

>  <SCORE.INTRA.REPUL.0>
0

>  <SCORE.INTRA.SOLV>
-2.94492

>  <SCORE.INTRA.SOLV.lig_0>
-47.1049

>  <SCORE.INTRA.VDW>
-1.3725

>  <SCORE.INTRA.VDW.0>
-1.50278

>  <SCORE.INTRA.norm>
-0.0294342

>  <SCORE.RESTR>
4.68478

>  <SCORE.RESTR.CAVITY>
4.68478

>  <SCORE.RESTR.norm>
0.17351

>  <SCORE.SYSTEM>
0

>  <SCORE.SYSTEM.CONST>
0

>  <SCORE.SYSTEM.DIHEDRAL>
0

>  <SCORE.SYSTEM.SOLV>
0

>  <SCORE.SYSTEM.norm>
0

>  <SCORE.heavy>
27

>  <SCORE.norm>
0.0619782

>  <RMSD>
36.032

$$$$
ligand
 OpenBabel11021811433D
libRbt.so/2013.1/901 2013/11/27
 27 29  0  0  0  0  0  0  0  0999 V2000
   39.7438   23.1310   12.8190 N   0  0  0  0  0  0  0  0  0  0  0  0
   40.8981   24.0086   13.0362 C   0  0  2  0  0  0  0  0  0  0  0  0
   41.4561   23.7762   14.4290 C   0  0  0  0  0  0  0  0  0  0  0  0
   42.5104   24.3087   14.7640 O   0  0  0  0  0  0  0  0  0  0  0  0
   40.4989   25.4888   12.8727 C   0  0  0  0  0  0  0  0  0  0  0  0
   39.4403   25.8415   13.9165 C   0  0  0  0  0  0  0  0  0  0  0  0
   40.0962   26.3222   15.5667 S   0  0  2  0  0  0  0  0  0  0  0  0
   39.4666   25.0329   16.6863 C   0  0  0  0  0  0  0  0  0  0  0  0
   38.9134   27.6541   15.8594 C   0  0  0  0  0  0  0  0  0  0  0  0
   39.4545   29.0520   15.5127 C   0  0  1  0  0  0  0  0  0  0  0  0
   40.5684   28.9143   14.5816 O   0  0  0  0  0  0  0  0  0  0  0  0
   38.3245   29.6586   14.7214 C   0  0  1  0  0  0  0  0  0  0  0  0
   37.5149   30.4675   15.5752 O   0  0  0  0  0  0  0  0  0  0  0  0
   39.0251   30.5221   13.6796 C   0  0  1  0  0  0  0  0  0  0  0  0
   39.1044   31.8855   14.0787 O   0  0  0  0  0  0  0  0  0  0  0  0
   40.4634   29.9131   13.4993 C   0  0  2  0  0  0  0  0  0  0  0  0
   40.8892   23.0051   15.2035 O   0  0  0  0  0  0  0  0  0  0  0  0
   39.0347   29.0920    8.5127 N   0  0  0  0  0  0  0  0  0  0  0  0
   38.5397   29.9929    9.3685 C   0  0  0  0  0  0  0  0  0  0  0  0
   39.0113   30.1032   10.6004 N   0  0  0  0  0  0  0  0  0  0  0  0
   39.9834   29.2940   11.0528 C   0  0  0  0  0  0  0  0  0  0  0  0
   40.5308   28.3129   10.1868 C   0  0  0  0  0  0  0  0  0  0  0  0
   40.0111   28.2415    8.8696 C   0  0  0  0  0  0  0  0  0  0  0  0
   40.4955   27.3166    7.9721 N   0  0  0  0  0  0  0  0  0  0  0  0
   41.4731   27.6431   10.8800 N   0  0  0  0  0  0  0  0  0  0  0  0
   41.5369   28.1249   12.0867 C   0  0  0  0  0  0  0  0  0  0  0  0
   40.6446   29.1481   12.2478 N   0  0  0  0  0  0  0  0  0  0  0  0
  2  1  1  1  0  0  0
  2  3  1  0  0  0  0
  2  5  1  0  0  0  0
  3  4  1  0  0  0  0
  3 17  1  0  0  0  0
  5  6  1  0  0  0  0
  7  6  1  6  0  0  0
  7  8  1  0  0  0  0
  7  9  1  0  0  0  0
 10  9  1  6  0  0  0
 10 11  1  0  0  0  0
 10 12  1  0  0  0  0
 11 16  1  0  0  0  0
 12 13  1  1  0  0  0
 12 14  1  0  0  0  0
 14 15  1  1  0  0  0
 14 16  1  0  0  0  0
 16 27  1  6  0  0  0
 18 19  2  0  0  0  0
 18 23  1  0  0  0  0
 19 20  1  0  0  0  0
 20 21  2  0  0  0  0
 21 22  1  0  0  0  0
 21 27  1  0  0  0  0
 22 23  2  0  0  0  0
 22 25  1  0  0  0  0
 23 24  1  0  0  0  0
 25 26  2  0  0  0  0
 26 27  1  0  0  0  0
M  END
>  <CHROM.1>
172.36917283,61.38954829,84.85585864,-116.58343688,-97.48019530,21.35066893
140.27246946,39.98679482,27.55065081,13.13631531,-1.05187833,1.24114726,-1.18241414

>  <Name>
ligand

>  <RI>
0

>  <Rbt.Current_Directory>
/home/itssahil/PROJECTS/Mol_Feturizer/New_Systems/rnas/2GIS

>  <Rbt.Executable>
rbdock ($Id: //depot/dev/client3/rdock/2013.1/src/exe/rbdock.cxx#4 $)

>  <Rbt.Library>
libRbt.so (2013.1, Build901 2013/11/27)

>  <Rbt.Parameter_File>
/export/apps/rDock/src/rDock_2013.1_src/data/scripts/dock_solv.prm

>  <Rbt.Receptor>
prm/blind_docking_60.prm

>  <SCORE>
11.313

>  <SCORE.INTER>
3.66323

>  <SCORE.INTER.CONST>
1

>  <SCORE.INTER.POLAR>
0

>  <SCORE.INTER.ROT>
7

>  <SCORE.INTER.SOLV>
10.5028

>  <SCORE.INTER.VDW>
-9.32545

>  <SCORE.INTER.norm>
0.135675

>  <SCORE.INTRA>
1.30117

>  <SCORE.INTRA.DIHEDRAL>
5.62715

>  <SCORE.INTRA.DIHEDRAL.0>
9.40024

>  <SCORE.INTRA.POLAR>
0

>  <SCORE.INTRA.POLAR.0>
0

>  <SCORE.INTRA.REPUL>
0

>  <SCORE.INTRA.REPUL.0>
0

>  <SCORE.INTRA.SOLV>
-1.51098

>  <SCORE.INTRA.SOLV.lig_0>
-47.1049

>  <SCORE.INTRA.VDW>
-0.756913

>  <SCORE.INTRA.VDW.0>
-1.50278

>  <SCORE.INTRA.norm>
0.0481914

>  <SCORE.RESTR>
6.34863

>  <SCORE.RESTR.CAVITY>
6.34863

>  <SCORE.RESTR.norm>
0.235135

>  <SCORE.SYSTEM>
0

>  <SCORE.SYSTEM.CONST>
0

>  <SCORE.SYSTEM.DIHEDRAL>
0

>  <SCORE.SYSTEM.SOLV>
0

>  <SCORE.SYSTEM.norm>
0

>  <SCORE.heavy>
27

>  <SCORE.norm>
0.419001

>  <RMSD>
36.046

$$$$
ligand
 OpenBabel11021811433D
libRbt.so/2013.1/901 2013/11/27
 27 29  0  0  0  0  0  0  0  0999 V2000
   37.8612   29.9927   12.9693 N   0  0  0  0  0  0  0  0  0  0  0  0
   38.9795   30.4745   13.7861 C   0  0  2  0  0  0  0  0  0  0  0  0
   40.2914   30.1061   13.1165 C   0  0  0  0  0  0  0  0  0  0  0  0
   40.5554   30.5459   12.0010 O   0  0  0  0  0  0  0  0  0  0  0  0
   38.9255   29.8660   15.2017 C   0  0  0  0  0  0  0  0  0  0  0  0
   39.0332   28.3453   15.0989 C   0  0  0  0  0  0  0  0  0  0  0  0
   38.9186   27.4416   16.6972 S   0  0  2  0  0  0  0  0  0  0  0  0
   39.7303   28.5493   17.8915 C   0  0  0  0  0  0  0  0  0  0  0  0
   40.2437   26.2673   16.3456 C   0  0  0  0  0  0  0  0  0  0  0  0
   39.7891   25.0443   15.5303 C   0  0  1  0  0  0  0  0  0  0  0  0
   38.9854   25.4968   14.4006 O   0  0  0  0  0  0  0  0  0  0  0  0
   41.0815   24.5373   14.9437 C   0  0  1  0  0  0  0  0  0  0  0  0
   41.5992   23.4810   15.7530 O   0  0  0  0  0  0  0  0  0  0  0  0
   40.6818   24.0082   13.5719 C   0  0  1  0  0  0  0  0  0  0  0  0
   40.4615   22.6025   13.5826 O   0  0  0  0  0  0  0  0  0  0  0  0
   39.3669   24.7721   13.1722 C   0  0  2  0  0  0  0  0  0  0  0  0
   41.0647   29.3168   13.6596 O   0  0  0  0  0  0  0  0  0  0  0  0
   42.4497   28.4933   11.1153 N   0  0  0  0  0  0  0  0  0  0  0  0
   42.7085   27.7020   12.1622 C   0  0  0  0  0  0  0  0  0  0  0  0
   41.8408   26.7865   12.5637 N   0  0  0  0  0  0  0  0  0  0  0  0
   40.6516   26.6358   11.9576 C   0  0  0  0  0  0  0  0  0  0  0  0
   40.3252   27.4615   10.8512 C   0  0  0  0  0  0  0  0  0  0  0  0
   41.2906   28.4155   10.4413 C   0  0  0  0  0  0  0  0  0  0  0  0
   41.0451   29.2493    9.3735 N   0  0  0  0  0  0  0  0  0  0  0  0
   39.0910   27.1119   10.4369 N   0  0  0  0  0  0  0  0  0  0  0  0
   38.6407   26.1578   11.1979 C   0  0  0  0  0  0  0  0  0  0  0  0
   39.5629   25.8206   12.1492 N   0  0  0  0  0  0  0  0  0  0  0  0
  2  1  1  6  0  0  0
  2  3  1  0  0  0  0
  2  5  1  0  0  0  0
  3  4  1  0  0  0  0
  3 17  1  0  0  0  0
  5  6  1  0  0  0  0
  7  6  1  6  0  0  0
  7  8  1  0  0  0  0
  7  9  1  0  0  0  0
 10  9  1  1  0  0  0
 10 11  1  0  0  0  0
 10 12  1  0  0  0  0
 11 16  1  0  0  0  0
 12 13  1  1  0  0  0
 12 14  1  0  0  0  0
 14 15  1  1  0  0  0
 14 16  1  0  0  0  0
 16 27  1  6  0  0  0
 18 19  2  0  0  0  0
 18 23  1  0  0  0  0
 19 20  1  0  0  0  0
 20 21  2  0  0  0  0
 21 22  1  0  0  0  0
 21 27  1  0  0  0  0
 22 23  2  0  0  0  0
 22 25  1  0  0  0  0
 23 24  1  0  0  0  0
 25 26  2  0  0  0  0
 26 27  1  0  0  0  0
M  END
>  <CHROM.1>
61.39137359,61.04129962,-177.66776814,-34.61724185,-84.08683882,47.22547416
79.81143831,40.12875069,27.20309896,13.55567747,1.34390164,1.27321603,-0.55886233

>  <Name>
ligand

>  <RI>
0

>  <Rbt.Current_Directory>
/home/itssahil/PROJECTS/Mol_Feturizer/New_Systems/rnas/2GIS

>  <Rbt.Executable>
rbdock ($Id: //depot/dev/client3/rdock/2013.1/src/exe/rbdock.cxx#4 $)

>  <Rbt.Library>
libRbt.so (2013.1, Build901 2013/11/27)

>  <Rbt.Parameter_File>
/export/apps/rDock/src/rDock_2013.1_src/data/scripts/dock_solv.prm

>  <Rbt.Receptor>
prm/blind_docking_60.prm

>  <SCORE>
2.16933

>  <SCORE.INTER>
0.758213

>  <SCORE.INTER.CONST>
1

>  <SCORE.INTER.POLAR>
0

>  <SCORE.INTER.ROT>
7

>  <SCORE.INTER.SOLV>
9.40459

>  <SCORE.INTER.VDW>
-10.8961

>  <SCORE.INTER.norm>
0.0280819

>  <SCORE.INTRA>
-2.28466

>  <SCORE.INTRA.DIHEDRAL>
-2.29385

>  <SCORE.INTRA.DIHEDRAL.0>
9.40024

>  <SCORE.INTRA.POLAR>
0

>  <SCORE.INTRA.POLAR.0>
0

>  <SCORE.INTRA.REPUL>
0

>  <SCORE.INTRA.REPUL.0>
0

>  <SCORE.INTRA.SOLV>
-1.2744

>  <SCORE.INTRA.SOLV.lig_0>
-47.1049

>  <SCORE.INTRA.VDW>
-0.500532

>  <SCORE.INTRA.VDW.0>
-1.50278

>  <SCORE.INTRA.norm>
-0.0846171

>  <SCORE.RESTR>
3.69578

>  <SCORE.RESTR.CAVITY>
3.69578

>  <SCORE.RESTR.norm>
0.136881

>  <SCORE.SYSTEM>
0

>  <SCORE.SYSTEM.CONST>
0

>  <SCORE.SYSTEM.DIHEDRAL>
0

>  <SCORE.SYSTEM.SOLV>
0

>  <SCORE.SYSTEM.norm>
0

>  <SCORE.heavy>
27

>  <SCORE.norm>
0.0803455

>  <RMSD>
36.050

$$$$
ligand
 OpenBabel11021811433D
libRbt.so/2013.1/901 2013/11/27
 27 29  0  0  0  0  0  0  0  0999 V2000
   38.0773   26.9821   16.0222 N   0  0  0  0  0  0  0  0  0  0  0  0
   39.5164   27.1510   15.7977 C   0  0  2  0  0  0  0  0  0  0  0  0
   40.2808   26.6416   17.0066 C   0  0  0  0  0  0  0  0  0  0  0  0
   40.2887   27.2939   18.0468 O   0  0  0  0  0  0  0  0  0  0  0  0
   39.8612   28.6326   15.5469 C   0  0  0  0  0  0  0  0  0  0  0  0
   39.2853   29.0608   14.1980 C   0  0  0  0  0  0  0  0  0  0  0  0
   39.3409   30.8684   13.8602 S   0  0  2  0  0  0  0  0  0  0  0  0
   37.7505   31.4864   14.4934 C   0  0  0  0  0  0  0  0  0  0  0  0
   38.9934   30.7411   12.0933 C   0  0  0  0  0  0  0  0  0  0  0  0
   40.2113   30.3260   11.2497 C   0  0  1  0  0  0  0  0  0  0  0  0
   41.1350   29.5690   12.0866 O   0  0  0  0  0  0  0  0  0  0  0  0
   39.6212   29.3341   10.2805 C   0  0  1  0  0  0  0  0  0  0  0  0
   39.3146   29.9855    9.0474 O   0  0  0  0  0  0  0  0  0  0  0  0
   40.7313   28.3101   10.0785 C   0  0  1  0  0  0  0  0  0  0  0  0
   41.4969   28.5729    8.9083 O   0  0  0  0  0  0  0  0  0  0  0  0
   41.6370   28.3849   11.3615 C   0  0  2  0  0  0  0  0  0  0  0  0
   40.9457   25.6082   16.9298 O   0  0  0  0  0  0  0  0  0  0  0  0
   38.5991   24.4831   13.1305 N   0  0  0  0  0  0  0  0  0  0  0  0
   38.3218   25.3613   12.1605 C   0  0  0  0  0  0  0  0  0  0  0  0
   39.1956   26.2886   11.8016 N   0  0  0  0  0  0  0  0  0  0  0  0
   40.3832   26.4072   12.4179 C   0  0  0  0  0  0  0  0  0  0  0  0
   40.7175   25.5078   13.4627 C   0  0  0  0  0  0  0  0  0  0  0  0
   39.7616   24.5173   13.8024 C   0  0  0  0  0  0  0  0  0  0  0  0
   40.0176   23.6079   14.8040 N   0  0  0  0  0  0  0  0  0  0  0  0
   41.9455   25.8429   13.9064 N   0  0  0  0  0  0  0  0  0  0  0  0
   42.3774   26.8672   13.2307 C   0  0  0  0  0  0  0  0  0  0  0  0
   41.4577   27.2541   12.2961 N   0  0  0  0  0  0  0  0  0  0  0  0
  2  1  1  1  0  0  0
  2  3  1  0  0  0  0
  2  5  1  0  0  0  0
  3  4  1  0  0  0  0
  3 17  1  0  0  0  0
  5  6  1  0  0  0  0
  7  6  1  1  0  0  0
  7  8  1  0  0  0  0
  7  9  1  0  0  0  0
 10  9  1  1  0  0  0
 10 11  1  0  0  0  0
 10 12  1  0  0  0  0
 11 16  1  0  0  0  0
 12 13  1  6  0  0  0
 12 14  1  0  0  0  0
 14 15  1  6  0  0  0
 14 16  1  0  0  0  0
 16 27  1  1  0  0  0
 18 19  2  0  0  0  0
 18 23  1  0  0  0  0
 19 20  1  0  0  0  0
 20 21  2  0  0  0  0
 21 22  1  0  0  0  0
 21 27  1  0  0  0  0
 22 23  2  0  0  0  0
 22 25  1  0  0  0  0
 23 24  1  0  0  0  0
 25 26  2  0  0  0  0
 26 27  1  0  0  0  0
M  END
>  <CHROM.1>
-73.73129702,-68.80855317,169.75525892,-90.89211400,-78.41826034,25.76979426
91.65904901,40.01134699,27.81176037,13.29075846,1.58796188,-1.30496638,2.23606746

>  <Name>
ligand

>  <RI>
0

>  <Rbt.Current_Directory>
/home/itssahil/PROJECTS/Mol_Feturizer/New_Systems/rnas/2GIS

>  <Rbt.Executable>
rbdock ($Id: //depot/dev/client3/rdock/2013.1/src/exe/rbdock.cxx#4 $)

>  <Rbt.Library>
libRbt.so (2013.1, Build901 2013/11/27)

>  <Rbt.Parameter_File>
/export/apps/rDock/src/rDock_2013.1_src/data/scripts/dock_solv.prm

>  <Rbt.Receptor>
prm/blind_docking_60.prm

>  <SCORE>
4.41218

>  <SCORE.INTER>
2.36032

>  <SCORE.INTER.CONST>
1

>  <SCORE.INTER.POLAR>
0

>  <SCORE.INTER.ROT>
7

>  <SCORE.INTER.SOLV>
7.45986

>  <SCORE.INTER.VDW>
-9.17974

>  <SCORE.INTER.norm>
0.0874194

>  <SCORE.INTRA>
-4.03092

>  <SCORE.INTRA.DIHEDRAL>
-0.735879

>  <SCORE.INTRA.DIHEDRAL.0>
9.40024

>  <SCORE.INTRA.POLAR>
0

>  <SCORE.INTRA.POLAR.0>
0

>  <SCORE.INTRA.REPUL>
0

>  <SCORE.INTRA.REPUL.0>
0

>  <SCORE.INTRA.SOLV>
0.656204

>  <SCORE.INTRA.SOLV.lig_0>
-47.1049

>  <SCORE.INTRA.VDW>
-3.99108

>  <SCORE.INTRA.VDW.0>
-1.50278

>  <SCORE.INTRA.norm>
-0.149293

>  <SCORE.RESTR>
6.08278

>  <SCORE.RESTR.CAVITY>
6.08278

>  <SCORE.RESTR.norm>
0.225288

>  <SCORE.SYSTEM>
0

>  <SCORE.SYSTEM.CONST>
0

>  <SCORE.SYSTEM.DIHEDRAL>
0

>  <SCORE.SYSTEM.SOLV>
0

>  <SCORE.SYSTEM.norm>
0

>  <SCORE.heavy>
27

>  <SCORE.norm>
0.163414

>  <RMSD>
36.064

$$$$
ligand
 OpenBabel11021811433D
libRbt.so/2013.1/901 2013/11/27
 27 29  0  0  0  0  0  0  0  0999 V2000
   41.5453   25.7709   13.3824 N   0  0  0  0  0  0  0  0  0  0  0  0
   41.4206   24.7768   14.4530 C   0  0  2  0  0  0  0  0  0  0  0  0
   41.0423   23.4334   13.8551 C   0  0  0  0  0  0  0  0  0  0  0  0
   41.7033   22.9646   12.9326 O   0  0  0  0  0  0  0  0  0  0  0  0
   40.3568   25.2100   15.4812 C   0  0  0  0  0  0  0  0  0  0  0  0
   41.0095   26.1081   16.5310 C   0  0  0  0  0  0  0  0  0  0  0  0
   39.8396   27.0178   17.6210 S   0  0  2  0  0  0  0  0  0  0  0  0
   38.7019   25.7307   18.2219 C   0  0  0  0  0  0  0  0  0  0  0  0
   38.8707   27.7525   16.2867 C   0  0  0  0  0  0  0  0  0  0  0  0
   39.5185   29.0015   15.6643 C   0  0  1  0  0  0  0  0  0  0  0  0
   40.4022   28.5897   14.5797 O   0  0  0  0  0  0  0  0  0  0  0  0
   38.3492   29.6900   15.0084 C   0  0  1  0  0  0  0  0  0  0  0  0
   37.8370   30.7041   15.8733 O   0  0  0  0  0  0  0  0  0  0  0  0
   38.9453   30.3142   13.7528 C   0  0  1  0  0  0  0  0  0  0  0  0
   39.2838   31.6830   13.9431 O   0  0  0  0  0  0  0  0  0  0  0  0
   40.2258   29.4696   13.4074 C   0  0  2  0  0  0  0  0  0  0  0  0
   40.0375   22.8404   14.2481 O   0  0  0  0  0  0  0  0  0  0  0  0
   41.0047   28.5070    8.3036 N   0  0  0  0  0  0  0  0  0  0  0  0
   41.3657   29.5927    8.9965 C   0  0  0  0  0  0  0  0  0  0  0  0
   41.1201   29.6944   10.2932 N   0  0  0  0  0  0  0  0  0  0  0  0
   40.4697   28.7268   10.9604 C   0  0  0  0  0  0  0  0  0  0  0  0
   40.0539   27.5618   10.2659 C   0  0  0  0  0  0  0  0  0  0  0  0
   40.3543   27.4843    8.8824 C   0  0  0  0  0  0  0  0  0  0  0  0
   39.9847   26.3827    8.1438 N   0  0  0  0  0  0  0  0  0  0  0  0
   39.4304   26.7629   11.1548 N   0  0  0  0  0  0  0  0  0  0  0  0
   39.4247   27.3440   12.3187 C   0  0  0  0  0  0  0  0  0  0  0  0
   40.0563   28.5550   12.2589 N   0  0  0  0  0  0  0  0  0  0  0  0
  2  1  1  6  0  0  0
  2  3  1  0  0  0  0
  2  5  1  0  0  0  0
  3  4  1  0  0  0  0
  3 17  1  0  0  0  0
  5  6  1  0  0  0  0
  7  6  1  6  0  0  0
  7  8  1  0  0  0  0
  7  9  1  0  0  0  0
 10  9  1  6  0  0  0
 10 11  1  0  0  0  0
 10 12  1  0  0  0  0
 11 16  1  0  0  0  0
 12 13  1  1  0  0  0
 12 14  1  0  0  0  0
 14 15  1  1  0  0  0
 14 16  1  0  0  0  0
 16 27  1  6  0  0  0
 18 19  2  0  0  0  0
 18 23  1  0  0  0  0
 19 20  1  0  0  0  0
 20 21  2  0  0  0  0
 21 22  1  0  0  0  0
 21 27  1  0  0  0  0
 22 23  2  0  0  0  0
 22 25  1  0  0  0  0
 23 24  1  0  0  0  0
 25 26  2  0  0  0  0
 26 27  1  0  0  0  0
M  END
>  <CHROM.1>
52.06484886,-86.76139713,167.12428626,50.37433956,-80.62771715,88.52530405
-146.02242514,40.05990325,27.42920451,13.51693489,-1.97110528,1.27434385
-0.95300767

>  <Name>
ligand

>  <RI>
0

>  <Rbt.Current_Directory>
/home/itssahil/PROJECTS/Mol_Feturizer/New_Systems/rnas/2GIS

>  <Rbt.Executable>
rbdock ($Id: //depot/dev/client3/rdock/2013.1/src/exe/rbdock.cxx#4 $)

>  <Rbt.Library>
libRbt.so (2013.1, Build901 2013/11/27)

>  <Rbt.Parameter_File>
/export/apps/rDock/src/rDock_2013.1_src/data/scripts/dock_solv.prm

>  <Rbt.Receptor>
prm/blind_docking_60.prm

>  <SCORE>
8.09652

>  <SCORE.INTER>
3.24694

>  <SCORE.INTER.CONST>
1

>  <SCORE.INTER.POLAR>
0

>  <SCORE.INTER.ROT>
7

>  <SCORE.INTER.SOLV>
13.0194

>  <SCORE.INTER.VDW>
-10.4418

>  <SCORE.INTER.norm>
0.120257

>  <SCORE.INTRA>
-0.166943

>  <SCORE.INTRA.DIHEDRAL>
-0.24405

>  <SCORE.INTRA.DIHEDRAL.0>
9.40024

>  <SCORE.INTRA.POLAR>
0

>  <SCORE.INTRA.POLAR.0>
0

>  <SCORE.INTRA.REPUL>
0

>  <SCORE.INTRA.REPUL.0>
0

>  <SCORE.INTRA.SOLV>
0.361854

>  <SCORE.INTRA.SOLV.lig_0>
-47.1049

>  <SCORE.INTRA.VDW>
-0.225845

>  <SCORE.INTRA.VDW.0>
-1.50278

>  <SCORE.INTRA.norm>
-0.00618308

>  <SCORE.RESTR>
5.01652

>  <SCORE.RESTR.CAVITY>
5.01652

>  <SCORE.RESTR.norm>
0.185797

>  <SCORE.SYSTEM>
0

>  <SCORE.SYSTEM.CONST>
0

>  <SCORE.SYSTEM.DIHEDRAL>
0

>  <SCORE.SYSTEM.SOLV>
0

>  <SCORE.SYSTEM.norm>
0

>  <SCORE.heavy>
27

>  <SCORE.norm>
0.299871

>  <RMSD>
36.066

$$$$
ligand
 OpenBabel11021811433D
libRbt.so/2013.1/901 2013/11/27
 27 29  0  0  0  0  0  0  0  0999 V2000
   41.8940   25.1304   14.1380 N   0  0  0  0  0  0  0  0  0  0  0  0
   41.0880   23.9158   14.2967 C   0  0  2  0  0  0  0  0  0  0  0  0
   40.9381   23.2281   12.9514 C   0  0  0  0  0  0  0  0  0  0  0  0
   41.8156   22.4693   12.5493 O   0  0  0  0  0  0  0  0  0  0  0  0
   39.6971   24.2529   14.8700 C   0  0  0  0  0  0  0  0  0  0  0  0
   39.8596   24.8302   16.2753 C   0  0  0  0  0  0  0  0  0  0  0  0
   40.6610   26.4842   16.3555 S   0  0  2  0  0  0  0  0  0  0  0  0
   40.4419   26.9991   18.0872 C   0  0  0  0  0  0  0  0  0  0  0  0
   39.3206   27.3828   15.5463 C   0  0  0  0  0  0  0  0  0  0  0  0
   39.5703   28.8964   15.4291 C   0  0  1  0  0  0  0  0  0  0  0  0
   40.5545   29.1372   14.3802 O   0  0  0  0  0  0  0  0  0  0  0  0
   38.2583   29.4088   14.8929 C   0  0  1  0  0  0  0  0  0  0  0  0
   37.4496   29.8874   15.9679 O   0  0  0  0  0  0  0  0  0  0  0  0
   38.6578   30.5584   13.9762 C   0  0  1  0  0  0  0  0  0  0  0  0
   38.5635   31.8205   14.6264 O   0  0  0  0  0  0  0  0  0  0  0  0
   40.1391   30.2728   13.5330 C   0  0  2  0  0  0  0  0  0  0  0  0
   39.9701   23.4766   12.2323 O   0  0  0  0  0  0  0  0  0  0  0  0
   39.7450   26.2955   10.1261 N   0  0  0  0  0  0  0  0  0  0  0  0
   39.4992   26.2749   11.4407 C   0  0  0  0  0  0  0  0  0  0  0  0
   39.6224   27.3655   12.1808 N   0  0  0  0  0  0  0  0  0  0  0  0
   40.0305   28.5296   11.6493 C   0  0  0  0  0  0  0  0  0  0  0  0
   40.3171   28.5982   10.2617 C   0  0  0  0  0  0  0  0  0  0  0  0
   40.1533   27.4125    9.5018 C   0  0  0  0  0  0  0  0  0  0  0  0
   40.4096   27.4037    8.1491 N   0  0  0  0  0  0  0  0  0  0  0  0
   40.7039   29.8609    9.9913 N   0  0  0  0  0  0  0  0  0  0  0  0
   40.6852   30.5565   11.0904 C   0  0  0  0  0  0  0  0  0  0  0  0
   40.2727   29.7882   12.1433 N   0  0  0  0  0  0  0  0  0  0  0  0
  2  1  1  6  0  0  0
  2  3  1  0  0  0  0
  2  5  1  0  0  0  0
  3  4  1  0  0  0  0
  3 17  1  0  0  0  0
  5  6  1  0  0  0  0
  7  6  1  1  0  0  0
  7  8  1  0  0  0  0
  7  9  1  0  0  0  0
 10  9  1  6  0  0  0
 10 11  1  0  0  0  0
 10 12  1  0  0  0  0
 11 16  1  0  0  0  0
 12 13  1  1  0  0  0
 12 14  1  0  0  0  0
 14 15  1  1  0  0  0
 14 16  1  0  0  0  0
 16 27  1  6  0  0  0
 18 19  2  0  0  0  0
 18 23  1  0  0  0  0
 19 20  1  0  0  0  0
 20 21  2  0  0  0  0
 21 22  1  0  0  0  0
 21 27  1  0  0  0  0
 22 23  2  0  0  0  0
 22 25  1  0  0  0  0
 23 24  1  0  0  0  0
 25 26  2  0  0  0  0
 26 27  1  0  0  0  0
M  END
>  <CHROM.1>
84.16672158,-63.89389225,67.98727924,170.55584038,178.48996760,74.69504830
35.87245272,40.03216638,27.35453944,13.43443063,0.59654526,-1.31654302,1.98818624

>  <Name>
ligand

>  <RI>
0

>  <Rbt.Current_Directory>
/home/itssahil/PROJECTS/Mol_Feturizer/New_Systems/rnas/2GIS

>  <Rbt.Executable>
rbdock ($Id: //depot/dev/client3/rdock/2013.1/src/exe/rbdock.cxx#4 $)

>  <Rbt.Library>
libRbt.so (2013.1, Build901 2013/11/27)

>  <Rbt.Parameter_File>
/export/apps/rDock/src/rDock_2013.1_src/data/scripts/dock_solv.prm

>  <Rbt.Receptor>
prm/blind_docking_60.prm

>  <SCORE>
0.817212

>  <SCORE.INTER>
0.107562

>  <SCORE.INTER.CONST>
1

>  <SCORE.INTER.POLAR>
0

>  <SCORE.INTER.ROT>
7

>  <SCORE.INTER.SOLV>
14.3549

>  <SCORE.INTER.VDW>
-12.9799

>  <SCORE.INTER.norm>
0.00398377

>  <SCORE.INTRA>
-4.13014

>  <SCORE.INTRA.DIHEDRAL>
-5.19346

>  <SCORE.INTRA.DIHEDRAL.0>
9.40024

>  <SCORE.INTRA.POLAR>
0

>  <SCORE.INTRA.POLAR.0>
0

>  <SCORE.INTRA.REPUL>
0.0430717

>  <SCORE.INTRA.REPUL.0>
0

>  <SCORE.INTRA.SOLV>
-0.00985964

>  <SCORE.INTRA.SOLV.lig_0>
-47.1049

>  <SCORE.INTRA.VDW>
-1.74384

>  <SCORE.INTRA.VDW.0>
-1.50278

>  <SCORE.INTRA.norm>
-0.152968

>  <SCORE.RESTR>
4.83979

>  <SCORE.RESTR.CAVITY>
4.83979

>  <SCORE.RESTR.norm>
0.179252

>  <SCORE.SYSTEM>
0

>  <SCORE.SYSTEM.CONST>
0

>  <SCORE.SYSTEM.DIHEDRAL>
0

>  <SCORE.SYSTEM.SOLV>
0

>  <SCORE.SYSTEM.norm>
0

>  <SCORE.heavy>
27

>  <SCORE.norm>
0.0302671

>  <RMSD>
36.066

$$$$
ligand
 OpenBabel11021811433D
libRbt.so/2013.1/901 2013/11/27
 27 29  0  0  0  0  0  0  0  0999 V2000
   40.3015   26.9598   10.4318 N   0  0  0  0  0  0  0  0  0  0  0  0
   40.4429   28.3283   10.9390 C   0  0  2  0  0  0  0  0  0  0  0  0
   41.0370   29.2109    9.8558 C   0  0  0  0  0  0  0  0  0  0  0  0
   41.5918   28.7022    8.8858 O   0  0  0  0  0  0  0  0  0  0  0  0
   41.3430   28.3581   12.1903 C   0  0  0  0  0  0  0  0  0  0  0  0
   40.5768   27.7696   13.3741 C   0  0  0  0  0  0  0  0  0  0  0  0
   39.0384   28.6664   13.8360 S   0  0  2  0  0  0  0  0  0  0  0  0
   39.1388   30.2269   12.9049 C   0  0  0  0  0  0  0  0  0  0  0  0
   39.6075   29.1898   15.4673 C   0  0  0  0  0  0  0  0  0  0  0  0
   39.1545   28.2636   16.6093 C   0  0  1  0  0  0  0  0  0  0  0  0
   38.8520   26.9459   16.0626 O   0  0  0  0  0  0  0  0  0  0  0  0
   40.4133   28.0974   17.4211 C   0  0  1  0  0  0  0  0  0  0  0  0
   40.4103   29.0172   18.5132 O   0  0  0  0  0  0  0  0  0  0  0  0
   40.3356   26.6645   17.9335 C   0  0  1  0  0  0  0  0  0  0  0  0
   39.8100   26.5949   19.2538 O   0  0  0  0  0  0  0  0  0  0  0  0
   39.4107   25.8874   16.9271 C   0  0  2  0  0  0  0  0  0  0  0  0
   41.0214   30.4361    9.9763 O   0  0  0  0  0  0  0  0  0  0  0  0
   40.0536   24.0238   12.0594 N   0  0  0  0  0  0  0  0  0  0  0  0
   39.1690   24.9362   12.4766 C   0  0  0  0  0  0  0  0  0  0  0  0
   39.1307   25.3299   13.7398 N   0  0  0  0  0  0  0  0  0  0  0  0
   39.9559   24.8065   14.6614 C   0  0  0  0  0  0  0  0  0  0  0  0
   40.9024   23.8250   14.2703 C   0  0  0  0  0  0  0  0  0  0  0  0
   40.9234   23.4461   12.9042 C   0  0  0  0  0  0  0  0  0  0  0  0
   41.8168   22.5017   12.4505 N   0  0  0  0  0  0  0  0  0  0  0  0
   41.5934   23.4689   15.3716 N   0  0  0  0  0  0  0  0  0  0  0  0
   41.1436   24.1395   16.3916 C   0  0  0  0  0  0  0  0  0  0  0  0
   40.1372   24.9831   16.0115 N   0  0  0  0  0  0  0  0  0  0  0  0
  2  1  1  6  0  0  0
  2  3  1  0  0  0  0
  2  5  1  0  0  0  0
  3  4  1  0  0  0  0
  3 17  1  0  0  0  0
  5  6  1  0  0  0  0
  7  6  1  6  0  0  0
  7  8  1  0  0  0  0
  7  9  1  0  0  0  0
 10  9  1  6  0  0  0
 10 11  1  0  0  0  0
 10 12  1  0  0  0  0
 11 16  1  0  0  0  0
 12 13  1  1  0  0  0
 12 14  1  0  0  0  0
 14 15  1  1  0  0  0
 14 16  1  0  0  0  0
 16 27  1  6  0  0  0
 18 19  2  0  0  0  0
 18 23  1  0  0  0  0
 19 20  1  0  0  0  0
 20 21  2  0  0  0  0
 21 22  1  0  0  0  0
 21 27  1  0  0  0  0
 22 23  2  0  0  0  0
 22 25  1  0  0  0  0
 23 24  1  0  0  0  0
 25 26  2  0  0  0  0
 26 27  1  0  0  0  0
M  END
>  <CHROM.1>
-16.50914621,-73.10809352,-60.94201508,-12.09601407,-96.11629920,22.68790269
-22.74423920,40.20889146,26.87883155,14.10066910,-1.09917385,-1.37537928
2.34740993

>  <Name>
ligand

>  <RI>
0

>  <Rbt.Current_Directory>
/home/itssahil/PROJECTS/Mol_Feturizer/New_Systems/rnas/2GIS

>  <Rbt.Executable>
rbdock ($Id: //depot/dev/client3/rdock/2013.1/src/exe/rbdock.cxx#4 $)

>  <Rbt.Library>
libRbt.so (2013.1, Build901 2013/11/27)

>  <Rbt.Parameter_File>
/export/apps/rDock/src/rDock_2013.1_src/data/scripts/dock_solv.prm

>  <Rbt.Receptor>
prm/blind_docking_60.prm

>  <SCORE>
14.1937

>  <SCORE.INTER>
5.61087

>  <SCORE.INTER.CONST>
1

>  <SCORE.INTER.POLAR>
0

>  <SCORE.INTER.ROT>
7

>  <SCORE.INTER.SOLV>
19.6352

>  <SCORE.INTER.VDW>
-11.0711

>  <SCORE.INTER.norm>
0.20781

>  <SCORE.INTRA>
1.91527

>  <SCORE.INTRA.DIHEDRAL>
4.15176

>  <SCORE.INTRA.DIHEDRAL.0>
9.40024

>  <SCORE.INTRA.POLAR>
0

>  <SCORE.INTRA.POLAR.0>
0

>  <SCORE.INTRA.REPUL>
0

>  <SCORE.INTRA.REPUL.0>
0

>  <SCORE.INTRA.SOLV>
-0.530513

>  <SCORE.INTRA.SOLV.lig_0>
-47.1049

>  <SCORE.INTRA.VDW>
0.104647

>  <SCORE.INTRA.VDW.0>
-1.50278

>  <SCORE.INTRA.norm>
0.0709359

>  <SCORE.RESTR>
6.66757

>  <SCORE.RESTR.CAVITY>
6.66757

>  <SCORE.RESTR.norm>
0.246947

>  <SCORE.SYSTEM>
0

>  <SCORE.SYSTEM.CONST>
0

>  <SCORE.SYSTEM.DIHEDRAL>
0

>  <SCORE.SYSTEM.SOLV>
0

>  <SCORE.SYSTEM.norm>
0

>  <SCORE.heavy>
27

>  <SCORE.norm>
0.525693

>  <RMSD>
36.073

$$$$
ligand
 OpenBabel11021811433D
libRbt.so/2013.1/901 2013/11/27
 27 29  0  0  0  0  0  0  0  0999 V2000
   39.2183   24.5015   13.9049 N   0  0  0  0  0  0  0  0  0  0  0  0
   40.4856   24.6648   14.6239 C   0  0  2  0  0  0  0  0  0  0  0  0
   41.5888   23.9359   13.8777 C   0  0  0  0  0  0  0  0  0  0  0  0
   42.7652   24.1936   14.1172 O   0  0  0  0  0  0  0  0  0  0  0  0
   40.3747   24.1161   16.0604 C   0  0  0  0  0  0  0  0  0  0  0  0
   39.6651   25.1461   16.9380 C   0  0  0  0  0  0  0  0  0  0  0  0
   40.4981   26.7821   17.0560 S   0  0  2  0  0  0  0  0  0  0  0  0
   40.2477   27.2828   18.7877 C   0  0  0  0  0  0  0  0  0  0  0  0
   39.1966   27.7172   16.2251 C   0  0  0  0  0  0  0  0  0  0  0  0
   39.6901   29.0170   15.5664 C   0  0  1  0  0  0  0  0  0  0  0  0
   40.5324   28.6823   14.4239 O   0  0  0  0  0  0  0  0  0  0  0  0
   38.4243   29.5997   14.9924 C   0  0  1  0  0  0  0  0  0  0  0  0
   37.8840   30.5665   15.8936 O   0  0  0  0  0  0  0  0  0  0  0  0
   38.8789   30.2717   13.7027 C   0  0  1  0  0  0  0  0  0  0  0  0
   39.1085   31.6651   13.8760 O   0  0  0  0  0  0  0  0  0  0  0  0
   40.2024   29.5417   13.2696 C   0  0  2  0  0  0  0  0  0  0  0  0
   41.3095   23.1325   12.9876 O   0  0  0  0  0  0  0  0  0  0  0  0
   41.0326   28.5055    8.1884 N   0  0  0  0  0  0  0  0  0  0  0  0
   41.3961   29.5964    8.8715 C   0  0  0  0  0  0  0  0  0  0  0  0
   41.1360   29.7173   10.1638 N   0  0  0  0  0  0  0  0  0  0  0  0
   40.4682   28.7648   10.8354 C   0  0  0  0  0  0  0  0  0  0  0  0
   40.0491   27.5951   10.1510 C   0  0  0  0  0  0  0  0  0  0  0  0
   40.3652   27.4968    8.7724 C   0  0  0  0  0  0  0  0  0  0  0  0
   39.9935   26.3894    8.0435 N   0  0  0  0  0  0  0  0  0  0  0  0
   39.4071   26.8140   11.0425 N   0  0  0  0  0  0  0  0  0  0  0  0
   39.3932   27.4101   12.1986 C   0  0  0  0  0  0  0  0  0  0  0  0
   40.0376   28.6139   12.1310 N   0  0  0  0  0  0  0  0  0  0  0  0
  2  1  1  6  0  0  0
  2  3  1  0  0  0  0
  2  5  1  0  0  0  0
  3  4  1  0  0  0  0
  3 17  1  0  0  0  0
  5  6  1  0  0  0  0
  7  6  1  1  0  0  0
  7  8  1  0  0  0  0
  7  9  1  0  0  0  0
 10  9  1  6  0  0  0
 10 11  1  0  0  0  0
 10 12  1  0  0  0  0
 11 16  1  0  0  0  0
 12 13  1  1  0  0  0
 12 14  1  0  0  0  0
 14 15  1  1  0  0  0
 14 16  1  0  0  0  0
 16 27  1  6  0  0  0
 18 19  2  0  0  0  0
 18 23  1  0  0  0  0
 19 20  1  0  0  0  0
 20 21  2  0  0  0  0
 21 22  1  0  0  0  0
 21 27  1  0  0  0  0
 22 23  2  0  0  0  0
 22 25  1  0  0  0  0
 23 24  1  0  0  0  0
 25 26  2  0  0  0  0
 26 27  1  0  0  0  0
M  END
>  <CHROM.1>
162.88671080,-79.47255923,-59.83263154,-142.07431410,-155.32910494,69.24366255
-138.80969218,40.14117272,27.42860886,13.48992084,-1.72612485,1.26884341
-1.15033751

>  <Name>
ligand

>  <RI>
0

>  <Rbt.Current_Directory>
/home/itssahil/PROJECTS/Mol_Feturizer/New_Systems/rnas/2GIS

>  <Rbt.Executable>
rbdock ($Id: //depot/dev/client3/rdock/2013.1/src/exe/rbdock.cxx#4 $)

>  <Rbt.Library>
libRbt.so (2013.1, Build901 2013/11/27)

>  <Rbt.Parameter_File>
/export/apps/rDock/src/rDock_2013.1_src/data/scripts/dock_solv.prm

>  <Rbt.Receptor>
prm/blind_docking_60.prm

>  <SCORE>
1.90241

>  <SCORE.INTER>
-0.667248

>  <SCORE.INTER.CONST>
1

>  <SCORE.INTER.POLAR>
0

>  <SCORE.INTER.ROT>
7

>  <SCORE.INTER.SOLV>
10.1608

>  <SCORE.INTER.VDW>
-12.0984

>  <SCORE.INTER.norm>
-0.0247129

>  <SCORE.INTRA>
-1.56519

>  <SCORE.INTRA.DIHEDRAL>
1.84333

>  <SCORE.INTRA.DIHEDRAL.0>
9.40024

>  <SCORE.INTRA.POLAR>
0

>  <SCORE.INTRA.POLAR.0>
0

>  <SCORE.INTRA.REPUL>
0

>  <SCORE.INTRA.REPUL.0>
0

>  <SCORE.INTRA.SOLV>
-1.07822

>  <SCORE.INTRA.SOLV.lig_0>
-47.1049

>  <SCORE.INTRA.VDW>
-1.94775

>  <SCORE.INTRA.VDW.0>
-1.50278

>  <SCORE.INTRA.norm>
-0.0579701

>  <SCORE.RESTR>
4.13485

>  <SCORE.RESTR.CAVITY>
4.13485

>  <SCORE.RESTR.norm>
0.153143

>  <SCORE.SYSTEM>
0

>  <SCORE.SYSTEM.CONST>
0

>  <SCORE.SYSTEM.DIHEDRAL>
0

>  <SCORE.SYSTEM.SOLV>
0

>  <SCORE.SYSTEM.norm>
0

>  <SCORE.heavy>
27

>  <SCORE.norm>
0.0704598

>  <RMSD>
36.077

$$$$
ligand
 OpenBabel11021811433D
libRbt.so/2013.1/901 2013/11/27
 27 29  0  0  0  0  0  0  0  0999 V2000
   38.0471   26.7880   16.5977 N   0  0  0  0  0  0  0  0  0  0  0  0
   39.4427   27.0404   16.2257 C   0  0  2  0  0  0  0  0  0  0  0  0
   40.3620   26.4692   17.2907 C   0  0  0  0  0  0  0  0  0  0  0  0
   40.8470   27.2083   18.1427 O   0  0  0  0  0  0  0  0  0  0  0  0
   39.7021   28.5518   16.0665 C   0  0  0  0  0  0  0  0  0  0  0  0
   38.8636   29.0857   14.9061 C   0  0  0  0  0  0  0  0  0  0  0  0
   39.1348   30.8578   14.4934 S   0  0  2  0  0  0  0  0  0  0  0  0
   37.5391   31.6489   14.8674 C   0  0  0  0  0  0  0  0  0  0  0  0
   39.0187   30.6548   12.7034 C   0  0  0  0  0  0  0  0  0  0  0  0
   40.2253   29.9307   12.0814 C   0  0  1  0  0  0  0  0  0  0  0  0
   40.6630   28.8721   12.9840 O   0  0  0  0  0  0  0  0  0  0  0  0
   39.6174   29.2355   10.8903 C   0  0  1  0  0  0  0  0  0  0  0  0
   39.8145   30.0244    9.7166 O   0  0  0  0  0  0  0  0  0  0  0  0
   40.3950   27.9291   10.7888 C   0  0  1  0  0  0  0  0  0  0  0  0
   41.4574   28.0092    9.8458 O   0  0  0  0  0  0  0  0  0  0  0  0
   40.9535   27.6370   12.2292 C   0  0  2  0  0  0  0  0  0  0  0  0
   40.6745   25.2786   17.2666 O   0  0  0  0  0  0  0  0  0  0  0  0
   41.1834   23.4156   15.3452 N   0  0  0  0  0  0  0  0  0  0  0  0
   42.2017   24.1539   14.8903 C   0  0  0  0  0  0  0  0  0  0  0  0
   41.9952   25.2113   14.1212 N   0  0  0  0  0  0  0  0  0  0  0  0
   40.7578   25.5678   13.7390 C   0  0  0  0  0  0  0  0  0  0  0  0
   39.6461   24.8074   14.1843 C   0  0  0  0  0  0  0  0  0  0  0  0
   39.9098   23.6946   15.0224 C   0  0  0  0  0  0  0  0  0  0  0  0
   38.8807   22.9120   15.4958 N   0  0  0  0  0  0  0  0  0  0  0  0
   38.5376   25.3686   13.6613 N   0  0  0  0  0  0  0  0  0  0  0  0
   38.8807   26.3917   12.9348 C   0  0  0  0  0  0  0  0  0  0  0  0
   40.2367   26.5648   12.9508 N   0  0  0  0  0  0  0  0  0  0  0  0
  2  1  1  1  0  0  0
  2  3  1  0  0  0  0
  2  5  1  0  0  0  0
  3  4  1  0  0  0  0
  3 17  1  0  0  0  0
  5  6  1  0  0  0  0
  7  6  1  1  0  0  0
  7  8  1  0  0  0  0
  7  9  1  0  0  0  0
 10  9  1  1  0  0  0
 10 11  1  0  0  0  0
 10 12  1  0  0  0  0
 11 16  1  0  0  0  0
 12 13  1  6  0  0  0
 12 14  1  0  0  0  0
 14 15  1  6  0  0  0
 14 16  1  0  0  0  0
 16 27  1  1  0  0  0
 18 19  2  0  0  0  0
 18 23  1  0  0  0  0
 19 20  1  0  0  0  0
 20 21  2  0  0  0  0
 21 22  1  0  0  0  0
 21 27  1  0  0  0  0
 22 23  2  0  0  0  0
 22 25  1  0  0  0  0
 23 24  1  0  0  0  0
 25 26  2  0  0  0  0
 26 27  1  0  0  0  0
M  END
>  <CHROM.1>
-99.65631343,-64.06377991,-175.92898757,-115.17182922,-71.46401286,37.81329912
-107.36691263,39.92411267,27.40673351,14.06540024,1.23274785,-1.23400533
2.19837288

>  <Name>
ligand

>  <RI>
0

>  <Rbt.Current_Directory>
/home/itssahil/PROJECTS/Mol_Feturizer/New_Systems/rnas/2GIS

>  <Rbt.Executable>
rbdock ($Id: //depot/dev/client3/rdock/2013.1/src/exe/rbdock.cxx#4 $)

>  <Rbt.Library>
libRbt.so (2013.1, Build901 2013/11/27)

>  <Rbt.Parameter_File>
/export/apps/rDock/src/rDock_2013.1_src/data/scripts/dock_solv.prm

>  <Rbt.Receptor>
prm/blind_docking_60.prm

>  <SCORE>
3.18058

>  <SCORE.INTER>
0.81266

>  <SCORE.INTER.CONST>
1

>  <SCORE.INTER.POLAR>
0

>  <SCORE.INTER.ROT>
7

>  <SCORE.INTER.SOLV>
7.07105

>  <SCORE.INTER.VDW>
-10.0819

>  <SCORE.INTER.norm>
0.0300985

>  <SCORE.INTRA>
-2.32434

>  <SCORE.INTRA.DIHEDRAL>
-0.595471

>  <SCORE.INTRA.DIHEDRAL.0>
9.40024

>  <SCORE.INTRA.POLAR>
0

>  <SCORE.INTRA.POLAR.0>
0

>  <SCORE.INTRA.REPUL>
0

>  <SCORE.INTRA.REPUL.0>
0

>  <SCORE.INTRA.SOLV>
0.180654

>  <SCORE.INTRA.SOLV.lig_0>
-47.1049

>  <SCORE.INTRA.VDW>
-2.11693

>  <SCORE.INTRA.VDW.0>
-1.50278

>  <SCORE.INTRA.norm>
-0.0860866

>  <SCORE.RESTR>
4.69226

>  <SCORE.RESTR.CAVITY>
4.69226

>  <SCORE.RESTR.norm>
0.173787

>  <SCORE.SYSTEM>
0

>  <SCORE.SYSTEM.CONST>
0

>  <SCORE.SYSTEM.DIHEDRAL>
0

>  <SCORE.SYSTEM.SOLV>
0

>  <SCORE.SYSTEM.norm>
0

>  <SCORE.heavy>
27

>  <SCORE.norm>
0.117799

>  <RMSD>
36.101

$$$$
ligand
 OpenBabel11021811433D
libRbt.so/2013.1/901 2013/11/27
 27 29  0  0  0  0  0  0  0  0999 V2000
   38.9814   24.8695   13.4707 N   0  0  0  0  0  0  0  0  0  0  0  0
   40.4416   24.8570   13.3381 C   0  0  2  0  0  0  0  0  0  0  0  0
   40.9665   23.4668   13.6497 C   0  0  0  0  0  0  0  0  0  0  0  0
   41.8074   22.9507   12.9189 O   0  0  0  0  0  0  0  0  0  0  0  0
   41.0865   25.8850   14.2889 C   0  0  0  0  0  0  0  0  0  0  0  0
   40.7236   25.5323   15.7306 C   0  0  0  0  0  0  0  0  0  0  0  0
   40.7999   26.9312   16.9229 S   0  0  2  0  0  0  0  0  0  0  0  0
   40.0876   26.2490   18.4524 C   0  0  0  0  0  0  0  0  0  0  0  0
   39.3897   27.8328   16.2466 C   0  0  0  0  0  0  0  0  0  0  0  0
   39.7718   29.1499   15.5491 C   0  0  1  0  0  0  0  0  0  0  0  0
   40.5854   28.8495   14.3766 O   0  0  0  0  0  0  0  0  0  0  0  0
   38.4487   29.6419   15.0212 C   0  0  1  0  0  0  0  0  0  0  0  0
   37.8861   30.5880   15.9307 O   0  0  0  0  0  0  0  0  0  0  0  0
   38.8057   30.3192   13.7038 C   0  0  1  0  0  0  0  0  0  0  0  0
   38.9533   31.7271   13.8473 O   0  0  0  0  0  0  0  0  0  0  0  0
   40.1538   29.6667   13.2252 C   0  0  2  0  0  0  0  0  0  0  0  0
   40.5064   22.8279   14.5962 O   0  0  0  0  0  0  0  0  0  0  0  0
   41.0074   28.5215    8.1714 N   0  0  0  0  0  0  0  0  0  0  0  0
   41.3584   29.6315    8.8300 C   0  0  0  0  0  0  0  0  0  0  0  0
   41.0938   29.7797   10.1185 N   0  0  0  0  0  0  0  0  0  0  0  0
   40.4336   28.8365   10.8104 C   0  0  0  0  0  0  0  0  0  0  0  0
   40.0278   27.6471   10.1522 C   0  0  0  0  0  0  0  0  0  0  0  0
   40.3484   27.5201    8.7770 C   0  0  0  0  0  0  0  0  0  0  0  0
   39.9896   26.3925    8.0731 N   0  0  0  0  0  0  0  0  0  0  0  0
   39.3912   26.8805   11.0600 N   0  0  0  0  0  0  0  0  0  0  0  0
   39.3685   27.5030   12.2020 C   0  0  0  0  0  0  0  0  0  0  0  0
   40.0011   28.7113   12.1081 N   0  0  0  0  0  0  0  0  0  0  0  0
  2  1  1  1  0  0  0
  2  3  1  0  0  0  0
  2  5  1  0  0  0  0
  3  4  1  0  0  0  0
  3 17  1  0  0  0  0
  5  6  1  0  0  0  0
  7  6  1  6  0  0  0
  7  8  1  0  0  0  0
  7  9  1  0  0  0  0
 10  9  1  6  0  0  0
 10 11  1  0  0  0  0
 10 12  1  0  0  0  0
 11 16  1  0  0  0  0
 12 13  1  1  0  0  0
 12 14  1  0  0  0  0
 14 15  1  1  0  0  0
 14 16  1  0  0  0  0
 16 27  1  6  0  0  0
 18 19  2  0  0  0  0
 18 23  1  0  0  0  0
 19 20  1  0  0  0  0
 20 21  2  0  0  0  0
 21 22  1  0  0  0  0
 21 27  1  0  0  0  0
 22 23  2  0  0  0  0
 22 25  1  0  0  0  0
 23 24  1  0  0  0  0
 25 26  2  0  0  0  0
 26 27  1  0  0  0  0
M  END
>  <CHROM.1>
134.54538349,60.36419403,-156.58918700,171.92239931,-110.93984031,64.71944938
-134.79814601,40.11581898,27.46350692,13.30535411,-1.71710660,1.32255641
-1.14968519

>  <Name>
ligand

>  <RI>
0

>  <Rbt.Current_Directory>
/home/itssahil/PROJECTS/Mol_Feturizer/New_Systems/rnas/2GIS

>  <Rbt.Executable>
rbdock ($Id: //depot/dev/client3/rdock/2013.1/src/exe/rbdock.cxx#4 $)

>  <Rbt.Library>
libRbt.so (2013.1, Build901 2013/11/27)

>  <Rbt.Parameter_File>
/export/apps/rDock/src/rDock_2013.1_src/data/scripts/dock_solv.prm

>  <Rbt.Receptor>
prm/blind_docking_60.prm

>  <SCORE>
2.03569

>  <SCORE.INTER>
-0.550524

>  <SCORE.INTER.CONST>
1

>  <SCORE.INTER.POLAR>
0

>  <SCORE.INTER.ROT>
7

>  <SCORE.INTER.SOLV>
10.1641

>  <SCORE.INTER.VDW>
-12.0217

>  <SCORE.INTER.norm>
-0.0203898

>  <SCORE.INTRA>
-1.99813

>  <SCORE.INTRA.DIHEDRAL>
-0.501764

>  <SCORE.INTRA.DIHEDRAL.0>
9.40024

>  <SCORE.INTRA.POLAR>
0

>  <SCORE.INTRA.POLAR.0>
0

>  <SCORE.INTRA.REPUL>
0

>  <SCORE.INTRA.REPUL.0>
0

>  <SCORE.INTRA.SOLV>
-0.614619

>  <SCORE.INTRA.SOLV.lig_0>
-47.1049

>  <SCORE.INTRA.VDW>
-1.43994

>  <SCORE.INTRA.VDW.0>
-1.50278

>  <SCORE.INTRA.norm>
-0.074005

>  <SCORE.RESTR>
4.58435

>  <SCORE.RESTR.CAVITY>
4.58435

>  <SCORE.RESTR.norm>
0.169791

>  <SCORE.SYSTEM>
0

>  <SCORE.SYSTEM.CONST>
0

>  <SCORE.SYSTEM.DIHEDRAL>
0

>  <SCORE.SYSTEM.SOLV>
0

>  <SCORE.SYSTEM.norm>
0

>  <SCORE.heavy>
27

>  <SCORE.norm>
0.0753959

>  <RMSD>
36.120

$$$$
ligand
 OpenBabel11021811433D
libRbt.so/2013.1/901 2013/11/27
 27 29  0  0  0  0  0  0  0  0999 V2000
   40.6983   22.4532   13.4832 N   0  0  0  0  0  0  0  0  0  0  0  0
   40.3348   23.7591   14.0421 C   0  0  2  0  0  0  0  0  0  0  0  0
   41.5151   24.7068   13.9242 C   0  0  0  0  0  0  0  0  0  0  0  0
   41.3785   25.7895   13.3617 O   0  0  0  0  0  0  0  0  0  0  0  0
   39.9170   23.6249   15.5201 C   0  0  0  0  0  0  0  0  0  0  0  0
   39.2928   24.9391   15.9867 C   0  0  0  0  0  0  0  0  0  0  0  0
   40.4838   26.3070   16.2946 S   0  0  2  0  0  0  0  0  0  0  0  0
   40.8629   26.1732   18.0695 C   0  0  0  0  0  0  0  0  0  0  0  0
   39.2561   27.6304   16.2931 C   0  0  0  0  0  0  0  0  0  0  0  0
   39.7502   28.9346   15.6436 C   0  0  1  0  0  0  0  0  0  0  0  0
   40.5776   28.6078   14.4880 O   0  0  0  0  0  0  0  0  0  0  0  0
   38.4816   29.5314   15.0905 C   0  0  1  0  0  0  0  0  0  0  0  0
   37.9574   30.4912   16.0085 O   0  0  0  0  0  0  0  0  0  0  0  0
   38.9259   30.2151   13.8033 C   0  0  1  0  0  0  0  0  0  0  0  0
   39.1660   31.6051   13.9897 O   0  0  0  0  0  0  0  0  0  0  0  0
   40.2400   29.4821   13.3472 C   0  0  2  0  0  0  0  0  0  0  0  0
   42.6257   24.3682   14.3340 O   0  0  0  0  0  0  0  0  0  0  0  0
   41.0134   28.4952    8.2473 N   0  0  0  0  0  0  0  0  0  0  0  0
   41.3923   29.5756    8.9388 C   0  0  0  0  0  0  0  0  0  0  0  0
   41.1455   29.6843   10.2347 N   0  0  0  0  0  0  0  0  0  0  0  0
   40.4763   28.7300   10.9023 C   0  0  0  0  0  0  0  0  0  0  0  0
   40.0412   27.5713   10.2092 C   0  0  0  0  0  0  0  0  0  0  0  0
   40.3433   27.4856    8.8266 C   0  0  0  0  0  0  0  0  0  0  0  0
   39.9556   26.3893    8.0893 N   0  0  0  0  0  0  0  0  0  0  0  0
   39.4012   26.7856   11.0982 N   0  0  0  0  0  0  0  0  0  0  0  0
   39.4033   27.3691   12.2609 C   0  0  0  0  0  0  0  0  0  0  0  0
   40.0568   28.5683   12.2002 N   0  0  0  0  0  0  0  0  0  0  0  0
  2  1  1  1  0  0  0
  2  3  1  0  0  0  0
  2  5  1  0  0  0  0
  3  4  1  0  0  0  0
  3 17  1  0  0  0  0
  5  6  1  0  0  0  0
  7  6  1  1  0  0  0
  7  8  1  0  0  0  0
  7  9  1  0  0  0  0
 10  9  1  6  0  0  0
 10 11  1  0  0  0  0
 10 12  1  0  0  0  0
 11 16  1  0  0  0  0
 12 13  1  1  0  0  0
 12 14  1  0  0  0  0
 14 15  1  1  0  0  0
 14 16  1  0  0  0  0
 16 27  1  6  0  0  0
 18 19  2  0  0  0  0
 18 23  1  0  0  0  0
 19 20  1  0  0  0  0
 20 21  2  0  0  0  0
 21 22  1  0  0  0  0
 21 27  1  0  0  0  0
 22 23  2  0  0  0  0
 22 25  1  0  0  0  0
 23 24  1  0  0  0  0
 25 26  2  0  0  0  0
 26 27  1  0  0  0  0
M  END
>  <CHROM.1>
125.28905395,-169.13201443,-75.09823595,-92.99364259,-142.85649354,38.01486492
-138.65597620,40.19117195,27.32895321,13.38375627,-1.63645197,1.28716981
-1.08520692

>  <Name>
ligand

>  <RI>
0

>  <Rbt.Current_Directory>
/home/itssahil/PROJECTS/Mol_Feturizer/New_Systems/rnas/2GIS

>  <Rbt.Executable>
rbdock ($Id: //depot/dev/client3/rdock/2013.1/src/exe/rbdock.cxx#4 $)

>  <Rbt.Library>
libRbt.so (2013.1, Build901 2013/11/27)

>  <Rbt.Parameter_File>
/export/apps/rDock/src/rDock_2013.1_src/data/scripts/dock_solv.prm

>  <Rbt.Receptor>
prm/blind_docking_60.prm

>  <SCORE>
0.783987

>  <SCORE.INTER>
-0.107991

>  <SCORE.INTER.CONST>
1

>  <SCORE.INTER.POLAR>
0

>  <SCORE.INTER.ROT>
7

>  <SCORE.INTER.SOLV>
13.7677

>  <SCORE.INTER.VDW>
-12.9279

>  <SCORE.INTER.norm>
-0.00399965

>  <SCORE.INTRA>
-2.82568

>  <SCORE.INTRA.DIHEDRAL>
1.85289

>  <SCORE.INTRA.DIHEDRAL.0>
9.40024

>  <SCORE.INTRA.POLAR>
0

>  <SCORE.INTRA.POLAR.0>
0

>  <SCORE.INTRA.REPUL>
0

>  <SCORE.INTRA.REPUL.0>
0

>  <SCORE.INTRA.SOLV>
-2.89653

>  <SCORE.INTRA.SOLV.lig_0>
-47.1049

>  <SCORE.INTRA.VDW>
-2.30386

>  <SCORE.INTRA.VDW.0>
-1.50278

>  <SCORE.INTRA.norm>
-0.104655

>  <SCORE.RESTR>
3.71766

>  <SCORE.RESTR.CAVITY>
3.71766

>  <SCORE.RESTR.norm>
0.137691

>  <SCORE.SYSTEM>
0

>  <SCORE.SYSTEM.CONST>
0

>  <SCORE.SYSTEM.DIHEDRAL>
0

>  <SCORE.SYSTEM.SOLV>
0

>  <SCORE.SYSTEM.norm>
0

>  <SCORE.heavy>
27

>  <SCORE.norm>
0.0290366

>  <RMSD>
36.150

$$$$
ligand
 OpenBabel11021811433D
libRbt.so/2013.1/901 2013/11/27
 27 29  0  0  0  0  0  0  0  0999 V2000
   40.5715   29.4959    8.7965 N   0  0  0  0  0  0  0  0  0  0  0  0
   40.9737   29.6560   10.1974 C   0  0  2  0  0  0  0  0  0  0  0  0
   41.8112   28.4633   10.6233 C   0  0  0  0  0  0  0  0  0  0  0  0
   41.2836   27.5204   11.2065 O   0  0  0  0  0  0  0  0  0  0  0  0
   39.7380   29.7807   11.1108 C   0  0  0  0  0  0  0  0  0  0  0  0
   40.1985   29.9784   12.5543 C   0  0  0  0  0  0  0  0  0  0  0  0
   38.9459   29.5729   13.8391 S   0  0  2  0  0  0  0  0  0  0  0  0
   38.5664   31.1773   14.6097 C   0  0  0  0  0  0  0  0  0  0  0  0
   40.1128   28.8762   15.0273 C   0  0  0  0  0  0  0  0  0  0  0  0
   39.4415   28.1119   16.1815 C   0  0  1  0  0  0  0  0  0  0  0  0
   38.8790   26.8688   15.6663 O   0  0  0  0  0  0  0  0  0  0  0  0
   40.6132   27.7125   17.0411 C   0  0  1  0  0  0  0  0  0  0  0  0
   40.7775   28.6527   18.1030 O   0  0  0  0  0  0  0  0  0  0  0  0
   40.2170   26.3495   17.5952 C   0  0  1  0  0  0  0  0  0  0  0  0
   39.6531   26.4436   18.8981 O   0  0  0  0  0  0  0  0  0  0  0  0
   39.1747   25.7494   16.5824 C   0  0  2  0  0  0  0  0  0  0  0  0
   43.0292   28.4647   10.4434 O   0  0  0  0  0  0  0  0  0  0  0  0
   40.7772   24.2173   11.8215 N   0  0  0  0  0  0  0  0  0  0  0  0
   40.3093   25.4177   12.1809 C   0  0  0  0  0  0  0  0  0  0  0  0
   39.9566   25.6725   13.4310 N   0  0  0  0  0  0  0  0  0  0  0  0
   40.0229   24.7275   14.3834 C   0  0  0  0  0  0  0  0  0  0  0  0
   40.4993   23.4341   14.0480 C   0  0  0  0  0  0  0  0  0  0  0  0
   40.8852   23.2092   12.7024 C   0  0  0  0  0  0  0  0  0  0  0  0
   41.3601   21.9798   12.3037 N   0  0  0  0  0  0  0  0  0  0  0  0
   40.4616   22.6867   15.1692 N   0  0  0  0  0  0  0  0  0  0  0  0
   39.9977   23.4088   16.1468 C   0  0  0  0  0  0  0  0  0  0  0  0
   39.7155   24.6770   15.7212 N   0  0  0  0  0  0  0  0  0  0  0  0
  2  1  1  6  0  0  0
  2  3  1  0  0  0  0
  2  5  1  0  0  0  0
  3  4  1  0  0  0  0
  3 17  1  0  0  0  0
  5  6  1  0  0  0  0
  7  6  1  6  0  0  0
  7  8  1  0  0  0  0
  7  9  1  0  0  0  0
 10  9  1  6  0  0  0
 10 11  1  0  0  0  0
 10 12  1  0  0  0  0
 11 16  1  0  0  0  0
 12 13  1  1  0  0  0
 12 14  1  0  0  0  0
 14 15  1  1  0  0  0
 14 16  1  0  0  0  0
 16 27  1  6  0  0  0
 18 19  2  0  0  0  0
 18 23  1  0  0  0  0
 19 20  1  0  0  0  0
 20 21  2  0  0  0  0
 21 22  1  0  0  0  0
 21 27  1  0  0  0  0
 22 23  2  0  0  0  0
 22 25  1  0  0  0  0
 23 24  1  0  0  0  0
 25 26  2  0  0  0  0
 26 27  1  0  0  0  0
M  END
>  <CHROM.1>
-96.00463166,-178.68737225,-159.76559097,-113.33027781,-167.48109043,70.77941524
6.35521459,40.23293485,26.96688804,13.95885123,-1.17774815,-1.31479796,2.62449029

>  <Name>
ligand

>  <RI>
0

>  <Rbt.Current_Directory>
/home/itssahil/PROJECTS/Mol_Feturizer/New_Systems/rnas/2GIS

>  <Rbt.Executable>
rbdock ($Id: //depot/dev/client3/rdock/2013.1/src/exe/rbdock.cxx#4 $)

>  <Rbt.Library>
libRbt.so (2013.1, Build901 2013/11/27)

>  <Rbt.Parameter_File>
/export/apps/rDock/src/rDock_2013.1_src/data/scripts/dock_solv.prm

>  <Rbt.Receptor>
prm/blind_docking_60.prm

>  <SCORE>
4.53857

>  <SCORE.INTER>
0.10506

>  <SCORE.INTER.CONST>
1

>  <SCORE.INTER.POLAR>
0

>  <SCORE.INTER.ROT>
7

>  <SCORE.INTER.SOLV>
16.1377

>  <SCORE.INTER.VDW>
-13.5759

>  <SCORE.INTER.norm>
0.00389113

>  <SCORE.INTRA>
-1.12383

>  <SCORE.INTRA.DIHEDRAL>
0.536066

>  <SCORE.INTRA.DIHEDRAL.0>
9.40024

>  <SCORE.INTRA.POLAR>
0

>  <SCORE.INTRA.POLAR.0>
0

>  <SCORE.INTRA.REPUL>
0

>  <SCORE.INTRA.REPUL.0>
0

>  <SCORE.INTRA.SOLV>
-3.16851

>  <SCORE.INTRA.SOLV.lig_0>
-47.1049

>  <SCORE.INTRA.VDW>
0.19239

>  <SCORE.INTRA.VDW.0>
-1.50278

>  <SCORE.INTRA.norm>
-0.0416234

>  <SCORE.RESTR>
5.55734

>  <SCORE.RESTR.CAVITY>
5.55734

>  <SCORE.RESTR.norm>
0.205827

>  <SCORE.SYSTEM>
0

>  <SCORE.SYSTEM.CONST>
0

>  <SCORE.SYSTEM.DIHEDRAL>
0

>  <SCORE.SYSTEM.SOLV>
0

>  <SCORE.SYSTEM.norm>
0

>  <SCORE.heavy>
27

>  <SCORE.norm>
0.168095

>  <RMSD>
36.157

$$$$
ligand
 OpenBabel11021811433D
libRbt.so/2013.1/901 2013/11/27
 27 29  0  0  0  0  0  0  0  0999 V2000
   41.0314   30.0864    9.9414 N   0  0  0  0  0  0  0  0  0  0  0  0
   40.7867   29.4215   11.2251 C   0  0  2  0  0  0  0  0  0  0  0  0
   41.8666   28.3832   11.4716 C   0  0  0  0  0  0  0  0  0  0  0  0
   41.9588   27.8431   12.5704 O   0  0  0  0  0  0  0  0  0  0  0  0
   39.4002   28.7473   11.2368 C   0  0  0  0  0  0  0  0  0  0  0  0
   39.1431   28.1519   12.6203 C   0  0  0  0  0  0  0  0  0  0  0  0
   38.6823   29.3664   13.9230 S   0  0  2  0  0  0  0  0  0  0  0  0
   39.3723   30.9407   13.3250 C   0  0  0  0  0  0  0  0  0  0  0  0
   39.9419   28.8559   15.1111 C   0  0  0  0  0  0  0  0  0  0  0  0
   39.3937   28.0046   16.2696 C   0  0  1  0  0  0  0  0  0  0  0  0
   38.8918   26.7429   15.7377 O   0  0  0  0  0  0  0  0  0  0  0  0
   40.6382   27.6616   17.0473 C   0  0  1  0  0  0  0  0  0  0  0  0
   40.7965   28.5734   18.1346 O   0  0  0  0  0  0  0  0  0  0  0  0
   40.3718   26.2548   17.5684 C   0  0  1  0  0  0  0  0  0  0  0  0
   39.8785   26.2617   18.9030 O   0  0  0  0  0  0  0  0  0  0  0  0
   39.3180   25.6164   16.5916 C   0  0  2  0  0  0  0  0  0  0  0  0
   42.6912   28.1256   10.5943 O   0  0  0  0  0  0  0  0  0  0  0  0
   40.7641   24.3793   11.6967 N   0  0  0  0  0  0  0  0  0  0  0  0
   40.2369   25.5302   12.1285 C   0  0  0  0  0  0  0  0  0  0  0  0
   39.9348   25.7126   13.4044 N   0  0  0  0  0  0  0  0  0  0  0  0
   40.1146   24.7392   14.3123 C   0  0  0  0  0  0  0  0  0  0  0  0
   40.6579   23.4953   13.9002 C   0  0  0  0  0  0  0  0  0  0  0  0
   40.9859   23.3484   12.5287 C   0  0  0  0  0  0  0  0  0  0  0  0
   41.5201   22.1707   12.0562 N   0  0  0  0  0  0  0  0  0  0  0  0
   40.7298   22.7053   14.9900 N   0  0  0  0  0  0  0  0  0  0  0  0
   40.2713   23.3562   16.0188 C   0  0  0  0  0  0  0  0  0  0  0  0
   39.8827   24.6171   15.6607 N   0  0  0  0  0  0  0  0  0  0  0  0
  2  1  1  6  0  0  0
  2  3  1  0  0  0  0
  2  5  1  0  0  0  0
  3  4  1  0  0  0  0
  3 17  1  0  0  0  0
  5  6  1  0  0  0  0
  7  6  1  6  0  0  0
  7  8  1  0  0  0  0
  7  9  1  0  0  0  0
 10  9  1  6  0  0  0
 10 11  1  0  0  0  0
 10 12  1  0  0  0  0
 11 16  1  0  0  0  0
 12 13  1  1  0  0  0
 12 14  1  0  0  0  0
 14 15  1  1  0  0  0
 14 16  1  0  0  0  0
 16 27  1  6  0  0  0
 18 19  2  0  0  0  0
 18 23  1  0  0  0  0
 19 20  1  0  0  0  0
 20 21  2  0  0  0  0
 21 22  1  0  0  0  0
 21 27  1  0  0  0  0
 22 23  2  0  0  0  0
 22 25  1  0  0  0  0
 23 24  1  0  0  0  0
 25 26  2  0  0  0  0
 26 27  1  0  0  0  0
M  END
>  <CHROM.1>
169.81423682,-176.05763561,76.59632216,-23.91878145,-103.66385266,64.86554651
6.71785464,40.26873084,26.83980821,14.05614441,-1.34111491,-1.32097430,2.53627581

>  <Name>
ligand

>  <RI>
0

>  <Rbt.Current_Directory>
/home/itssahil/PROJECTS/Mol_Feturizer/New_Systems/rnas/2GIS

>  <Rbt.Executable>
rbdock ($Id: //depot/dev/client3/rdock/2013.1/src/exe/rbdock.cxx#4 $)

>  <Rbt.Library>
libRbt.so (2013.1, Build901 2013/11/27)

>  <Rbt.Parameter_File>
/export/apps/rDock/src/rDock_2013.1_src/data/scripts/dock_solv.prm

>  <Rbt.Receptor>
prm/blind_docking_60.prm

>  <SCORE>
8.72163

>  <SCORE.INTER>
1.5434

>  <SCORE.INTER.CONST>
1

>  <SCORE.INTER.POLAR>
0

>  <SCORE.INTER.ROT>
7

>  <SCORE.INTER.SOLV>
17.4304

>  <SCORE.INTER.VDW>
-13.0479

>  <SCORE.INTER.norm>
0.057163

>  <SCORE.INTRA>
1.54715

>  <SCORE.INTRA.DIHEDRAL>
1.62471

>  <SCORE.INTRA.DIHEDRAL.0>
9.40024

>  <SCORE.INTRA.POLAR>
0

>  <SCORE.INTRA.POLAR.0>
0

>  <SCORE.INTRA.REPUL>
0

>  <SCORE.INTRA.REPUL.0>
0

>  <SCORE.INTRA.SOLV>
-2.24806

>  <SCORE.INTRA.SOLV.lig_0>
-47.1049

>  <SCORE.INTRA.VDW>
1.85883

>  <SCORE.INTRA.VDW.0>
-1.50278

>  <SCORE.INTRA.norm>
0.057302

>  <SCORE.RESTR>
5.63108

>  <SCORE.RESTR.CAVITY>
5.63108

>  <SCORE.RESTR.norm>
0.208558

>  <SCORE.SYSTEM>
0

>  <SCORE.SYSTEM.CONST>
0

>  <SCORE.SYSTEM.DIHEDRAL>
0

>  <SCORE.SYSTEM.SOLV>
0

>  <SCORE.SYSTEM.norm>
0

>  <SCORE.heavy>
27

>  <SCORE.norm>
0.323023

>  <RMSD>
36.183

$$$$
ligand
 OpenBabel11021811433D
libRbt.so/2013.1/901 2013/11/27
 27 29  0  0  0  0  0  0  0  0999 V2000
   39.8316   23.1204   13.1790 N   0  0  0  0  0  0  0  0  0  0  0  0
   40.6510   23.9949   14.0238 C   0  0  2  0  0  0  0  0  0  0  0  0
   40.8603   23.3401   15.3776 C   0  0  0  0  0  0  0  0  0  0  0  0
   40.0688   22.4906   15.7769 O   0  0  0  0  0  0  0  0  0  0  0  0
   39.9763   25.3691   14.2060 C   0  0  0  0  0  0  0  0  0  0  0  0
   41.0101   26.3727   14.7146 C   0  0  0  0  0  0  0  0  0  0  0  0
   40.7309   26.9865   16.4261 S   0  0  2  0  0  0  0  0  0  0  0  0
   39.9156   25.5944   17.2685 C   0  0  0  0  0  0  0  0  0  0  0  0
   39.3169   28.0338   16.0228 C   0  0  0  0  0  0  0  0  0  0  0  0
   39.6970   29.3402   15.3044 C   0  0  1  0  0  0  0  0  0  0  0  0
   40.5298   29.0241   14.1497 O   0  0  0  0  0  0  0  0  0  0  0  0
   38.3772   29.8094   14.7484 C   0  0  1  0  0  0  0  0  0  0  0  0
   37.7933   30.7681   15.6307 O   0  0  0  0  0  0  0  0  0  0  0  0
   38.7467   30.4636   13.4228 C   0  0  1  0  0  0  0  0  0  0  0  0
   38.8797   31.8754   13.5401 O   0  0  0  0  0  0  0  0  0  0  0  0
   40.1072   29.8142   12.9763 C   0  0  2  0  0  0  0  0  0  0  0  0
   41.7848   23.7023   16.1055 O   0  0  0  0  0  0  0  0  0  0  0  0
   40.9886   28.6014    7.9430 N   0  0  0  0  0  0  0  0  0  0  0  0
   41.3110   29.7317    8.5814 C   0  0  0  0  0  0  0  0  0  0  0  0
   41.0430   29.8959    9.8673 N   0  0  0  0  0  0  0  0  0  0  0  0
   40.4076   28.9484   10.5764 C   0  0  0  0  0  0  0  0  0  0  0  0
   40.0326   27.7375    9.9399 C   0  0  0  0  0  0  0  0  0  0  0  0
   40.3559   27.5942    8.5669 C   0  0  0  0  0  0  0  0  0  0  0  0
   40.0261   26.4453    7.8835 N   0  0  0  0  0  0  0  0  0  0  0  0
   39.4162   26.9710   10.8617 N   0  0  0  0  0  0  0  0  0  0  0  0
   39.3778   27.6130   11.9924 C   0  0  0  0  0  0  0  0  0  0  0  0
   39.9790   28.8354   11.8765 N   0  0  0  0  0  0  0  0  0  0  0  0
  2  1  1  6  0  0  0
  2  3  1  0  0  0  0
  2  5  1  0  0  0  0
  3  4  1  0  0  0  0
  3 17  1  0  0  0  0
  5  6  1  0  0  0  0
  7  6  1  6  0  0  0
  7  8  1  0  0  0  0
  7  9  1  0  0  0  0
 10  9  1  1  0  0  0
 10 11  1  0  0  0  0
 10 12  1  0  0  0  0
 11 16  1  0  0  0  0
 12 13  1  1  0  0  0
 12 14  1  0  0  0  0
 14 15  1  1  0  0  0
 14 16  1  0  0  0  0
 16 27  1  6  0  0  0
 18 19  2  0  0  0  0
 18 23  1  0  0  0  0
 19 20  1  0  0  0  0
 20 21  2  0  0  0  0
 21 22  1  0  0  0  0
 21 27  1  0  0  0  0
 22 23  2  0  0  0  0
 22 25  1  0  0  0  0
 23 24  1  0  0  0  0
 25 26  2  0  0  0  0
 26 27  1  0  0  0  0
M  END
>  <CHROM.1>
-22.93854881,-163.13434943,-112.99558885,30.61354293,-75.30790779,52.37500888
-136.07746752,40.06650735,27.45718136,13.27315987,-1.43752515,1.33373054
-1.08624245

>  <Name>
ligand

>  <RI>
0

>  <Rbt.Current_Directory>
/home/itssahil/PROJECTS/Mol_Feturizer/New_Systems/rnas/2GIS

>  <Rbt.Executable>
rbdock ($Id: //depot/dev/client3/rdock/2013.1/src/exe/rbdock.cxx#4 $)

>  <Rbt.Library>
libRbt.so (2013.1, Build901 2013/11/27)

>  <Rbt.Parameter_File>
/export/apps/rDock/src/rDock_2013.1_src/data/scripts/dock_solv.prm

>  <Rbt.Receptor>
prm/blind_docking_60.prm

>  <SCORE>
5.4485

>  <SCORE.INTER>
0.287986

>  <SCORE.INTER.CONST>
1

>  <SCORE.INTER.POLAR>
0

>  <SCORE.INTER.ROT>
7

>  <SCORE.INTER.SOLV>
9.84282

>  <SCORE.INTER.VDW>
-11.3556

>  <SCORE.INTER.norm>
0.0106661

>  <SCORE.INTRA>
-0.356499

>  <SCORE.INTRA.DIHEDRAL>
1.62867

>  <SCORE.INTRA.DIHEDRAL.0>
9.40024

>  <SCORE.INTRA.POLAR>
0

>  <SCORE.INTRA.POLAR.0>
0

>  <SCORE.INTRA.REPUL>
0

>  <SCORE.INTRA.REPUL.0>
0

>  <SCORE.INTRA.SOLV>
-2.88234

>  <SCORE.INTRA.SOLV.lig_0>
-47.1049

>  <SCORE.INTRA.VDW>
0.270335

>  <SCORE.INTRA.VDW.0>
-1.50278

>  <SCORE.INTRA.norm>
-0.0132037

>  <SCORE.RESTR>
5.51701

>  <SCORE.RESTR.CAVITY>
5.51701

>  <SCORE.RESTR.norm>
0.204334

>  <SCORE.SYSTEM>
0

>  <SCORE.SYSTEM.CONST>
0

>  <SCORE.SYSTEM.DIHEDRAL>
0

>  <SCORE.SYSTEM.SOLV>
0

>  <SCORE.SYSTEM.norm>
0

>  <SCORE.heavy>
27

>  <SCORE.norm>
0.201796

>  <RMSD>
36.200

$$$$
ligand
 OpenBabel11021811433D
libRbt.so/2013.1/901 2013/11/27
 27 29  0  0  0  0  0  0  0  0999 V2000
   39.5111   24.7008   12.7260 N   0  0  0  0  0  0  0  0  0  0  0  0
   40.1090   24.7979   14.0614 C   0  0  2  0  0  0  0  0  0  0  0  0
   41.3278   23.8957   14.1373 C   0  0  0  0  0  0  0  0  0  0  0  0
   42.2231   24.1407   14.9410 O   0  0  0  0  0  0  0  0  0  0  0  0
   39.0915   24.3952   15.1473 C   0  0  0  0  0  0  0  0  0  0  0  0
   39.7131   24.6180   16.5252 C   0  0  0  0  0  0  0  0  0  0  0  0
   40.6734   26.1762   16.7092 S   0  0  2  0  0  0  0  0  0  0  0  0
   40.7168   26.4603   18.5063 C   0  0  0  0  0  0  0  0  0  0  0  0
   39.3374   27.2819   16.2079 C   0  0  0  0  0  0  0  0  0  0  0  0
   39.8246   28.6209   15.6276 C   0  0  1  0  0  0  0  0  0  0  0  0
   40.6425   28.3599   14.4487 O   0  0  0  0  0  0  0  0  0  0  0  0
   38.5507   29.2454   15.1191 C   0  0  1  0  0  0  0  0  0  0  0  0
   38.0334   30.1521   16.0933 O   0  0  0  0  0  0  0  0  0  0  0  0
   38.9834   30.0001   13.8681 C   0  0  1  0  0  0  0  0  0  0  0  0
   39.2237   31.3780   14.1293 O   0  0  0  0  0  0  0  0  0  0  0  0
   40.2943   29.2955   13.3610 C   0  0  2  0  0  0  0  0  0  0  0  0
   41.4532   22.9552   13.3528 O   0  0  0  0  0  0  0  0  0  0  0  0
   41.1043   28.5510    8.2257 N   0  0  0  0  0  0  0  0  0  0  0  0
   41.5015   29.5848    8.9758 C   0  0  0  0  0  0  0  0  0  0  0  0
   41.2419   29.6334   10.2729 N   0  0  0  0  0  0  0  0  0  0  0  0
   40.5412   28.6635   10.8833 C   0  0  0  0  0  0  0  0  0  0  0  0
   40.0859   27.5531   10.1270 C   0  0  0  0  0  0  0  0  0  0  0  0
   40.4024   27.5305    8.7452 C   0  0  0  0  0  0  0  0  0  0  0  0
   39.9966   26.4835    7.9484 N   0  0  0  0  0  0  0  0  0  0  0  0
   39.4160   26.7396   10.9675 N   0  0  0  0  0  0  0  0  0  0  0  0
   39.4185   27.2627   12.1586 C   0  0  0  0  0  0  0  0  0  0  0  0
   40.1023   28.4465   12.1667 N   0  0  0  0  0  0  0  0  0  0  0  0
  2  1  1  6  0  0  0
  2  3  1  0  0  0  0
  2  5  1  0  0  0  0
  3  4  1  0  0  0  0
  3 17  1  0  0  0  0
  5  6  1  0  0  0  0
  7  6  1  1  0  0  0
  7  8  1  0  0  0  0
  7  9  1  0  0  0  0
 10  9  1  6  0  0  0
 10 11  1  0  0  0  0
 10 12  1  0  0  0  0
 11 16  1  0  0  0  0
 12 13  1  1  0  0  0
 12 14  1  0  0  0  0
 14 15  1  1  0  0  0
 14 16  1  0  0  0  0
 16 27  1  6  0  0  0
 18 19  2  0  0  0  0
 18 23  1  0  0  0  0
 19 20  1  0  0  0  0
 20 21  2  0  0  0  0
 21 22  1  0  0  0  0
 21 27  1  0  0  0  0
 22 23  2  0  0  0  0
 22 25  1  0  0  0  0
 23 24  1  0  0  0  0
 25 26  2  0  0  0  0
 26 27  1  0  0  0  0
M  END
>  <CHROM.1>
154.98329570,-175.42590112,41.95948786,159.00730546,-154.67891383,60.03105781
-136.74889221,40.15617195,27.22429895,13.43471613,-1.71306089,1.31667389
-1.09065377

>  <Name>
ligand

>  <RI>
0

>  <Rbt.Current_Directory>
/home/itssahil/PROJECTS/Mol_Feturizer/New_Systems/rnas/2GIS

>  <Rbt.Executable>
rbdock ($Id: //depot/dev/client3/rdock/2013.1/src/exe/rbdock.cxx#4 $)

>  <Rbt.Library>
libRbt.so (2013.1, Build901 2013/11/27)

>  <Rbt.Parameter_File>
/export/apps/rDock/src/rDock_2013.1_src/data/scripts/dock_solv.prm

>  <Rbt.Receptor>
prm/blind_docking_60.prm

>  <SCORE>
1.34436

>  <SCORE.INTER>
-1.37387

>  <SCORE.INTER.CONST>
1

>  <SCORE.INTER.POLAR>
0

>  <SCORE.INTER.ROT>
7

>  <SCORE.INTER.SOLV>
10.2462

>  <SCORE.INTER.VDW>
-12.598

>  <SCORE.INTER.norm>
-0.0508839

>  <SCORE.INTRA>
-1.78167

>  <SCORE.INTRA.DIHEDRAL>
-1.89649

>  <SCORE.INTRA.DIHEDRAL.0>
9.40024

>  <SCORE.INTRA.POLAR>
0

>  <SCORE.INTRA.POLAR.0>
0

>  <SCORE.INTRA.REPUL>
0

>  <SCORE.INTRA.REPUL.0>
0

>  <SCORE.INTRA.SOLV>
-0.695355

>  <SCORE.INTRA.SOLV.lig_0>
-47.1049

>  <SCORE.INTRA.VDW>
-0.485744

>  <SCORE.INTRA.VDW.0>
-1.50278

>  <SCORE.INTRA.norm>
-0.0659877

>  <SCORE.RESTR>
4.49989

>  <SCORE.RESTR.CAVITY>
4.49989

>  <SCORE.RESTR.norm>
0.166663

>  <SCORE.SYSTEM>
0

>  <SCORE.SYSTEM.CONST>
0

>  <SCORE.SYSTEM.DIHEDRAL>
0

>  <SCORE.SYSTEM.SOLV>
0

>  <SCORE.SYSTEM.norm>
0

>  <SCORE.heavy>
27

>  <SCORE.norm>
0.049791

>  <RMSD>
36.216

$$$$
ligand
 OpenBabel11021811433D
libRbt.so/2013.1/901 2013/11/27
 27 29  0  0  0  0  0  0  0  0999 V2000
   38.9470   23.9839   14.9057 N   0  0  0  0  0  0  0  0  0  0  0  0
   40.2745   24.2584   14.3469 C   0  0  2  0  0  0  0  0  0  0  0  0
   40.7493   23.0535   13.5543 C   0  0  0  0  0  0  0  0  0  0  0  0
   40.1193   22.0008   13.6022 O   0  0  0  0  0  0  0  0  0  0  0  0
   41.2843   24.5788   15.4669 C   0  0  0  0  0  0  0  0  0  0  0  0
   40.5247   25.0246   16.7155 C   0  0  0  0  0  0  0  0  0  0  0  0
   40.8333   26.7598   17.2429 S   0  0  2  0  0  0  0  0  0  0  0  0
   40.1432   26.8409   18.9250 C   0  0  0  0  0  0  0  0  0  0  0  0
   39.4963   27.4918   16.2757 C   0  0  0  0  0  0  0  0  0  0  0  0
   39.8647   28.8369   15.6261 C   0  0  1  0  0  0  0  0  0  0  0  0
   40.6585   28.5862   14.4286 O   0  0  0  0  0  0  0  0  0  0  0  0
   38.5321   29.3475   15.1413 C   0  0  1  0  0  0  0  0  0  0  0  0
   37.9839   30.2545   16.0981 O   0  0  0  0  0  0  0  0  0  0  0  0
   38.8656   30.0786   13.8468 C   0  0  1  0  0  0  0  0  0  0  0  0
   39.0138   31.4797   14.0450 O   0  0  0  0  0  0  0  0  0  0  0  0
   40.2062   29.4488   13.3191 C   0  0  2  0  0  0  0  0  0  0  0  0
   41.7990   23.1074   12.9131 O   0  0  0  0  0  0  0  0  0  0  0  0
   41.0044   28.4974    8.2162 N   0  0  0  0  0  0  0  0  0  0  0  0
   41.3702   29.5778    8.9146 C   0  0  0  0  0  0  0  0  0  0  0  0
   41.1186   29.6770   10.2104 N   0  0  0  0  0  0  0  0  0  0  0  0
   40.4572   28.7123   10.8708 C   0  0  0  0  0  0  0  0  0  0  0  0
   40.0359   27.5530   10.1702 C   0  0  0  0  0  0  0  0  0  0  0  0
   40.3429   27.4779    8.7881 C   0  0  0  0  0  0  0  0  0  0  0  0
   39.9685   26.3818    8.0437 N   0  0  0  0  0  0  0  0  0  0  0  0
   39.4014   26.7561   11.0531 N   0  0  0  0  0  0  0  0  0  0  0  0
   39.3941   27.3333   12.2189 C   0  0  0  0  0  0  0  0  0  0  0  0
   40.0356   28.5394   12.1666 N   0  0  0  0  0  0  0  0  0  0  0  0
  2  1  1  1  0  0  0
  2  3  1  0  0  0  0
  2  5  1  0  0  0  0
  3  4  1  0  0  0  0
  3 17  1  0  0  0  0
  5  6  1  0  0  0  0
  7  6  1  6  0  0  0
  7  8  1  0  0  0  0
  7  9  1  0  0  0  0
 10  9  1  6  0  0  0
 10 11  1  0  0  0  0
 10 12  1  0  0  0  0
 11 16  1  0  0  0  0
 12 13  1  1  0  0  0
 12 14  1  0  0  0  0
 14 15  1  1  0  0  0
 14 16  1  0  0  0  0
 16 27  1  6  0  0  0
 18 19  2  0  0  0  0
 18 23  1  0  0  0  0
 19 20  1  0  0  0  0
 20 21  2  0  0  0  0
 21 22  1  0  0  0  0
 21 27  1  0  0  0  0
 22 23  2  0  0  0  0
 22 25  1  0  0  0  0
 23 24  1  0  0  0  0
 25 26  2  0  0  0  0
 26 27  1  0  0  0  0
M  END
>  <CHROM.1>
-9.02478937,-21.11921991,-115.97093225,-166.44504020,-140.43624887,79.01850514
-134.08910228,40.11749642,27.20227237,13.51297204,-1.72447551,1.37489777
-1.08659751

>  <Name>
ligand

>  <RI>
0

>  <Rbt.Current_Directory>
/home/itssahil/PROJECTS/Mol_Feturizer/New_Systems/rnas/2GIS

>  <Rbt.Executable>
rbdock ($Id: //depot/dev/client3/rdock/2013.1/src/exe/rbdock.cxx#4 $)

>  <Rbt.Library>
libRbt.so (2013.1, Build901 2013/11/27)

>  <Rbt.Parameter_File>
/export/apps/rDock/src/rDock_2013.1_src/data/scripts/dock_solv.prm

>  <Rbt.Receptor>
prm/blind_docking_60.prm

>  <SCORE>
7.02444

>  <SCORE.INTER>
-2.88379

>  <SCORE.INTER.CONST>
1

>  <SCORE.INTER.POLAR>
0

>  <SCORE.INTER.ROT>
7

>  <SCORE.INTER.SOLV>
10.4706

>  <SCORE.INTER.VDW>
-13.6794

>  <SCORE.INTER.norm>
-0.106807

>  <SCORE.INTRA>
4.41377

>  <SCORE.INTRA.DIHEDRAL>
9.83495

>  <SCORE.INTRA.DIHEDRAL.0>
9.40024

>  <SCORE.INTRA.POLAR>
0

>  <SCORE.INTRA.POLAR.0>
0

>  <SCORE.INTRA.REPUL>
0

>  <SCORE.INTRA.REPUL.0>
0

>  <SCORE.INTRA.SOLV>
-1.14754

>  <SCORE.INTRA.SOLV.lig_0>
-47.1049

>  <SCORE.INTRA.VDW>
0.0700618

>  <SCORE.INTRA.VDW.0>
-1.50278

>  <SCORE.INTRA.norm>
0.163473

>  <SCORE.RESTR>
5.49446

>  <SCORE.RESTR.CAVITY>
5.49446

>  <SCORE.RESTR.norm>
0.203498

>  <SCORE.SYSTEM>
0

>  <SCORE.SYSTEM.CONST>
0

>  <SCORE.SYSTEM.DIHEDRAL>
0

>  <SCORE.SYSTEM.SOLV>
0

>  <SCORE.SYSTEM.norm>
0

>  <SCORE.heavy>
27

>  <SCORE.norm>
0.260164

>  <RMSD>
36.257

$$$$
ligand
 OpenBabel11021811433D
libRbt.so/2013.1/901 2013/11/27
 27 29  0  0  0  0  0  0  0  0999 V2000
   41.4174   28.3901   10.0530 N   0  0  0  0  0  0  0  0  0  0  0  0
   41.6086   27.6782   11.3205 C   0  0  2  0  0  0  0  0  0  0  0  0
   40.4833   26.6773   11.5139 C   0  0  0  0  0  0  0  0  0  0  0  0
   39.4339   26.8063   10.8898 O   0  0  0  0  0  0  0  0  0  0  0  0
   41.6395   28.6658   12.5038 C   0  0  0  0  0  0  0  0  0  0  0  0
   40.3547   29.4927   12.5015 C   0  0  0  0  0  0  0  0  0  0  0  0
   39.0129   28.8594   13.5891 S   0  0  2  0  0  0  0  0  0  0  0  0
   37.8130   30.2261   13.6539 C   0  0  0  0  0  0  0  0  0  0  0  0
   39.9021   29.0945   15.1424 C   0  0  0  0  0  0  0  0  0  0  0  0
   39.2722   28.3559   16.3361 C   0  0  1  0  0  0  0  0  0  0  0  0
   38.4450   27.2632   15.8376 O   0  0  0  0  0  0  0  0  0  0  0  0
   40.4643   27.7082   16.9923 C   0  0  1  0  0  0  0  0  0  0  0  0
   40.9249   28.5222   18.0712 O   0  0  0  0  0  0  0  0  0  0  0  0
   39.9223   26.3852   17.5190 C   0  0  1  0  0  0  0  0  0  0  0  0
   39.5615   26.4625   18.8932 O   0  0  0  0  0  0  0  0  0  0  0  0
   38.6680   26.0411   16.6355 C   0  0  2  0  0  0  0  0  0  0  0  0
   40.5936   25.7723   12.3413 O   0  0  0  0  0  0  0  0  0  0  0  0
   42.0274   23.5097   13.4909 N   0  0  0  0  0  0  0  0  0  0  0  0
   42.2842   24.5422   14.3015 C   0  0  0  0  0  0  0  0  0  0  0  0
   41.3377   25.0744   15.0586 N   0  0  0  0  0  0  0  0  0  0  0  0
   40.0737   24.6216   15.0204 C   0  0  0  0  0  0  0  0  0  0  0  0
   39.7488   23.5372   14.1656 C   0  0  0  0  0  0  0  0  0  0  0  0
   40.7961   22.9835   13.3865 C   0  0  0  0  0  0  0  0  0  0  0  0
   40.5566   21.9273   12.5364 N   0  0  0  0  0  0  0  0  0  0  0  0
   38.4327   23.2864   14.3140 N   0  0  0  0  0  0  0  0  0  0  0  0
   37.9335   24.1262   15.1730 C   0  0  0  0  0  0  0  0  0  0  0  0
   38.9007   24.9692   15.6449 N   0  0  0  0  0  0  0  0  0  0  0  0
  2  1  1  6  0  0  0
  2  3  1  0  0  0  0
  2  5  1  0  0  0  0
  3  4  1  0  0  0  0
  3 17  1  0  0  0  0
  5  6  1  0  0  0  0
  7  6  1  6  0  0  0
  7  8  1  0  0  0  0
  7  9  1  0  0  0  0
 10  9  1  6  0  0  0
 10 11  1  0  0  0  0
 10 12  1  0  0  0  0
 11 16  1  0  0  0  0
 12 13  1  1  0  0  0
 12 14  1  0  0  0  0
 14 15  1  1  0  0  0
 14 16  1  0  0  0  0
 16 27  1  6  0  0  0
 18 19  2  0  0  0  0
 18 23  1  0  0  0  0
 19 20  1  0  0  0  0
 20 21  2  0  0  0  0
 21 22  1  0  0  0  0
 21 27  1  0  0  0  0
 22 23  2  0  0  0  0
 22 25  1  0  0  0  0
 23 24  1  0  0  0  0
 25 26  2  0  0  0  0
 26 27  1  0  0  0  0
M  END
>  <CHROM.1>
-19.79625040,56.25680959,95.27711332,167.62978605,-165.33586576,21.81272999
84.65404028,39.99451773,26.52366210,14.30958558,0.52389242,1.33928246,-0.47365630

>  <Name>
ligand

>  <RI>
0

>  <Rbt.Current_Directory>
/home/itssahil/PROJECTS/Mol_Feturizer/New_Systems/rnas/2GIS

>  <Rbt.Executable>
rbdock ($Id: //depot/dev/client3/rdock/2013.1/src/exe/rbdock.cxx#4 $)

>  <Rbt.Library>
libRbt.so (2013.1, Build901 2013/11/27)

>  <Rbt.Parameter_File>
/export/apps/rDock/src/rDock_2013.1_src/data/scripts/dock_solv.prm

>  <Rbt.Receptor>
prm/blind_docking_60.prm

>  <SCORE>
12.5329

>  <SCORE.INTER>
6.8002

>  <SCORE.INTER.CONST>
1

>  <SCORE.INTER.POLAR>
0

>  <SCORE.INTER.ROT>
7

>  <SCORE.INTER.SOLV>
15.4588

>  <SCORE.INTER.VDW>
-8.88613

>  <SCORE.INTER.norm>
0.251859

>  <SCORE.INTRA>
-2.36899

>  <SCORE.INTRA.DIHEDRAL>
2.07249

>  <SCORE.INTRA.DIHEDRAL.0>
9.40024

>  <SCORE.INTRA.POLAR>
0

>  <SCORE.INTRA.POLAR.0>
0

>  <SCORE.INTRA.REPUL>
0

>  <SCORE.INTRA.REPUL.0>
0

>  <SCORE.INTRA.SOLV>
-1.80136

>  <SCORE.INTRA.SOLV.lig_0>
-47.1049

>  <SCORE.INTRA.VDW>
-2.50456

>  <SCORE.INTRA.VDW.0>
-1.50278

>  <SCORE.INTRA.norm>
-0.0877404

>  <SCORE.RESTR>
8.10167

>  <SCORE.RESTR.CAVITY>
8.10167

>  <SCORE.RESTR.norm>
0.300062

>  <SCORE.SYSTEM>
0

>  <SCORE.SYSTEM.CONST>
0

>  <SCORE.SYSTEM.DIHEDRAL>
0

>  <SCORE.SYSTEM.SOLV>
0

>  <SCORE.SYSTEM.norm>
0

>  <SCORE.heavy>
27

>  <SCORE.norm>
0.464181

>  <RMSD>
36.373

$$$$
