@<TRIPOS>MOLECULE
2GIS_rdock.pdb
 2028 2274 0 0 0
SMALL
GASTEIGER

@<TRIPOS>ATOM
      1  P         66.9320   54.7170   32.5060 P.3     1  G1          0.1280
      2  C5'       68.6720   52.7420   32.9130 C.3     1  G1          0.1795
      3  O5'       67.4400   53.3790   33.2870 O.3     1  G1         -0.3259
      4  C4'       69.2470   51.9620   34.0760 C.3     1  G1          0.1772
      5  O4'       69.7700   52.8840   35.0730 O.3     1  G1         -0.3307
      6  C3'       68.2690   51.0920   34.8510 C.3     1  G1          0.1860
      7  O3'       68.0720   49.8360   34.2150 O.3     1  G1         -0.3112
      8  C2'       68.9740   50.9520   36.1940 C.3     1  G1          0.2309
      9  O2'       70.0320   50.0110   36.1510 O.3     1  G1         -0.2156
     10  C1'       69.5600   52.3530   36.3710 C.3     1  G1          0.2408
     11  N1        67.2330   53.3520   40.7670 N.ar    1  G1         -0.1709
     12  C2        68.1780   52.3960   40.4800 C.ar    1  G1          0.2606
     13  N2        68.5260   51.5810   41.4890 N.pl3   1  G1         -0.0859
     14  N3        68.7400   52.2470   39.2880 N.ar    1  G1         -0.1918
     15  C4        68.2700   53.1400   38.3970 C.ar    1  G1          0.1723
     16  C5        67.3310   54.1300   38.5850 C.ar    1  G1          0.1748
     17  C6        66.7380   54.2820   39.8600 C.ar    1  G1          0.3023
     18  O6        65.8810   55.1060   40.2210 O.2     1  G1         -0.2633
     19  N7        67.1230   54.8380   37.4120 N.ar    1  G1         -0.2173
     20  C8        67.9180   54.2690   36.5470 C.ar    1  G1          0.1817
     21  N9        68.6300   53.2260   37.0760 N.ar    1  G1         -0.2693
     22  OP1       68.0090   55.7540   32.7890 O.3     1  G1         -0.1955
     23  OP2       65.5850   55.0740   33.1260 O.co2   1  G1         -0.7863
     24  P         66.6120   49.1560   34.2220 P.3     2  G2          0.2141
     25  C5'       67.2760   47.5440   36.1520 C.3     2  G2          0.1812
     26  O5'       66.4420   48.5970   35.7010 O.3     2  G2         -0.3114
     27  C4'       67.2520   47.4570   37.6510 C.3     2  G2          0.1773
     28  O4'       67.5060   48.7840   38.1980 O.3     2  G2         -0.3307
     29  C3'       65.8980   47.1050   38.2330 C.3     2  G2          0.1860
     30  O3'       65.6450   45.7110   38.1750 O.3     2  G2         -0.3112
     31  C2'       66.0070   47.6550   39.6500 C.3     2  G2          0.2309
     32  O2'       66.7800   46.8290   40.4990 O.3     2  G2         -0.2156
     33  C1'       66.7870   48.9460   39.4050 C.3     2  G2          0.2408
     34  N1        63.6270   52.0340   41.8660 N.ar    2  G2         -0.1709
     35  C2        64.2680   50.9020   42.3110 C.ar    2  G2          0.2606
     36  N2        64.0350   50.5430   43.5800 N.pl3   2  G2         -0.0859
     37  N3        65.0710   50.1720   41.5680 N.ar    2  G2         -0.1918
     38  C4        65.1770   50.6610   40.3120 C.ar    2  G2          0.1723
     39  C5        64.5730   51.7740   39.7680 C.ar    2  G2          0.1748
     40  C6        63.7230   52.5560   40.5840 C.ar    2  G2          0.3023
     41  O6        63.1080   53.5840   40.2890 O.2     2  G2         -0.2633
     42  N7        64.9440   51.9360   38.4420 N.ar    2  G2         -0.2173
     43  C8        65.7530   50.9320   38.2060 C.ar    2  G2          0.1817
     44  N9        65.9420   50.1270   39.2990 N.ar    2  G2         -0.2693
     45  OP1       66.7060   47.9770   33.3230 O.2     2  G2         -0.5172
     46  OP2       65.5660   50.1940   33.9850 O.co2   2  G2         -0.4373
     47  P         64.1290   45.1930   38.1090 P.3     3  C3          0.2141
     48  C5'       63.8840   44.5120   40.6260 C.3     3  C3          0.1812
     49  O5'       63.5870   45.4270   39.5850 O.3     3  C3         -0.3114
     50  C4'       63.1840   44.9340   41.8890 C.3     3  C3          0.1773
     51  O4'       63.5490   46.3120   42.1720 O.3     3  C3         -0.3307
     52  C3'       61.6740   45.0250   41.7770 C.3     3  C3          0.1860
     53  O3'       61.0220   43.7890   41.9410 O.3     3  C3         -0.3112
     54  C2'       61.3210   45.9780   42.8980 C.3     3  C3          0.2309
     55  O2'       61.4020   45.3370   44.1510 O.3     3  C3         -0.2156
     56  C1'       62.4580   46.9780   42.7870 C.3     3  C3          0.2420
     57  N1        62.0720   48.1350   41.9790 N.ar    3  C3         -0.2535
     58  C2        61.2070   49.0650   42.5470 C.ar    3  C3          0.3532
     59  O2        60.8000   48.8610   43.6920 O.2     3  C3         -0.2443
     60  N3        60.8310   50.1520   41.8370 N.ar    3  C3         -0.1739
     61  C4        61.2900   50.3230   40.6020 C.ar    3  C3          0.1759
     62  N4        60.9110   51.4130   39.9480 N.pl3   3  C3         -0.1070
     63  C5        62.1680   49.3820   39.9860 C.ar    3  C3          0.0566
     64  C6        62.5340   48.3090   40.7070 C.ar    3  C3          0.0850
     65  OP1       64.1180   43.7380   37.8170 O.3     3  C3         -0.4373
     66  OP2       63.3550   46.1260   37.2490 O.co2   3  C3         -0.5172
     67  P         59.6220   43.5530   41.2040 P.3     4  U4          0.2141
     68  C5'       58.3630   44.0110   43.4460 C.3     4  U4          0.1812
     69  O5'       58.5610   44.3480   42.0880 O.3     4  U4         -0.3114
     70  C4'       57.4100   44.9810   44.0810 C.3     4  U4          0.1773
     71  O4'       57.9890   46.3130   44.0500 O.3     4  U4         -0.3307
     72  C3'       56.0970   45.1420   43.3460 C.3     4  U4          0.1860
     73  O3'       55.1790   44.1080   43.6770 O.3     4  U4         -0.3112
     74  C2'       55.6420   46.5160   43.8140 C.3     4  U4          0.2309
     75  O2'       55.1650   46.4370   45.1400 O.3     4  U4         -0.2156
     76  C1'       56.9670   47.2720   43.8290 C.3     4  U4          0.2420
     77  N1        57.2690   47.9860   42.5800 N.ar    4  U4         -0.2534
     78  C2        56.6140   49.1740   42.3500 C.ar    4  U4          0.3546
     79  O2        55.7710   49.6120   43.1030 O.2     4  U4         -0.2443
     80  N3        56.9780   49.8290   41.2070 N.ar    4  U4         -0.1530
     81  C4        57.9030   49.4160   40.2820 C.ar    4  U4          0.2846
     82  O4        58.1170   50.1110   39.2820 O.2     4  U4         -0.2650
     83  C5        58.5230   48.1620   40.5800 C.ar    4  U4          0.0814
     84  C6        58.1870   47.5050   41.6910 C.ar    4  U4          0.0870
     85  OP1       59.3640   42.0820   41.2440 O.3     4  U4         -0.4373
     86  OP2       59.6810   44.2650   39.9000 O.co2   4  U4         -0.5172
     87  P         54.2050   43.5310   42.5370 P.3     5  U5          0.2141
     88  C5'       52.1760   44.9370   43.4270 C.3     5  U5          0.1812
     89  O5'       53.1020   44.6720   42.3820 O.3     5  U5         -0.3114
     90  C4'       51.4500   46.2210   43.1430 C.3     5  U5          0.1773
     91  O4'       52.4320   47.2750   43.0390 O.3     5  U5         -0.3307
     92  C3'       50.6950   46.2720   41.8260 C.3     5  U5          0.1860
     93  O3'       49.3930   45.7330   41.9810 O.3     5  U5         -0.3112
     94  C2'       50.6630   47.7670   41.5360 C.3     5  U5          0.2309
     95  O2'       49.6960   48.4520   42.3010 O.3     5  U5         -0.2156
     96  C1'       52.0480   48.1880   42.0230 C.3     5  U5          0.2420
     97  N1        53.0710   48.1250   40.9740 N.ar    5  U5         -0.2534
     98  C2        53.1970   49.2080   40.1240 C.ar    5  U5          0.3546
     99  O2        52.4880   50.1940   40.2040 O.2     5  U5         -0.2443
    100  N3        54.1880   49.0910   39.1810 N.ar    5  U5         -0.1530
    101  C4        55.0440   48.0190   39.0110 C.ar    5  U5          0.2846
    102  O4        55.8970   48.0600   38.1220 O.2     5  U5         -0.2650
    103  C5        54.8430   46.9330   39.9300 C.ar    5  U5          0.0814
    104  C6        53.8860   47.0200   40.8540 C.ar    5  U5          0.0870
    105  OP1       53.5670   42.3010   43.0670 O.3     5  U5         -0.4373
    106  OP2       54.9820   43.4660   41.2690 O.co2   5  U5         -0.5172
    107  P         48.6510   45.0800   40.7190 P.3     6  A6          0.2141
    108  C5'       47.0500   47.1390   40.5710 C.3     6  A6          0.1812
    109  O5'       48.0470   46.3410   39.9560 O.3     6  A6         -0.3114
    110  C4'       46.8080   48.3850   39.7600 C.3     6  A6          0.1773
    111  O4'       47.9920   49.2190   39.7870 O.3     6  A6         -0.3307
    112  C3'       46.5740   48.1480   38.2850 C.3     6  A6          0.1860
    113  O3'       45.2320   47.7550   38.0320 O.3     6  A6         -0.3112
    114  C2'       46.9600   49.4910   37.6790 C.3     6  A6          0.2309
    115  O2'       45.9800   50.4740   37.9050 O.3     6  A6         -0.2156
    116  C1'       48.1630   49.8590   38.5360 C.3     6  A6          0.2408
    117  N1        51.9910   51.0300   35.3600 N.ar    6  A6         -0.2040
    118  C2        50.8920   51.6890   35.7210 C.ar    6  A6          0.2016
    119  N3        49.9360   51.3240   36.5640 N.ar    6  A6         -0.2048
    120  C4        50.1920   50.1080   37.0680 C.ar    6  A6          0.1692
    121  C5        51.2820   49.3090   36.7910 C.ar    6  A6          0.1518
    122  C6        52.2200   49.8100   35.8950 C.ar    6  A6          0.1919
    123  N6        53.3190   49.1570   35.5430 N.pl3   6  A6         -0.1054
    124  N7        51.2120   48.1190   37.4950 N.ar    6  A6         -0.2193
    125  C8        50.0910   48.2230   38.1720 C.ar    6  A6          0.1816
    126  N9        49.4250   49.4040   37.9580 N.ar    6  A6         -0.2693
    127  OP1       47.5270   44.2560   41.2330 O.3     6  A6         -0.4373
    128  OP2       49.6960   44.4400   39.8820 O.co2   6  A6         -0.5172
    129  P         44.9420   46.6780   36.8800 P.3     7  U7          0.2141
    130  C5'       44.3090   48.8070   35.5370 C.3     7  U7          0.1812
    131  O5'       45.0140   47.5760   35.5750 O.3     7  U7         -0.3114
    132  C4'       44.7960   49.6600   34.3960 C.3     7  U7          0.1773
    133  O4'       46.1240   50.1750   34.6900 O.3     7  U7         -0.3307
    134  C3'       44.9890   48.8970   33.1060 C.3     7  U7          0.1860
    135  O3'       43.7610   48.7230   32.4320 O.3     7  U7         -0.3112
    136  C2'       45.9750   49.7810   32.3560 C.3     7  U7          0.2309
    137  O2'       45.3440   50.8950   31.7520 O.3     7  U7         -0.2156
    138  C1'       46.8770   50.2530   33.4970 C.3     7  U7          0.2420
    139  N1        48.0690   49.4140   33.6440 N.ar    7  U7         -0.2534
    140  C2        49.1470   49.7440   32.8800 C.ar    7  U7          0.3546
    141  O2        49.1250   50.6840   32.1010 O.2     7  U7         -0.2443
    142  N3        50.2450   48.9410   33.0480 N.ar    7  U7         -0.1530
    143  C4        50.3600   47.8540   33.8840 C.ar    7  U7          0.2846
    144  O4        51.4210   47.2260   33.9250 O.2     7  U7         -0.2650
    145  C5        49.1920   47.5680   34.6420 C.ar    7  U7          0.0814
    146  C6        48.1090   48.3430   34.5020 C.ar    7  U7          0.0870
    147  OP1       43.5560   46.1660   37.0410 O.3     7  U7         -0.4373
    148  OP2       46.0830   45.7270   36.8620 O.co2   7  U7         -0.5172
    149  P         43.6620   47.6380   31.2610 P.3     8  C8          0.2141
    150  C5'       44.3510   49.3340   29.3920 C.3     8  C8          0.1812
    151  O5'       44.6780   48.1820   30.1580 O.3     8  C8         -0.3114
    152  C4'       45.2880   49.4730   28.2220 C.3     8  C8          0.1773
    153  O4'       46.6020   49.8350   28.7070 O.3     8  C8         -0.3307
    154  C3'       45.5190   48.2110   27.4100 C.3     8  C8          0.1860
    155  O3'       44.5120   48.0770   26.4130 O.3     8  C8         -0.3112
    156  C2'       46.8700   48.4910   26.7710 C.3     8  C8          0.2309
    157  O2'       46.7440   49.3420   25.6470 O.3     8  C8         -0.2156
    158  C1'       47.5930   49.2320   27.8960 C.3     8  C8          0.2420
    159  N1        48.4180   48.3630   28.7440 N.ar    8  C8         -0.2535
    160  C2        49.7830   48.2920   28.4890 C.ar    8  C8          0.3532
    161  O2        50.2510   48.9670   27.5650 O.2     8  C8         -0.2443
    162  N3        50.5600   47.4930   29.2510 N.ar    8  C8         -0.1739
    163  C4        50.0130   46.7840   30.2420 C.ar    8  C8          0.1759
    164  N4        50.8120   46.0130   30.9660 N.pl3   8  C8         -0.1070
    165  C5        48.6190   46.8400   30.5300 C.ar    8  C8          0.0566
    166  C6        47.8650   47.6350   29.7620 C.ar    8  C8          0.0850
    167  OP1       42.2780   47.7100   30.7230 O.2     8  C8         -0.5172
    168  OP2       44.1880   46.3460   31.7700 O.co2   8  C8         -0.4373
    169  P         44.2200   46.6360   25.7560 P.3     9  A9          0.2141
    170  C5'       43.8490   46.9420   23.1730 C.3     9  A9          0.1812
    171  O5'       43.3210   46.9910   24.4920 O.3     9  A9         -0.3114
    172  C4'       42.8370   47.4880   22.1880 C.3     9  A9          0.1773
    173  O4'       41.7910   46.5110   21.9610 O.3     9  A9         -0.3307
    174  C3'       42.1210   48.7390   22.6560 C.3     9  A9          0.1860
    175  O3'       42.3750   49.9640   21.9650 O.3     9  A9         -0.3112
    176  C2'       40.7790   48.2970   23.2350 C.3     9  A9          0.2309
    177  O2'       39.7140   49.1460   22.8610 O.3     9  A9         -0.2156
    178  C1'       40.5880   46.9120   22.5940 C.3     9  A9          0.2408
    179  N1        38.3140   42.3120   23.1470 N.ar    9  A9         -0.2040
    180  C2        38.4390   43.1380   22.0970 C.ar    9  A9          0.2016
    181  N3        39.0280   44.3370   22.0250 N.ar    9  A9         -0.2048
    182  C4        39.5360   44.6920   23.2210 C.ar    9  A9          0.1692
    183  C5        39.4850   43.9540   24.3940 C.ar    9  A9          0.1518
    184  C6        38.8400   42.6940   24.3350 C.ar    9  A9          0.1919
    185  N6        38.7260   41.8640   25.3790 N.pl3   9  A9         -0.1054
    186  N7        40.1130   44.6360   25.4290 N.ar    9  A9         -0.2193
    187  C8        40.5300   45.7490   24.8690 C.ar    9  A9          0.1816
    188  N9        40.2290   45.8430   23.5300 N.ar    9  A9         -0.2693
    189  OP1       43.3640   45.8680   26.6910 O.3     9  A9         -0.4373
    190  OP2       45.5050   46.0550   25.3020 O.co2   9  A9         -0.5172
    191  P         41.5140   50.3520   20.6660 P.3    10  A10         0.2141
    192  C5'       39.1260   51.3560   21.0850 C.3    10  A10         0.1812
    193  O5'       40.5380   51.5100   21.1590 O.3    10  A10        -0.3114
    194  C4'       38.4350   52.5470   21.7020 C.3    10  A10         0.1773
    195  O4'       38.5450   52.4870   23.1400 O.3    10  A10        -0.3307
    196  C3'       39.0170   53.8940   21.3260 C.3    10  A10         0.1860
    197  O3'       38.4180   54.3480   20.1360 O.3    10  A10        -0.3112
    198  C2'       38.5900   54.7700   22.4860 C.3    10  A10         0.2309
    199  O2'       37.2620   55.2200   22.3540 O.3    10  A10        -0.2156
    200  C1'       38.7020   53.7950   23.6540 C.3    10  A10         0.2408
    201  N1        41.9390   56.5730   26.5450 N.ar   10  A10        -0.2040
    202  C2        40.7650   56.8730   25.9830 C.ar   10  A10         0.2016
    203  N3        39.9810   56.1210   25.2170 N.ar   10  A10        -0.2048
    204  C4        40.5230   54.9050   25.0300 C.ar   10  A10         0.1692
    205  C5        41.7270   54.4530   25.5330 C.ar   10  A10         0.1518
    206  C6        42.4570   55.3460   26.3390 C.ar   10  A10         0.1919
    207  N6        43.6210   55.0420   26.9110 N.pl3  10  A10        -0.1054
    208  N7        41.9690   53.1450   25.1240 N.ar   10  A10        -0.2193
    209  C8        40.9160   52.8370   24.4110 C.ar   10  A10         0.1816
    210  N9        39.9930   53.8470   24.3270 N.ar   10  A10        -0.2693
    211  OP1       40.7250   49.1600   20.3250 O.3    10  A10        -0.4373
    212  OP2       42.4470   50.9200   19.6690 O.co2  10  A10        -0.5172
    213  P         39.2830   55.1860   19.0920 P.3    11  G11         0.2141
    214  C5'       38.2380   57.2860   20.2630 C.3    11  G11         0.1812
    215  O5'       39.3850   56.6340   19.7370 O.3    11  G11        -0.3114
    216  C4'       38.6720   58.4300   21.1420 C.3    11  G11         0.1773
    217  O4'       39.2660   57.9130   22.3560 O.3    11  G11        -0.3307
    218  C3'       39.7530   59.2930   20.5270 C.3    11  G11         0.1860
    219  O3'       39.1310   60.2940   19.7370 O.3    11  G11        -0.3112
    220  C2'       40.4170   59.8950   21.7550 C.3    11  G11         0.2309
    221  O2'       39.6670   60.9700   22.2730 O.3    11  G11        -0.2156
    222  C1'       40.3450   58.7370   22.7490 C.3    11  G11         0.2408
    223  N1        44.8300   57.9260   25.0000 N.ar   11  G11        -0.1709
    224  C2        43.9470   58.9460   25.1890 C.ar   11  G11         0.2606
    225  N2        44.2970   59.8510   26.0980 N.pl3  11  G11        -0.0859
    226  N3        42.8070   59.0690   24.5350 N.ar   11  G11        -0.1918
    227  C4        42.6270   58.0710   23.6450 C.ar   11  G11         0.1723
    228  C5        43.4550   57.0070   23.3780 C.ar   11  G11         0.1748
    229  C6        44.6660   56.8840   24.1030 C.ar   11  G11         0.3023
    230  O6        45.5260   55.9990   24.0290 O.2    11  G11        -0.2633
    231  N7        42.9100   56.1950   22.3940 N.ar   11  G11        -0.2173
    232  C8        41.7770   56.7660   22.0930 C.ar   11  G11         0.1817
    233  N9        41.5370   57.9010   22.8200 N.ar   11  G11        -0.2693
    234  OP1       38.5170   55.2790   17.8300 O.2    11  G11        -0.5172
    235  OP2       40.6320   54.5790   19.0930 O.co2  11  G11        -0.4373
    236  P         39.5890   60.5080   18.2160 P.3    12  A12         0.2141
    237  C5'       40.4360   62.9310   18.7550 C.3    12  A12         0.1812
    238  O5'       40.7360   61.6120   18.3100 O.3    12  A12        -0.3114
    239  C4'       41.6890   63.6300   19.2200 C.3    12  A12         0.1773
    240  O4'       42.2520   62.9100   20.3470 O.3    12  A12        -0.3307
    241  C3'       42.8110   63.6400   18.2000 C.3    12  A12         0.1860
    242  O3'       42.6660   64.7360   17.3140 O.3    12  A12        -0.3112
    243  C2'       44.0490   63.8060   19.0630 C.3    12  A12         0.2309
    244  O2'       44.2660   65.1550   19.4070 O.3    12  A12        -0.2156
    245  C1'       43.6690   62.9900   20.3000 C.3    12  A12         0.2408
    246  N1        46.4900   59.6380   22.9710 N.ar   12  A12        -0.2040
    247  C2        46.1040   60.8880   23.2200 C.ar   12  A12         0.2016
    248  N3        45.3610   61.7040   22.4800 N.ar   12  A12        -0.2048
    249  C4        44.9890   61.1050   21.3380 C.ar   12  A12         0.1692
    250  C5        45.3000   59.8230   20.9410 C.ar   12  A12         0.1518
    251  C6        46.0960   59.0600   21.8190 C.ar   12  A12         0.1919
    252  N6        46.4780   57.8080   21.5780 N.pl3  12  A12        -0.1054
    253  N7        44.7360   59.5440   19.7050 N.ar   12  A12        -0.2193
    254  C8        44.1080   60.6490   19.3880 C.ar   12  A12         0.1816
    255  N9        44.2230   61.6360   20.3280 N.ar   12  A12        -0.2693
    256  OP1       38.4410   61.0880   17.4690 O.2    12  A12        -0.5172
    257  OP2       40.2020   59.2370   17.7560 O.co2  12  A12        -0.4373
    258  P         42.5880   64.4560   15.7470 P.3    13  G13         0.2141
    259  C5'       43.6090   65.9180   13.8550 C.3    13  G13         0.1812
    260  O5'       42.8400   65.8580   15.0510 O.3    13  G13        -0.3114
    261  C4'       44.1190   67.3110   13.6440 C.3    13  G13         0.1773
    262  O4'       44.6530   67.7910   14.8980 O.3    13  G13        -0.3307
    263  C3'       45.2830   67.4110   12.6720 C.3    13  G13         0.1860
    264  O3'       44.8000   67.5650   11.3450 O.3    13  G13        -0.3112
    265  C2'       45.9640   68.6920   13.1250 C.3    13  G13         0.2309
    266  O2'       45.3150   69.8410   12.6180 O.3    13  G13        -0.2156
    267  C1'       45.7560   68.6250   14.6390 C.3    13  G13         0.2408
    268  N1        49.6570   70.2620   17.3050 N.ar   13  G13        -0.1709
    269  C2        48.7340   70.9490   16.5410 C.ar   13  G13         0.2606
    270  N2        48.8430   72.2800   16.4830 N.pl3  13  G13        -0.0859
    271  N3        47.7690   70.3730   15.8730 N.ar   13  G13        -0.1918
    272  C4        47.7870   69.0360   16.0080 C.ar   13  G13         0.1723
    273  C5        48.6540   68.2440   16.7260 C.ar   13  G13         0.1748
    274  C6        49.6960   68.8770   17.4640 C.ar   13  G13         0.3023
    275  O6        50.5650   68.3630   18.1840 O.2    13  G13        -0.2633
    276  N7        48.3200   66.9020   16.5860 N.ar   13  G13        -0.2173
    277  C8        47.2680   66.9150   15.8090 C.ar   13  G13         0.1817
    278  N9        46.8910   68.1870   15.4410 N.ar   13  G13        -0.2693
    279  OP1       41.2140   63.9970   15.4320 O.3    13  G13        -0.4373
    280  OP2       43.7570   63.5990   15.4100 O.co2  13  G13        -0.5172
    281  P         44.8910   66.3340   10.3220 P.3    14  A14         0.2141
    282  C5'       46.1630   67.5950    8.3880 C.3    14  A14         0.1812
    283  O5'       44.9520   67.0150    8.8800 O.3    14  A14        -0.3114
    284  C4'       45.8630   68.6020    7.2950 C.3    14  A14         0.1773
    285  O4'       45.3620   67.8870    6.1400 O.3    14  A14        -0.3307
    286  C3'       44.8110   69.6290    7.7030 C.3    14  A14         0.1860
    287  O3'       45.3670   70.9220    7.9240 O.3    14  A14        -0.3112
    288  C2'       43.7020   69.5790    6.6450 C.3    14  A14         0.2309
    289  O2'       43.6610   70.7670    5.8780 O.3    14  A14        -0.2156
    290  C1'       44.1220   68.4230    5.7300 C.3    14  A14         0.2408
    291  N1        39.4930   66.9620    3.9570 N.ar   14  A14        -0.2040
    292  C2        40.0970   68.1570    4.0100 C.ar   14  A14         0.2016
    293  N3        41.2960   68.4770    4.5030 N.ar   14  A14        -0.2048
    294  C4        41.9140   67.3890    4.9990 C.ar   14  A14         0.1692
    295  C5        41.4180   66.0950    5.0230 C.ar   14  A14         0.1518
    296  C6        40.1410   65.8870    4.4640 C.ar   14  A14         0.1919
    297  N6        39.5450   64.6920    4.4040 N.pl3  14  A14        -0.1054
    298  N7        42.3270   65.2310    5.6220 N.ar   14  A14        -0.2193
    299  C8        43.3390   66.0060    5.9340 C.ar   14  A14         0.1816
    300  N9        43.1650   67.3220    5.5730 N.ar   14  A14        -0.2693
    301  OP1       43.6100   65.5880   10.4290 O.2    14  A14        -0.5172
    302  OP2       46.1740   65.6310   10.5680 O.co2  14  A14        -0.4373
    303  P         46.3130   71.1780    9.1990 P.3    15  G15         0.2141
    304  C5'       47.6220   73.4360    9.0830 C.3    15  G15         0.1812
    305  O5'       46.3920   72.7650    9.2990 O.3    15  G15        -0.3114
    306  C4'       47.8410   74.4740   10.1470 C.3    15  G15         0.1773
    307  O4'       47.4570   73.9230   11.4340 O.3    15  G15        -0.3307
    308  C3'       49.2850   74.9010   10.3350 C.3    15  G15         0.1860
    309  O3'       49.6770   75.8930    9.4000 O.3    15  G15        -0.3112
    310  C2'       49.2820   75.4080   11.7690 C.3    15  G15         0.2309
    311  O2'       48.7600   76.7180   11.8670 O.3    15  G15        -0.2156
    312  C1'       48.3410   74.3980   12.4380 C.3    15  G15         0.2408
    313  N1        51.9320   72.8330   15.6620 N.ar   15  G15        -0.1709
    314  C2        51.4490   74.0980   15.4320 C.ar   15  G15         0.2606
    315  N2        51.9990   75.0860   16.1420 N.pl3  15  G15        -0.0859
    316  N3        50.4930   74.3770   14.5670 N.ar   15  G15        -0.1918
    317  C4        50.0450   73.2780   13.9350 C.ar   15  G15         0.1723
    318  C5        50.4530   71.9710   14.0850 C.ar   15  G15         0.1748
    319  C6        51.4870   71.6790   15.0220 C.ar   15  G15         0.3023
    320  O6        51.9940   70.5750   15.3040 O.2    15  G15        -0.2633
    321  N7        49.7320   71.1310   13.2460 N.ar   15  G15        -0.2173
    322  C8        48.9190   71.9300   12.6100 C.ar   15  G15         0.1817
    323  N9        49.0640   73.2480   12.9750 N.ar   15  G15        -0.2693
    324  OP1       47.6690   70.6790    8.8420 O.2    15  G15        -0.5172
    325  OP2       45.6340   70.6520   10.4110 O.co2  15  G15        -0.4373
    326  P         51.0260   75.6820    8.5510 P.3    16  G16         0.2141
    327  C5'       53.3210   76.9160    8.7020 C.3    16  G16         0.1812
    328  O5'       51.9190   76.9490    8.9080 O.3    16  G16        -0.3114
    329  C4'       54.0360   77.4850    9.8960 C.3    16  G16         0.1773
    330  O4'       53.4360   76.9810   11.1110 O.3    16  G16        -0.3307
    331  C3'       55.4910   77.0800    9.9850 C.3    16  G16         0.1860
    332  O3'       56.2650   77.9790    9.2010 O.3    16  G16        -0.3112
    333  C2'       55.7780   77.2060   11.4770 C.3    16  G16         0.2309
    334  O2'       56.0660   78.5240   11.8850 O.3    16  G16        -0.2156
    335  C1'       54.4430   76.7700   12.0860 C.3    16  G16         0.2408
    336  N1        56.2470   73.1690   15.1950 N.ar   16  G16        -0.1709
    337  C2        56.6370   74.4790   15.0710 C.ar   16  G16         0.2606
    338  N2        57.6230   74.8750   15.8900 N.pl3  16  G16        -0.0859
    339  N3        56.0990   75.3340   14.2110 N.ar   16  G16        -0.1918
    340  C4        55.1230   74.7600   13.4780 C.ar   16  G16         0.1723
    341  C5        54.6590   73.4630   13.5300 C.ar   16  G16         0.1748
    342  C6        55.2430   72.5610   14.4510 C.ar   16  G16         0.3023
    343  O6        54.9650   71.3730   14.6460 O.2    16  G16        -0.2633
    344  N7        53.6440   73.2660   12.6080 N.ar   16  G16        -0.2173
    345  C8        53.5080   74.4230   12.0250 C.ar   16  G16         0.1817
    346  N9        54.3690   75.3750   12.5090 N.ar   16  G16        -0.2693
    347  OP1       50.6820   75.7310    7.1090 O.2    16  G16        -0.5172
    348  OP2       51.7250   74.4920    9.0950 O.co2  16  G16        -0.4373
    349  P         57.6130   77.4650    8.5040 P.3    17  U17         0.2141
    350  C5'       59.0300   77.9340   10.6310 C.3    17  U17         0.1812
    351  O5'       58.4810   76.9780    9.7420 O.3    17  U17        -0.3114
    352  C4'       60.0240   77.2810   11.5420 C.3    17  U17         0.1773
    353  O4'       59.3130   76.5260   12.5560 O.3    17  U17        -0.3307
    354  C3'       60.8960   76.2360   10.8650 C.3    17  U17         0.1860
    355  O3'       61.9990   76.7940   10.1660 O.3    17  U17        -0.3112
    356  C2'       61.3330   75.3770   12.0390 C.3    17  U17         0.2309
    357  O2'       62.3900   75.9560   12.7770 O.3    17  U17        -0.2156
    358  C1'       60.0620   75.3680   12.8860 C.3    17  U17         0.2420
    359  N1        59.2490   74.1710   12.6410 N.ar   17  U17        -0.2534
    360  C2        59.7270   72.9870   13.1650 C.ar   17  U17         0.3546
    361  O2        60.7740   72.9180   13.7880 O.2    17  U17        -0.2443
    362  N3        58.9410   71.8890   12.9330 N.ar   17  U17        -0.1530
    363  C4        57.7560   71.8490   12.2420 C.ar   17  U17         0.2846
    364  O4        57.1610   70.7730   12.1320 O.2    17  U17        -0.2650
    365  C5        57.3270   73.1160   11.7190 C.ar   17  U17         0.0814
    366  C6        58.0720   74.2090   11.9330 C.ar   17  U17         0.0870
    367  OP1       58.3060   78.6330    7.8980 O.3    17  U17        -0.4373
    368  OP2       57.2640   76.2990    7.6560 O.co2  17  U17        -0.5172
    369  P         62.5000   76.0960    8.8070 P.3    18  G18         0.2141
    370  C5'       64.0210   74.5590   10.2910 C.3    18  G18         0.1812
    371  O5'       63.0180   74.6680    9.2850 O.3    18  G18        -0.3114
    372  C4'       64.1990   73.1170   10.6950 C.3    18  G18         0.1773
    373  O4'       62.9490   72.6180   11.2380 O.3    18  G18        -0.3307
    374  C3'       64.5270   72.1650    9.5560 C.3    18  G18         0.1860
    375  O3'       65.9280   72.1320    9.3350 O.3    18  G18        -0.3112
    376  C2'       64.0310   70.8300   10.0980 C.3    18  G18         0.2309
    377  O2'       64.9520   70.2200   10.9760 O.3    18  G18        -0.2156
    378  C1'       62.7740   71.2610   10.8580 C.3    18  G18         0.2408
    379  N1        58.7900   68.4010    9.5750 N.ar   18  G18        -0.1709
    380  C2        59.8370   68.1130   10.4200 C.ar   18  G18         0.2606
    381  N2        59.8150   66.9070   10.9940 N.pl3  18  G18        -0.0859
    382  N3        60.8300   68.9470   10.6760 N.ar   18  G18        -0.1918
    383  C4        60.6950   70.1100   10.0040 C.ar   18  G18         0.1723
    384  C5        59.6930   70.4960    9.1360 C.ar   18  G18         0.1748
    385  C6        58.6320   69.5950    8.8750 C.ar   18  G18         0.3023
    386  O6        57.6540   69.7530    8.1390 O.2    18  G18        -0.2633
    387  N7        59.9260   71.7730    8.6500 N.ar   18  G18        -0.2173
    388  C8        61.0410   72.1350    9.2210 C.ar   18  G18         0.1817
    389  N9        61.5570   71.1740   10.0580 N.ar   18  G18        -0.2693
    390  OP1       63.6610   76.8510    8.2670 O.3    18  G18        -0.4373
    391  OP2       61.2830   75.9190    7.9680 O.co2  18  G18        -0.5172
    392  P         66.5290   72.6270    7.9270 P.3    19  G19         0.2141
    393  C5'       67.7150   70.5480    6.8360 C.3    19  G19         0.1812
    394  O5'       67.7840   71.6660    7.7190 O.3    19  G19        -0.3114
    395  C4'       67.0060   69.3870    7.5040 C.3    19  G19         0.1773
    396  O4'       65.6770   69.8030    7.8980 O.3    19  G19        -0.3307
    397  C3'       66.7840   68.1600    6.6340 C.3    19  G19         0.1860
    398  O3'       67.8980   67.2780    6.7150 O.3    19  G19        -0.3112
    399  C2'       65.5710   67.5130    7.2820 C.3    19  G19         0.2309
    400  O2'       65.9390   66.7840    8.4350 O.3    19  G19        -0.2156
    401  C1'       64.7610   68.7400    7.6980 C.3    19  G19         0.2408
    402  N1        59.9140   68.4890    6.1540 N.ar   19  G19        -0.1709
    403  C2        60.5770   67.6800    7.0380 C.ar   19  G19         0.2606
    404  N2        59.8380   66.7250    7.6150 N.pl3  19  G19        -0.0859
    405  N3        61.8630   67.7970    7.3320 N.ar   19  G19        -0.1918
    406  C4        62.4420   68.8050    6.6470 C.ar   19  G19         0.1723
    407  C5        61.8650   69.6640    5.7320 C.ar   19  G19         0.1748
    408  C6        60.4860   69.5320    5.4420 C.ar   19  G19         0.3023
    409  O6        59.7910   70.2060    4.6780 O.2    19  G19        -0.2633
    410  N7        62.8040   70.5580    5.2360 N.ar   19  G19        -0.2173
    411  C8        63.9090   70.2460    5.8550 C.ar   19  G19         0.1817
    412  N9        63.7540   69.2190    6.7550 N.ar   19  G19        -0.2693
    413  OP1       67.0230   74.0210    8.0960 O.3    19  G19        -0.4373
    414  OP2       65.5310   72.3320    6.8660 O.co2  19  G19        -0.5172
    415  P         67.9430   65.9830    5.7770 P.3    20  A20         0.2141
    416  C5'       67.6500   63.9930    7.4790 C.3    20  A20         0.1812
    417  O5'       67.0630   64.8960    6.5370 O.3    20  A20        -0.3114
    418  C4'       66.9220   62.6670    7.4480 C.3    20  A20         0.1773
    419  O4'       65.5070   62.8900    7.6800 O.3    20  A20        -0.3307
    420  C3'       66.9830   61.9520    6.1140 C.3    20  A20         0.1860
    421  O3'       68.2210   61.2310    6.0410 O.3    20  A20        -0.3112
    422  C2'       65.7120   61.1080    6.1030 C.3    20  A20         0.2309
    423  O2'       65.7860   59.8240    6.6560 O.3    20  A20        -0.2156
    424  C1'       64.7440   61.9860    6.9020 C.3    20  A20         0.2408
    425  N1        60.0450   62.0120    4.8880 N.ar   20  A20        -0.2040
    426  C2        60.7200   61.1000    5.6020 C.ar   20  A20         0.2016
    427  N3        61.9520   61.1610    6.0960 N.ar   20  A20        -0.2048
    428  C4        62.5220   62.3360    5.7860 C.ar   20  A20         0.1692
    429  C5        61.9580   63.3730    5.0680 C.ar   20  A20         0.1518
    430  C6        60.6510   63.1840    4.5980 C.ar   20  A20         0.1919
    431  N6        59.9820   64.0940    3.8820 N.pl3  20  A20        -0.1054
    432  N7        62.8440   64.4310    4.9550 N.ar   20  A20        -0.2193
    433  C8        63.9090   64.0140    5.5920 C.ar   20  A20         0.1816
    434  N9        63.7790   62.7550    6.1220 N.ar   20  A20        -0.2693
    435  OP1       69.3310   65.4830    5.7040 O.3    20  A20        -0.4373
    436  OP2       67.2320   66.3830    4.5390 O.co2  20  A20        -0.5172
    437  P         68.4160   59.8350    6.8420 P.3    21  G21         0.2141
    438  C5'       67.3780   59.0270    9.1230 C.3    21  G21         0.1812
    439  O5'       67.7580   60.1030    8.2670 O.3    21  G21        -0.3114
    440  C4'       66.0270   59.3210    9.7250 C.3    21  G21         0.1773
    441  O4'       65.0800   59.5210    8.6400 O.3    21  G21        -0.3307
    442  C3'       65.3800   58.2420   10.5720 C.3    21  G21         0.1860
    443  O3'       65.7970   58.2300   11.9180 O.3    21  G21        -0.3112
    444  C2'       63.9140   58.6150   10.4690 C.3    21  G21         0.2309
    445  O2'       63.6350   59.7590   11.2500 O.3    21  G21        -0.2156
    446  C1'       63.8210   58.9860    8.9940 C.3    21  G21         0.2408
    447  N1        60.3620   55.6530    7.4200 N.ar   21  G21        -0.1709
    448  C2        60.2110   56.8010    8.1620 C.ar   21  G21         0.2606
    449  N2        58.9780   57.1100    8.5590 N.pl3  21  G21        -0.0859
    450  N3        61.2020   57.5970    8.4940 N.ar   21  G21        -0.1918
    451  C4        62.3830   57.1610    8.0200 C.ar   21  G21         0.1723
    452  C5        62.6510   56.0350    7.2720 C.ar   21  G21         0.1748
    453  C6        61.5690   55.1760    6.9200 C.ar   21  G21         0.3023
    454  O6        61.5930   54.1210    6.2620 O.2    21  G21        -0.2633
    455  N7        64.0080   55.9470    6.9880 N.ar   21  G21        -0.2173
    456  C8        64.5270   57.0040    7.5580 C.ar   21  G21         0.1817
    457  N9        63.5950   57.7750    8.2110 N.ar   21  G21        -0.2693
    458  OP1       69.8710   59.6170    7.0840 O.3    21  G21        -0.4373
    459  OP2       67.6320   58.7870    6.1290 O.co2  21  G21        -0.5172
    460  P         65.5530   56.9070   12.7880 P.3    22  G22         0.2141
    461  C5'       63.1890   57.7680   13.5130 C.3    22  G22         0.1812
    462  O5'       63.9660   56.7800   12.8600 O.3    22  G22        -0.3114
    463  C4'       61.7360   57.3640   13.5410 C.3    22  G22         0.1773
    464  O4'       61.2450   57.2580   12.1730 O.3    22  G22        -0.3307
    465  C3'       61.4790   55.9720   14.0910 C.3    22  G22         0.1860
    466  O3'       61.4410   55.8920   15.4970 O.3    22  G22        -0.3112
    467  C2'       60.1280   55.6340   13.4930 C.3    22  G22         0.2309
    468  O2'       59.0800   56.2840   14.1720 O.3    22  G22        -0.2156
    469  C1'       60.2690   56.2260   12.0970 C.3    22  G22         0.2408
    470  N1        58.7970   52.1300    9.5500 N.ar   22  G22        -0.1709
    471  C2        58.0710   52.9640   10.3620 C.ar   22  G22         0.2606
    472  N2        56.7790   52.6620   10.5340 N.pl3  22  G22        -0.0859
    473  N3        58.5780   54.0210   10.9620 N.ar   22  G22        -0.1918
    474  C4        59.8910   54.1810   10.6840 C.ar   22  G22         0.1723
    475  C5        60.7040   53.4080    9.8900 C.ar   22  G22         0.1748
    476  C6        60.1490   52.2780    9.2470 C.ar   22  G22         0.3023
    477  O6        60.7040   51.4710    8.4960 O.2    22  G22        -0.2633
    478  N7        61.9950   53.9160    9.8650 N.ar   22  G22        -0.2173
    479  C8        61.9420   54.9730   10.6310 C.ar   22  G22         0.1817
    480  N9        60.6980   55.1840   11.1670 N.ar   22  G22        -0.2693
    481  OP1       66.0790   57.1540   14.1610 O.3    22  G22        -0.4373
    482  OP2       66.0480   55.7390   12.0020 O.co2  22  G22        -0.5172
    483  P         61.5630   54.4550   16.1910 P.3    23  G23         0.2141
    484  C5'       58.9590   54.3700   16.2090 C.3    23  G23         0.1812
    485  O5'       60.1780   53.7450   15.8420 O.3    23  G23        -0.3114
    486  C4'       57.7700   53.4910   15.9010 C.3    23  G23         0.1773
    487  O4'       57.5530   53.4260   14.4600 O.3    23  G23        -0.3307
    488  C3'       57.9220   52.0340   16.2910 C.3    23  G23         0.1860
    489  O3'       57.6820   51.7870   17.6560 O.3    23  G23        -0.3112
    490  C2'       56.8840   51.3590   15.4120 C.3    23  G23         0.2309
    491  O2'       55.5840   51.5470   15.9200 O.3    23  G23        -0.2156
    492  C1'       57.0370   52.1460   14.1140 C.3    23  G23         0.2408
    493  N1        57.5560   48.3320   10.8520 N.ar   23  G23        -0.1709
    494  C2        56.4370   48.7850   11.5020 C.ar   23  G23         0.2606
    495  N2        55.2960   48.1120   11.2680 N.pl3  23  G23        -0.0859
    496  N3        56.4310   49.8220   12.3220 N.ar   23  G23        -0.1918
    497  C4        57.6520   50.3830   12.4370 C.ar   23  G23         0.1723
    498  C5        58.8310   50.0100   11.8330 C.ar   23  G23         0.1748
    499  C6        58.8250   48.8870   10.9580 C.ar   23  G23         0.3023
    500  O6        59.7690   48.3880   10.3260 O.2    23  G23        -0.2633
    501  N7        59.8680   50.8490   12.2230 N.ar   23  G23        -0.2173
    502  C8        59.3060   51.6970   13.0430 C.ar   23  G23         0.1817
    503  N9        57.9670   51.4570   13.2270 N.ar   23  G23        -0.2693
    504  OP1       61.6330   54.6630   17.6610 O.3    23  G23        -0.4373
    505  OP2       62.6650   53.7510   15.4930 O.co2  23  G23        -0.5172
    506  P         58.0810   50.3650   18.2620 P.3    24  A24         0.2141
    507  C5'       60.1100   51.6570   19.3200 C.3    24  A24         0.1812
    508  O5'       59.0390   50.7270   19.4780 O.3    24  A24        -0.3114
    509  C4'       61.3560   51.1230   19.9850 C.3    24  A24         0.1773
    510  O4'       61.0280   50.7220   21.3370 O.3    24  A24        -0.3307
    511  C3'       61.9440   49.8730   19.3580 C.3    24  A24         0.1860
    512  O3'       62.8240   50.2530   18.3040 O.3    24  A24        -0.3112
    513  C2'       62.6950   49.2490   20.5310 C.3    24  A24         0.2309
    514  O2'       63.9350   49.8710   20.8030 O.3    24  A24        -0.2156
    515  C1'       61.7520   49.5580   21.6880 C.3    24  A24         0.2408
    516  N1        60.8160   45.0900   24.0670 N.ar   24  A24        -0.2040
    517  C2        61.9310   45.8140   23.9300 C.ar   24  A24         0.2016
    518  N3        62.1220   46.9590   23.2770 N.ar   24  A24        -0.2048
    519  C4        60.9830   47.3640   22.6970 C.ar   24  A24         0.1692
    520  C5        59.7610   46.7200   22.7370 C.ar   24  A24         0.1518
    521  C6        59.6890   45.5300   23.4740 C.ar   24  A24         0.1919
    522  N6        58.5670   44.8180   23.6250 N.pl3  24  A24        -0.1054
    523  N7        58.8120   47.4250   22.0150 N.ar   24  A24        -0.2193
    524  C8        59.4680   48.4710   21.5720 C.ar   24  A24         0.1816
    525  N9        60.7800   48.5060   21.9630 N.ar   24  A24        -0.2693
    526  OP1       58.8820   49.6470   17.2440 O.2    24  A24        -0.5172
    527  OP2       56.8480   49.7400   18.7870 O.co2  24  A24        -0.4373
    528  P         63.2950   49.1640   17.2280 P.3    25  C25         0.2141
    529  C5'       65.1650   47.9520   18.5980 C.3    25  C25         0.1812
    530  O5'       63.8250   47.9680   18.1340 O.3    25  C25        -0.3114
    531  C4'       65.4850   46.6060   19.1850 C.3    25  C25         0.1773
    532  O4'       64.5580   46.3560   20.2730 O.3    25  C25        -0.3307
    533  C3'       65.2630   45.4260   18.2500 C.3    25  C25         0.1860
    534  O3'       66.3920   45.1920   17.4190 O.3    25  C25        -0.3112
    535  C2'       65.0430   44.2740   19.2230 C.3    25  C25         0.2309
    536  O2'       66.2490   43.7380   19.7350 O.3    25  C25        -0.2156
    537  C1'       64.2610   44.9720   20.3350 C.3    25  C25         0.2420
    538  N1        62.8130   44.8010   20.2270 N.ar   25  C25        -0.2535
    539  C2        62.2600   43.6620   20.7600 C.ar   25  C25         0.3532
    540  O2        63.0130   42.8270   21.2700 O.2    25  C25        -0.2443
    541  N3        60.9270   43.4810   20.7110 N.ar   25  C25        -0.1739
    542  C4        60.1550   44.3910   20.1390 C.ar   25  C25         0.1759
    543  N4        58.8410   44.1550   20.1230 N.pl3  25  C25        -0.1070
    544  C5        60.6950   45.5760   19.5620 C.ar   25  C25         0.0566
    545  C6        62.0220   45.7400   19.6260 C.ar   25  C25         0.0850
    546  OP1       64.4420   49.7340   16.4870 O.3    25  C25        -0.4373
    547  OP2       62.1010   48.6740   16.4770 O.co2  25  C25        -0.5172
    548  P         66.2380   44.2500   16.1260 P.3    26  U26         0.2141
    549  C5'       66.4040   41.8530   17.1680 C.3    26  U26         0.1812
    550  O5'       65.5820   42.9080   16.6860 O.3    26  U26        -0.3114
    551  C4'       65.7510   40.5200   16.9110 C.3    26  U26         0.1773
    552  O4'       64.6180   40.3500   17.7950 O.3    26  U26        -0.3307
    553  C3'       65.1640   40.3710   15.5250 C.3    26  U26         0.1860
    554  O3'       66.1840   39.9900   14.6160 O.3    26  U26        -0.3112
    555  C2'       64.1130   39.2890   15.7370 C.3    26  U26         0.2309
    556  O2'       64.6430   37.9830   15.7800 O.3    26  U26        -0.2156
    557  C1'       63.5940   39.6390   17.1290 C.3    26  U26         0.2420
    558  N1        62.3870   40.4750   17.1150 N.ar   26  U26        -0.2534
    559  C2        61.1680   39.8330   17.0840 C.ar   26  U26         0.3546
    560  O2        61.0600   38.6190   17.0700 O.2    26  U26        -0.2443
    561  N3        60.0760   40.6620   17.0730 N.ar   26  U26        -0.1530
    562  C4        60.0820   42.0390   17.0900 C.ar   26  U26         0.2846
    563  O4        59.0120   42.6480   17.0810 O.2    26  U26        -0.2650
    564  C5        61.3830   42.6270   17.1200 C.ar   26  U26         0.0814
    565  C6        62.4650   41.8420   17.1320 C.ar   26  U26         0.0870
    566  OP1       67.5940   43.9290   15.6050 O.3    26  U26        -0.4373
    567  OP2       65.2430   44.8840   15.2350 O.co2  26  U26        -0.5172
    568  P         66.1320   40.5150   13.1040 P.3    27  G27         0.2141
    569  C5'       64.9350   38.3170   12.3760 C.3    27  G27         0.1812
    570  O5'       64.8850   39.7310   12.5030 O.3    27  G27        -0.3114
    571  C4'       63.5520   37.7410   12.1780 C.3    27  G27         0.1773
    572  O4'       62.7470   38.0090   13.3620 O.3    27  G27        -0.3307
    573  C3'       62.7280   38.3060   11.0230 C.3    27  G27         0.1860
    574  O3'       63.0580   37.6640    9.7950 O.3    27  G27        -0.3112
    575  C2'       61.3110   37.9720   11.4700 C.3    27  G27         0.2309
    576  O2'       61.0070   36.6130   11.2420 O.3    27  G27        -0.2156
    577  C1'       61.3970   38.2270   12.9790 C.3    27  G27         0.2408
    578  N1        57.5590   41.3560   14.0860 N.ar   27  G27        -0.1709
    579  C2        57.5440   40.0020   13.8630 C.ar   27  G27         0.2606
    580  N2        56.3500   39.4000   13.9260 N.pl3  27  G27        -0.0859
    581  N3        58.6230   39.2880   13.5980 N.ar   27  G27        -0.1918
    582  C4        59.7400   40.0470   13.5770 C.ar   27  G27         0.1723
    583  C5        59.8630   41.4040   13.7880 C.ar   27  G27         0.1748
    584  C6        58.6950   42.1620   14.0670 C.ar   27  G27         0.3023
    585  O6        58.5920   43.3860   14.2800 O.2    27  G27        -0.2633
    586  N7        61.1900   41.8000   13.6820 N.ar   27  G27        -0.2173
    587  C8        61.8380   40.6970   13.4100 C.ar   27  G27         0.1817
    588  N9        61.0160   39.5980   13.3190 N.ar   27  G27        -0.2693
    589  OP1       67.3500   40.0380   12.4130 O.2    27  G27        -0.5172
    590  OP2       65.8370   41.9630   13.1320 O.co2  27  G27        -0.4373
    591  P         62.3650   38.1330    8.4090 P.3    28  G28         0.2141
    592  C5'       60.1640   39.4870    7.9260 C.3    28  G28         0.1812
    593  O5'       60.9240   38.6720    8.8230 O.3    28  G28        -0.3114
    594  C4'       58.7050   39.4620    8.3140 C.3    28  G28         0.1773
    595  O4'       58.5730   39.8350    9.7140 O.3    28  G28        -0.3307
    596  C3'       57.8110   40.4390    7.5650 C.3    28  G28         0.1860
    597  O3'       57.3670   39.8680    6.3310 O.3    28  G28        -0.3112
    598  C2'       56.6560   40.6160    8.5460 C.3    28  G28         0.2309
    599  O2'       55.7170   39.5570    8.4800 O.3    28  G28        -0.2156
    600  C1'       57.3870   40.5870    9.8940 C.3    28  G28         0.2408
    601  N1        55.7240   44.7710   12.2020 N.ar   28  G28        -0.1709
    602  C2        55.0600   43.6080   11.9150 C.ar   28  G28         0.2606
    603  N2        53.7670   43.5550   12.2800 N.pl3  28  G28        -0.0859
    604  N3        55.6160   42.5720   11.3150 N.ar   28  G28        -0.1918
    605  C4        56.9060   42.7970   11.0140 C.ar   28  G28         0.1723
    606  C5        57.6630   43.9200   11.2510 C.ar   28  G28         0.1748
    607  C6        57.0550   45.0270   11.9060 C.ar   28  G28         0.3023
    608  O6        57.5570   46.1190   12.2240 O.2    28  G28        -0.2633
    609  N7        58.9580   43.7470   10.7820 N.ar   28  G28        -0.2173
    610  C8        58.9620   42.5430   10.2810 C.ar   28  G28         0.1817
    611  N9        57.7460   41.9160   10.3800 N.ar   28  G28        -0.2693
    612  OP1       62.1600   36.8780    7.6230 O.2    28  G28        -0.5172
    613  OP2       63.1240   39.2690    7.7960 O.co2  28  G28        -0.4373
    614  P         57.2710   40.7800    5.0080 P.3    29  C29         0.2141
    615  C5'       54.7580   41.2480    5.5670 C.3    29  C29         0.1812
    616  O5'       56.0550   41.7590    5.2990 O.3    29  C29        -0.3114
    617  C4'       53.9460   42.2790    6.3080 C.3    29  C29         0.1773
    618  O4'       54.5370   42.4960    7.6190 O.3    29  C29        -0.3307
    619  C3'       53.9490   43.6610    5.6840 C.3    29  C29         0.1860
    620  O3'       53.0180   43.8030    4.6180 O.3    29  C29        -0.3112
    621  C2'       53.6180   44.5460    6.8760 C.3    29  C29         0.2309
    622  O2'       52.2340   44.5250    7.1870 O.3    29  C29        -0.2156
    623  C1'       54.4210   43.8600    7.9810 C.3    29  C29         0.2420
    624  N1        55.7770   44.4240    8.0920 N.ar   29  C29        -0.2535
    625  C2        55.9500   45.6310    8.7720 C.ar   29  C29         0.3532
    626  O2        54.9730   46.1750    9.2800 O.2    29  C29        -0.2443
    627  N3        57.1800   46.1740    8.8580 N.ar   29  C29        -0.1739
    628  C4        58.2250   45.5620    8.2990 C.ar   29  C29         0.1759
    629  N4        59.4120   46.1520    8.4050 N.pl3  29  C29        -0.1070
    630  C5        58.0910   44.3210    7.6070 C.ar   29  C29         0.0566
    631  C6        56.8560   43.7900    7.5290 C.ar   29  C29         0.0850
    632  OP1       56.8960   39.9140    3.8640 O.2    29  C29        -0.5172
    633  OP2       58.5080   41.5960    4.9400 O.co2  29  C29        -0.4373
    634  P         53.0150   45.1640    3.7610 P.3    30  C30         0.2141
    635  C5'       52.8340   47.6190    4.6240 C.3    30  C30         0.1812
    636  O5'       52.5390   46.2520    4.8170 O.3    30  C30        -0.3114
    637  C4'       52.5520   48.3830    5.8830 C.3    30  C30         0.1773
    638  O4'       53.3790   47.8750    6.9610 O.3    30  C30        -0.3307
    639  C3'       52.8530   49.8630    5.8170 C.3    30  C30         0.1860
    640  O3'       51.7040   50.5000    5.2850 O.3    30  C30        -0.3112
    641  C2'       53.0600   50.1950    7.2870 C.3    30  C30         0.2309
    642  O2'       51.8180   50.2890    7.9550 O.3    30  C30        -0.2156
    643  C1'       53.7930   48.9450    7.7820 C.3    30  C30         0.2420
    644  N1        55.2430   49.0510    7.6280 N.ar   30  C30        -0.2535
    645  C2        55.9450   49.9480    8.4180 C.ar   30  C30         0.3532
    646  O2        55.3300   50.6100    9.2570 O.2    30  C30        -0.2443
    647  N3        57.2800   50.0730    8.2500 N.ar   30  C30        -0.1739
    648  C4        57.9090   49.3340    7.3390 C.ar   30  C30         0.1759
    649  N4        59.2180   49.4970    7.2060 N.pl3  30  C30        -0.1070
    650  C5        57.2200   48.3950    6.5260 C.ar   30  C30         0.0566
    651  C6        55.8970   48.2840    6.7040 C.ar   30  C30         0.0850
    652  OP1       51.9950   45.0780    2.6820 O.2    30  C30        -0.5172
    653  OP2       54.4280   45.4870    3.4220 O.co2  30  C30        -0.4373
    654  P         51.8700   51.7540    4.3060 P.3    31  C31         0.2141
    655  C5'       51.5780   53.2800    6.3820 C.3    31  C31         0.1812
    656  O5'       52.3690   52.8950    5.2820 O.3    31  C31        -0.3114
    657  C4'       52.2870   54.3390    7.1600 C.3    31  C31         0.1773
    658  O4'       53.3520   53.7300    7.9270 O.3    31  C31        -0.3307
    659  C3'       53.0030   55.3440    6.2840 C.3    31  C31         0.1860
    660  O3'       52.1130   56.3450    5.8440 O.3    31  C31        -0.3112
    661  C2'       54.0520   55.8850    7.2310 C.3    31  C31         0.2309
    662  O2'       53.4830   56.7880    8.1450 O.3    31  C31        -0.2156
    663  C1'       54.4430   54.6220    7.9900 C.3    31  C31         0.2420
    664  N1        55.6200   53.9770    7.4100 N.ar   31  C31        -0.2535
    665  C2        56.8310   54.5890    7.5970 C.ar   31  C31         0.3532
    666  O2        56.8550   55.6340    8.2450 O.2    31  C31        -0.2443
    667  N3        57.9460   54.0410    7.0810 N.ar   31  C31        -0.1739
    668  C4        57.8720   52.9020    6.4020 C.ar   31  C31         0.1759
    669  N4        59.0100   52.3900    5.9220 N.pl3  31  C31        -0.1070
    670  C5        56.6330   52.2380    6.1900 C.ar   31  C31         0.0566
    671  C6        55.5350   52.8090    6.7070 C.ar   31  C31         0.0850
    672  OP1       50.5280   52.1300    3.7840 O.3    31  C31        -0.4373
    673  OP2       52.9830   51.4840    3.3650 O.co2  31  C31        -0.5172
    674  P         52.4580   57.1850    4.5230 P.3    32  G32         0.2141
    675  C5'       53.8470   59.0930    5.6410 C.3    32  G32         0.1812
    676  O5'       53.8350   57.9100    4.8660 O.3    32  G32        -0.3114
    677  C4'       55.2280   59.6760    5.6800 C.3    32  G32         0.1773
    678  O4'       56.1050   58.7510    6.3670 O.3    32  G32        -0.3307
    679  C3'       55.8890   59.8150    4.3260 C.3    32  G32         0.1860
    680  O3'       55.5090   60.9700    3.6170 O.3    32  G32        -0.3112
    681  C2'       57.3620   59.8370    4.6750 C.3    32  G32         0.2309
    682  O2'       57.7800   61.1020    5.1430 O.3    32  G32        -0.2156
    683  C1'       57.4040   58.8110    5.8000 C.3    32  G32         0.2408
    684  N1        61.0760   55.9610    3.8560 N.ar   32  G32        -0.1709
    685  C2        61.1390   57.2340    4.3580 C.ar   32  G32         0.2606
    686  N2        62.3360   57.8310    4.3140 N.pl3  32  G32        -0.0859
    687  N3        60.1030   57.8700    4.8630 N.ar   32  G32        -0.1918
    688  C4        58.9840   57.1160    4.8330 C.ar   32  G32         0.1723
    689  C5        58.8230   55.8360    4.3610 C.ar   32  G32         0.1748
    690  C6        59.9320   55.1750    3.8060 C.ar   32  G32         0.3023
    691  O6        59.9800   54.0560    3.3040 O.2    32  G32        -0.2633
    692  N7        57.5100   55.4120    4.5210 N.ar   32  G32        -0.2173
    693  C8        56.9070   56.4350    5.0600 C.ar   32  G32         0.1817
    694  N9        57.7440   57.5030    5.2640 N.ar   32  G32        -0.2693
    695  OP1       51.3960   58.2130    4.3970 O.3    32  G32        -0.4373
    696  OP2       52.7150   56.2380    3.4030 O.co2  32  G32        -0.5172
    697  P         55.2280   60.8370    2.0540 P.3    33  A33         0.2141
    698  C5'       56.8650   62.8780    1.6410 C.3    33  A33         0.1812
    699  O5'       55.5930   62.2580    1.4340 O.3    33  A33        -0.3114
    700  C4'       56.9940   64.0380    0.6840 C.3    33  A33         0.1773
    701  O4'       58.2040   64.8050    0.9370 O.3    33  A33        -0.3307
    702  C3'       57.1250   63.5440   -0.7400 C.3    33  A33         0.1860
    703  O3'       56.0340   63.7360   -1.6190 O.3    33  A33        -0.3112
    704  C2'       58.6020   63.5890   -1.1120 C.3    33  A33         0.2309
    705  O2'       58.8100   64.0580   -2.4290 O.3    33  A33        -0.2156
    706  C1'       59.1440   64.6150   -0.1100 C.3    33  A33         0.2408
    707  N1        62.1120   61.1040    2.2360 N.ar   33  A33        -0.2040
    708  C2        60.8630   61.0470    1.7560 C.ar   33  A33         0.2016
    709  N3        60.1400   61.9930    1.1550 N.ar   33  A33        -0.2048
    710  C4        60.8450   63.1270    1.0540 C.ar   33  A33         0.1692
    711  C5        62.1400   63.3400    1.4970 C.ar   33  A33         0.1518
    712  C6        62.7890   62.2600    2.1260 C.ar   33  A33         0.1919
    713  N6        64.0240   62.3210    2.6220 N.pl3  33  A33        -0.1054
    714  N7        62.5470   64.6340    1.2110 N.ar   33  A33        -0.2193
    715  C8        61.5060   65.1660    0.6160 C.ar   33  A33         0.1816
    716  N9        60.4410   64.3130    0.4920 N.ar   33  A33        -0.2693
    717  OP1       53.7630   60.6250    1.9050 O.3    33  A33        -0.4373
    718  OP2       56.1800   59.8010    1.5670 O.co2  33  A33        -0.5172
    719  P         55.8240   65.1520   -2.3280 P.3    34  U34         0.2141
    720  C5'       54.1850   65.3510   -0.2950 C.3    34  U34         0.1812
    721  O5'       54.9260   65.9890   -1.3180 O.3    34  U34        -0.3114
    722  C4'       52.7280   65.6770   -0.4400 C.3    34  U34         0.1773
    723  O4'       52.2770   65.2440   -1.7440 O.3    34  U34        -0.3307
    724  C3'       51.8300   64.9440    0.5380 C.3    34  U34         0.1860
    725  O3'       51.7390   65.7340    1.7210 O.3    34  U34        -0.3112
    726  C2'       50.4920   64.9200   -0.1950 C.3    34  U34         0.2309
    727  O2'       49.7500   66.1160   -0.0480 O.3    34  U34        -0.2156
    728  C1'       50.9410   64.7800   -1.6520 C.3    34  U34         0.2420
    729  N1        50.8560   63.4490   -2.2740 N.ar   34  U34        -0.2534
    730  C2        49.6940   62.7310   -2.1100 C.ar   34  U34         0.3546
    731  O2        48.7600   63.1340   -1.4410 O.2    34  U34        -0.2443
    732  N3        49.6630   61.5210   -2.7590 N.ar   34  U34        -0.1530
    733  C4        50.6620   60.9670   -3.5340 C.ar   34  U34         0.2846
    734  O4        50.5000   59.8490   -4.0310 O.2    34  U34        -0.2650
    735  C5        51.8370   61.7710   -3.6430 C.ar   34  U34         0.0814
    736  C6        51.8940   62.9510   -3.0210 C.ar   34  U34         0.0870
    737  OP1       55.0200   64.9080   -3.5440 O.2    34  U34        -0.5172
    738  OP2       57.1390   65.8180   -2.4300 O.co2  34  U34        -0.4373
    739  P         52.1520   65.1010    3.1330 P.3    35  G35         0.2141
    740  C5'       53.6970   65.9700    5.0550 C.3    35  G35         0.1812
    741  O5'       52.9920   66.2430    3.8510 O.3    35  G35        -0.3114
    742  C4'       54.9540   65.2020    4.7430 C.3    35  G35         0.1773
    743  O4'       55.4430   65.6200    3.4550 O.3    35  G35        -0.3307
    744  C3'       56.1050   65.4320    5.7090 C.3    35  G35         0.1860
    745  O3'       56.0170   64.4460    6.7330 O.3    35  G35        -0.3112
    746  C2'       57.3260   65.1380    4.8430 C.3    35  G35         0.2309
    747  O2'       57.6130   63.7620    4.7560 O.3    35  G35        -0.2156
    748  C1'       56.8520   65.6070    3.4680 C.3    35  G35         0.2408
    749  N1        60.9190   68.3990    2.3050 N.ar   35  G35        -0.1709
    750  C2        60.8340   67.2980    3.1140 C.ar   35  G35         0.2606
    751  N2        61.9900   66.8500    3.6230 N.pl3  35  G35        -0.0859
    752  N3        59.7020   66.6850    3.4070 N.ar   35  G35        -0.1918
    753  C4        58.6450   67.2800    2.8250 C.ar   35  G35         0.1723
    754  C5        58.6240   68.3940    2.0160 C.ar   35  G35         0.1748
    755  C6        59.8430   69.0260    1.6930 C.ar   35  G35         0.3023
    756  O6        60.0330   70.0050    0.9610 O.2    35  G35        -0.2633
    757  N7        57.3240   68.7030    1.6370 N.ar   35  G35        -0.2173
    758  C8        56.5990   67.7740    2.1910 C.ar   35  G35         0.1817
    759  N9        57.3450   66.8500    2.8830 N.ar   35  G35        -0.2693
    760  OP1       53.0570   63.9620    2.8420 O.2    35  G35        -0.5172
    761  OP2       50.9000   64.8700    3.9000 O.co2  35  G35        -0.4373
    762  P         56.3020   64.8400    8.2640 P.3    36  A36         0.2141
    763  C5'       56.6300   62.3040    8.8800 C.3    36  A36         0.1812
    764  O5'       57.1550   63.6240    8.8420 O.3    36  A36        -0.3114
    765  C4'       57.7350   61.3380    9.1960 C.3    36  A36         0.1773
    766  O4'       58.7750   61.4990    8.2020 O.3    36  A36        -0.3307
    767  C3'       58.4320   61.5690   10.5250 C.3    36  A36         0.1860
    768  O3'       57.7470   60.8300   11.5240 O.3    36  A36        -0.3112
    769  C2'       59.8150   60.9740   10.2760 C.3    36  A36         0.2309
    770  O2'       59.8860   59.5730   10.4410 O.3    36  A36        -0.2156
    771  C1'       60.0450   61.3410    8.8080 C.3    36  A36         0.2408
    772  N1        64.0870   64.2050   10.1420 N.ar   36  A36        -0.2040
    773  C2        63.7160   62.9660   10.4950 C.ar   36  A36         0.2016
    774  N3        62.6570   62.2680   10.1110 N.ar   36  A36        -0.2048
    775  C4        61.9170   62.9820    9.2480 C.ar   36  A36         0.1692
    776  C5        62.1720   64.2590    8.7940 C.ar   36  A36         0.1518
    777  C6        63.3110   64.8890    9.2760 C.ar   36  A36         0.1919
    778  N6        63.6650   66.1250    8.9280 N.pl3  36  A36        -0.1054
    779  N7        61.1910   64.6710    7.9080 N.ar   36  A36        -0.2193
    780  C8        60.3750   63.6520    7.8520 C.ar   36  A36         0.1816
    781  N9        60.7520   62.6000    8.6410 N.ar   36  A36        -0.2693
    782  OP1       54.9750   64.8740    8.9420 O.3    36  A36        -0.4373
    783  OP2       57.1800   66.0450    8.2820 O.co2  36  A36        -0.5172
    784  P         57.5090   61.4700   12.9750 P.3    37  A37         0.2141
    785  C5'       59.7020   60.5970   14.1060 C.3    37  A37         0.1812
    786  O5'       58.9820   61.6980   13.5530 O.3    37  A37        -0.3114
    787  C4'       61.0830   61.0040   14.5900 C.3    37  A37         0.1773
    788  O4'       61.8420   61.5850   13.4930 O.3    37  A37        -0.3307
    789  C3'       61.1330   62.0800   15.6650 C.3    37  A37         0.1860
    790  O3'       60.9480   61.5220   16.9630 O.3    37  A37        -0.3112
    791  C2'       62.5440   62.6350   15.5060 C.3    37  A37         0.2309
    792  O2'       63.5250   61.8130   16.1080 O.3    37  A37        -0.2156
    793  C1'       62.7300   62.5690   13.9950 C.3    37  A37         0.2408
    794  N1        64.6890   67.1950   13.0450 N.ar   37  A37        -0.2040
    795  C2        65.1120   66.1670   13.7920 C.ar   37  A37         0.2016
    796  N3        64.5380   64.9870   14.0020 N.ar   37  A37        -0.2048
    797  C4        63.3760   64.9000   13.3320 C.ar   37  A37         0.1692
    798  C5        62.8080   65.8680   12.5280 C.ar   37  A37         0.1518
    799  C6        63.5160   67.0760   12.3860 C.ar   37  A37         0.1919
    800  N6        63.0930   68.1030   11.6410 N.pl3  37  A37        -0.1054
    801  N7        61.6040   65.4210   12.0020 N.ar   37  A37        -0.2193
    802  C8        61.4750   64.2140   12.4920 C.ar   37  A37         0.1816
    803  N9        62.5150   63.8330   13.2990 N.ar   37  A37        -0.2693
    804  OP1       56.8640   60.4140   13.8060 O.3    37  A37        -0.4373
    805  OP2       56.8180   62.7710   12.7730 O.co2  37  A37        -0.5172
    806  P         60.3930   62.4480   18.1550 P.3    38  A38         0.2141
    807  C5'       62.5530   63.8200   18.7300 C.3    38  A38         0.1812
    808  O5'       61.2910   63.7600   18.0700 O.3    38  A38        -0.3114
    809  C4'       63.0730   65.2280   18.7040 C.3    38  A38         0.1773
    810  O4'       63.3520   65.5930   17.3310 O.3    38  A38        -0.3307
    811  C3'       62.0940   66.2830   19.1770 C.3    38  A38         0.1860
    812  O3'       62.0760   66.4120   20.5830 O.3    38  A38        -0.3112
    813  C2'       62.6160   67.5240   18.4790 C.3    38  A38         0.2309
    814  O2'       63.7670   68.0300   19.1230 O.3    38  A38        -0.2156
    815  C1'       62.9930   66.9450   17.1150 C.3    38  A38         0.2408
    816  N1        60.1170   69.6400   13.8120 N.ar   38  A38        -0.2040
    817  C2        61.2680   69.9180   14.4330 C.ar   38  A38         0.2016
    818  N3        61.9810   69.1650   15.2630 N.ar   38  A38        -0.2048
    819  C4        61.3910   67.9740   15.4440 C.ar   38  A38         0.1692
    820  C5        60.2100   67.5400   14.8750 C.ar   38  A38         0.1518
    821  C6        59.5460   68.4370   14.0180 C.ar   38  A38         0.1919
    822  N6        58.3900   68.1700   13.4070 N.pl3  38  A38        -0.1054
    823  N7        59.9150   66.2490   15.2890 N.ar   38  A38        -0.2193
    824  C8        60.9050   65.9420   16.0880 C.ar   38  A38         0.1816
    825  N9        61.8220   66.9470   16.2430 N.ar   38  A38        -0.2693
    826  OP1       60.7040   61.7690   19.4300 O.3    38  A38        -0.4373
    827  OP2       58.9910   62.8170   17.8440 O.co2  38  A38        -0.5172
    828  P         60.7430   66.9420   21.2980 P.3    39  C39         0.2141
    829  C5'       61.7200   69.3470   21.4280 C.3    39  C39         0.1812
    830  O5'       60.7120   68.4870   20.9360 O.3    39  C39        -0.3114
    831  C4'       61.5180   70.7400   20.9030 C.3    39  C39         0.1773
    832  O4'       61.6570   70.7210   19.4570 O.3    39  C39        -0.3307
    833  C3'       60.1240   71.3120   21.1130 C.3    39  C39         0.1860
    834  O3'       59.9270   71.8740   22.3990 O.3    39  C39        -0.3112
    835  C2'       60.0630   72.3790   20.0390 C.3    39  C39         0.2309
    836  O2'       60.7880   73.5270   20.4220 O.3    39  C39        -0.2156
    837  C1'       60.7820   71.6800   18.8880 C.3    39  C39         0.2420
    838  N1        59.7900   71.0090   18.0400 N.ar   39  C39        -0.2535
    839  C2        59.1120   71.7810   17.1030 C.ar   39  C39         0.3532
    840  O2        59.4240   72.9770   16.9830 O.2    39  C39        -0.2443
    841  N3        58.1400   71.2180   16.3530 N.ar   39  C39        -0.1739
    842  C4        57.8470   69.9280   16.5100 C.ar   39  C39         0.1759
    843  N4        56.8680   69.4160   15.7590 N.pl3  39  C39        -0.1070
    844  C5        58.5430   69.1050   17.4450 C.ar   39  C39         0.0566
    845  C6        59.5030   69.6810   18.1790 C.ar   39  C39         0.0850
    846  OP1       60.9190   66.8190   22.7660 O.3    39  C39        -0.4373
    847  OP2       59.5800   66.3020   20.6410 O.co2  39  C39        -0.5172
    848  P         58.4400   71.9600   23.0040 P.3    40  C40         0.2141
    849  C5'       58.1600   74.4230   22.1840 C.3    40  C40         0.1812
    850  O5'       57.7240   73.0760   22.1250 O.3    40  C40        -0.3114
    851  C4'       57.3050   75.2940   21.3010 C.3    40  C40         0.1773
    852  O4'       57.4240   74.8360   19.9270 O.3    40  C40        -0.3307
    853  C3'       55.8110   75.2290   21.5780 C.3    40  C40         0.1860
    854  O3'       55.4270   76.0800   22.6520 O.3    40  C40        -0.3112
    855  C2'       55.2210   75.6720   20.2470 C.3    40  C40         0.2309
    856  O2'       55.2420   77.0710   20.0630 O.3    40  C40        -0.2156
    857  C1'       56.1840   75.0160   19.2590 C.3    40  C40         0.2420
    858  N1        55.6800   73.7140   18.7910 N.ar   40  C40        -0.2535
    859  C2        54.7200   73.7120   17.7840 C.ar   40  C40         0.3532
    860  O2        54.3570   74.8000   17.3120 O.2    40  C40        -0.2443
    861  N3        54.2140   72.5370   17.3490 N.ar   40  C40        -0.1739
    862  C4        54.6400   71.3940   17.8810 C.ar   40  C40         0.1759
    863  N4        54.1110   70.2590   17.4200 N.pl3  40  C40        -0.1070
    864  C5        55.6270   71.3650   18.9100 C.ar   40  C40         0.0566
    865  C6        56.1180   72.5370   19.3290 C.ar   40  C40         0.0850
    866  OP1       58.5300   72.4430   24.4030 O.3    40  C40        -0.4373
    867  OP2       57.7890   70.6630   22.7220 O.co2  40  C40        -0.5172
    868  P         54.2960   75.5900   23.6870 P.3    41  C41         0.2141
    869  C5'       52.4700   77.1180   22.6010 C.3    41  C41         0.1812
    870  O5'       52.9210   75.8090   22.9110 O.3    41  C41        -0.3114
    871  C4'       51.6430   77.1010   21.3440 C.3    41  C41         0.1773
    872  O4'       52.4100   76.4400   20.3010 O.3    41  C41        -0.3307
    873  C3'       50.3600   76.2880   21.4060 C.3    41  C41         0.1860
    874  O3'       49.2690   76.9840   21.9920 O.3    41  C41        -0.3112
    875  C2'       50.1170   75.9780   19.9400 C.3    41  C41         0.2309
    876  O2'       49.6060   77.0840   19.2340 O.3    41  C41        -0.2156
    877  C1'       51.5380   75.6980   19.4630 C.3    41  C41         0.2420
    878  N1        51.8170   74.2630   19.6190 N.ar   41  C41        -0.2535
    879  C2        51.0940   73.3760   18.8290 C.ar   41  C41         0.3532
    880  O2        50.2920   73.8350   18.0170 O.2    41  C41        -0.2443
    881  N3        51.2800   72.0490   18.9720 N.ar   41  C41        -0.1739
    882  C4        52.1550   71.5920   19.8650 C.ar   41  C41         0.1759
    883  N4        52.2920   70.2640   19.9750 N.pl3  41  C41        -0.1070
    884  C5        52.9270   72.4760   20.6830 C.ar   41  C41         0.0566
    885  C6        52.7300   73.7950   20.5230 C.ar   41  C41         0.0850
    886  OP1       54.3170   76.5060   24.8480 O.3    41  C41        -0.4373
    887  OP2       54.4840   74.1320   23.9050 O.co2  41  C41        -0.5172
    888  P         48.2700   76.1960   22.9750 P.3    42  G42         0.2141
    889  C5'       46.5410   75.7020   21.0610 C.3    42  G42         0.1812
    890  O5'       47.4740   75.2050   22.0130 O.3    42  G42        -0.3114
    891  C4'       45.9220   74.5620   20.2790 C.3    42  G42         0.1773
    892  O4'       46.9600   73.8690   19.5330 O.3    42  G42        -0.3307
    893  C3'       45.2360   73.4760   21.0960 C.3    42  G42         0.1860
    894  O3'       43.8830   73.8380   21.3830 O.3    42  G42        -0.3112
    895  C2'       45.3040   72.2820   20.1500 C.3    42  G42         0.2309
    896  O2'       44.2940   72.3130   19.1640 O.3    42  G42        -0.2156
    897  C1'       46.6710   72.4840   19.4890 C.3    42  G42         0.2408
    898  N1        48.5890   67.9590   20.7400 N.ar   42  G42        -0.1709
    899  C2        47.5120   68.2570   19.9430 C.ar   42  G42         0.2606
    900  N2        46.8470   67.2140   19.4380 N.pl3  42  G42        -0.0859
    901  N3        47.1190   69.4880   19.6640 N.ar   42  G42        -0.1918
    902  C4        47.9040   70.4140   20.2540 C.ar   42  G42         0.1723
    903  C5        49.0030   70.2210   21.0610 C.ar   42  G42         0.1748
    904  C6        49.4100   68.8980   21.3580 C.ar   42  G42         0.3023
    905  O6        50.3540   68.5260   22.0670 O.2    42  G42        -0.2633
    906  N7        49.5390   71.4350   21.4630 N.ar   42  G42        -0.2173
    907  C8        48.7630   72.3260   20.9110 C.ar   42  G42         0.1817
    908  N9        47.7410   71.7740   20.1810 N.ar   42  G42        -0.2693
    909  OP1       47.2910   77.1410   23.5670 O.2    42  G42        -0.5172
    910  OP2       49.1340   75.3800   23.8710 O.co2  42  G42        -0.4373
    911  P         43.1220   73.1810   22.6370 P.3    43  G43         0.2141
    912  C5'       42.2670   71.1580   21.2050 C.3    43  G43         0.1812
    913  O5'       43.0540   71.6270   22.2940 O.3    43  G43        -0.3114
    914  C4'       42.4320   69.6650   21.0350 C.3    43  G43         0.1773
    915  O4'       43.8250   69.3610   20.7310 O.3    43  G43        -0.3307
    916  C3'       42.1470   68.8450   22.2840 C.3    43  G43         0.1860
    917  O3'       40.7600   68.5560   22.4100 O.3    43  G43        -0.3112
    918  C2'       42.9340   67.5680   22.0210 C.3    43  G43         0.2309
    919  O2'       42.2520   66.6760   21.1670 O.3    43  G43        -0.2156
    920  C1'       44.1690   68.1080   21.3010 C.3    43  G43         0.2408
    921  N1        47.5760   65.6970   24.1880 N.ar   43  G43        -0.1709
    922  C2        46.5350   65.1870   23.4560 C.ar   43  G43         0.2606
    923  N2        46.3770   63.8630   23.5070 N.pl3  43  G43        -0.0859
    924  N3        45.7050   65.9270   22.7310 N.ar   43  G43        -0.1918
    925  C4        46.0020   67.2440   22.8070 C.ar   43  G43         0.1723
    926  C5        47.0140   67.8560   23.5110 C.ar   43  G43         0.1748
    927  C6        47.9040   67.0460   24.2780 C.ar   43  G43         0.3023
    928  O6        48.8720   67.3950   24.9640 O.2    43  G43        -0.2633
    929  N7        46.9780   69.2310   23.3260 N.ar   43  G43        -0.2173
    930  C8        45.9590   69.4250   22.5310 C.ar   43  G43         0.1817
    931  N9        45.3260   68.2630   22.1760 N.ar   43  G43        -0.2693
    932  OP1       41.7280   73.6810   22.6560 O.2    43  G43        -0.5172
    933  OP2       43.9810   73.3610   23.8310 O.co2  43  G43        -0.4373
    934  P         40.1950   67.9770   23.7970 P.3    44  C44         0.2141
    935  C5'       40.3910   65.5060   22.9050 C.3    44  C44         0.1812
    936  O5'       40.7540   66.4880   23.8720 O.3    44  C44        -0.3114
    937  C4'       41.0600   64.1880   23.2360 C.3    44  C44         0.1773
    938  O4'       42.5010   64.3600   23.2120 O.3    44  C44        -0.3307
    939  C3'       40.7640   63.6640   24.6310 C.3    44  C44         0.1860
    940  O3'       39.6100   62.8440   24.6100 O.3    44  C44        -0.3112
    941  C2'       41.9700   62.7900   24.9210 C.3    44  C44         0.2309
    942  O2'       41.8220   61.5120   24.3480 O.3    44  C44        -0.2156
    943  C1'       43.0890   63.5720   24.2320 C.3    44  C44         0.2420
    944  N1        43.8460   64.4700   25.1170 N.ar   44  C44        -0.2535
    945  C2        44.6540   63.9210   26.1190 C.ar   44  C44         0.3532
    946  O2        44.6540   62.6980   26.2940 O.2    44  C44        -0.2443
    947  N3        45.4100   64.7400   26.8720 N.ar   44  C44        -0.1739
    948  C4        45.3720   66.0560   26.6650 C.ar   44  C44         0.1759
    949  N4        46.1530   66.8300   27.4200 N.pl3  44  C44        -0.1070
    950  C5        44.5330   66.6410   25.6760 C.ar   44  C44         0.0566
    951  C6        43.7880   65.8210   24.9380 C.ar   44  C44         0.0850
    952  OP1       38.7140   67.9020   23.7740 O.2    44  C44        -0.5172
    953  OP2       40.8740   68.7680   24.8570 O.co2  44  C44        -0.4373
    954  P         38.9150   62.4350   25.9900 P.3    45  A45         0.2141
    955  C5'       40.4930   60.4860   26.8060 C.3    45  A45         0.1812
    956  O5'       40.1010   61.8550   26.8860 O.3    45  A45        -0.3114
    957  C4'       41.5330   60.1880   27.8560 C.3    45  A45         0.1773
    958  O4'       42.6720   61.0530   27.6510 O.3    45  A45        -0.3307
    959  C3'       41.1060   60.4250   29.2940 C.3    45  A45         0.1860
    960  O3'       40.5830   59.2060   29.7870 O.3    45  A45        -0.3112
    961  C2'       42.4320   60.6920   29.9840 C.3    45  A45         0.2309
    962  O2'       43.0850   59.4760   30.2570 O.3    45  A45        -0.2156
    963  C1'       43.1940   61.4560   28.9020 C.3    45  A45         0.2408
    964  N1        45.1960   65.9090   30.5250 N.ar   45  A45        -0.2040
    965  C2        45.5100   64.6360   30.8070 C.ar   45  A45         0.2016
    966  N3        44.9250   63.5220   30.4020 N.ar   45  A45        -0.2048
    967  C4        43.8880   63.8030   29.5960 C.ar   45  A45         0.1692
    968  C5        43.4450   65.0580   29.2180 C.ar   45  A45         0.1518
    969  C6        44.1410   66.1540   29.7160 C.ar   45  A45         0.1919
    970  N6        43.8200   67.4210   29.4380 N.pl3  45  A45        -0.1054
    971  N7        42.3510   64.9620   28.3780 N.ar   45  A45        -0.2193
    972  C8        42.1600   63.6730   28.2610 C.ar   45  A45         0.1816
    973  N9        43.0760   62.9110   28.9430 N.ar   45  A45        -0.2693
    974  OP1       37.9200   61.3570   25.7390 O.2    45  A45        -0.5172
    975  OP2       38.4730   63.7200   26.5740 O.co2  45  A45        -0.4373
    976  P         39.6890   59.1990   31.1110 P.3    46  A46         0.2141
    977  C5'       41.4620   58.4840   32.9650 C.3    46  A46         0.1812
    978  O5'       40.7010   59.5060   32.3060 O.3    46  A46        -0.3114
    979  C4'       42.3410   59.1400   34.0040 C.3    46  A46         0.1773
    980  O4'       43.0280   60.2240   33.3490 O.3    46  A46        -0.3307
    981  C3'       41.6250   59.7650   35.1950 C.3    46  A46         0.1860
    982  O3'       41.6690   58.9590   36.3760 O.3    46  A46        -0.3112
    983  C2'       42.5640   60.8900   35.5770 C.3    46  A46         0.2309
    984  O2'       43.6070   60.3940   36.4010 O.3    46  A46        -0.2156
    985  C1'       43.0820   61.3360   34.2090 C.3    46  A46         0.2408
    986  N1        42.8230   66.2140   32.7140 N.ar   46  A46        -0.2040
    987  C2        43.6970   65.5650   33.4800 C.ar   46  A46         0.2016
    988  N3        43.6840   64.2980   33.8810 N.ar   46  A46        -0.2048
    989  C4        42.6030   63.6650   33.4000 C.ar   46  A46         0.1692
    990  C5        41.6140   64.2000   32.6050 C.ar   46  A46         0.1518
    991  C6        41.7470   65.5440   32.2510 C.ar   46  A46         0.1919
    992  N6        40.8770   66.1920   31.4820 N.pl3  46  A46        -0.1054
    993  N7        40.6530   63.2430   32.3080 N.ar   46  A46        -0.2193
    994  C8        41.0840   62.1690   32.9180 C.ar   46  A46         0.1816
    995  N9        42.2760   62.3480   33.5640 N.ar   46  A46        -0.2693
    996  OP1       39.1330   57.8300   31.2700 O.3    46  A46        -0.4373
    997  OP2       38.7790   60.3650   30.9940 O.co2  46  A46        -0.5172
    998  P         42.4130   57.5280   36.3880 P.3    47  C47         0.2141
    999  C5'       44.5580   56.5960   37.5400 C.3    47  C47         0.1812
   1000  O5'       43.8560   57.7480   37.0340 O.3    47  C47        -0.3114
   1001  C4'       46.0220   56.8810   37.8360 C.3    47  C47         0.1773
   1002  O4'       46.7260   57.2830   36.6320 O.3    47  C47        -0.3307
   1003  C3'       46.3010   58.0020   38.8190 C.3    47  C47         0.1860
   1004  O3'       46.2150   57.5170   40.1470 O.3    47  C47        -0.3112
   1005  C2'       47.7300   58.3980   38.4720 C.3    47  C47         0.2309
   1006  O2'       48.7100   57.5390   39.0150 O.3    47  C47        -0.2156
   1007  C1'       47.7290   58.2260   36.9610 C.3    47  C47         0.2420
   1008  N1        47.4600   59.4830   36.2700 N.ar   47  C47        -0.2535
   1009  C2        48.4010   60.5040   36.3710 C.ar   47  C47         0.3532
   1010  O2        49.4230   60.3040   37.0440 O.2    47  C47        -0.2443
   1011  N3        48.1790   61.6720   35.7380 N.ar   47  C47        -0.1739
   1012  C4        47.0620   61.8320   35.0310 C.ar   47  C47         0.1759
   1013  N4        46.8610   62.9940   34.4310 N.pl3  47  C47        -0.1070
   1014  C5        46.0910   60.8040   34.9110 C.ar   47  C47         0.0566
   1015  C6        46.3260   59.6580   35.5410 C.ar   47  C47         0.0850
   1016  OP1       42.6290   56.9880   35.0280 O.2    47  C47        -0.5172
   1017  OP2       41.6630   56.7140   37.3720 O.co2  47  C47        -0.4373
   1018  P         45.7660   58.5130   41.3170 P.3    48  C48         0.2141
   1019  C5'       48.2440   58.8590   42.1350 C.3    48  C48         0.1812
   1020  O5'       47.0580   59.4110   41.5690 O.3    48  C48        -0.3114
   1021  C4'       49.2420   59.9620   42.3730 C.3    48  C48         0.1773
   1022  O4'       49.6350   60.5270   41.0990 O.3    48  C48        -0.3307
   1023  C3'       48.6790   61.1450   43.1360 C.3    48  C48         0.1860
   1024  O3'       48.7410   60.9230   44.5270 O.3    48  C48        -0.3112
   1025  C2'       49.5820   62.2860   42.6980 C.3    48  C48         0.2309
   1026  O2'       50.8180   62.3320   43.3830 O.3    48  C48        -0.2156
   1027  C1'       49.8070   61.9270   41.2310 C.3    48  C48         0.2420
   1028  N1        48.8430   62.5870   40.3470 N.ar   48  C48        -0.2535
   1029  C2        49.0880   63.8930   39.9660 C.ar   48  C48         0.3532
   1030  O2        50.0900   64.4650   40.4140 O.2    48  C48        -0.2443
   1031  N3        48.2330   64.5090   39.1250 N.ar   48  C48        -0.1739
   1032  C4        47.1610   63.8650   38.6790 C.ar   48  C48         0.1759
   1033  N4        46.3620   64.5100   37.8430 N.pl3  48  C48        -0.1070
   1034  C5        46.8710   62.5310   39.0700 C.ar   48  C48         0.0566
   1035  C6        47.7320   61.9330   39.8980 C.ar   48  C48         0.0850
   1036  OP1       45.4850   57.6950   42.5290 O.3    48  C48        -0.4373
   1037  OP2       44.7030   59.3950   40.7510 O.co2  48  C48        -0.5172
   1038  P         47.6540   61.6130   45.4710 P.3    49  A49         0.2141
   1039  C5'       49.2220   63.6210   45.9640 C.3    49  A49         0.1812
   1040  O5'       48.0170   63.1560   45.3950 O.3    49  A49        -0.3114
   1041  C4'       49.3830   65.0870   45.6960 C.3    49  A49         0.1773
   1042  O4'       49.4250   65.3010   44.2630 O.3    49  A49        -0.3307
   1043  C3'       48.2290   65.9750   46.1150 C.3    49  A49         0.1860
   1044  O3'       48.2330   66.2400   47.5130 O.3    49  A49        -0.3112
   1045  C2'       48.5250   67.2230   45.2990 C.3    49  A49         0.2309
   1046  O2'       49.6010   67.9660   45.8240 O.3    49  A49        -0.2156
   1047  C1'       48.9530   66.6080   43.9690 C.3    49  A49         0.2408
   1048  N1        46.0440   69.1100   40.5400 N.ar   49  A49        -0.2040
   1049  C2        47.1060   69.4840   41.2600 C.ar   49  A49         0.2016
   1050  N3        47.8330   68.7750   42.1230 N.ar   49  A49        -0.2048
   1051  C4        47.3600   67.5220   42.2260 C.ar   49  A49         0.1692
   1052  C5        46.2800   66.9890   41.5500 C.ar   49  A49         0.1518
   1053  C6        45.5990   67.8390   40.6640 C.ar   49  A49         0.1919
   1054  N6        44.5450   67.4530   39.9440 N.pl3  49  A49        -0.1054
   1055  N7        46.0810   65.6630   41.9070 N.ar   49  A49        -0.2193
   1056  C8        47.0310   65.4260   42.7810 C.ar   49  A49         0.1816
   1057  N9        47.8350   66.5110   43.0310 N.ar   49  A49        -0.2693
   1058  OP1       47.8930   61.1290   46.8590 O.3    49  A49        -0.4373
   1059  OP2       46.3380   61.3890   44.8210 O.co2  49  A49        -0.5172
   1060  P         46.8460   66.2090   48.3390 P.3    50  G50         0.2141
   1061  C5'       45.9350   68.1050   46.7770 C.3    50  G50         0.1812
   1062  O5'       46.2190   67.6540   48.0910 O.3    50  G50        -0.3114
   1063  C4'       45.6520   69.5840   46.7840 C.3    50  G50         0.1773
   1064  O4'       45.6720   70.0420   45.3990 O.3    50  G50        -0.3307
   1065  C3'       44.2760   69.9710   47.3020 C.3    50  G50         0.1860
   1066  O3'       43.9420   70.3250   48.6320 O.3    50  G50        -0.3112
   1067  C2'       43.3670   70.2060   46.1170 C.3    50  G50         0.2309
   1068  O2'       42.6870   71.4280   46.2740 O.3    50  G50        -0.2156
   1069  C1'       44.3510   70.3230   44.9480 C.3    50  G50         0.2408
   1070  N1        41.5210   69.2200   40.9210 N.ar   50  G50        -0.1709
   1071  C2        41.9220   70.4450   41.3870 C.ar   50  G50         0.2606
   1072  N2        41.4250   71.5120   40.7560 N.pl3  50  G50        -0.0859
   1073  N3        42.7480   70.6100   42.3980 N.ar   50  G50        -0.1918
   1074  C4        43.1430   69.4350   42.9170 C.ar   50  G50         0.1723
   1075  C5        42.8100   68.1600   42.5160 C.ar   50  G50         0.1748
   1076  C6        41.9250   67.9950   41.4420 C.ar   50  G50         0.3023
   1077  O6        41.4910   66.9410   40.9590 O.2    50  G50        -0.2633
   1078  N7        43.4410   67.2130   43.3060 N.ar   50  G50        -0.2173
   1079  C8        44.1140   67.9170   44.1730 C.ar   50  G50         0.1817
   1080  N9        43.9250   69.2720   44.0290 N.ar   50  G50        -0.2693
   1081  OP1       47.1640   66.0870   49.7850 O.3    50  G50        -0.4373
   1082  OP2       45.9640   65.1980   47.7030 O.co2  50  G50        -0.5172
   1083  P         42.8800   69.4150   49.4530 P.3    51  A51         0.2141
   1084  C5'       40.7430   68.1180   48.6260 C.3    51  A51         0.1812
   1085  O5'       41.6090   69.2530   48.5000 O.3    51  A51        -0.3114
   1086  C4'       39.3130   68.5260   48.3580 C.3    51  A51         0.1773
   1087  O4'       38.9310   69.5020   49.3580 O.3    51  A51        -0.3307
   1088  C3'       39.0900   69.2160   47.0180 C.3    51  A51         0.1860
   1089  O3'       38.7420   68.2800   46.0020 O.3    51  A51        -0.3112
   1090  C2'       37.9390   70.1590   47.3160 C.3    51  A51         0.2309
   1091  O2'       36.6980   69.4870   47.3040 O.3    51  A51        -0.2156
   1092  C1'       38.2930   70.6020   48.7370 C.3    51  A51         0.2408
   1093  N1        39.1990   75.5300   47.5390 N.ar   51  A51        -0.2040
   1094  C2        38.1180   74.7570   47.3820 C.ar   51  A51         0.2016
   1095  N3        37.9390   73.4790   47.7180 N.ar   51  A51        -0.2048
   1096  C4        39.0490   72.9810   48.2870 C.ar   51  A51         0.1692
   1097  C5        40.2360   73.6520   48.5170 C.ar   51  A51         0.1518
   1098  C6        40.2960   74.9950   48.1170 C.ar   51  A51         0.1919
   1099  N6        41.3750   75.7640   48.2790 N.pl3  51  A51        -0.1054
   1100  N7        41.1640   72.8170   49.1240 N.ar   51  A51        -0.2193
   1101  C8        40.5280   71.6800   49.2470 C.ar   51  A51         0.1816
   1102  N9        39.2450   71.7070   48.7580 N.ar   51  A51        -0.2693
   1103  OP1       42.4460   70.1950   50.6600 O.3    51  A51        -0.4373
   1104  OP2       43.4670   68.0460   49.6250 O.co2  51  A51        -0.5172
   1105  P         39.5150   68.3170   44.5960 P.3    52  A52         0.2141
   1106  C5'       38.7370   69.4950   42.3780 C.3    52  A52         0.1812
   1107  O5'       38.3950   68.7490   43.5460 O.3    52  A52        -0.3114
   1108  C4'       37.9850   70.8040   42.3670 C.3    52  A52         0.1773
   1109  O4'       38.0020   71.3590   43.7050 O.3    52  A52        -0.3307
   1110  C3'       38.5350   71.9050   41.4650 C.3    52  A52         0.1860
   1111  O3'       37.9910   71.8080   40.1470 O.3    52  A52        -0.3112
   1112  C2'       38.0200   73.1630   42.1550 C.3    52  A52         0.2309
   1113  O2'       36.6800   73.4550   41.8310 O.3    52  A52        -0.2156
   1114  C1'       38.1110   72.7670   43.6310 C.3    52  A52         0.2408
   1115  N1        41.4810   76.5270   44.6570 N.ar   52  A52        -0.2040
   1116  C2        40.3380   76.5210   43.9620 C.ar   52  A52         0.2016
   1117  N3        39.5050   75.5110   43.7190 N.ar   52  A52        -0.2048
   1118  C4        39.9550   74.3810   44.2910 C.ar   52  A52         0.1692
   1119  C5        41.1100   74.2320   45.0310 C.ar   52  A52         0.1518
   1120  C6        41.9000   75.3700   45.2160 C.ar   52  A52         0.1919
   1121  N6        43.0370   75.3650   45.9100 N.pl3  52  A52        -0.1054
   1122  N7        41.2510   72.9230   45.4600 N.ar   52  A52        -0.2193
   1123  C8        40.1970   72.3180   44.9810 C.ar   52  A52         0.1816
   1124  N9        39.3670   73.1400   44.2690 N.ar   52  A52        -0.2693
   1125  OP1       39.9600   66.9290   44.2940 O.2    52  A52        -0.5172
   1126  OP2       40.5200   69.4100   44.6870 O.co2  52  A52        -0.4373
   1127  P         38.6660   72.6240   38.9300 P.3    53  A53         0.2141
   1128  C5'       38.0580   75.1370   38.4990 C.3    53  A53         0.1812
   1129  O5'       38.6060   74.1500   39.3690 O.3    53  A53        -0.3114
   1130  C4'       38.9290   76.3650   38.5090 C.3    53  A53         0.1773
   1131  O4'       39.2090   76.6990   39.8910 O.3    53  A53        -0.3307
   1132  C3'       40.2980   76.2430   37.8540 C.3    53  A53         0.1860
   1133  O3'       40.2390   76.5170   36.4560 O.3    53  A53        -0.3112
   1134  C2'       41.0860   77.3170   38.5900 C.3    53  A53         0.2309
   1135  O2'       40.8060   78.6180   38.1120 O.3    53  A53        -0.2156
   1136  C1'       40.5420   77.1520   40.0110 C.3    53  A53         0.2408
   1137  N1        44.4520   76.0140   43.1670 N.ar   53  A53        -0.2040
   1138  C2        43.9880   77.1840   42.7030 C.ar   53  A53         0.2016
   1139  N3        42.9580   77.4190   41.8920 N.ar   53  A53        -0.2048
   1140  C4        42.3610   76.2660   41.5420 C.ar   53  A53         0.1692
   1141  C5        42.7200   74.9900   41.9380 C.ar   53  A53         0.1518
   1142  C6        43.8260   74.8750   42.7950 C.ar   53  A53         0.1919
   1143  N6        44.2850   73.7100   43.2570 N.pl3  53  A53        -0.1054
   1144  N7        41.8700   74.0450   41.3820 N.ar   53  A53        -0.2193
   1145  C8        41.0330   74.7580   40.6730 C.ar   53  A53         0.1816
   1146  N9        41.2770   76.1080   40.7180 N.ar   53  A53        -0.2693
   1147  OP1       37.8100   72.4910   37.7210 O.2    53  A53        -0.5172
   1148  OP2       40.0930   72.2230   38.8660 O.co2  53  A53        -0.4373
   1149  P         40.7200   75.3990   35.4030 P.3    54  U54         0.2141
   1150  C5'       43.2280   76.1480   35.5600 C.3    54  U54         0.1812
   1151  O5'       42.2500   75.1380   35.7720 O.3    54  U54        -0.3114
   1152  C4'       44.3770   75.9830   36.5220 C.3    54  U54         0.1773
   1153  O4'       43.8650   75.3760   37.7390 O.3    54  U54        -0.3307
   1154  C3'       45.4810   75.0310   36.0920 C.3    54  U54         0.1860
   1155  O3'       46.4530   75.6760   35.2810 O.3    54  U54        -0.3112
   1156  C2'       46.0930   74.6310   37.4240 C.3    54  U54         0.2309
   1157  O2'       46.9340   75.6330   37.9450 O.3    54  U54        -0.2156
   1158  C1'       44.8500   74.5230   38.3000 C.3    54  U54         0.2420
   1159  N1        44.3480   73.1460   38.3090 N.ar   54  U54        -0.2534
   1160  C2        44.9960   72.2510   39.1310 C.ar   54  U54         0.3546
   1161  O2        45.9210   72.5750   39.8510 O.2    54  U54        -0.2443
   1162  N3        44.5240   70.9660   39.0770 N.ar   54  U54        -0.1530
   1163  C4        43.4890   70.5020   38.3020 C.ar   54  U54         0.2846
   1164  O4        43.1810   69.3160   38.3570 O.2    54  U54        -0.2650
   1165  C5        42.8590   71.4950   37.4880 C.ar   54  U54         0.0814
   1166  C6        43.2980   72.7540   37.5210 C.ar   54  U54         0.0870
   1167  OP1       40.6550   75.9850   34.0400 O.2    54  U54        -0.5172
   1168  OP2       39.9520   74.1650   35.7080 O.co2  54  U54        -0.4373
   1169  P         47.5250   74.7910   34.4710 P.3    55  G55         0.2141
   1170  C5'       49.3900   74.9640   36.2970 C.3    55  G55         0.1812
   1171  O5'       48.4590   74.1540   35.5950 O.3    55  G55        -0.3114
   1172  C4'       50.1770   74.1340   37.2780 C.3    55  G55         0.1773
   1173  O4'       49.2640   73.5100   38.2170 O.3    55  G55        -0.3307
   1174  C3'       50.8990   72.9570   36.6640 C.3    55  G55         0.1860
   1175  O3'       52.1320   73.3330   36.1070 O.3    55  G55        -0.3112
   1176  C2'       51.0680   72.0200   37.8460 C.3    55  G55         0.2309
   1177  O2'       52.1300   72.3510   38.7130 O.3    55  G55        -0.2156
   1178  C1'       49.7430   72.2240   38.5670 C.3    55  G55         0.2408
   1179  N1        48.4190   67.3660   38.7630 N.ar   55  G55        -0.1709
   1180  C2        49.4040   68.0360   39.4420 C.ar   55  G55         0.2606
   1181  N2        50.1480   67.3110   40.2830 N.pl3  55  G55        -0.0859
   1182  N3        49.6420   69.3240   39.3100 N.ar   55  G55        -0.1918
   1183  C4        48.7970   69.9050   38.4400 C.ar   55  G55         0.1723
   1184  C5        47.7810   69.3340   37.7140 C.ar   55  G55         0.1748
   1185  C6        47.5410   67.9440   37.8550 C.ar   55  G55         0.3023
   1186  O6        46.6950   67.2470   37.2880 O.2    55  G55        -0.2633
   1187  N7        47.1430   70.2860   36.9290 N.ar   55  G55        -0.2173
   1188  C8        47.7790   71.3960   37.1880 C.ar   55  G55         0.1817
   1189  N9        48.8000   71.2270   38.0880 N.ar   55  G55        -0.2693
   1190  OP1       48.3670   75.7020   33.6470 O.2    55  G55        -0.5172
   1191  OP2       46.7540   73.6960   33.8160 O.co2  55  G55        -0.4373
   1192  P         52.7890   72.3920   35.0040 P.3    56  G56         0.2141
   1193  C5'       54.0670   71.0390   36.8290 C.3    56  G56         0.1812
   1194  O5'       53.0900   71.0500   35.8010 O.3    56  G56        -0.3114
   1195  C4'       54.3710   69.6280   37.2630 C.3    56  G56         0.1773
   1196  O4'       53.1880   69.0460   37.8810 O.3    56  G56        -0.3307
   1197  C3'       54.6860   68.6650   36.1360 C.3    56  G56         0.1860
   1198  O3'       56.0380   68.7310   35.7130 O.3    56  G56        -0.3112
   1199  C2'       54.3750   67.3200   36.7690 C.3    56  G56         0.2309
   1200  O2'       55.4280   66.8730   37.6010 O.3    56  G56        -0.2156
   1201  C1'       53.1410   67.6570   37.6090 C.3    56  G56         0.2408
   1202  N1        49.8540   64.0380   36.2840 N.ar   56  G56        -0.1709
   1203  C2        50.9580   63.9510   37.0930 C.ar   56  G56         0.2606
   1204  N2        51.2340   62.7320   37.5910 N.pl3  56  G56        -0.0859
   1205  N3        51.7340   64.9830   37.3920 N.ar   56  G56        -0.1918
   1206  C4        51.3040   66.1180   36.8090 C.ar   56  G56         0.1723
   1207  C5        50.2140   66.3020   35.9900 C.ar   56  G56         0.1748
   1208  C6        49.4060   65.2040   35.6750 C.ar   56  G56         0.3023
   1209  O6        48.4160   65.1800   34.9580 O.2    56  G56        -0.2633
   1210  N7        50.1060   67.6290   35.5990 N.ar   56  G56        -0.2173
   1211  C8        51.1220   68.2170   36.1740 C.ar   56  G56         0.1817
   1212  N9        51.9010   67.3520   36.9050 N.ar   56  G56        -0.2693
   1213  OP1       54.0800   72.9670   34.5500 O.3    56  G56        -0.4373
   1214  OP2       51.7070   72.1250   34.0210 O.co2  56  G56        -0.5172
   1215  P         56.3930   68.3800   34.1880 P.3    57  U57         0.2141
   1216  C5'       55.3240   66.4860   32.7360 C.3    57  U57         0.1812
   1217  O5'       55.1750   67.4580   33.7510 O.3    57  U57        -0.3114
   1218  C4'       55.3400   65.1290   33.3600 C.3    57  U57         0.1773
   1219  O4'       54.2320   65.0380   34.2890 O.3    57  U57        -0.3307
   1220  C3'       55.1560   63.9590   32.4200 C.3    57  U57         0.1860
   1221  O3'       56.3820   63.5990   31.8030 O.3    57  U57        -0.3112
   1222  C2'       54.6200   62.8950   33.3700 C.3    57  U57         0.2309
   1223  O2'       55.6220   62.3060   34.1730 O.3    57  U57        -0.2156
   1224  C1'       53.6990   63.7320   34.2610 C.3    57  U57         0.2420
   1225  N1        52.3610   63.8110   33.6720 N.ar   57  U57        -0.2534
   1226  C2        51.6240   62.6550   33.6440 C.ar   57  U57         0.3546
   1227  O2        52.0440   61.6050   34.1000 O.2    57  U57        -0.2443
   1228  N3        50.3870   62.7670   33.0570 N.ar   57  U57        -0.1530
   1229  C4        49.8310   63.9060   32.5030 C.ar   57  U57         0.2846
   1230  O4        48.7070   63.8500   32.0100 O.2    57  U57        -0.2650
   1231  C5        50.6600   65.0730   32.5750 C.ar   57  U57         0.0814
   1232  C6        51.8680   64.9880   33.1480 C.ar   57  U57         0.0870
   1233  OP1       57.6330   67.5630   34.1260 O.3    57  U57        -0.4373
   1234  OP2       56.2890   69.6340   33.3850 O.co2  57  U57        -0.5172
   1235  P         56.4490   63.4480   30.2050 P.3    58  G58         0.2141
   1236  C5'       55.3120   61.1070   30.3870 C.3    58  G58         0.1812
   1237  O5'       55.2680   62.4260   29.8750 O.3    58  G58        -0.3114
   1238  C4'       54.0290   60.3690   30.0930 C.3    58  G58         0.1773
   1239  O4'       52.9210   61.0070   30.7910 O.3    58  G58        -0.3307
   1240  C3'       53.5890   60.3680   28.6360 C.3    58  G58         0.1860
   1241  O3'       54.2460   59.3380   27.9230 O.3    58  G58        -0.3112
   1242  C2'       52.0970   60.0920   28.7570 C.3    58  G58         0.2309
   1243  O2'       51.8460   58.7310   29.0120 O.3    58  G58        -0.2156
   1244  C1'       51.7370   60.8870   30.0120 C.3    58  G58         0.2408
   1245  N1        47.9390   63.5830   28.0220 N.ar   58  G58        -0.1709
   1246  C2        48.0030   62.2390   28.2700 C.ar   58  G58         0.2606
   1247  N2        46.9140   61.5220   27.9240 N.pl3  58  G58        -0.0859
   1248  N3        49.0530   61.6410   28.8140 N.ar   58  G58        -0.1918
   1249  C4        50.0450   62.5210   29.0950 C.ar   58  G58         0.1723
   1250  C5        50.0740   63.8770   28.8790 C.ar   58  G58         0.1748
   1251  C6        48.9510   64.4960   28.2920 C.ar   58  G58         0.3023
   1252  O6        48.7940   65.6850   28.0080 O.2    58  G58        -0.2633
   1253  N7        51.2780   64.4190   29.3080 N.ar   58  G58        -0.2173
   1254  C8        51.9500   63.4000   29.7670 C.ar   58  G58         0.1817
   1255  N9        51.2670   62.2170   29.6560 N.ar   58  G58        -0.2693
   1256  OP1       57.7540   62.8070   29.8770 O.3    58  G58        -0.4373
   1257  OP2       56.1110   64.7540   29.5970 O.co2  58  G58        -0.5172
   1258  P         54.7590   59.6070   26.4310 P.3    59  C59         0.2141
   1259  C5'       52.7930   58.1830   25.5220 C.3    59  C59         0.1812
   1260  O5'       53.4450   59.4350   25.5600 O.3    59  C59        -0.3114
   1261  C4'       51.3860   58.3590   25.0640 C.3    59  C59         0.1773
   1262  O4'       50.6950   59.2170   26.0070 O.3    59  C59        -0.3307
   1263  C3'       51.2480   59.0930   23.7460 C.3    59  C59         0.1860
   1264  O3'       51.4300   58.1980   22.6700 O.3    59  C59        -0.3112
   1265  C2'       49.8260   59.6250   23.8410 C.3    59  C59         0.2309
   1266  O2'       48.8600   58.6100   23.6490 O.3    59  C59        -0.2156
   1267  C1'       49.7660   60.0330   25.3100 C.3    59  C59         0.2420
   1268  N1        50.1640   61.4340   25.4440 N.ar   59  C59        -0.2535
   1269  C2        49.2180   62.4070   25.1560 C.ar   59  C59         0.3532
   1270  O2        48.0770   62.0550   24.8580 O.2    59  C59        -0.2443
   1271  N3        49.5630   63.7020   25.2090 N.ar   59  C59        -0.1739
   1272  C4        50.8000   64.0450   25.5570 C.ar   59  C59         0.1759
   1273  N4        51.0830   65.3480   25.6060 N.pl3  59  C59        -0.1070
   1274  C5        51.7930   63.0710   25.8740 C.ar   59  C59         0.0566
   1275  C6        51.4330   61.7870   25.8090 C.ar   59  C59         0.0850
   1276  OP1       55.6730   58.4910   26.0890 O.2    59  C59        -0.5172
   1277  OP2       55.2280   61.0010   26.2960 O.co2  59  C59        -0.4373
   1278  P         52.1170   58.7080   21.3150 P.3    60  C60         0.2141
   1279  C5'       49.6990   58.7120   20.3110 C.3    60  C60         0.1812
   1280  O5'       50.9300   59.3820   20.5040 O.3    60  C60        -0.3114
   1281  C4'       48.6920   59.6680   19.7290 C.3    60  C60         0.1773
   1282  O4'       48.3670   60.6870   20.7110 O.3    60  C60        -0.3307
   1283  C3'       49.2150   60.4510   18.5360 C.3    60  C60         0.1860
   1284  O3'       48.9770   59.7100   17.3530 O.3    60  C60        -0.3112
   1285  C2'       48.3360   61.6890   18.5490 C.3    60  C60         0.2309
   1286  O2'       47.0850   61.4510   17.9470 O.3    60  C60        -0.2156
   1287  C1'       48.1510   61.9200   20.0500 C.3    60  C60         0.2420
   1288  N1        49.0750   62.9190   20.5940 N.ar   60  C60        -0.2535
   1289  C2        48.7410   64.2520   20.4580 C.ar   60  C60         0.3532
   1290  O2        47.6990   64.5370   19.8590 O.2    60  C60        -0.2443
   1291  N3        49.5520   65.1960   20.9750 N.ar   60  C60        -0.1739
   1292  C4        50.6690   64.8370   21.6020 C.ar   60  C60         0.1759
   1293  N4        51.4370   65.8000   22.1060 N.pl3  60  C60        -0.1070
   1294  C5        51.0450   63.4760   21.7430 C.ar   60  C60         0.0566
   1295  C6        50.2280   62.5560   21.2290 C.ar   60  C60         0.0850
   1296  OP1       52.5660   57.4770   20.6230 O.2    60  C60        -0.5172
   1297  OP2       53.0910   59.8050   21.5720 O.co2  60  C60        -0.4373
   1298  P         50.0690   59.6980   16.1810 P.3    61  A61         0.2141
   1299  C5'       49.0930   57.3750   15.5190 C.3    61  A61         0.1812
   1300  O5'       49.4270   58.6980   15.1240 O.3    61  A61        -0.3114
   1301  C4'       48.3250   56.6630   14.4320 C.3    61  A61         0.1773
   1302  O4'       49.0940   56.6750   13.2040 O.3    61  A61        -0.3307
   1303  C3'       48.1130   55.1870   14.7150 C.3    61  A61         0.1860
   1304  O3'       46.9520   54.9850   15.5100 O.3    61  A61        -0.3112
   1305  C2'       47.9240   54.6100   13.3250 C.3    61  A61         0.2309
   1306  O2'       46.6060   54.7820   12.8600 O.3    61  A61        -0.2156
   1307  C1'       48.8930   55.4620   12.5060 C.3    61  A61         0.2408
   1308  N1        51.5630   52.0150    9.8190 N.ar   61  A61        -0.2040
   1309  C2        50.2750   52.3470    9.8110 C.ar   61  A61         0.2016
   1310  N3        49.6340   53.2430   10.5520 N.ar   61  A61        -0.2048
   1311  C4        50.4840   53.8470   11.3970 C.ar   61  A61         0.1692
   1312  C5        51.8360   53.6080   11.5240 C.ar   61  A61         0.1518
   1313  C6        52.3890   52.6420   10.6830 C.ar   61  A61         0.1919
   1314  N6        53.6850   52.3110   10.6920 N.pl3  61  A61        -0.1054
   1315  N7        52.3900   54.4190   12.5030 N.ar   61  A61        -0.2193
   1316  C8        51.3750   55.1270   12.9340 C.ar   61  A61         0.1816
   1317  N9        50.1940   54.8400   12.2990 N.ar   61  A61        -0.2693
   1318  OP1       51.2870   59.0650   16.7390 O.3    61  A61        -0.4373
   1319  OP2       50.1590   61.0530   15.5870 O.co2  61  A61        -0.5172
   1320  P         46.8730   53.7100   16.4730 P.3    62  A62         0.2141
   1321  C5'       45.7020   52.2920   14.6260 C.3    62  A62         0.1812
   1322  O5'       46.8160   52.4890   15.4700 O.3    62  A62        -0.3114
   1323  C4'       45.9760   51.1260   13.7350 C.3    62  A62         0.1773
   1324  O4'       47.0970   51.4680   12.8780 O.3    62  A62        -0.3307
   1325  C3'       46.4380   49.8850   14.4790 C.3    62  A62         0.1860
   1326  O3'       45.3160   49.1260   14.9080 O.3    62  A62        -0.3112
   1327  C2'       47.2140   49.1580   13.3960 C.3    62  A62         0.2309
   1328  O2'       46.2970   48.5190   12.5370 O.3    62  A62        -0.2156
   1329  C1'       47.8930   50.3230   12.6640 C.3    62  A62         0.2408
   1330  N1        52.9280   49.5500   11.9800 N.ar   62  A62        -0.2040
   1331  C2        51.8580   49.1110   11.3180 C.ar   62  A62         0.2016
   1332  N3        50.5760   49.3580   11.5320 N.ar   62  A62        -0.2048
   1333  C4        50.4260   50.1690   12.5890 C.ar   62  A62         0.1692
   1334  C5        51.4340   50.7060   13.3690 C.ar   62  A62         0.1518
   1335  C6        52.7430   50.3730   13.0290 C.ar   62  A62         0.1919
   1336  N6        53.8120   50.8300   13.6830 N.pl3  62  A62        -0.1054
   1337  N7        50.9080   51.4970   14.3770 N.ar   62  A62        -0.2193
   1338  C8        49.6100   51.4190   14.1920 C.ar   62  A62         0.1816
   1339  N9        49.2470   50.6280   13.1300 N.ar   62  A62        -0.2693
   1340  OP1       45.6030   53.7230   17.2270 O.3    62  A62        -0.4373
   1341  OP2       48.1680   53.6150   17.2020 O.co2  62  A62        -0.5172
   1342  P         45.5330   47.7350   15.7020 P.3    63  U63         0.2141
   1343  C5'       44.6690   48.9150   17.8490 C.3    63  U63         0.1812
   1344  O5'       45.6910   48.1650   17.2230 O.3    63  U63        -0.3114
   1345  C4'       44.6300   48.6230   19.3220 C.3    63  U63         0.1773
   1346  O4'       44.1850   47.2600   19.5170 O.3    63  U63        -0.3307
   1347  C3'       46.0120   48.6820   19.9400 C.3    63  U63         0.1860
   1348  O3'       46.4200   49.8390   20.6790 O.3    63  U63        -0.3112
   1349  C2'       46.5330   47.2530   20.0330 C.3    63  U63         0.2309
   1350  O2'       47.2100   46.9420   21.2230 O.3    63  U63        -0.2156
   1351  C1'       45.2340   46.4510   20.0070 C.3    63  U63         0.2420
   1352  N1        45.2870   45.2260   19.2070 N.ar   63  U63        -0.2534
   1353  C2        45.1380   44.0280   19.8690 C.ar   63  U63         0.3546
   1354  O2        44.9300   43.9590   21.0590 O.2    63  U63        -0.2443
   1355  N3        45.2310   42.9140   19.0790 N.ar   63  U63        -0.1530
   1356  C4        45.4420   42.8830   17.7120 C.ar   63  U63         0.2846
   1357  O4        45.4920   41.7950   17.1250 O.2    63  U63        -0.2650
   1358  C5        45.5700   44.1730   17.1020 C.ar   63  U63         0.0814
   1359  C6        45.4890   45.2720   17.8550 C.ar   63  U63         0.0870
   1360  OP1       46.8080   47.0650   15.2950 O.2    63  U63        -0.5172
   1361  OP2       44.2390   46.9940   15.5930 O.co2  63  U63        -0.4373
   1362  P         46.4590   49.8040   22.2690 P.3    64  U64         0.2141
   1363  C5'       49.0950   50.0770   22.2970 C.3    64  U64         0.1812
   1364  O5'       47.9440   49.2910   22.6210 O.3    64  U64        -0.3114
   1365  C4'       50.3710   49.2340   22.2320 C.3    64  U64         0.1773
   1366  O4'       50.7900   48.7920   23.5530 O.3    64  U64        -0.3307
   1367  C3'       50.1750   47.9260   21.4780 C.3    64  U64         0.1860
   1368  O3'       50.5800   48.0440   20.1150 O.3    64  U64        -0.3112
   1369  C2'       51.2620   47.0140   22.0150 C.3    64  U64         0.2309
   1370  O2'       52.4030   47.1130   21.2000 O.3    64  U64        -0.2156
   1371  C1'       51.4870   47.5680   23.4180 C.3    64  U64         0.2420
   1372  N1        51.3090   46.7020   24.5870 N.ar   64  U64        -0.2534
   1373  C2        52.3890   45.9000   24.9180 C.ar   64  U64         0.3546
   1374  O2        53.4250   45.8860   24.2690 O.2    64  U64        -0.2443
   1375  N3        52.2140   45.1200   26.0340 N.ar   64  U64        -0.1530
   1376  C4        51.0960   45.0640   26.8390 C.ar   64  U64         0.2846
   1377  O4        51.1400   44.4030   27.8730 O.2    64  U64        -0.2650
   1378  C5        50.0120   45.9040   26.4230 C.ar   64  U64         0.0814
   1379  C6        50.1520   46.6790   25.3330 C.ar   64  U64         0.0870
   1380  OP1       45.4740   48.8140   22.7400 O.3    64  U64        -0.4373
   1381  OP2       46.2770   51.2130   22.6440 O.co2  64  U64        -0.5172
   1382  P         51.3260   49.3770   19.5620 P.3    65  C65         0.2141
   1383  C5'       49.5940   49.0330   17.6660 C.3    65  C65         0.1812
   1384  O5'       50.9560   49.2560   18.0230 O.3    65  C65        -0.3114
   1385  C4'       49.4730   47.9420   16.6300 C.3    65  C65         0.1773
   1386  O4'       50.2280   48.3360   15.4570 O.3    65  C65        -0.3307
   1387  C3'       50.0340   46.5840   17.0080 C.3    65  C65         0.1860
   1388  O3'       49.0650   45.8110   17.7030 O.3    65  C65        -0.3112
   1389  C2'       50.3120   45.9740   15.6450 C.3    65  C65         0.2309
   1390  O2'       49.1280   45.4950   15.0510 O.3    65  C65        -0.2156
   1391  C1'       50.7930   47.1920   14.8560 C.3    65  C65         0.2420
   1392  N1        52.2500   47.3410   14.8290 N.ar   65  C65        -0.2535
   1393  C2        52.9510   46.5900   13.9160 C.ar   65  C65         0.3532
   1394  O2        52.3170   45.8250   13.1790 O.2    65  C65        -0.2443
   1395  N3        54.2960   46.7040   13.8490 N.ar   65  C65        -0.1739
   1396  C4        54.9330   47.5380   14.6610 C.ar   65  C65         0.1759
   1397  N4        56.2500   47.6440   14.5260 N.pl3  65  C65        -0.1070
   1398  C5        54.2410   48.3110   15.6320 C.ar   65  C65         0.0566
   1399  C6        52.9050   48.1880   15.6760 C.ar   65  C65         0.0850
   1400  OP1       52.7930   49.2480   19.7020 O.2    65  C65        -0.5172
   1401  OP2       50.6630   50.6160   20.0210 O.co2  65  C65        -0.4373
   1402  P         49.5440   44.6110   18.6630 P.3    66  C66         0.2141
   1403  C5'       48.9030   42.7800   16.9090 C.3    66  C66         0.1812
   1404  O5'       49.9080   43.4330   17.6660 O.3    66  C66        -0.3114
   1405  C4'       49.5380   41.7740   15.9890 C.3    66  C66         0.1773
   1406  O4'       50.4400   42.4610   15.0910 O.3    66  C66        -0.3307
   1407  C3'       50.4400   40.7880   16.6950 C.3    66  C66         0.1860
   1408  O3'       49.6880   39.7040   17.1730 O.3    66  C66        -0.3112
   1409  C2'       51.3800   40.3430   15.5970 C.3    66  C66         0.2309
   1410  O2'       50.8020   39.3650   14.7700 O.3    66  C66        -0.2156
   1411  C1'       51.5580   41.6400   14.8220 C.3    66  C66         0.2420
   1412  N1        52.7650   42.3580   15.2160 N.ar   66  C66        -0.2535
   1413  C2        53.9620   41.8920   14.7400 C.ar   66  C66         0.3532
   1414  O2        53.9500   40.8680   14.0550 O.2    66  C66        -0.2443
   1415  N3        55.1050   42.5490   15.0340 N.ar   66  C66        -0.1739
   1416  C4        55.0670   43.6410   15.7950 C.ar   66  C66         0.1759
   1417  N4        56.2240   44.2760   16.0320 N.pl3  66  C66        -0.1070
   1418  C5        53.8430   44.1350   16.3350 C.ar   66  C66         0.0566
   1419  C6        52.7200   43.4640   16.0210 C.ar   66  C66         0.0850
   1420  OP1       48.4230   44.1780   19.5370 O.3    66  C66        -0.4373
   1421  OP2       50.8190   45.0580   19.2720 O.co2  66  C66        -0.5172
   1422  P         50.1600   38.9710   18.5050 P.3    67  U67         0.2141
   1423  C5'       51.5900   37.2280   17.1560 C.3    67  U67         0.1812
   1424  O5'       51.5400   38.2860   18.0960 O.3    67  U67        -0.3114
   1425  C4'       53.0240   36.8590   16.8940 C.3    67  U67         0.1773
   1426  O4'       53.7250   38.0070   16.3500 O.3    67  U67        -0.3307
   1427  C3'       53.8140   36.4750   18.1300 C.3    67  U67         0.1860
   1428  O3'       53.6450   35.0770   18.3300 O.3    67  U67        -0.3112
   1429  C2'       55.2430   36.7860   17.7160 C.3    67  U67         0.2309
   1430  O2'       55.7900   35.7300   16.9690 O.3    67  U67        -0.2156
   1431  C1'       55.0520   38.0270   16.8360 C.3    67  U67         0.2420
   1432  N1        55.2300   39.3100   17.5180 N.ar   67  U67        -0.2534
   1433  C2        56.4400   39.9560   17.3790 C.ar   67  U67         0.3546
   1434  O2        57.3950   39.4610   16.8030 O.2    67  U67        -0.2443
   1435  N3        56.4930   41.2050   17.9450 N.ar   67  U67        -0.1530
   1436  C4        55.4900   41.8390   18.6340 C.ar   67  U67         0.2846
   1437  O4        55.6240   43.0170   18.9190 O.2    67  U67        -0.2650
   1438  C5        54.2990   41.0770   18.7940 C.ar   67  U67         0.0814
   1439  C6        54.2100   39.8690   18.2430 C.ar   67  U67         0.0870
   1440  OP1       49.1410   37.9340   18.8320 O.2    67  U67        -0.5172
   1441  OP2       50.5010   40.0290   19.5000 O.co2  67  U67        -0.4373
   1442  P         54.2300   34.3710   19.6460 P.3    68  G68         0.2141
   1443  C5'       56.6590   33.4910   19.1420 C.3    68  G68         0.1812
   1444  O5'       55.8060   34.5680   19.5130 O.3    68  G68        -0.3114
   1445  C4'       58.0910   33.8300   19.4910 C.3    68  G68         0.1773
   1446  O4'       58.3800   35.1320   18.9180 O.3    68  G68        -0.3307
   1447  C3'       58.3850   34.0040   20.9800 C.3    68  G68         0.1860
   1448  O3'       58.7870   32.8120   21.6790 O.3    68  G68        -0.3112
   1449  C2'       59.5840   34.9430   20.9560 C.3    68  G68         0.2309
   1450  O2'       60.8020   34.2830   20.6710 O.3    68  G68        -0.2156
   1451  C1'       59.2360   35.8530   19.7820 C.3    68  G68         0.2408
   1452  N1        59.8750   40.7910   20.5840 N.ar   68  G68        -0.1709
   1453  C2        60.7980   39.8280   20.2580 C.ar   68  G68         0.2606
   1454  N2        62.0750   40.2360   20.1080 N.pl3  68  G68        -0.0859
   1455  N3        60.4960   38.5550   20.0890 N.ar   68  G68        -0.1918
   1456  C4        59.1850   38.3120   20.2880 C.ar   68  G68         0.1723
   1457  C5        58.1860   39.1940   20.6270 C.ar   68  G68         0.1748
   1458  C6        58.5160   40.5670   20.7830 C.ar   68  G68         0.3023
   1459  O6        57.7670   41.5200   21.0440 O.2    68  G68        -0.2633
   1460  N7        56.9700   38.5350   20.7550 N.ar   68  G68        -0.2173
   1461  C8        57.2500   37.2890   20.4780 C.ar   68  G68         0.1817
   1462  N9        58.5750   37.0930   20.1730 N.ar   68  G68        -0.2693
   1463  OP1       53.8970   32.9330   19.5190 O.2    68  G68        -0.5172
   1464  OP2       53.7510   35.1260   20.8340 O.co2  68  G68        -0.4373
   1465  P         59.2290   31.4750   20.8760 P.3    69  C69         0.2141
   1466  C5'       60.3040   30.5670   23.0990 C.3    69  C69         0.1812
   1467  O5'       59.3730   30.3930   22.0360 O.3    69  C69        -0.3114
   1468  C4'       59.6120   30.3740   24.4280 C.3    69  C69         0.1773
   1469  O4'       58.9810   31.6190   24.8440 O.3    69  C69        -0.3307
   1470  C3'       58.4680   29.3720   24.4060 C.3    69  C69         0.1860
   1471  O3'       58.9080   28.0280   24.5320 O.3    69  C69        -0.3112
   1472  C2'       57.6240   29.8050   25.5970 C.3    69  C69         0.2309
   1473  O2'       58.1230   29.2970   26.8230 O.3    69  C69        -0.2156
   1474  C1'       57.7680   31.3290   25.5290 C.3    69  C69         0.2420
   1475  N1        56.6540   31.9930   24.8290 N.ar   69  C69        -0.2535
   1476  C2        55.4230   32.0670   25.4710 C.ar   69  C69         0.3532
   1477  O2        55.3080   31.5490   26.5840 O.2    69  C69        -0.2443
   1478  N3        54.3920   32.6980   24.8620 N.ar   69  C69        -0.1739
   1479  C4        54.5630   33.2320   23.6510 C.ar   69  C69         0.1759
   1480  N4        53.5260   33.8510   23.0910 N.pl3  69  C69        -0.1070
   1481  C5        55.8070   33.1580   22.9640 C.ar   69  C69         0.0566
   1482  C6        56.8160   32.5360   23.5840 C.ar   69  C69         0.0850
   1483  OP1       60.5800   31.6810   20.2820 O.3    69  C69        -0.4373
   1484  OP2       58.1120   30.9920   20.0170 O.co2  69  C69        -0.5172
   1485  P         57.9710   26.8410   23.9900 P.3    70  A70         0.2141
   1486  C5'       56.9210   26.4200   26.3170 C.3    70  A70         0.1812
   1487  O5'       56.7350   26.8380   24.9860 O.3    70  A70        -0.3114
   1488  C4'       55.6600   26.5990   27.1070 C.3    70  A70         0.1773
   1489  O4'       55.3050   28.0060   27.1200 O.3    70  A70        -0.3307
   1490  C3'       54.4350   25.9330   26.5120 C.3    70  A70         0.1860
   1491  O3'       54.3630   24.5490   26.8200 O.3    70  A70        -0.3112
   1492  C2'       53.3050   26.7310   27.1430 C.3    70  A70         0.2309
   1493  O2'       53.0750   26.3590   28.4820 O.3    70  A70        -0.2156
   1494  C1'       53.8930   28.1380   27.1280 C.3    70  A70         0.2408
   1495  N1        49.9440   30.5170   24.9470 N.ar   70  A70        -0.2040
   1496  C2        50.0890   29.8800   26.1110 C.ar   70  A70         0.2016
   1497  N3        51.1710   29.2870   26.6160 N.ar   70  A70        -0.2048
   1498  C4        52.2080   29.3930   25.7700 C.ar   70  A70         0.1692
   1499  C5        52.2200   30.0210   24.5440 C.ar   70  A70         0.1518
   1500  C6        51.0130   30.6160   24.1230 C.ar   70  A70         0.1919
   1501  N6        50.8660   31.2710   22.9680 N.pl3  70  A70        -0.1054
   1502  N7        53.4740   29.9250   23.9590 N.ar   70  A70        -0.2193
   1503  C8        54.1780   29.2470   24.8340 C.ar   70  A70         0.1816
   1504  N9        53.4700   28.8940   25.9520 N.ar   70  A70        -0.2693
   1505  OP1       58.6990   25.5660   24.1720 O.3    70  A70        -0.4373
   1506  OP2       57.4960   27.2360   22.6380 O.co2  70  A70        -0.5172
   1507  P         53.2620   23.6390   26.0880 P.3    71  G71         0.2141
   1508  C5'       51.5450   23.9480   28.0060 C.3    71  G71         0.1812
   1509  O5'       51.8890   24.1940   26.6580 O.3    71  G71        -0.3114
   1510  C4'       50.0850   24.2000   28.2220 C.3    71  G71         0.1773
   1511  O4'       49.8340   25.6190   28.0610 O.3    71  G71        -0.3307
   1512  C3'       49.1680   23.5600   27.1960 C.3    71  G71         0.1860
   1513  O3'       48.9000   22.1930   27.4310 O.3    71  G71        -0.3112
   1514  C2'       47.9260   24.4230   27.3020 C.3    71  G71         0.2309
   1515  O2'       47.1600   24.0950   28.4500 O.3    71  G71        -0.2156
   1516  C1'       48.5570   25.8070   27.4660 C.3    71  G71         0.2408
   1517  N1        46.2790   28.5350   23.8450 N.ar   71  G71        -0.1709
   1518  C2        45.7460   27.9550   24.9730 C.ar   71  G71         0.2606
   1519  N2        44.4370   28.1470   25.1770 N.pl3  71  G71        -0.0859
   1520  N3        46.4480   27.2400   25.8400 N.ar   71  G71        -0.1918
   1521  C4        47.7490   27.1530   25.4860 C.ar   71  G71         0.1723
   1522  C5        48.3810   27.6900   24.3820 C.ar   71  G71         0.1748
   1523  C6        47.6140   28.4570   23.4590 C.ar   71  G71         0.3023
   1524  O6        47.9900   29.0250   22.4250 O.2    71  G71        -0.2633
   1525  N7        49.7300   27.3620   24.3790 N.ar   71  G71        -0.2173
   1526  C8        49.8930   26.6510   25.4650 C.ar   71  G71         0.1817
   1527  N9        48.7320   26.5000   26.1900 N.ar   71  G71        -0.2693
   1528  OP1       53.4100   22.2490   26.5750 O.3    71  G71        -0.4373
   1529  OP2       53.3270   23.9130   24.6280 O.co2  71  G71        -0.5172
   1530  P         48.5700   21.2420   26.1820 P.3    72  C72         0.2141
   1531  C5'       46.0200   21.5830   26.5880 C.3    72  C72         0.1812
   1532  O5'       47.1290   21.7350   25.7160 O.3    72  C72        -0.3114
   1533  C4'       44.7890   22.2430   26.0200 C.3    72  C72         0.1773
   1534  O4'       44.9990   23.6810   25.9400 O.3    72  C72        -0.3307
   1535  C3'       44.4350   21.8730   24.5940 C.3    72  C72         0.1860
   1536  O3'       43.8180   20.6140   24.4630 O.3    72  C72        -0.3112
   1537  C2'       43.5730   23.0460   24.1630 C.3    72  C72         0.2309
   1538  O2'       42.2750   23.0120   24.7270 O.3    72  C72        -0.2156
   1539  C1'       44.3450   24.1990   24.7890 C.3    72  C72         0.2420
   1540  N1        45.3660   24.6560   23.8390 N.ar   72  C72        -0.2535
   1541  C2        44.9830   25.5490   22.8250 C.ar   72  C72         0.3532
   1542  O2        43.7960   25.9350   22.7810 O.2    72  C72        -0.2443
   1543  N3        45.9080   25.9620   21.9260 N.ar   72  C72        -0.1739
   1544  C4        47.1600   25.5180   22.0120 C.ar   72  C72         0.1759
   1545  N4        48.0350   25.9410   21.0950 N.pl3  72  C72        -0.1070
   1546  C5        47.5750   24.6160   23.0420 C.ar   72  C72         0.0566
   1547  C6        46.6560   24.2150   23.9230 C.ar   72  C72         0.0850
   1548  OP1       48.4270   19.8430   26.6540 O.3    72  C72        -0.4373
   1549  OP2       49.5970   21.5710   25.1540 O.co2  72  C72        -0.5172
   1550  P         44.2460   19.6810   23.2380 P.3    73  G73         0.2141
   1551  C5'       42.1420   20.6290   22.0200 C.3    73  G73         0.1812
   1552  O5'       43.5390   20.3720   21.9920 O.3    73  G73        -0.3114
   1553  C4'       41.7380   21.5090   20.8630 C.3    73  G73         0.1773
   1554  O4'       42.4580   22.7690   20.9320 O.3    73  G73        -0.3307
   1555  C3'       42.0870   21.0200   19.4700 C.3    73  G73         0.1860
   1556  O3'       41.1940   20.0130   19.0120 O.3    73  G73        -0.3112
   1557  C2'       41.9290   22.3050   18.6700 C.3    73  G73         0.2309
   1558  O2'       40.5670   22.6110   18.4400 O.3    73  G73        -0.2156
   1559  C1'       42.5360   23.3290   19.6320 C.3    73  G73         0.2408
   1560  N1        45.5880   25.8420   16.4850 N.ar   73  G73        -0.1709
   1561  C2        44.2160   25.7980   16.5490 C.ar   73  G73         0.2606
   1562  N2        43.5520   26.5060   15.6350 N.pl3  73  G73        -0.0859
   1563  N3        43.5370   25.1060   17.4430 N.ar   73  G73        -0.1918
   1564  C4        44.3440   24.4420   18.2880 C.ar   73  G73         0.1723
   1565  C5        45.7220   24.4110   18.3220 C.ar   73  G73         0.1748
   1566  C6        46.4480   25.1690   17.3420 C.ar   73  G73         0.3023
   1567  O6        47.6790   25.2760   17.1880 O.2    73  G73        -0.2633
   1568  N7        46.1690   23.5990   19.3590 N.ar   73  G73        -0.2173
   1569  C8        45.0700   23.1610   19.9220 C.ar   73  G73         0.1817
   1570  N9        43.9290   23.6280   19.3110 N.ar   73  G73        -0.2693
   1571  OP1       43.6440   18.3400   23.4460 O.3    73  G73        -0.4373
   1572  OP2       45.7250   19.8170   23.0840 O.co2  73  G73        -0.5172
   1573  P         41.7870   18.6370   18.4160 P.3    74  G74         0.2141
   1574  C5'       42.9050   19.9830   16.4770 C.3    74  G74         0.1812
   1575  O5'       42.0450   18.9340   16.8750 O.3    74  G74        -0.3114
   1576  C4'       42.6000   20.3830   15.0670 C.3    74  G74         0.1773
   1577  O4'       43.0280   21.7600   14.9170 O.3    74  G74        -0.3307
   1578  C3'       43.3390   19.6140   13.9920 C.3    74  G74         0.1860
   1579  O3'       42.8460   18.4680   13.2990 O.3    74  G74        -0.3112
   1580  C2'       44.5220   20.4550   13.5530 C.3    74  G74         0.2309
   1581  O2'       44.5760   20.5580   12.1430 O.3    74  G74        -0.2156
   1582  C1'       44.2030   21.8390   14.1360 C.3    74  G74         0.2408
   1583  N1        48.9180   23.6420   14.4180 N.ar   74  G74        -0.1709
   1584  C2        47.9890   23.8220   13.4250 C.ar   74  G74         0.2606
   1585  N2        48.4060   24.4790   12.3300 N.pl3  74  G74        -0.0859
   1586  N3        46.7410   23.3910   13.5030 N.ar   74  G74        -0.1918
   1587  C4        46.4940   22.7640   14.6740 C.ar   74  G74         0.1723
   1588  C5        47.3490   22.5470   15.7290 C.ar   74  G74         0.1748
   1589  C6        48.6770   23.0040   15.6350 C.ar   74  G74         0.3023
   1590  O6        49.5840   22.9020   16.4730 O.2    74  G74        -0.2633
   1591  N7        46.7010   21.8820   16.7600 N.ar   74  G74        -0.2173
   1592  C8        45.4920   21.6920   16.3110 C.ar   74  G74         0.1817
   1593  N9        45.3230   22.1340   15.0220 N.ar   74  G74        -0.2693
   1594  OP1       40.7160   17.6000   18.5060 O.2    74  G74        -0.5172
   1595  OP2       43.1170   18.3920   19.0420 O.co2  74  G74        -0.4373
   1596  P         43.7330   17.1130   13.2570 P.3    75  A75         0.2141
   1597  C5'       46.2550   16.6530   12.7100 C.3    75  A75         0.1812
   1598  O5'       45.1510   17.5470   12.6720 O.3    75  A75        -0.3114
   1599  C4'       47.1330   16.8740   11.5040 C.3    75  A75         0.1773
   1600  O4'       46.4340   16.4290   10.3190 O.3    75  A75        -0.3307
   1601  C3'       47.4720   18.3330   11.2600 C.3    75  A75         0.1860
   1602  O3'       48.7200   18.6280   11.8640 O.3    75  A75        -0.3112
   1603  C2'       47.5920   18.4200    9.7500 C.3    75  A75         0.2309
   1604  O2'       48.8750   18.0310    9.3360 O.3    75  A75        -0.2156
   1605  C1'       46.5550   17.3960    9.2950 C.3    75  A75         0.2408
   1606  N1        43.4760   20.3110    6.3750 N.ar   75  A75        -0.2040
   1607  C2        44.7700   19.9910    6.2600 C.ar   75  A75         0.2016
   1608  N3        45.5200   19.2310    7.0500 N.ar   75  A75        -0.2048
   1609  C4        44.7990   18.7630    8.0800 C.ar   75  A75         0.1692
   1610  C5        43.4630   19.0010    8.3320 C.ar   75  A75         0.1518
   1611  C6        42.7810   19.8210    7.4240 C.ar   75  A75         0.1919
   1612  N6        41.4900   20.1410    7.5460 N.pl3  75  A75        -0.1054
   1613  N7        43.0560   18.3490    9.4860 N.ar   75  A75        -0.2193
   1614  C8        44.1380   17.7440    9.8980 C.ar   75  A75         0.1816
   1615  N9        45.2270   17.9500    9.0940 N.ar   75  A75        -0.2693
   1616  OP1       43.1020   16.2000   12.2760 O.2    75  A75        -0.5172
   1617  OP2       43.9550   16.6480   14.6490 O.co2  75  A75        -0.4373
   1618  P         48.8700   19.9500   12.7400 P.3    76  A76         0.2141
   1619  C5'       50.4350   21.1720   11.0230 C.3    76  A76         0.1812
   1620  O5'       49.1590   21.0730   11.6500 O.3    76  A76        -0.3114
   1621  C4'       50.3170   21.9950    9.7750 C.3    76  A76         0.1773
   1622  O4'       49.2370   21.4370    8.9910 O.3    76  A76        -0.3307
   1623  C3'       49.9400   23.4550    9.9670 C.3    76  A76         0.1860
   1624  O3'       51.1210   24.2380   10.1180 O.3    76  A76        -0.3112
   1625  C2'       49.2630   23.7790    8.6430 C.3    76  A76         0.2309
   1626  O2'       50.2010   24.0010    7.6080 O.3    76  A76        -0.2156
   1627  C1'       48.5150   22.4750    8.3630 C.3    76  A76         0.2408
   1628  N1        43.5130   23.2510    7.4560 N.ar   76  A76        -0.2040
   1629  C2        44.6060   23.5090    6.7230 C.ar   76  A76         0.2016
   1630  N3        45.8850   23.3120    7.0240 N.ar   76  A76        -0.2048
   1631  C4        46.0040   22.7820    8.2550 C.ar   76  A76         0.1692
   1632  C5        44.9740   22.4660    9.1270 C.ar   76  A76         0.1518
   1633  C6        43.6680   22.7150    8.6840 C.ar   76  A76         0.1919
   1634  N6        42.5820   22.4510    9.4000 N.pl3  76  A76        -0.1054
   1635  N7        45.4760   21.9370   10.3090 N.ar   76  A76        -0.2193
   1636  C8        46.7750   21.9380   10.1280 C.ar   76  A76         0.1816
   1637  N9        47.1620   22.4170    8.8970 N.ar   76  A76        -0.2693
   1638  OP1       50.0690   19.8320   13.6000 O.3    76  A76        -0.4373
   1639  OP2       47.5390   20.1650   13.3620 O.co2  76  A76        -0.5172
   1640  P         51.0410   25.6900   10.8080 P.3    77  A77         0.2141
   1641  C5'       50.4840   27.1500    8.6970 C.3    77  A77         0.1812
   1642  O5'       50.0230   26.4950    9.8800 O.3    77  A77        -0.3114
   1643  C4'       49.3180   27.6600    7.8690 C.3    77  A77         0.1773
   1644  O4'       48.3950   26.5660    7.6210 O.3    77  A77        -0.3307
   1645  C3'       48.4570   28.7640    8.4700 C.3    77  A77         0.1860
   1646  O3'       48.9940   30.0440    8.1660 O.3    77  A77        -0.3112
   1647  C2'       47.1490   28.5720    7.7190 C.3    77  A77         0.2309
   1648  O2'       47.2370   29.0940    6.4090 O.3    77  A77        -0.2156
   1649  C1'       47.0680   27.0480    7.6390 C.3    77  A77         0.2408
   1650  N1        42.5800   25.6180    9.7220 N.ar   77  A77        -0.2040
   1651  C2        42.8870   26.2020    8.5520 C.ar   77  A77         0.2016
   1652  N3        44.0850   26.5610    8.0720 N.ar   77  A77        -0.2048
   1653  C4        45.0560   26.2560    8.9490 C.ar   77  A77         0.1692
   1654  C5        44.8990   25.6580   10.1870 C.ar   77  A77         0.1518
   1655  C6        43.5860   25.3290   10.5780 C.ar   77  A77         0.1919
   1656  N6        43.2860   24.7480   11.7390 N.pl3  77  A77        -0.1054
   1657  N7        46.1270   25.5060   10.8170 N.ar   77  A77        -0.2193
   1658  C8        46.9870   26.0010    9.9550 C.ar   77  A77         0.1816
   1659  N9        46.4060   26.4640    8.8010 N.ar   77  A77        -0.2693
   1660  OP1       52.3620   26.3380   10.6680 O.2    77  A77        -0.5172
   1661  OP2       50.4510   25.5020   12.1670 O.co2  77  A77        -0.4373
   1662  P         49.4840   31.0040    9.3540 P.3    78  C78         0.2141
   1663  C5'       47.0350   31.8220    9.7460 C.3    78  C78         0.1812
   1664  O5'       48.1860   31.1750   10.2590 O.3    78  C78        -0.3114
   1665  C4'       45.7900   31.2470   10.3700 C.3    78  C78         0.1773
   1666  O4'       45.9430   29.8030   10.4570 O.3    78  C78        -0.3307
   1667  C3'       45.5290   31.6460   11.8080 C.3    78  C78         0.1860
   1668  O3'       44.8930   32.9060   11.9110 O.3    78  C78        -0.3112
   1669  C2'       44.6360   30.5180   12.2920 C.3    78  C78         0.2309
   1670  O2'       43.3080   30.6470   11.8050 O.3    78  C78        -0.2156
   1671  C1'       45.3050   29.3250   11.6230 C.3    78  C78         0.2420
   1672  N1        46.3180   28.7210   12.4940 N.ar   78  C78        -0.2535
   1673  C2        45.8830   27.9950   13.5960 C.ar   78  C78         0.3532
   1674  O2        44.6660   27.9000   13.7870 O.2    78  C78        -0.2443
   1675  N3        46.7890   27.4190   14.4180 N.ar   78  C78        -0.1739
   1676  C4        48.0920   27.5460   14.1620 C.ar   78  C78         0.1759
   1677  N4        48.9580   26.9460   14.9920 N.pl3  78  C78        -0.1070
   1678  C5        48.5710   28.2900   13.0400 C.ar   78  C78         0.0566
   1679  C6        47.6540   28.8590   12.2380 C.ar   78  C78         0.0850
   1680  OP1       49.8430   32.3250    8.7640 O.2    78  C78        -0.5172
   1681  OP2       50.4890   30.2620   10.1610 O.co2  78  C78        -0.4373
   1682  P         45.0680   33.7570   13.2570 P.3    79  G79         0.2141
   1683  C5'       42.6810   32.9700   13.9390 C.3    79  G79         0.1812
   1684  O5'       44.0530   33.0660   14.2680 O.3    79  G79        -0.3114
   1685  C4'       41.9650   32.1010   14.9360 C.3    79  G79         0.1773
   1686  O4'       42.6000   30.7940   14.9480 O.3    79  G79        -0.3307
   1687  C3'       42.1200   32.5600   16.3710 C.3    79  G79         0.1860
   1688  O3'       41.2080   33.5860   16.7210 O.3    79  G79        -0.3112
   1689  C2'       41.8630   31.2840   17.1470 C.3    79  G79         0.2309
   1690  O2'       40.4840   31.0150   17.1760 O.3    79  G79        -0.2156
   1691  C1'       42.5460   30.2520   16.2550 C.3    79  G79         0.2408
   1692  N1        45.1390   27.6000   19.6650 N.ar   79  G79        -0.1709
   1693  C2        43.7850   27.7380   19.4920 C.ar   79  G79         0.2606
   1694  N2        42.9830   27.0780   20.3520 N.pl3  79  G79        -0.0859
   1695  N3        43.2360   28.4690   18.5440 N.ar   79  G79        -0.1918
   1696  C4        44.1580   29.0640   17.7670 C.ar   79  G79         0.1723
   1697  C5        45.5290   28.9950   17.8490 C.ar   79  G79         0.1748
   1698  C6        46.1110   28.2020   18.8790 C.ar   79  G79         0.3023
   1699  O6        47.3210   28.0080   19.1300 O.2    79  G79        -0.2633
   1700  N7        46.1200   29.7610   16.8510 N.ar   79  G79        -0.2173
   1701  C8        45.1060   30.2740   16.1950 C.ar   79  G79         0.1817
   1702  N9        43.8890   29.8890   16.7040 N.ar   79  G79        -0.2693
   1703  OP1       44.6020   35.1260   12.9710 O.2    79  G79        -0.5172
   1704  OP2       46.4640   33.5380   13.7380 O.co2  79  G79        -0.4373
   1705  P         41.6960   34.7440   17.7180 P.3    80  U80         0.2141
   1706  C5'       40.4410   33.5100   19.6460 C.3    80  U80         0.1812
   1707  O5'       41.6660   34.0310   19.1390 O.3    80  U80        -0.3114
   1708  C4'       40.6930   32.6110   20.8340 C.3    80  U80         0.1773
   1709  O4'       41.4800   31.4650   20.4050 O.3    80  U80        -0.3307
   1710  C3'       41.5350   33.2170   21.9430 C.3    80  U80         0.1860
   1711  O3'       40.7670   34.0250   22.8180 O.3    80  U80        -0.3112
   1712  C2'       42.0820   31.9830   22.6400 C.3    80  U80         0.2309
   1713  O2'       41.1070   31.3810   23.4640 O.3    80  U80        -0.2156
   1714  C1'       42.3540   31.0670   21.4500 C.3    80  U80         0.2420
   1715  N1        43.7370   31.1890   20.9780 N.ar   80  U80        -0.2534
   1716  C2        44.6880   30.4310   21.6220 C.ar   80  U80         0.3546
   1717  O2        44.4150   29.6880   22.5390 O.2    80  U80        -0.2443
   1718  N3        45.9710   30.5810   21.1590 N.ar   80  U80        -0.1530
   1719  C4        46.3860   31.3990   20.1400 C.ar   80  U80         0.2846
   1720  O4        47.5790   31.4240   19.8320 O.2    80  U80        -0.2650
   1721  C5        45.3390   32.1570   19.5200 C.ar   80  U80         0.0814
   1722  C6        44.0780   32.0270   19.9500 C.ar   80  U80         0.0870
   1723  OP1       40.6680   35.8110   17.6990 O.3    80  U80        -0.4373
   1724  OP2       43.1050   35.0660   17.3870 O.co2  80  U80        -0.5172
   1725  P         41.5120   35.0960   23.7590 P.3    81  U81         0.2141
   1726  C5'       41.4920   33.5460   25.8690 C.3    81  U81         0.1812
   1727  O5'       42.2430   34.1970   24.8530 O.3    81  U81        -0.3114
   1728  C4'       42.4110   32.8740   26.8580 C.3    81  U81         0.1773
   1729  O4'       43.1540   31.8270   26.1850 O.3    81  U81        -0.3307
   1730  C3'       43.4920   33.7650   27.4420 C.3    81  U81         0.1860
   1731  O3'       43.0080   34.5210   28.5430 O.3    81  U81        -0.3112
   1732  C2'       44.5480   32.7550   27.8680 C.3    81  U81         0.2309
   1733  O2'       44.2430   32.1190   29.0880 O.3    81  U81        -0.2156
   1734  C1'       44.4550   31.7330   26.7400 C.3    81  U81         0.2420
   1735  N1        45.4450   32.0050   25.6940 N.ar   81  U81        -0.2534
   1736  C2        46.6940   31.4560   25.8570 C.ar   81  U81         0.3546
   1737  O2        46.9840   30.7510   26.8060 O.2    81  U81        -0.2443
   1738  N3        47.5950   31.7620   24.8730 N.ar   81  U81        -0.1530
   1739  C4        47.3770   32.5430   23.7700 C.ar   81  U81         0.2846
   1740  O4        48.2980   32.7410   22.9770 O.2    81  U81        -0.2650
   1741  C5        46.0530   33.0700   23.6680 C.ar   81  U81         0.0814
   1742  C6        45.1520   32.7860   24.6100 C.ar   81  U81         0.0870
   1743  OP1       40.4400   35.8900   24.4220 O.3    81  U81        -0.4373
   1744  OP2       42.5700   35.7920   22.9730 O.co2  81  U81        -0.5172
   1745  P         43.8330   35.8030   29.0470 P.3    82  G82         0.2141
   1746  C5'       45.0670   34.2970   30.7820 C.3    82  G82         0.1812
   1747  O5'       45.1570   35.1760   29.6710 O.3    82  G82        -0.3114
   1748  C4'       46.3980   33.6350   31.0560 C.3    82  G82         0.1773
   1749  O4'       46.8080   32.8360   29.9080 O.3    82  G82        -0.3307
   1750  C3'       47.5500   34.6060   31.2440 C.3    82  G82         0.1860
   1751  O3'       47.6000   35.0460   32.5910 O.3    82  G82        -0.3112
   1752  C2'       48.7620   33.7500   30.9170 C.3    82  G82         0.2309
   1753  O2'       49.1830   32.9820   32.0160 O.3    82  G82        -0.2156
   1754  C1'       48.2190   32.8510   29.8090 C.3    82  G82         0.2408
   1755  N1        51.9600   33.0150   26.4370 N.ar   82  G82        -0.1709
   1756  C2        51.9100   32.4090   27.6670 C.ar   82  G82         0.2606
   1757  N2        53.0190   31.7760   28.0660 N.pl3  82  G82        -0.0859
   1758  N3        50.8540   32.4220   28.4500 N.ar   82  G82        -0.1918
   1759  C4        49.8320   33.0980   27.9020 C.ar   82  G82         0.1723
   1760  C5        49.7720   33.7320   26.6860 C.ar   82  G82         0.1748
   1761  C6        50.9140   33.7170   25.8530 C.ar   82  G82         0.3023
   1762  O6        51.0640   34.2340   24.7370 O.2    82  G82        -0.2633
   1763  N7        48.5230   34.3070   26.4940 N.ar   82  G82        -0.2173
   1764  C8        47.8620   34.0240   27.5860 C.ar   82  G82         0.1817
   1765  N9        48.6060   33.3040   28.4830 N.ar   82  G82        -0.2693
   1766  OP1       43.0430   36.4320   30.1320 O.3    82  G82        -0.4373
   1767  OP2       44.2130   36.6120   27.8610 O.co2  82  G82        -0.5172
   1768  P         48.7140   36.1100   33.0370 P.3    83  A83         0.2141
   1769  C5'       51.3110   35.9960   32.7980 C.3    83  A83         0.1812
   1770  O5'       50.0840   35.3060   32.9500 O.3    83  A83        -0.3114
   1771  C4'       52.3890   35.0420   32.3520 C.3    83  A83         0.1773
   1772  O4'       52.0060   34.4310   31.0920 O.3    83  A83        -0.3307
   1773  C3'       53.7170   35.7060   32.0440 C.3    83  A83         0.1860
   1774  O3'       54.4790   35.8540   33.2230 O.3    83  A83        -0.3112
   1775  C2'       54.3670   34.7220   31.0880 C.3    83  A83         0.2309
   1776  O2'       55.0110   33.6520   31.7420 O.3    83  A83        -0.2156
   1777  C1'       53.1580   34.2340   30.2890 C.3    83  A83         0.2408
   1778  N1        55.4480   35.6510   25.9510 N.ar   83  A83        -0.2040
   1779  C2        55.8540   34.9130   26.9930 C.ar   83  A83         0.2016
   1780  N3        55.1940   34.5820   28.0940 N.ar   83  A83        -0.2048
   1781  C4        53.9560   35.1060   28.0780 C.ar   83  A83         0.1692
   1782  C5        53.3970   35.8880   27.0880 C.ar   83  A83         0.1518
   1783  C6        54.1980   36.1640   25.9710 C.ar   83  A83         0.1919
   1784  N6        53.7950   36.8970   24.9370 N.pl3  83  A83        -0.1054
   1785  N7        52.1000   36.2530   27.4250 N.ar   83  A83        -0.2193
   1786  C8        51.9080   35.6880   28.5940 C.ar   83  A83         0.1816
   1787  N9        52.9930   34.9810   29.0460 N.ar   83  A83        -0.2693
   1788  OP1       48.4540   36.4570   34.4610 O.3    83  A83        -0.4373
   1789  OP2       48.7870   37.1920   32.0170 O.co2  83  A83        -0.5172
   1790  P         55.3520   37.1730   33.4290 P.3    84  A84         0.2141
   1791  C5'       57.4220   36.1090   32.2010 C.3    84  A84         0.1812
   1792  O5'       56.4050   37.1080   32.2370 O.3    84  A84        -0.3114
   1793  C4'       58.3110   36.3430   31.0070 C.3    84  A84         0.1773
   1794  O4'       57.6060   35.9660   29.7990 O.3    84  A84        -0.3307
   1795  C3'       58.7030   37.7900   30.7860 C.3    84  A84         0.1860
   1796  O3'       59.8180   38.1590   31.5810 O.3    84  A84        -0.3112
   1797  C2'       58.9920   37.8270   29.2890 C.3    84  A84         0.2309
   1798  O2'       60.2830   37.3850   28.9230 O.3    84  A84        -0.2156
   1799  C1'       57.9120   36.8810   28.7590 C.3    84  A84         0.2408
   1800  N1        55.4110   39.9190   25.4440 N.ar   84  A84        -0.2040
   1801  C2        56.6280   39.3540   25.4000 C.ar   84  A84         0.2016
   1802  N3        57.2230   38.5680   26.2950 N.ar   84  A84        -0.2048
   1803  C4        56.4190   38.3670   27.3520 C.ar   84  A84         0.1692
   1804  C5        55.1490   38.8770   27.5390 C.ar   84  A84         0.1518
   1805  C6        54.6330   39.6930   26.5240 C.ar   84  A84         0.1919
   1806  N6        53.4220   40.2540   26.5730 N.pl3  84  A84        -0.1054
   1807  N7        54.6240   38.4540   28.7520 N.ar   84  A84        -0.2193
   1808  C8        55.5700   37.7090   29.2600 C.ar   84  A84         0.1816
   1809  N9        56.6850   37.6150   28.4670 N.ar   84  A84        -0.2693
   1810  OP1       56.0690   37.0430   34.7250 O.3    84  A84        -0.4373
   1811  OP2       54.4400   38.3220   33.2070 O.co2  84  A84        -0.5172
   1812  P         60.0450   39.7050   31.9600 P.3    85  A85         0.2141
   1813  C5'       61.2530   40.3070   29.7140 C.3    85  A85         0.1812
   1814  O5'       60.1100   40.4350   30.5480 O.3    85  A85        -0.3114
   1815  C4'       61.0440   41.0840   28.4410 C.3    85  A85         0.1773
   1816  O4'       59.8820   40.5450   27.7480 O.3    85  A85        -0.3307
   1817  C3'       60.6990   42.5490   28.6260 C.3    85  A85         0.1860
   1818  O3'       61.8440   43.3630   28.8350 O.3    85  A85        -0.3112
   1819  C2'       59.9840   42.8680   27.3220 C.3    85  A85         0.2309
   1820  O2'       60.8810   43.0200   26.2460 O.3    85  A85        -0.2156
   1821  C1'       59.1740   41.5920   27.1130 C.3    85  A85         0.2408
   1822  N1        54.4690   43.6050   26.7630 N.ar   85  A85        -0.2040
   1823  C2        55.5210   43.6230   25.9390 C.ar   85  A85         0.2016
   1824  N3        56.7120   43.0570   26.0850 N.ar   85  A85        -0.2048
   1825  C4        56.7870   42.3960   27.2530 C.ar   85  A85         0.1692
   1826  C5        55.7940   42.2810   28.2020 C.ar   85  A85         0.1518
   1827  C6        54.5710   42.9270   27.9260 C.ar   85  A85         0.1919
   1828  N6        53.5140   42.9080   28.7430 N.pl3  85  A85        -0.1054
   1829  N7        56.2350   41.5260   29.2800 N.ar   85  A85        -0.2193
   1830  C8        57.4680   41.2100   28.9620 C.ar   85  A85         0.1816
   1831  N9        57.8690   41.7120   27.7550 N.ar   85  A85        -0.2693
   1832  OP1       61.3850   39.7970   32.5910 O.2    85  A85        -0.5172
   1833  OP2       58.8550   40.2260   32.6850 O.co2  85  A85        -0.4373
   1834  P         61.7170   44.6870   29.7470 P.3    86  G86         0.2141
   1835  C5'       61.3970   46.0030   27.5240 C.3    86  G86         0.1812
   1836  O5'       60.9260   45.7170   28.8300 O.3    86  G86        -0.3114
   1837  C4'       60.3380   46.7130   26.7170 C.3    86  G86         0.1773
   1838  O4'       59.1660   45.8570   26.5870 O.3    86  G86        -0.3307
   1839  C3'       59.7740   47.9600   27.3710 C.3    86  G86         0.1860
   1840  O3'       60.6180   49.0840   27.2160 O.3    86  G86        -0.3112
   1841  C2'       58.4320   48.1120   26.6720 C.3    86  G86         0.2309
   1842  O2'       58.5700   48.6290   25.3680 O.3    86  G86        -0.2156
   1843  C1'       57.9940   46.6570   26.5590 C.3    86  G86         0.2408
   1844  N1        53.3790   47.1270   28.6280 N.ar   86  G86        -0.1709
   1845  C2        53.9240   47.8060   27.5750 C.ar   86  G86         0.2606
   1846  N2        53.1210   48.6980   27.0010 N.pl3  86  G86        -0.0859
   1847  N3        55.1610   47.6180   27.1280 N.ar   86  G86        -0.1918
   1848  C4        55.8140   46.6770   27.8470 C.ar   86  G86         0.1723
   1849  C5        55.3550   45.9480   28.9230 C.ar   86  G86         0.1748
   1850  C6        54.0360   46.1580   29.3770 C.ar   86  G86         0.3023
   1851  O6        53.4470   45.6030   30.3040 O.2    86  G86        -0.2633
   1852  N7        56.3330   45.0830   29.3860 N.ar   86  G86        -0.2173
   1853  C8        57.3530   45.2890   28.5940 C.ar   86  G86         0.1817
   1854  N9        57.1000   46.2300   27.6280 N.ar   86  G86        -0.2693
   1855  OP1       63.0800   45.2330   29.9620 O.2    86  G86        -0.5172
   1856  OP2       60.8600   44.3310   30.9120 O.co2  86  G86        -0.4373
   1857  P         60.5280   50.2780   28.2760 P.3    87  A87         0.2141
   1858  C5'       58.8100   51.6650   26.8880 C.3    87  A87         0.1812
   1859  O5'       59.0720   50.8700   28.0360 O.3    87  A87        -0.3114
   1860  C4'       57.4200   52.2450   26.9440 C.3    87  A87         0.1773
   1861  O4'       56.4740   51.1630   27.0230 O.3    87  A87        -0.3307
   1862  C3'       57.1040   53.0650   28.1830 C.3    87  A87         0.1860
   1863  O3'       57.5530   54.3980   28.0430 O.3    87  A87        -0.3112
   1864  C2'       55.5900   52.9850   28.2570 C.3    87  A87         0.2309
   1865  O2'       54.9660   53.8290   27.3150 O.3    87  A87        -0.2156
   1866  C1'       55.3630   51.5470   27.8190 C.3    87  A87         0.2408
   1867  N1        52.2460   49.5890   31.3680 N.ar   87  A87        -0.2040
   1868  C2        52.0880   50.5750   30.4770 C.ar   87  A87         0.2016
   1869  N3        52.9580   51.0540   29.5890 N.ar   87  A87        -0.2048
   1870  C4        54.1260   50.4020   29.6810 C.ar   87  A87         0.1692
   1871  C5        54.4390   49.3760   30.5460 C.ar   87  A87         0.1518
   1872  C6        53.4360   48.9530   31.4220 C.ar   87  A87         0.1919
   1873  N6        53.5910   47.9570   32.2930 N.pl3  87  A87        -0.1054
   1874  N7        55.7380   48.9480   30.3440 N.ar   87  A87        -0.2193
   1875  C8        56.1740   49.7110   29.3740 C.ar   87  A87         0.1816
   1876  N9        55.2420   50.6010   28.9180 N.ar   87  A87        -0.2693
   1877  OP1       61.4930   51.3240   27.9030 O.2    87  A87        -0.5172
   1878  OP2       60.5990   49.6630   29.6120 O.co2  87  A87        -0.4373
   1879  P         58.1980   55.1360   29.3020 P.3    88  U88         0.2141
   1880  C5'       56.1270   56.7070   29.4820 C.3    88  U88         0.1812
   1881  O5'       56.9170   55.6890   30.0750 O.3    88  U88        -0.3114
   1882  C4'       54.8080   56.8500   30.1970 C.3    88  U88         0.1773
   1883  O4'       54.0780   55.5980   30.0950 O.3    88  U88        -0.3307
   1884  C3'       54.9030   57.0670   31.6920 C.3    88  U88         0.1860
   1885  O3'       55.1610   58.4070   32.0520 O.3    88  U88        -0.3112
   1886  C2'       53.5360   56.6150   32.1520 C.3    88  U88         0.2309
   1887  O2'       52.6170   57.6040   31.7530 O.3    88  U88        -0.2156
   1888  C1'       53.3340   55.3840   31.2780 C.3    88  U88         0.2420
   1889  N1        53.8350   54.1710   31.9380 N.ar   88  U88        -0.2534
   1890  C2        53.0890   53.6770   32.9740 C.ar   88  U88         0.3546
   1891  O2        52.0730   54.2130   33.3490 O.2    88  U88        -0.2443
   1892  N3        53.5720   52.5380   33.5630 N.ar   88  U88        -0.1530
   1893  C4        54.7050   51.8640   33.2260 C.ar   88  U88         0.2846
   1894  O4        55.0180   50.8510   33.8580 O.2    88  U88        -0.2650
   1895  C5        55.4360   52.4430   32.1400 C.ar   88  U88         0.0814
   1896  C6        54.9850   53.5540   31.5490 C.ar   88  U88         0.0870
   1897  OP1       58.9930   56.2660   28.7380 O.2    88  U88        -0.5172
   1898  OP2       58.8700   54.0830   30.1220 O.co2  88  U88        -0.4373
   1899  P         56.0090   58.7020   33.3830 P.3    89  G89         0.2141
   1900  C5'       53.7720   59.3970   34.5460 C.3    89  G89         0.1812
   1901  O5'       54.9380   58.5880   34.5570 O.3    89  G89        -0.3114
   1902  C4'       52.7920   58.9450   35.6100 C.3    89  G89         0.1773
   1903  O4'       52.3850   57.5680   35.3690 O.3    89  G89        -0.3307
   1904  C3'       53.3290   58.9260   37.0340 C.3    89  G89         0.1860
   1905  O3'       53.2450   60.2320   37.5930 O.3    89  G89        -0.3112
   1906  C2'       52.3960   57.9330   37.7230 C.3    89  G89         0.2309
   1907  O2'       51.1450   58.5030   38.1020 O.3    89  G89        -0.2156
   1908  C1'       52.1780   56.9060   36.6080 C.3    89  G89         0.2408
   1909  N1        53.0110   52.3010   38.6010 N.ar   89  G89        -0.1709
   1910  C2        51.9970   53.1820   38.8460 C.ar   89  G89         0.2606
   1911  N2        51.0770   52.7820   39.7230 N.pl3  89  G89        -0.0859
   1912  N3        51.8870   54.3750   38.2710 N.ar   89  G89        -0.1918
   1913  C4        52.8930   54.6120   37.4110 C.ar   89  G89         0.1723
   1914  C5        53.9520   53.7970   37.0910 C.ar   89  G89         0.1748
   1915  C6        54.0560   52.5250   37.7200 C.ar   89  G89         0.3023
   1916  O6        54.9230   51.6590   37.5720 O.2    89  G89        -0.2633
   1917  N7        54.7810   54.4120   36.1660 N.ar   89  G89        -0.2173
   1918  C8        54.2170   55.5710   35.9440 C.ar   89  G89         0.1817
   1919  N9        53.0640   55.7500   36.6580 N.ar   89  G89        -0.2693
   1920  OP1       56.4940   60.0990   33.2900 O.2    89  G89        -0.5172
   1921  OP2       56.9800   57.5920   33.5120 O.co2  89  G89        -0.4373
   1922  P         54.2610   60.6730   38.7540 P.3    90  A90         0.2141
   1923  C5'       52.6970   59.7830   40.6610 C.3    90  A90         0.1812
   1924  O5'       53.9200   59.6540   39.9350 O.3    90  A90        -0.3114
   1925  C4'       52.5470   58.6620   41.6570 C.3    90  A90         0.1773
   1926  O4'       52.4720   57.4050   40.9380 O.3    90  A90        -0.3307
   1927  C3'       53.7290   58.4600   42.5840 C.3    90  A90         0.1860
   1928  O3'       53.7060   59.3320   43.6950 O.3    90  A90        -0.3112
   1929  C2'       53.5650   57.0130   43.0020 C.3    90  A90         0.2309
   1930  O2'       52.5610   56.8710   43.9850 O.3    90  A90        -0.2156
   1931  C1'       53.0970   56.3840   41.6940 C.3    90  A90         0.2408
   1932  N1        55.9500   52.2270   40.8650 N.ar   90  A90        -0.2040
   1933  C2        54.9330   52.4840   41.6950 C.ar   90  A90         0.2016
   1934  N3        54.2330   53.6060   41.8500 N.ar   90  A90        -0.2048
   1935  C4        54.6770   54.5540   41.0230 C.ar   90  A90         0.1692
   1936  C5        55.7060   54.4480   40.1110 C.ar   90  A90         0.1518
   1937  C6        56.3670   53.2060   40.0380 C.ar   90  A90         0.1919
   1938  N6        57.3700   52.9390   39.2030 N.pl3  90  A90        -0.1054
   1939  N7        55.8820   55.6420   39.4320 N.ar   90  A90        -0.2193
   1940  C8        54.9640   56.4320   39.9420 C.ar   90  A90         0.1816
   1941  N9        54.2000   55.8320   40.9110 N.ar   90  A90        -0.2693
   1942  OP1       53.7960   62.0250   39.1320 O.3    90  A90        -0.4373
   1943  OP2       55.6630   60.4830   38.3180 O.co2  90  A90        -0.5172
   1944  P         55.0920   59.7950   44.3590 P.3    91  G91         0.2141
   1945  C5'       54.6520   58.0660   46.2570 C.3    91  G91         0.1812
   1946  O5'       55.4970   58.5140   45.2130 O.3    91  G91        -0.3114
   1947  C4'       55.1460   56.7550   46.8190 C.3    91  G91         0.1773
   1948  O4'       54.9590   55.6890   45.8450 O.3    91  G91        -0.3307
   1949  C3'       56.6300   56.7030   47.1210 C.3    91  G91         0.1860
   1950  O3'       56.9280   57.3020   48.3660 O.3    91  G91        -0.3112
   1951  C2'       56.9050   55.2080   47.1100 C.3    91  G91         0.2309
   1952  O2'       56.4490   54.5860   48.2960 O.3    91  G91        -0.2156
   1953  C1'       56.0210   54.7520   45.9500 C.3    91  G91         0.2408
   1954  N1        59.1520   52.0560   43.0220 N.ar   91  G91        -0.1709
   1955  C2        58.5090   51.6950   44.1840 C.ar   91  G91         0.2606
   1956  N2        58.7590   50.4570   44.6570 N.pl3  91  G91        -0.0859
   1957  N3        57.6780   52.4910   44.8420 N.ar   91  G91        -0.1918
   1958  C4        57.5440   53.6930   44.2440 C.ar   91  G91         0.1723
   1959  C5        58.1380   54.1510   43.0900 C.ar   91  G91         0.1748
   1960  C6        59.0210   53.2910   42.3880 C.ar   91  G91         0.3023
   1961  O6        59.6390   53.5160   41.3420 O.2    91  G91        -0.2633
   1962  N7        57.7380   55.4510   42.8130 N.ar   91  G91        -0.2173
   1963  C8        56.9260   55.7560   43.7910 C.ar   91  G91         0.1817
   1964  N9        56.7820   54.7380   44.7040 N.ar   91  G91        -0.2693
   1965  OP1       54.7710   60.9220   45.2700 O.3    91  G91        -0.4373
   1966  OP2       56.1170   59.9950   43.2980 O.co2  91  G91        -0.5172
   1967  P         58.4600   57.5350   48.7810 P.3    92  C92         0.2141
   1968  C5'       60.3320   55.7890   49.1890 C.3    92  C92         0.1812
   1969  O5'       58.9590   56.0630   49.0810 O.3    92  C92        -0.3114
   1970  C4'       60.5830   54.3440   48.8830 C.3    92  C92         0.1773
   1971  O4'       59.8940   53.9890   47.6670 O.3    92  C92        -0.3307
   1972  C3'       62.0290   54.0260   48.6170 C.3    92  C92         0.1860
   1973  O3'       62.6810   53.8190   49.8540 O.3    92  C92        -0.3112
   1974  C2'       61.9340   52.7810   47.7540 C.3    92  C92         0.2309
   1975  O2'       61.7520   51.5850   48.4770 O.3    92  C92        -0.2156
   1976  C1'       60.6890   53.0900   46.9260 C.3    92  C92         0.2420
   1977  N1        61.0280   53.7420   45.6640 N.ar   92  C92        -0.2535
   1978  C2        61.7100   53.0100   44.7260 C.ar   92  C92         0.3532
   1979  O2        61.9870   51.8260   44.9890 O.2    92  C92        -0.2443
   1980  N3        62.0540   53.5920   43.5610 N.ar   92  C92        -0.1739
   1981  C4        61.7220   54.8580   43.3280 C.ar   92  C92         0.1759
   1982  N4        62.0860   55.3890   42.1660 N.pl3  92  C92        -0.1070
   1983  C5        61.0040   55.6320   44.2760 C.ar   92  C92         0.0566
   1984  C6        60.6830   55.0410   45.4210 C.ar   92  C92         0.0850
   1985  OP1       58.4830   58.2950   50.0600 O.3    92  C92        -0.4373
   1986  OP2       59.2190   58.0500   47.6040 O.co2  92  C92        -0.5172
   1987  P         64.0950   54.5160   50.1090 P.3    93  C93         0.2141
   1988  C5'       65.2150   52.1860   49.8140 C.3    93  C93         0.1812
   1989  O5'       65.1040   53.5330   49.3760 O.3    93  C93        -0.3114
   1990  C4'       66.1190   51.4210   48.8930 C.3    93  C93         0.1773
   1991  O4'       65.5060   51.3400   47.5860 O.3    93  C93        -0.3307
   1992  C3'       67.4530   52.0930   48.6460 C.3    93  C93         0.1860
   1993  O3'       68.3580   51.7200   49.6760 O.3    93  C93        -0.3112
   1994  C2'       67.8590   51.5190   47.2950 C.3    93  C93         0.2309
   1995  O2'       68.4440   50.2450   47.4190 O.3    93  C93        -0.2156
   1996  C1'       66.5050   51.4080   46.5870 C.3    93  C93         0.2420
   1997  N1        66.1640   52.5190   45.6890 N.ar   93  C93        -0.2535
   1998  C2        66.5530   52.4490   44.3570 C.ar   93  C93         0.3532
   1999  O2        67.1960   51.4590   43.9740 O.2    93  C93        -0.2443
   2000  N3        66.2190   53.4590   43.5160 N.ar   93  C93        -0.1739
   2001  C4        65.5280   54.5080   43.9730 C.ar   93  C93         0.1759
   2002  N4        65.2050   55.4740   43.1120 N.pl3  93  C93        -0.1070
   2003  C5        65.1340   54.6100   45.3300 C.ar   93  C93         0.0566
   2004  C6        65.4670   53.5990   46.1490 C.ar   93  C93         0.0850
   2005  OP1       64.3690   54.4740   51.5680 O.3    93  C93        -0.4373
   2006  OP2       64.0880   55.8220   49.3970 O.co2  93  C93        -0.5172
   2007  P         69.7000   52.5650   49.8930 P.3    94  A94         0.2141
   2008  C5'       71.3260   51.2530   48.2830 C.3    94  A94         0.1813
   2009  O5'       70.4900   52.3810   48.5190 O.3    94  A94        -0.3114
   2010  C4'       72.1460   51.4750   47.0270 C.3    94  A94         0.1801
   2011  O4'       71.2410   51.5380   45.8950 O.3    94  A94        -0.3306
   2012  C3'       72.9370   52.7780   46.9540 C.3    94  A94         0.2161
   2013  O3'       74.2300   52.6430   47.5390 O.3    94  A94        -0.2175
   2014  C2'       73.0700   52.9920   45.4540 C.3    94  A94         0.2337
   2015  O2'       74.1360   52.2370   44.9020 O.3    94  A94        -0.2155
   2016  C1'       71.7210   52.4710   44.9480 C.3    94  A94         0.2409
   2017  N1        69.3070   55.7450   41.7960 N.ar   94  A94        -0.2040
   2018  C2        70.2300   54.7980   41.5640 C.ar   94  A94         0.2016
   2019  N3        70.8120   53.9650   42.4210 N.ar   94  A94        -0.2048
   2020  C4        70.3480   54.1740   43.6660 C.ar   94  A94         0.1692
   2021  C5        69.4010   55.1060   44.0530 C.ar   94  A94         0.1518
   2022  C6        68.8720   55.9240   43.0630 C.ar   94  A94         0.1919
   2023  N6        67.9740   56.8740   43.3100 N.pl3  94  A94        -0.1054
   2024  N7        69.1620   55.0300   45.4150 N.ar   94  A94        -0.2193
   2025  C8        69.9620   54.0730   45.8210 C.ar   94  A94         0.1816
   2026  N9        70.7170   53.5210   44.8180 N.ar   94  A94        -0.2693
   2027  OP1       70.4720   51.9290   51.0000 O.3    94  A94        -0.4373
   2028  OP2       69.3110   54.0010   49.9890 O.co2  94  A94        -0.5172
@<TRIPOS>BOND
     1   734   733    2
     2   735   733   ar
     3   735   736   ar
     4   737   719    2
     5   733   732   ar
     6   736   729   ar
     7   732   730   ar
     8   738   719    1
     9   705   704    1
    10   719   703    1
    11   719   721    1
    12   729   730   ar
    13   729   728    1
    14   730   731    2
    15   723   728    1
    16   723   722    1
    17   728   726    1
    18   703   702    1
    19   721   720    1
    20   704   702    1
    21   704   706    1
    22   702   700    1
    23   722   720    1
    24   722   724    1
    25   726   727    1
    26   726   724    1
    27   706   716    1
    28   706   701    1
    29   716   715   ar
    30   716   710   ar
    31   724   725    1
    32   715   714   ar
    33   700   701    1
    34   700   698    1
    35   756   755    2
    36   710   709   ar
    37   710   711   ar
    38   709   708   ar
    39   714   711   ar
    40   699   698    1
    41   699   697    1
    42   711   712   ar
    43   718   697    2
    44   757   754   ar
    45   757   758   ar
    46   755   754   ar
    47   755   749   ar
    48   725   739    1
    49   708   707   ar
    50   717   697    1
    51   754   753   ar
    52   697   680    1
    53   712   707   ar
    54   712   713    1
    55   758   759   ar
    56   749   750   ar
    57   652   634    2
    58   753   759   ar
    59   753   752   ar
    60   760   739    2
    61   759   748    1
    62   750   752   ar
    63   750   751    1
    64   739   741    1
    65   739   761    1
    66   691   690    2
    67   673   654    2
    68   696   674    2
    69   653   634    1
    70   743   748    1
    71   743   742    1
    72   748   746    1
    73   680   679    1
    74   634   620    1
    75   634   636    1
    76   672   654    1
    77   690   684   ar
    78   690   689   ar
    79   741   740    1
    80   684   685   ar
    81   632   614    2
    82   431   430    1
    83   291   292   ar
    84   291   296   ar
    85   292   293   ar
    86   654   656    1
    87   654   640    1
    88   686   685    1
    89   679   681    1
    90   679   677    1
    91   685   687   ar
    92   689   692   ar
    93   689   688   ar
    94   695   674    1
    95   297   296    1
    96   296   295   ar
    97   293   294   ar
    98   692   693   ar
    99   674   676    1
   100   674   660    1
   101   436   415    2
   102   430   425   ar
   103   430   429   ar
   104   620   619    1
   105   635   636    1
   106   635   637    1
   107   681   682    1
   108   681   683    1
   109   409   408    2
   110   742   740    1
   111   742   744    1
   112   747   746    1
   113   688   687   ar
   114   688   694   ar
   115   746   744    1
   116   676   675    1
   117   425   426   ar
   118   633   614    1
   119   432   429   ar
   120   432   433   ar
   121   294   295   ar
   122   294   300   ar
   123   614   616    1
   124   614   597    1
   125   295   298   ar
   126   693   694   ar
   127   429   428   ar
   128   410   407   ar
   129   410   411   ar
   130   694   683    1
   131   656   655    1
   132   640   639    1
   133   616   615    1
   134   408   407   ar
   135   408   402   ar
   136   615   617    1
   137   300   290    1
   138   300   299   ar
   139   433   434   ar
   140   426   427   ar
   141   298   299   ar
   142   675   677    1
   143   677   678    1
   144   619   617    1
   145   619   621    1
   146   435   415    1
   147   744   745    1
   148   290   285    1
   149   290   288    1
   150   407   406   ar
   151   415   417    1
   152   415   398    1
   153   428   427   ar
   154   428   434   ar
   155   683   678    1
   156   639   637    1
   157   639   641    1
   158   660   659    1
   159   411   412   ar
   160   289   288    1
   161   637   638    1
   162   669   668    1
   163   421   420    1
   164   421   437    1
   165   422   420    1
   166   422   423    1
   167   422   424    1
   168   420   418    1
   169   434   424    1
   170   459   437    2
   171   285   284    1
   172   402   403   ar
   173   670   668   ar
   174   670   671   ar
   175  1607  1606   ar
   176  1607  1608   ar
   177   454   453    2
   178   659   657    1
   179   659   661    1
   180   617   618    1
   181   597   596    1
   182  1606  1611   ar
   183   655   657    1
   184   668   667   ar
   185  1648  1647    1
   186   650   651   ar
   187   650   648   ar
   188   417   416    1
   189   397   398    1
   190   397   399    1
   191   397   395    1
   192   288   286    1
   193   406   412   ar
   194   406   405   ar
   195   651   644   ar
   196   671   664   ar
   197  1629  1630   ar
   198  1629  1628   ar
   199   745   762    1
   200   412   401    1
   201   393   395    1
   202   393   394    1
   203   437   458    1
   204   437   439    1
   205   414   392    2
   206   621   622    1
   207   621   623    1
   208   424   419    1
   209   453   452   ar
   210   453   447   ar
   211   638   643    1
   212   455   452   ar
   213   455   456   ar
   214  1630  1631   ar
   215   403   405   ar
   216   403   404    1
   217  1608  1609   ar
   218   667   665   ar
   219   347   326    2
   220   657   658    1
   221   649   648    1
   222   661   663    1
   223   661   662    1
   224   452   451   ar
   225   399   401    1
   226   399   400    1
   227   641   643    1
   228   641   642    1
   229   284   286    1
   230   284   282    1
   231   648   647   ar
   232   664   665   ar
   233   664   663    1
   234   447   448   ar
   235  1611  1612    1
   236  1611  1610   ar
   237   418   416    1
   238   418   419    1
   239  1628  1633   ar
   240   395   396    1
   241   631   630   ar
   242   631   624   ar
   243   456   457   ar
   244   596   594    1
   245   596   598    1
   246   665   666    2
   247   630   628   ar
   248  1626  1625    1
   249   618   623    1
   250  1644  1649    1
   251  1644  1643    1
   252   612   591    2
   253   644   643    1
   254   644   645   ar
   255  1649  1647    1
   256  1649  1659    1
   257   368   349    2
   258   401   396    1
   259   286   287    1
   260  1647  1645    1
   261   394   392    1
   262   613   591    1
   263   780   779   ar
   264   780   781   ar
   265  1643  1645    1
   266  1643  1641    1
   267   367   349    1
   268   779   776   ar
   269   287   303    1
   270   592   594    1
   271   592   593    1
   272   658   663    1
   273   392   413    1
   274   392   375    1
   275   391   369    2
   276   623   624    1
   277   451   457   ar
   278   451   450   ar
   279  1652  1651   ar
   280  1652  1653   ar
   281  1609  1610   ar
   282  1609  1615   ar
   283   624   625   ar
   284   386   385    2
   285   448   450   ar
   286   448   449    1
   287  1646  1645    1
   288  1646  1662    1
   289   766   771    1
   290   766   765    1
   291   457   446    1
   292   647   645   ar
   293  1631  1637   ar
   294  1631  1632   ar
   295   762   783    2
   296   762   764    1
   297   762   782    1
   298   390   369    1
   299   439   438    1
   300   628   629    1
   301   628   627   ar
   302   594   595    1
   303  1610  1613   ar
   304  1627  1625    1
   305  1627  1637    1
   306  1627  1622    1
   307   282   283    1
   308   591   593    1
   309   591   574    1
   310   645   646    2
   311   599   598    1
   312   477   476    2
   313   349   332    1
   314   349   351    1
   315   598   600    1
   316   326   328    1
   317   326   348    1
   318   326   309    1
   319  1651  1650   ar
   320   441   446    1
   321   441   440    1
   322   781   771    1
   323   781   775   ar
   324  1625  1623    1
   325   387   384   ar
   326   387   388   ar
   327  1633  1632   ar
   328  1633  1634    1
   329  1641  1642    1
   330   327   328    1
   331   327   329    1
   332  1680  1662    2
   333   625   627   ar
   334   625   626    2
   335   776   775   ar
   336   776   777   ar
   337  1659  1653   ar
   338  1659  1658   ar
   339   369   371    1
   340   369   355    1
   341   771   769    1
   342   324   303    2
   343   764   763    1
   344   385   384   ar
   345   385   379   ar
   346   283   281    1
   347   763   765    1
   348  1637  1636   ar
   349   778   777    1
   350  1653  1654   ar
   351  1622  1621    1
   352   446   444    1
   353   304   305    1
   354   304   306    1
   355  1615  1605    1
   356  1615  1614   ar
   357   438   440    1
   358  1632  1635   ar
   359   384   383   ar
   360   765   767    1
   361   303   305    1
   362   303   325    1
   363   332   331    1
   364   388   389   ar
   365   476   470   ar
   366   476   475   ar
   367   775   774   ar
   368   777   772   ar
   369   371   370    1
   370  1605  1603    1
   371  1605  1600    1
   372   375   374    1
   373  1604  1603    1
   374  1662  1681    1
   375  1662  1664    1
   376   309   308    1
   377  1613  1614   ar
   378   470   471   ar
   379   374   376    1
   380   374   372    1
   381   379   380   ar
   382   595   600    1
   383  1650  1655   ar
   384   440   442    1
   385   351   350    1
   386  1663  1664    1
   387  1663  1665    1
   388  1603  1601    1
   389  1621  1623    1
   390  1621  1619    1
   391   574   573    1
   392  1309  1308   ar
   393  1309  1310   ar
   394  1308  1313   ar
   395   478   475   ar
   396   478   479   ar
   397  1642  1640    1
   398   475   474   ar
   399   600   611    1
   400   329   331    1
   401   329   330    1
   402  1658  1657   ar
   403  1623  1624    1
   404   331   333    1
   405   383   389   ar
   406   383   382   ar
   407   389   378    1
   408   376   378    1
   409   376   377    1
   410   774   773   ar
   411  1624  1640    1
   412  1636  1635   ar
   413   772   773   ar
   414   306   308    1
   415   306   307    1
   416   355   354    1
   417  1654  1655   ar
   418  1654  1657   ar
   419   769   770    1
   420   769   767    1
   421   610   611   ar
   422   610   609   ar
   423   370   372    1
   424  1600  1599    1
   425   281   301    2
   426   281   302    1
   427   281   264    1
   428   500   499    2
   429   308   310    1
   430   471   472    1
   431   471   473   ar
   432  1665  1666    1
   433  1665  1667    1
   434   611   605   ar
   435   380   382   ar
   436   380   381    1
   437  1666  1671    1
   438   444   442    1
   439   444   445    1
   440   767   768    1
   441  1310  1311   ar
   442   442   443    1
   443  1655  1656    1
   444   479   480   ar
   445   350   352    1
   446  1660  1640    2
   447  1313  1314    1
   448  1313  1312   ar
   449   474   473   ar
   450   474   480   ar
   451   372   373    1
   452   609   606   ar
   453  1640  1661    1
   454   493   499   ar
   455   493   494   ar
   456   378   373    1
   457   354   352    1
   458   354   356    1
   459   499   498   ar
   460   605   606   ar
   461   605   604   ar
   462  1619  1620    1
   463   573   575    1
   464   573   571    1
   465   330   335    1
   466   480   469    1
   467   576   575    1
   468   606   607   ar
   469  1601  1599    1
   470  1601  1602    1
   471   495   494    1
   472   604   602   ar
   473  1331  1332   ar
   474  1331  1330   ar
   475   264   263    1
   476  1311  1312   ar
   477  1311  1317   ar
   478   307   312    1
   479   575   577    1
   480   333   334    1
   481   333   335    1
   482   494   496   ar
   483  1599  1597    1
   484   768   784    1
   485  1312  1315   ar
   486  1332  1333   ar
   487   352   353    1
   488  1671  1669    1
   489  1671  1672    1
   490   800   799    1
   491  1620  1618    1
   492   365   366   ar
   493   365   363   ar
   494   310   311    1
   495   310   312    1
   496  1670  1669    1
   497  1667  1668    1
   498  1667  1669    1
   499   498   501   ar
   500   498   497   ar
   501  1602  1618    1
   502   607   601   ar
   503   607   608    2
   504  1668  1682    1
   505   602   601   ar
   506   602   603    1
   507   443   460    1
   508   366   359   ar
   509  1330  1335   ar
   510   482   460    2
   511   801   802   ar
   512   801   798   ar
   513   345   346   ar
   514   345   344   ar
   515   356   357    1
   516   356   358    1
   517   335   346    1
   518   469   464    1
   519   469   467    1
   520   364   363    2
   521  1581  1580    1
   522   464   463    1
   523   571   569    1
   524   571   572    1
   525   501   502   ar
   526  1679  1672   ar
   527  1679  1678   ar
   528   363   362   ar
   529  1616  1596    2
   530  1317  1307    1
   531  1317  1316   ar
   532   496   497   ar
   533  1585  1584    1
   534   569   570    1
   535   799   798   ar
   536   799   794   ar
   537   589   568    2
   538   497   503   ar
   539   312   323    1
   540   802   803   ar
   541  1672  1673   ar
   542  1315  1316   ar
   543   570   568    1
   544  1307  1302    1
   545  1307  1305    1
   546   346   340   ar
   547   798   797   ar
   548  1328  1327    1
   549   353   358    1
   550  1333  1339   ar
   551  1333  1334   ar
   552   344   341   ar
   553   322   323   ar
   554   322   321   ar
   555   266   265    1
   556   359   358    1
   557   359   360   ar
   558  1329  1324    1
   559  1329  1339    1
   560  1329  1327    1
   561  1598  1597    1
   562  1598  1596    1
   563   263   265    1
   564   263   261    1
   565  1618  1639    2
   566  1618  1638    1
   567   805   784    2
   568   460   462    1
   569   460   481    1
   570  1306  1305    1
   571   462   461    1
   572  1324  1323    1
   573   362   360   ar
   574  1703  1682    2
   575   323   317   ar
   576   784   786    1
   577   784   804    1
   578   577   588    1
   579   577   572    1
   580  1335  1334   ar
   581  1335  1336    1
   582  1678  1676   ar
   583   502   503   ar
   584   794   795   ar
   585   568   590    1
   586   568   554    1
   587   265   267    1
   588  1339  1338   ar
   589   360   361    2
   590  1394  1393    2
   591  1302  1301    1
   592   503   492    1
   593   321   318   ar
   594  1682  1704    1
   595  1682  1684    1
   596  1596  1579    1
   597  1596  1617    1
   598  1579  1578    1
   599   803   797   ar
   600   803   793    1
   601   588   587   ar
   602   588   582   ar
   603  1305  1303    1
   604   797   796   ar
   605  1334  1337   ar
   606  1327  1325    1
   607   822   821    1
   608   587   586   ar
   609  1584  1586   ar
   610  1584  1583   ar
   611   340   341   ar
   612   340   339   ar
   613   467   465    1
   614   467   468    1
   615   788   793    1
   616   788   787    1
   617  1586  1587   ar
   618   461   463    1
   619   341   342   ar
   620   463   465    1
   621   786   785    1
   622  1580  1578    1
   623  1580  1582    1
   624   582   581   ar
   625   582   583   ar
   626  1673  1674    2
   627  1673  1675   ar
   628   581   579   ar
   629   261   259    1
   630   261   262    1
   631   586   583   ar
   632  1323  1325    1
   633  1323  1321    1
   634   583   584   ar
   635   795   796   ar
   636   816   821   ar
   637   816   817   ar
   638  1395  1393   ar
   639  1395  1396   ar
   640   259   260    1
   641   579   580    1
   642   579   578   ar
   643  1393  1392   ar
   644   317   318   ar
   645   317   316   ar
   646  1683  1684    1
   647  1683  1685    1
   648  1578  1576    1
   649   793   791    1
   650   821   820   ar
   651  1414  1413    2
   652   584   578   ar
   653   584   585    2
   654   318   319   ar
   655   465   466    1
   656   785   787    1
   657   492   487    1
   658   492   490    1
   659  1582  1577    1
   660  1582  1593    1
   661  1676  1675   ar
   662  1676  1677    1
   663  1338  1337   ar
   664   339   337   ar
   665  1583  1589   ar
   666  1301  1303    1
   667  1301  1299    1
   668   817   818   ar
   669   342   343    2
   670   342   336   ar
   671   487   486    1
   672  1325  1326    1
   673  1397  1396    1
   674   316   314   ar
   675   787   789    1
   676   554   553    1
   677  1321  1322    1
   678   267   262    1
   679   267   278    1
   680  1396  1398   ar
   681  1587  1593   ar
   682  1587  1588   ar
   683  1303  1304    1
   684  1413  1415   ar
   685  1413  1412   ar
   686  1410  1409    1
   687  1411  1406    1
   688  1411  1412    1
   689  1411  1409    1
   690  1392  1391    1
   691  1392  1399   ar
   692  1391  1386    1
   693  1391  1389    1
   694   820   823   ar
   695   820   819   ar
   696  1326  1342    1
   697  1577  1576    1
   698  1685  1686    1
   699  1685  1687    1
   700  1686  1691    1
   701   319   320    2
   702   319   313   ar
   703  1593  1592   ar
   704  1415  1416   ar
   705  1390  1389    1
   706   260   258    1
   707  1576  1574    1
   708   337   336   ar
   709   337   338    1
   710  1406  1405    1
   711  1300  1299    1
   712  1300  1298    1
   713  1412  1419   ar
   714   567   548    2
   715   818   819   ar
   716   823   824   ar
   717  1360  1342    2
   718   280   258    2
   719   490   491    1
   720   490   488    1
   721   314   313   ar
   722   314   315    1
   723   279   258    1
   724   278   277   ar
   725   278   272   ar
   726   819   825   ar
   727  1386  1385    1
   728  1322  1320    1
   729   505   483    2
   730   466   483    1
   731   791   789    1
   732   791   792    1
   733  1304  1320    1
   734   553   555    1
   735   553   551    1
   736  1319  1298    2
   737  1361  1342    1
   738  1409  1407    1
   739   566   548    1
   740  1398  1399   ar
   741  1589  1588   ar
   742  1589  1590    2
   743  1562  1561    1
   744  1389  1387    1
   745   789   790    1
   746  1342  1344    1
   747  1588  1591   ar
   748   555   556    1
   749   555   557    1
   750   258   242    1
   751   843   842    1
   752  1416  1417    1
   753  1416  1418   ar
   754   277   276   ar
   755   485   483    1
   756   485   484    1
   757   271   272   ar
   758   271   269   ar
   759   486   484    1
   760   486   488    1
   761  1405  1407    1
   762  1405  1403    1
   763   272   273   ar
   764  1419  1418   ar
   765   824   825   ar
   766   548   550    1
   767   548   534    1
   768  1298  1318    1
   769  1298  1284    1
   770   483   504    1
   771  1701  1702   ar
   772  1701  1700   ar
   773   825   815    1
   774  1691  1702    1
   775  1691  1689    1
   776   488   489    1
   777  1592  1591   ar
   778  1426  1431    1
   779  1426  1425    1
   780   841   842   ar
   781   841   839   ar
   782  1687  1688    1
   783  1687  1689    1
   784  1320  1341    2
   785  1320  1340    1
   786   547   528    2
   787  1574  1575    1
   788   270   269    1
   789  1560  1561   ar
   790  1560  1566   ar
   791   546   528    1
   792   842   844   ar
   793   269   268   ar
   794  1561  1563   ar
   795   276   273   ar
   796  1385  1387    1
   797  1385  1383    1
   798   550   549    1
   799  1407  1408    1
   800  1702  1696   ar
   801  1688  1705    1
   802   273   274   ar
   803  1434  1433    2
   804  1431  1432    1
   805  1431  1429    1
   806  1700  1697   ar
   807  1575  1573    1
   808  1425  1423    1
   809  1425  1427    1
   810  1403  1404    1
   811   551   549    1
   812   551   552    1
   813   790   806    1
   814  1430  1429    1
   815   840   839    2
   816  1387  1388    1
   817   560   559    2
   818   561   559   ar
   819   561   562   ar
   820   563   562    2
   821   559   558   ar
   822   562   564   ar
   823  1358  1356   ar
   824  1358  1359   ar
   825   839   838   ar
   826   558   557    1
   827   558   565   ar
   828   815   810    1
   829   815   813    1
   830   564   565   ar
   831  1357  1356    2
   832   557   552    1
   833  1689  1690    1
   834  1423  1424    1
   835  1408  1422    1
   836  1567  1566    2
   837  1344  1343    1
   838   528   530    1
   839   528   512    1
   840   526   506    2
   841   268   274   ar
   842   860   859    2
   843   242   241    1
   844   810   809    1
   845  1566  1565   ar
   846   861   859   ar
   847   861   862   ar
   848  1284  1283    1
   849  1433  1432   ar
   850  1433  1435   ar
   851  1724  1705    2
   852   534   533    1
   853   863   862    1
   854  1563  1564   ar
   855   844   845   ar
   856   274   275    2
   857   256   236    2
   858  1432  1439   ar
   859   489   506    1
   860  1383  1384    1
   861  1404  1402    1
   862  1723  1705    1
   863  1388  1402    1
   864  1356  1355   ar
   865  1429  1427    1
   866  1705  1707    1
   867   257   236    1
   868  1696  1697   ar
   869  1696  1695   ar
   870   859   858   ar
   871   234   213    2
   872   827   806    2
   873  1697  1698   ar
   874  1343  1345    1
   875  1359  1352   ar
   876   862   864   ar
   877  1435  1436   ar
   878  1286  1285    1
   879   880   879    2
   880  1384  1382    1
   881   838   845   ar
   882   838   837    1
   883   808   806    1
   884   808   807    1
   885  1424  1422    1
   886  1427  1428    1
   887   530   529    1
   888   806   826    1
   889   241   243    1
   890   241   239    1
   891   236   238    1
   892   236   219    1
   893  1439  1438   ar
   894   533   531    1
   895   533   535    1
   896   506   527    1
   897   506   508    1
   898  1564  1565   ar
   899  1564  1570   ar
   900   512   511    1
   901   238   237    1
   902  1565  1568   ar
   903  1428  1442    1
   904  1573  1594    2
   905  1573  1556    1
   906  1573  1595    1
   907  1558  1557    1
   908   813   814    1
   909   813   811    1
   910  1422  1440    2
   911  1422  1441    1
   912  1283  1285    1
   913  1283  1281    1
   914  1695  1693   ar
   915  1285  1287    1
   916   529   531    1
   917  1436  1438   ar
   918  1436  1437    2
   919  1402  1421    2
   920  1402  1420    1
   921  1557  1555    1
   922  1557  1559    1
   923   809   807    1
   924   809   811    1
   925   237   239    1
   926   858   857    1
   927   858   865   ar
   928   879   881   ar
   929   879   878   ar
   930  1698  1699    2
   931  1698  1692   ar
   932   837   832    1
   933   837   835    1
   934   864   865   ar
   935  1446  1445    1
   936  1446  1451    1
   937   881   882   ar
   938  1556  1555    1
   939   243   244    1
   940   243   245    1
   941  1355  1353   ar
   942   213   235    1
   943   213   215    1
   944   213   197    1
   945  1707  1706    1
   946  1443  1445    1
   947  1443  1444    1
   948   896   895    1
   949   811   812    1
   950   531   532    1
   951  1352  1353   ar
   952  1352  1351    1
   953   239   240    1
   954   535   536    1
   955   535   537    1
   956   876   875    1
   957   857   852    1
   958   857   855    1
   959  1570  1559    1
   960  1570  1569   ar
   961   507   508    1
   962   507   509    1
   963  1345  1346    1
   964  1345  1347    1
   965   511   509    1
   966   511   513    1
   967  1568  1569   ar
   968   254   253   ar
   969   254   255   ar
   970   900   899    1
   971   832   831    1
   972   877   878    1
   973   877   875    1
   974   877   872    1
   975  1555  1553    1
   976   897   892    1
   977   897   895    1
   978   897   908    1
   979  1445  1447    1
   980  1693  1692   ar
   981  1693  1694    1
   982  1444  1442    1
   983  1346  1351    1
   984  1463  1442    2
   985  1721  1722   ar
   986  1721  1719   ar
   987   892   891    1
   988   544   545   ar
   989   544   542   ar
   990  1382  1400    2
   991  1382  1401    1
   992  1382  1368    1
   993   878   885   ar
   994   545   538   ar
   995  1559  1554    1
   996  1442  1464    1
   997  1706  1708    1
   998   901   899   ar
   999   901   902   ar
  1000   212   191    2
  1001   253   250   ar
  1002  1281  1279    1
  1003  1281  1282    1
  1004   219   218    1
  1005   215   214    1
  1006  1451  1462    1
  1007  1451  1449    1
  1008  1720  1719    2
  1009  1290  1289    2
  1010   882   883    1
  1011   882   884   ar
  1012  1353  1354    2
  1013   852   851    1
  1014   875   873    1
  1015  1347  1349    1
  1016  1347  1348    1
  1017   899   898   ar
  1018  1722  1715   ar
  1019   509   510    1
  1020  1351  1349    1
  1021  1484  1465    2
  1022  1349  1350    1
  1023   835   836    1
  1024   835   833    1
  1025  1287  1288    1
  1026  1287  1282    1
  1027   856   855    1
  1028  1455  1453   ar
  1029  1455  1456   ar
  1030  1454  1453    1
  1031  1368  1367    1
  1032   543   542    1
  1033   197   196    1
  1034   542   541   ar
  1035  1719  1718   ar
  1036   895   893    1
  1037  1462  1456   ar
  1038  1462  1461   ar
  1039   908   902   ar
  1040   908   907   ar
  1041   538   537    1
  1042   538   539   ar
  1043   855   853    1
  1044   902   903   ar
  1045  1453  1452   ar
  1046   214   216    1
  1047   532   537    1
  1048   891   889    1
  1049   891   893    1
  1050  1483  1465    1
  1051  1456  1457   ar
  1052   245   255    1
  1053   245   240    1
  1054   872   871    1
  1055  1279  1280    1
  1056   211   191    1
  1057   255   249   ar
  1058  1709  1708    1
  1059  1709  1714    1
  1060  1289  1288   ar
  1061  1289  1291   ar
  1062  1461  1460   ar
  1063  1280  1278    1
  1064   885   884   ar
  1065   218   216    1
  1066   218   220    1
  1067   513   514    1
  1068   513   515    1
  1069   812   828    1
  1070  1452  1458   ar
  1071  1288  1295   ar
  1072  1296  1278    2
  1073  1457  1460   ar
  1074  1457  1458   ar
  1075   847   828    2
  1076   191   193    1
  1077   191   175    1
  1078  1450  1449    1
  1079  1348  1362    1
  1080   541   539   ar
  1081   915   914    1
  1082   915   920    1
  1083   898   904   ar
  1084   539   540    2
  1085  1458  1459    2
  1086  1708  1710    1
  1087  1553  1554    1
  1088  1553  1551    1
  1089  1465  1448    1
  1090  1465  1467    1
  1091   831   833    1
  1092   831   829    1
  1093   907   906   ar
  1094   830   828    1
  1095   830   829    1
  1096   250   249   ar
  1097   250   251   ar
  1098  1449  1447    1
  1099  1291  1292   ar
  1100  1715  1714    1
  1101  1715  1716   ar
  1102  1447  1448    1
  1103   914   912    1
  1104   914   916    1
  1105   889   890    1
  1106   903   904   ar
  1107   903   906   ar
  1108   192   193    1
  1109   192   194    1
  1110  1545  1544    1
  1111   893   894    1
  1112   833   834    1
  1113   216   217    1
  1114  1718  1716   ar
  1115   919   918    1
  1116  1370  1369    1
  1117   912   913    1
  1118  1295  1294   ar
  1119   828   846    1
  1120   920   918    1
  1121   920   931    1
  1122   851   853    1
  1123   851   849    1
  1124  1278  1297    1
  1125  1278  1264    1
  1126   196   194    1
  1127   196   198    1
  1128   510   515    1
  1129   249   248   ar
  1130   871   873    1
  1131   871   869    1
  1132   904   905    2
  1133   894   911    1
  1134   873   874    1
  1135  1714  1712    1
  1136  1367  1369    1
  1137  1367  1365    1
  1138   524   525   ar
  1139   524   523   ar
  1140   853   854    1
  1141   252   251    1
  1142  1292  1294   ar
  1143  1292  1293    1
  1144  1716  1717    2
  1145   515   525    1
  1146   194   195    1
  1147   220   221    1
  1148   220   222    1
  1149   251   246   ar
  1150  1543  1544   ar
  1151  1543  1541   ar
  1152  1710  1712    1
  1153  1710  1711    1
  1154   173   172    1
  1155   173   178    1
  1156   525   519   ar
  1157   175   174    1
  1158   874   888    1
  1159  1552  1551    1
  1160  1552  1550    1
  1161  1544  1546   ar
  1162   890   888    1
  1163  1369  1371    1
  1164   523   520   ar
  1165   918   916    1
  1166   181   180   ar
  1167   181   182   ar
  1168  1467  1466    1
  1169   232   231   ar
  1170   232   233   ar
  1171   180   179   ar
  1172   850   849    1
  1173   850   848    1
  1174   931   930   ar
  1175   931   925   ar
  1176   172   174    1
  1177   172   170    1
  1178  1365  1363    1
  1179  1365  1366    1
  1180  1362  1364    1
  1181  1362  1381    2
  1182  1362  1380    1
  1183   916   917    1
  1184   913   911    1
  1185  1363  1364    1
  1186   199   198    1
  1187   217   222    1
  1188   231   228   ar
  1189   834   848    1
  1190   917   934    1
  1191  1524  1523    2
  1192   248   247   ar
  1193   198   200    1
  1194   930   929   ar
  1195   178   176    1
  1196   178   188    1
  1197   869   870    1
  1198   911   932    2
  1199   911   933    1
  1200  1506  1485    2
  1201  1712  1713    1
  1202   854   868    1
  1203   174   176    1
  1204  1264  1263    1
  1205   519   520   ar
  1206   519   518   ar
  1207   867   848    2
  1208   924   925   ar
  1209   924   922   ar
  1210   520   521   ar
  1211   222   233    1
  1212  1542  1541    2
  1213   925   926   ar
  1214  1711  1725    1
  1215   233   227   ar
  1216  1541  1540   ar
  1217   177   176    1
  1218   935   937    1
  1219   935   936    1
  1220   870   868    1
  1221  1481  1482   ar
  1222  1481  1479   ar
  1223  1501  1500    1
  1224   246   247   ar
  1225  1744  1725    2
  1226   888   909    2
  1227   888   910    1
  1228  1740  1739    2
  1229   848   866    1
  1230  1546  1547   ar
  1231  1572  1550    2
  1232  1480  1479    1
  1233  1466  1468    1
  1234   195   200    1
  1235   179   184   ar
  1236   170   171    1
  1237   938   937    1
  1238   938   943    1
  1239   182   188   ar
  1240   182   183   ar
  1241   937   939    1
  1242  1550  1571    1
  1243  1550  1536    1
  1244   518   517   ar
  1245   929   926   ar
  1246   228   227   ar
  1247   228   229   ar
  1248  1371  1366    1
  1249  1371  1372    1
  1250   922   923    1
  1251   922   921   ar
  1252  1523  1517   ar
  1253  1523  1522   ar
  1254   521   522    1
  1255   521   516   ar
  1256   926   927   ar
  1257   188   187   ar
  1258  1482  1475   ar
  1259   227   226   ar
  1260  1266  1265    1
  1261  1479  1478   ar
  1262   200   210    1
  1263  1741  1739   ar
  1264  1741  1742   ar
  1265   868   887    2
  1266   868   886    1
  1267  1263  1265    1
  1268  1263  1261    1
  1269  1725  1743    1
  1270  1725  1727    1
  1271  1739  1738   ar
  1272   952   934    2
  1273   934   936    1
  1274   934   953    1
  1275  1540  1547   ar
  1276  1540  1539    1
  1277  1265  1267    1
  1278  1517  1518   ar
  1279   517   516   ar
  1280  1502  1499   ar
  1281  1502  1503   ar
  1282  1485  1505    1
  1283  1485  1471    1
  1284  1485  1487    1
  1285   230   229    2
  1286   229   223   ar
  1287  1500  1499   ar
  1288  1500  1495   ar
  1289  1537  1535    1
  1290  1537  1538    1
  1291  1537  1539    1
  1292   921   927   ar
  1293   943   941    1
  1294   943   944    1
  1295  1374  1373    2
  1296   927   928    2
  1297   210   209   ar
  1298   210   204   ar
  1299   184   183   ar
  1300   184   185    1
  1301   942   941    1
  1302  1525  1522   ar
  1303  1525  1526   ar
  1304  1522  1521   ar
  1305   183   186   ar
  1306  1470  1468    1
  1307  1470  1471    1
  1308  1470  1472    1
  1309   209   208   ar
  1310  1468  1469    1
  1311  1536  1535    1
  1312   171   169    1
  1313   226   224   ar
  1314  1499  1498   ar
  1315  1372  1373   ar
  1316  1372  1379   ar
  1317  1535  1533    1
  1318   940   939    1
  1319   940   954    1
  1320  1742  1735   ar
  1321  1529  1507    2
  1322   939   941    1
  1323  1762  1761    2
  1324  1539  1534    1
  1325  1475  1476   ar
  1326  1475  1474    1
  1327  1503  1504   ar
  1328  1469  1474    1
  1329  1727  1726    1
  1330  1270  1269    2
  1331  1478  1476   ar
  1332   187   186   ar
  1333  1738  1736   ar
  1334  1373  1375   ar
  1335  1784  1783    1
  1336   951   944   ar
  1337   951   950   ar
  1338  1495  1496   ar
  1339  1518  1519    1
  1340  1518  1520   ar
  1341  1487  1486    1
  1342   223   224   ar
  1343   204   203   ar
  1344   204   205   ar
  1345  1261  1259    1
  1346  1261  1262    1
  1347   944   945   ar
  1348   208   205   ar
  1349  1549  1530    2
  1350  1269  1271   ar
  1351  1269  1268   ar
  1352   224   225    1
  1353  1271  1272   ar
  1354   203   202   ar
  1355   190   169    2
  1356  1267  1268    1
  1357  1267  1262    1
  1358  1379  1378   ar
  1359  1842  1841    1
  1360  1801  1800   ar
  1361  1801  1802   ar
  1362  1800  1805   ar
  1363  1268  1275   ar
  1364  1526  1527   ar
  1365  1476  1477    2
  1366  1521  1520   ar
  1367  1521  1527   ar
  1368  1259  1260    1
  1369  1474  1472    1
  1370   205   206   ar
  1371  1272  1273    1
  1372  1272  1274   ar
  1373  1260  1258    1
  1374  1472  1473    1
  1375   157   156    1
  1376   950   948   ar
  1377  1735  1736   ar
  1378  1735  1734    1
  1379  1532  1530    1
  1380  1532  1531    1
  1381   974   954    2
  1382   169   155    1
  1383   169   189    1
  1384  1498  1504   ar
  1385  1498  1497   ar
  1386  1275  1274   ar
  1387  1761  1755   ar
  1388  1761  1760   ar
  1389  1736  1737    2
  1390  1726  1728    1
  1391  1823  1824   ar
  1392  1823  1822   ar
  1393  1534  1533    1
  1394  1778  1783   ar
  1395  1778  1779   ar
  1396  1504  1494    1
  1397  1783  1782   ar
  1398   202   201   ar
  1399   954   975    1
  1400   954   956    1
  1401  1533  1531    1
  1402  1375  1376   ar
  1403  1824  1825   ar
  1404  1507  1528    1
  1405  1507  1509    1
  1406  1507  1491    1
  1407  1276  1258    2
  1408  1496  1497   ar
  1409   945   946    2
  1410   945   947   ar
  1411  1530  1548    1
  1412  1530  1513    1
  1413  1729  1734    1
  1414  1729  1728    1
  1415  1527  1516    1
  1416  1820  1819    1
  1417  1802  1803   ar
  1418  1277  1258    1
  1419  1486  1488    1
  1420   206   201   ar
  1421   206   207    1
  1422   155   154    1
  1423  1378  1376   ar
  1424  1258  1241    1
  1425  1755  1756   ar
  1426  1763  1760   ar
  1427  1763  1764   ar
  1428  1490  1491    1
  1429  1490  1488    1
  1430  1490  1492    1
  1431  1805  1806    1
  1432  1805  1804   ar
  1433  1843  1838    1
  1434  1843  1841    1
  1435  1843  1854    1
  1436  1838  1837    1
  1437  1509  1508    1
  1438   948   947   ar
  1439   948   949    1
  1440  1841  1839    1
  1441  1760  1759   ar
  1442  1837  1839    1
  1443  1837  1835    1
  1444  1734  1732    1
  1445  1822  1827   ar
  1446   156   154    1
  1447   156   158    1
  1448   955   956    1
  1449   955   957    1
  1450  1376  1377    2
  1451  1728  1730    1
  1452  1858  1860    1
  1453  1858  1859    1
  1454  1860  1861    1
  1455  1860  1862    1
  1456  1779  1780   ar
  1457  1846  1845    1
  1458  1861  1866    1
  1459  1782  1785   ar
  1460  1782  1781   ar
  1461  1488  1489    1
  1462  1821  1819    1
  1463  1821  1816    1
  1464  1821  1831    1
  1465  1489  1494    1
  1466  1847  1845   ar
  1467  1847  1848   ar
  1468  1494  1492    1
  1469  1492  1493    1
  1470  1512  1514    1
  1471  1512  1513    1
  1472  1512  1510    1
  1473  1840  1839    1
  1474  1840  1857    1
  1475  1825  1831   ar
  1476  1825  1826   ar
  1477  1514  1516    1
  1478  1514  1515    1
  1479  1865  1864    1
  1480  1819  1817    1
  1481  1803  1804   ar
  1482  1803  1809   ar
  1483   154   152    1
  1484  1785  1786   ar
  1485  1730  1732    1
  1486  1730  1731    1
  1487  1516  1511    1
  1488  1835  1836    1
  1489  1804  1807   ar
  1490   161   160    2
  1491  1845  1844   ar
  1492  1764  1765   ar
  1493  1854  1848   ar
  1494  1854  1853   ar
  1495   958   957    1
  1496   958   963    1
  1497  1756  1757    1
  1498  1756  1758   ar
  1499  1816  1815    1
  1500  1831  1830   ar
  1501  1866  1864    1
  1502  1866  1876    1
  1503  1848  1849   ar
  1504   957   959    1
  1505  1767  1745    2
  1506  1732  1733    1
  1507   158   153    1
  1508   158   159    1
  1509  1759  1758   ar
  1510  1759  1765   ar
  1511  1877  1857    2
  1512  1241  1240    1
  1513  1247  1246    1
  1514  1827  1826   ar
  1515  1827  1828    1
  1516  1508  1510    1
  1517  1252  1251    2
  1518  1245  1246   ar
  1519  1245  1251   ar
  1520  1859  1857    1
  1521  1863  1862    1
  1522  1863  1879    1
  1523  1511  1510    1
  1524  1781  1780   ar
  1525  1781  1787   ar
  1526  1862  1864    1
  1527  1826  1829   ar
  1528   152   153    1
  1529   152   150    1
  1530   972   971   ar
  1531   972   973   ar
  1532  1246  1248   ar
  1533  1857  1878    1
  1534  1251  1250   ar
  1535   971   968   ar
  1536  1815  1817    1
  1537  1815  1813    1
  1538  1809  1799    1
  1539  1809  1808   ar
  1540  1765  1754    1
  1541   160   159   ar
  1542   160   162   ar
  1543  1731  1745    1
  1544  1853  1852   ar
  1545  1786  1787   ar
  1546  1817  1818    1
  1547  1844  1850   ar
  1548  1240  1242    1
  1549  1240  1238    1
  1550  1897  1879    2
  1551   159   166   ar
  1552  1807  1808   ar
  1553  1242  1243    1
  1554  1242  1244    1
  1555  1799  1797    1
  1556  1799  1794    1
  1557  1248  1249   ar
  1558  1836  1834    1
  1559  1818  1834    1
  1560  1250  1249   ar
  1561  1250  1253   ar
  1562   963   973    1
  1563   963   961    1
  1564  1876  1875   ar
  1565  1876  1870   ar
  1566  1849  1850   ar
  1567  1849  1852   ar
  1568  1798  1797    1
  1569   973   967   ar
  1570  1830  1829   ar
  1571  1787  1777    1
  1572  1745  1747    1
  1573  1745  1766    1
  1574  1249  1255   ar
  1575   968   967   ar
  1576   968   969   ar
  1577   162   163   ar
  1578  1797  1795    1
  1579   959   960    1
  1580   959   961    1
  1581  1879  1881    1
  1582  1879  1898    1
  1583  1253  1254   ar
  1584  1875  1874   ar
  1585  1850  1851    2
  1586   150   151    1
  1587   970   969    1
  1588  1880  1881    1
  1589  1880  1882    1
  1590  1869  1870   ar
  1591  1869  1868   ar
  1592   967   966   ar
  1593  1257  1235    2
  1594  1255  1254   ar
  1595  1255  1244    1
  1596  1747  1746    1
  1597  1870  1871   ar
  1598  1813  1814    1
  1599   969   964   ar
  1600  1834  1855    2
  1601  1834  1856    1
  1602   166   165   ar
  1603   960   976    1
  1604  1794  1793    1
  1605  1754  1749    1
  1606  1754  1752    1
  1607  1237  1235    1
  1608  1237  1236    1
  1609  1256  1235    1
  1610  1749  1748    1
  1611   961   962    1
  1612  1244  1239    1
  1613  1238  1236    1
  1614  1238  1239    1
  1615  1883  1882    1
  1616  1883  1888    1
  1617   151   149    1
  1618  1882  1884    1
  1619  1235  1221    1
  1620   163   165   ar
  1621   163   164    1
  1622  1777  1775    1
  1623  1777  1772    1
  1624  1874  1871   ar
  1625   966   965   ar
  1626  1868  1867   ar
  1627   964   965   ar
  1628  1871  1872   ar
  1629  1814  1812    1
  1630   167   149    2
  1631  1746  1748    1
  1632  1795  1793    1
  1633  1795  1796    1
  1634  1752  1750    1
  1635  1752  1753    1
  1636   997   976    2
  1637  1793  1791    1
  1638  1748  1750    1
  1639  1775  1776    1
  1640  1775  1773    1
  1641  1772  1771    1
  1642   976   996    1
  1643   976   978    1
  1644  1750  1751    1
  1645   149   168    1
  1646   149   135    1
  1647  1888  1889    1
  1648  1888  1886    1
  1649  1867  1872   ar
  1650  1872  1873    1
  1651   992   991    1
  1652  1896  1889   ar
  1653  1896  1895   ar
  1654  1796  1812    1
  1655  1884  1885    1
  1656  1884  1886    1
  1657   137   136    1
  1658  1887  1886    1
  1659  1221  1220    1
  1660  1889  1890   ar
  1661  1812  1832    2
  1662  1812  1833    1
  1663  1230  1229    2
  1664  1789  1768    2
  1665  1773  1771    1
  1666  1773  1774    1
  1667  1885  1899    1
  1668   141   140    2
  1669  1895  1893   ar
  1670  1791  1792    1
  1671  1792  1790    1
  1672   991   990   ar
  1673   991   986   ar
  1674   978   977    1
  1675   993   990   ar
  1676   993   994   ar
  1677  1771  1769    1
  1678   136   134    1
  1679   136   138    1
  1680  1220  1218    1
  1681  1220  1222    1
  1682   135   134    1
  1683  1229  1231   ar
  1684  1229  1228   ar
  1685     1    22    1
  1686     1    23    1
  1687     1     3    1
  1688  1231  1232   ar
  1689  1751  1768    1
  1690   990   989   ar
  1691   986   987   ar
  1692  1216  1218    1
  1693  1216  1217    1
  1694  1769  1770    1
  1695   140   142   ar
  1696   140   139   ar
  1697     2     3    1
  1698     2     4    1
  1699   994   995   ar
  1700  1770  1768    1
  1701   977   979    1
  1702  1890  1891    2
  1703  1890  1892   ar
  1704  1768  1788    1
  1705   142   143   ar
  1706  1228  1226   ar
  1707   134   132    1
  1708  1232  1225   ar
  1709  1811  1790    2
  1710  1774  1790    1
  1711  1893  1892   ar
  1712  1893  1894    2
  1713  1920  1899    2
  1714    45    24    2
  1715   980   979    1
  1716   980   985    1
  1717  1218  1219    1
  1718  1222  1223    1
  1719  1222  1224    1
  1720  1899  1921    1
  1721  1899  1901    1
  1722  1234  1215    2
  1723   989   995   ar
  1724   989   988   ar
  1725  1790  1810    1
  1726   987   988   ar
  1727   138   139    1
  1728   138   133    1
  1729   995   985    1
  1730  1226  1225   ar
  1731  1226  1227    2
  1732   139   146   ar
  1733  1190  1169    2
  1734  1225  1224    1
  1735  1217  1215    1
  1736  1191  1169    1
  1737   143   144    2
  1738   143   145   ar
  1739    46    24    1
  1740   979   981    1
  1741  1214  1192    2
  1742  1167  1149    2
  1743     4     6    1
  1744     4     5    1
  1745  1233  1215    1
  1746  1215  1198    1
  1747   985   983    1
  1748     7    24    1
  1749     7     6    1
  1750    24    26    1
  1751  1224  1219    1
  1752   132   133    1
  1753   132   130    1
  1754  1013  1012    1
  1755  1169  1155    1
  1756  1169  1171    1
  1757   146   145   ar
  1758  1900  1901    1
  1759  1900  1902    1
  1760  1213  1192    1
  1761     6     8    1
  1762  1014  1012   ar
  1763  1014  1015   ar
  1764  1209  1208    2
  1765  1192  1194    1
  1766  1192  1175    1
  1767  1016   998    2
  1768  1012  1011   ar
  1769     5    10    1
  1770   981   983    1
  1771   981   982    1
  1772  1155  1154    1
  1773   117   118   ar
  1774   117   122   ar
  1775  1903  1902    1
  1776  1903  1908    1
  1777  1149  1168    1
  1778  1149  1151    1
  1779  1149  1133    1
  1780   130   131    1
  1781  1015  1008   ar
  1782   123   122    1
  1783  1150  1151    1
  1784  1150  1152    1
  1785   131   129    1
  1786   983   984    1
  1787  1171  1170    1
  1788  1210  1207   ar
  1789  1210  1211   ar
  1790  1902  1904    1
  1791  1208  1207   ar
  1792  1208  1202   ar
  1793    26    25    1
  1794  1198  1197    1
  1795   118   119   ar
  1796  1011  1009   ar
  1797  1194  1193    1
  1798   122   121   ar
  1799  1918  1917   ar
  1800  1918  1919   ar
  1801  1207  1206   ar
  1802  1154  1152    1
  1803  1154  1156    1
  1804  1175  1174    1
  1805  1197  1199    1
  1806  1197  1195    1
  1807     9     8    1
  1808    25    27    1
  1809  1917  1914   ar
  1810  1211  1212   ar
  1811     8    10    1
  1812  1008  1009   ar
  1813  1008  1007    1
  1814  1202  1203   ar
  1815  1170  1172    1
  1816  1009  1010    2
  1817    10    21    1
  1818   982   998    1
  1819   998  1000    1
  1820   998  1017    1
  1821  1133  1132    1
  1822  1152  1153    1
  1823    20    21   ar
  1824    20    19   ar
  1825   119   120   ar
  1826  1908  1919    1
  1827  1908  1906    1
  1828  1002  1007    1
  1829  1002  1001    1
  1830  1919  1913   ar
  1831  1174  1172    1
  1832  1174  1176    1
  1833  1199  1200    1
  1834  1199  1201    1
  1835   121   120   ar
  1836   121   124   ar
  1837  1206  1212   ar
  1838  1206  1205   ar
  1839  1193  1195    1
  1840   148   129    2
  1841   129   147    1
  1842   129   113    1
  1843  1212  1201    1
  1844  1187  1188   ar
  1845  1187  1184   ar
  1846  1007  1005    1
  1847  1904  1905    1
  1848  1904  1906    1
  1849  1000   999    1
  1850   120   126   ar
  1851    21    15   ar
  1852  1914  1913   ar
  1853  1914  1915   ar
  1854  1203  1205   ar
  1855  1203  1204    1
  1856  1188  1189   ar
  1857    66    47    2
  1858  1195  1196    1
  1859  1172  1173    1
  1860  1186  1185    2
  1861  1913  1912   ar
  1862    19    16   ar
  1863  1156  1157    1
  1864  1156  1158    1
  1865  1165  1166   ar
  1866  1165  1163   ar
  1867   124   125   ar
  1868  1166  1159   ar
  1869   999  1001    1
  1870  1916  1915    2
  1871  1905  1922    1
  1872  1201  1196    1
  1873    27    28    1
  1874    27    29    1
  1875   114   115    1
  1876   114   112    1
  1877   114   116    1
  1878  1184  1185   ar
  1879  1184  1183   ar
  1880  1915  1909   ar
  1881  1147  1127    2
  1882  1906  1907    1
  1883  1153  1158    1
  1884    65    47    1
  1885  1001  1003    1
  1886  1033  1032    1
  1887  1176  1178    1
  1888  1176  1177    1
  1889  1132  1130    1
  1890  1132  1134    1
  1891  1185  1179   ar
  1892   126   125   ar
  1893   126   116    1
  1894   113   112    1
  1895  1189  1183   ar
  1896  1189  1178    1
  1897    47    30    1
  1898    47    49    1
  1899  1135  1134    1
  1900   102   101    2
  1901    30    29    1
  1902    28    33    1
  1903    43    42   ar
  1904    43    44   ar
  1905  1173  1178    1
  1906    29    31    1
  1907  1912  1910   ar
  1908   112   110    1
  1909  1158  1159    1
  1910  1163  1164    2
  1911  1163  1162   ar
  1912  1159  1160   ar
  1913  1943  1922    2
  1914    15    16   ar
  1915    15    14   ar
  1916  1183  1182   ar
  1917    42    39   ar
  1918  1005  1003    1
  1919  1005  1006    1
  1920  1128  1130    1
  1921  1128  1129    1
  1922  1130  1131    1
  1923   116   111    1
  1924    16    17   ar
  1925  1134  1136    1
  1926  1909  1910   ar
  1927  1032  1034   ar
  1928  1032  1031   ar
  1929  1922  1942    1
  1930  1922  1924    1
  1931  1179  1180   ar
  1932  1003  1004    1
  1933  1910  1911    1
  1934  1148  1127    1
  1935  1127  1129    1
  1936  1127  1111    1
  1937   101   100   ar
  1938   101   103   ar
  1939  1034  1035   ar
  1940  1162  1160   ar
  1941  1031  1029   ar
  1942  1160  1161    2
  1943   100    98   ar
  1944  1938  1937    1
  1945    82    81    2
  1946    14    12   ar
  1947    44    33    1
  1948    44    38   ar
  1949  1182  1180   ar
  1950    33    31    1
  1951  1939  1940   ar
  1952  1939  1936   ar
  1953  1180  1181    1
  1954    49    48    1
  1955    31    32    1
  1956   110   111    1
  1957   110   108    1
  1958    39    38   ar
  1959    39    40   ar
  1960    17    18    2
  1961    17    11   ar
  1962   128   107    2
  1963  1131  1136    1
  1964  1035  1028   ar
  1965    86    67    2
  1966   103   104   ar
  1967  1924  1923    1
  1968  1940  1941   ar
  1969  1054  1053    1
  1970    62    61    1
  1971   109   108    1
  1972   109   107    1
  1973  1029  1028   ar
  1974  1029  1030    2
  1975    63    61   ar
  1976    63    64   ar
  1977  1136  1146    1
  1978  1937  1936   ar
  1979  1937  1932   ar
  1980  1936  1935   ar
  1981    98    99    2
  1982    98    97   ar
  1983  1004  1018    1
  1984  1111  1110    1
  1985    81    83   ar
  1986    81    80   ar
  1987    41    40    2
  1988    38    37   ar
  1989  1028  1027    1
  1990    12    11   ar
  1991    12    13    1
  1992  1048  1053   ar
  1993  1048  1049   ar
  1994    83    84   ar
  1995    40    34   ar
  1996    61    60   ar
  1997    48    50    1
  1998  1923  1925    1
  1999  1053  1052   ar
  2000  1145  1146   ar
  2001  1145  1144   ar
  2002    64    57   ar
  2003  1146  1140   ar
  2004   107   127    1
  2005   107    93    1
  2006  1037  1018    2
  2007  1072  1071    1
  2008   104    97   ar
  2009  1932  1933   ar
  2010  1941  1935   ar
  2011  1941  1931    1
  2012  1070  1071   ar
  2013  1070  1076   ar
  2014  1926  1925    1
  2015  1926  1931    1
  2016  1077  1076    2
  2017    97    96    1
  2018  1935  1934   ar
  2019  1022  1027    1
  2020  1022  1021    1
  2021    67    85    1
  2022    67    53    1
  2023    67    69    1
  2024    80    78   ar
  2025  1027  1025    1
  2026  1049  1050   ar
  2027   106    87    2
  2028  1018  1020    1
  2029  1018  1036    1
  2030  1961  1960    2
  2031  1144  1141   ar
  2032  1071  1073   ar
  2033  1076  1075   ar
  2034  1110  1112    1
  2035  1110  1108    1
  2036    94    92    1
  2037    94    96    1
  2038    94    95    1
  2039  1140  1139   ar
  2040  1140  1141   ar
  2041  1052  1055   ar
  2042  1052  1051   ar
  2043  2018  2017   ar
  2044  2018  2019   ar
  2045    37    35   ar
  2046  1020  1019    1
  2047  1925  1927    1
  2048    84    77   ar
  2049  1931  1929    1
  2050  1933  1934   ar
  2051    52    50    1
  2052    52    53    1
  2053    52    54    1
  2054  2017  2022   ar
  2055    92    93    1
  2056    92    90    1
  2057  1113  1112    1
  2058    60    58   ar
  2059    34    35   ar
  2060    50    51    1
  2061  1139  1138   ar
  2062  1055  1056   ar
  2063  1141  1142   ar
  2064    57    58   ar
  2065    57    56    1
  2066    96    91    1
  2067    69    68    1
  2068  1050  1051   ar
  2069  1019  1021    1
  2070  1112  1114    1
  2071  1982  1981    1
  2072    51    56    1
  2073  1051  1057   ar
  2074    35    36    1
  2075    78    77   ar
  2076    78    79    2
  2077  1108  1106    1
  2078  1108  1109    1
  2079  1021  1023    1
  2080  1106  1107    1
  2081    89    87    1
  2082    89    88    1
  2083  1960  1954   ar
  2084  1960  1959   ar
  2085  1073  1074   ar
  2086  2019  2020   ar
  2087  1075  1074   ar
  2088  1075  1078   ar
  2089    87   105    1
  2090    87    73    1
  2091    58    59    2
  2092    77    76    1
  2093  1927  1929    1
  2094  1927  1928    1
  2095  1025  1023    1
  2096  1025  1026    1
  2097  1138  1137   ar
  2098  1056  1057   ar
  2099    56    54    1
  2100  1142  1137   ar
  2101  1142  1143    1
  2102  1962  1959   ar
  2103  1962  1963   ar
  2104    54    55    1
  2105  1074  1080   ar
  2106  1929  1930    1
  2107  1954  1955   ar
  2108  1057  1047    1
  2109    91    90    1
  2110  2022  2023    1
  2111  2022  2021   ar
  2112  1959  1958   ar
  2113  2002  2001    1
  2114  1023  1024    1
  2115    90    88    1
  2116  1966  1944    2
  2117  1078  1079   ar
  2118  1981  1980   ar
  2119  1981  1983   ar
  2120    72    73    1
  2121    72    74    1
  2122    72    70    1
  2123    68    70    1
  2124  2000  2001   ar
  2125  2000  1998   ar
  2126  1107  1105    1
  2127  1980  1978   ar
  2128  1114  1109    1
  2129  1114  1124    1
  2130  2020  2021   ar
  2131  2020  2026   ar
  2132  1928  1944    1
  2133  1117  1116   ar
  2134  1117  1118   ar
  2135  1963  1964   ar
  2136    74    76    1
  2137    74    75    1
  2138    76    71    1
  2139  1116  1115   ar
  2140  1047  1042    1
  2141  1047  1045    1
  2142  2001  2003   ar
  2143  1999  1998    2
  2144  1080  1079   ar
  2145  1080  1069    1
  2146    71    70    1
  2147  2021  2024   ar
  2148  1955  1956    1
  2149  1955  1957   ar
  2150  1958  1964   ar
  2151  1958  1957   ar
  2152  1042  1041    1
  2153  1124  1118   ar
  2154  1124  1123   ar
  2155  1983  1984   ar
  2156  1118  1119   ar
  2157  1125  1105    2
  2158  1998  1997   ar
  2159  1944  1946    1
  2160  1944  1965    1
  2161  1024  1038    1
  2162  1105  1126    1
  2163  1105  1089    1
  2164  1115  1120   ar
  2165  1964  1953    1
  2166  1978  1979    2
  2167  1978  1977   ar
  2168  2026  2016    1
  2169  2026  2025   ar
  2170  1059  1038    2
  2171  2015  2014    1
  2172  2016  2014    1
  2173  2016  2011    1
  2174  1069  1064    1
  2175  1069  1067    1
  2176  1123  1122   ar
  2177  1119  1120   ar
  2178  1119  1122   ar
  2179  1946  1945    1
  2180  1120  1121    1
  2181  1045  1046    1
  2182  1045  1043    1
  2183  2003  2004   ar
  2184  1040  1038    1
  2185  1040  1039    1
  2186  1064  1063    1
  2187  2024  2025   ar
  2188  1984  1977   ar
  2189  2014  2012    1
  2190  1038  1058    1
  2191  1977  1976    1
  2192  1997  2004   ar
  2193  1997  1996    1
  2194  1041  1039    1
  2195  1041  1043    1
  2196  1948  1953    1
  2197  1948  1947    1
  2198  2011  2010    1
  2199  1953  1951    1
  2200  1089  1088    1
  2201  1043  1044    1
  2202  1067  1068    1
  2203  1067  1065    1
  2204  1945  1947    1
  2205  1996  1994    1
  2206  1996  1991    1
  2207  1061  1063    1
  2208  1061  1062    1
  2209  1063  1065    1
  2210  1947  1949    1
  2211  1976  1971    1
  2212  1976  1974    1
  2213  2012  2010    1
  2214  2012  2013    1
  2215  1088  1090    1
  2216  1088  1086    1
  2217  2010  2008    1
  2218  1951  1949    1
  2219  1951  1952    1
  2220  1949  1950    1
  2221  1994  1995    1
  2222  1994  1992    1
  2223  1065  1066    1
  2224  1091  1090    1
  2225  1090  1092    1
  2226  1094  1093   ar
  2227  1094  1095   ar
  2228  1044  1060    1
  2229  1093  1098   ar
  2230  1991  1990    1
  2231  1986  1967    2
  2232  1971  1970    1
  2233  1082  1060    2
  2234  1095  1096   ar
  2235  1974  1975    1
  2236  1974  1972    1
  2237  1062  1060    1
  2238  1098  1099    1
  2239  1098  1097   ar
  2240  2008  2009    1
  2241  1096  1097   ar
  2242  1096  1102   ar
  2243  1060  1081    1
  2244  1086  1084    1
  2245  1086  1087    1
  2246  1950  1967    1
  2247  1085  1084    1
  2248  1085  1083    1
  2249  1097  1100   ar
  2250  2009  2007    1
  2251  1972  1970    1
  2252  1972  1973    1
  2253  1066  1083    1
  2254  1992  1990    1
  2255  1992  1993    1
  2256  1092  1102    1
  2257  1092  1087    1
  2258  1102  1101   ar
  2259  1967  1969    1
  2260  1967  1985    1
  2261  1970  1968    1
  2262  1990  1988    1
  2263  1969  1968    1
  2264  1100  1101   ar
  2265  1989  1988    1
  2266  1989  1987    1
  2267  2006  1987    2
  2268  1083  1104    2
  2269  1083  1103    1
  2270  1993  2007    1
  2271  1973  1987    1
  2272  2007  2028    2
  2273  2007  2027    1
  2274  1987  2005    1
