ligand
  PyMOL2.3          3D                             0

 22 24  0  0  0  0  0  0  0  0999 V2000
   12.6190  -21.0030   26.7990 N   0  0  0  0  0  0  0  0  0  0  0  0
   14.4820  -21.0150   25.2950 N   0  0  0  0  0  0  0  0  0  0  0  0
   13.9790  -20.6540   26.4870 C   0  0  0  0  0  0  0  0  0  0  0  0
   14.6960  -19.9870   27.3830 N   0  0  0  0  0  0  0  0  0  0  0  0
   18.0660  -17.6200   26.3420 O   0  0  0  0  0  0  0  0  0  0  0  0
   15.9700  -19.6500   27.1100 C   0  0  0  0  0  0  0  0  0  0  0  0
   16.5320  -20.0050   25.8520 C   0  0  0  0  0  0  0  0  0  0  0  0
   16.6920  -18.9590   28.0570 O   0  0  0  0  0  0  0  0  0  0  0  0
   17.8910  -19.7290   25.4300 N   0  0  0  0  0  0  0  0  0  0  0  0
   18.5710  -20.7880   24.6730 C   0  0  0  0  0  0  0  0  0  0  0  0
   17.7290  -21.2350   23.5190 C   0  0  0  0  0  0  0  0  0  0  0  0
   15.7510  -20.7040   24.9660 C   0  0  0  0  0  0  0  0  0  0  0  0
   16.2890  -21.0770   23.7130 N   0  0  0  0  0  0  0  0  0  0  0  0
   18.9410  -22.0190   25.5200 C   0  0  0  0  0  0  0  0  0  0  0  0
   19.9270  -21.6630   26.5330 N   0  0  0  0  0  0  0  0  0  0  0  0
   24.0800  -22.3580   25.9240 C   0  0  0  0  0  0  0  0  0  0  0  0
   23.1660  -22.7490   24.9600 C   0  0  0  0  0  0  0  0  0  0  0  0
   21.7900  -22.5210   25.1550 C   0  0  0  0  0  0  0  0  0  0  0  0
   21.3480  -21.9050   26.3160 C   0  0  0  0  0  0  0  0  0  0  0  0
   22.2690  -21.5130   27.2830 C   0  0  0  0  0  0  0  0  0  0  0  0
   23.6340  -21.7380   27.0870 C   0  0  0  0  0  0  0  0  0  0  0  0
   18.5930  -18.5250   25.7170 C   0  0  0  0  0  0  0  0  0  0  0  0
  2  3  4  0  0  0  0
  2 12  4  0  0  0  0
  1  3  1  0  0  0  0
  3  4  4  0  0  0  0
  4  6  4  0  0  0  0
  5 22  1  0  0  0  0
  6  7  4  0  0  0  0
  6  8  2  0  0  0  0
  7 12  4  0  0  0  0
  7  9  1  0  0  0  0
  9 10  1  0  0  0  0
  9 22  1  0  0  0  0
 10 11  1  0  0  0  0
 10 14  1  0  0  0  0
 11 13  1  0  0  0  0
 12 13  1  0  0  0  0
 14 15  1  0  0  0  0
 15 19  1  0  0  0  0
 16 17  4  0  0  0  0
 16 21  4  0  0  0  0
 17 18  4  0  0  0  0
 18 19  4  0  0  0  0
 19 20  4  0  0  0  0
 20 21  4  0  0  0  0
M  END
$$$$
