ligand
 OpenBabel02271912143D
libRbt.so/2013.1/901 2013/11/27
 22 24  0  0  0  0  0  0  0  0999 V2000
   12.1580  -21.0723   26.8051 N   0  0  0  0  0  0  0  0  0  0  0  0
   14.0207  -21.0662   25.3007 N   0  0  0  0  0  0  0  0  0  0  0  0
   13.5256  -20.7420   26.5065 C   0  0  0  0  0  0  0  0  0  0  0  0
   14.2573  -20.1278   27.4281 N   0  0  0  0  0  0  0  0  0  0  0  0
   17.6481  -17.5949   25.8377 O   0  0  0  0  0  0  0  0  0  0  0  0
   15.5387  -19.8091   27.1680 C   0  0  0  0  0  0  0  0  0  0  0  0
   16.0929  -20.1261   25.8965 C   0  0  0  0  0  0  0  0  0  0  0  0
   16.2759  -19.1732   28.1415 O   0  0  0  0  0  0  0  0  0  0  0  0
   17.4579  -19.8642   25.4850 N   0  0  0  0  0  0  0  0  0  0  0  0
   18.1140  -20.9072   24.6858 C   0  0  2  0  0  0  0  0  0  0  0  0
   17.2624  -21.2884   23.5153 C   0  0  0  0  0  0  0  0  0  0  0  0
   15.2965  -20.7711   24.9836 C   0  0  0  0  0  0  0  0  0  0  0  0
   15.8263  -21.1057   23.7164 N   0  0  0  0  0  0  0  0  0  0  0  0
   18.4557  -22.1792   25.4826 C   0  0  0  0  0  0  0  0  0  0  0  0
   19.4623  -21.8903   26.4967 N   0  0  0  0  0  0  0  0  0  0  0  0
   23.5495  -22.8712   25.8382 C   0  0  0  0  0  0  0  0  0  0  0  0
   23.1226  -22.5054   27.1037 C   0  0  0  0  0  0  0  0  0  0  0  0
   21.7709  -22.1805   27.3286 C   0  0  0  0  0  0  0  0  0  0  0  0
   20.8645  -22.2248   26.2802 C   0  0  0  0  0  0  0  0  0  0  0  0
   21.2964  -22.5930   25.0094 C   0  0  0  0  0  0  0  0  0  0  0  0
   22.6375  -22.9171   24.7885 C   0  0  0  0  0  0  0  0  0  0  0  0
   18.1869  -18.6889   25.8196 C   0  0  0  0  0  0  0  0  0  0  0  0
  1  3  1  0  0  0  0
  2  3  2  0  0  0  0
  2 12  1  0  0  0  0
  3  4  1  0  0  0  0
  4  6  1  0  0  0  0
  5 22  1  0  0  0  0
  6  7  1  0  0  0  0
  6  8  2  0  0  0  0
  7 12  2  0  0  0  0
  7  9  1  0  0  0  0
  9 10  1  0  0  0  0
  9 22  1  0  0  0  0
 10 11  1  0  0  0  0
 10 14  1  1  0  0  0
 11 13  1  0  0  0  0
 12 13  1  0  0  0  0
 14 15  1  0  0  0  0
 15 19  1  0  0  0  0
 16 17  2  0  0  0  0
 16 21  1  0  0  0  0
 17 18  1  0  0  0  0
 18 19  2  0  0  0  0
 19 20  1  0  0  0  0
 20 21  2  0  0  0  0
M  END
>  <CHROM.1>
-38.69354371,-65.72919908,-100.48458108,-167.93909837,17.73863684,-20.90376682
25.89702142,2.93043603,-0.17804574,0.82271876

>  <Name>
ligand

>  <RI>
0

>  <Rbt.Current_Directory>
/home/itssahil/PROJECTS/Mol_Feturizer/Test_systems_manuscript/rnas/3sd3

>  <Rbt.Executable>
rbdock ($Id: //depot/dev/client3/rdock/2013.1/src/exe/rbdock.cxx#4 $)

>  <Rbt.Library>
libRbt.so (2013.1, Build901 2013/11/27)

>  <Rbt.Parameter_File>
/export/apps/rDock/src/rDock_2013.1_src/data/scripts/dock_solv.prm

>  <Rbt.Receptor>
prm/pocket_docking_2.prm

>  <SCORE>
-11.165

>  <SCORE.INTER>
-10.7247

>  <SCORE.INTER.CONST>
1

>  <SCORE.INTER.POLAR>
0

>  <SCORE.INTER.ROT>
4

>  <SCORE.INTER.SOLV>
23.415

>  <SCORE.INTER.VDW>
-21.2215

>  <SCORE.INTER.norm>
-0.487487

>  <SCORE.INTRA>
-0.44029

>  <SCORE.INTRA.DIHEDRAL>
0.0860017

>  <SCORE.INTRA.DIHEDRAL.0>
2.54655

>  <SCORE.INTRA.POLAR>
0

>  <SCORE.INTRA.POLAR.0>
0

>  <SCORE.INTRA.REPUL>
0

>  <SCORE.INTRA.REPUL.0>
0

>  <SCORE.INTRA.SOLV>
-0.16252

>  <SCORE.INTRA.SOLV.lig_0>
-56.4922

>  <SCORE.INTRA.VDW>
-0.402031

>  <SCORE.INTRA.VDW.0>
-0.696801

>  <SCORE.INTRA.norm>
-0.0200132

>  <SCORE.RESTR>
0

>  <SCORE.RESTR.CAVITY>
0

>  <SCORE.RESTR.norm>
0

>  <SCORE.SYSTEM>
0

>  <SCORE.SYSTEM.CONST>
0

>  <SCORE.SYSTEM.DIHEDRAL>
0

>  <SCORE.SYSTEM.SOLV>
0

>  <SCORE.SYSTEM.norm>
0

>  <SCORE.heavy>
22

>  <SCORE.norm>
-0.507501

>  <RMSD>
0.556

$$$$
ligand
 OpenBabel02271912143D
libRbt.so/2013.1/901 2013/11/27
 22 24  0  0  0  0  0  0  0  0999 V2000
   12.2363  -21.1178   26.8193 N   0  0  0  0  0  0  0  0  0  0  0  0
   14.0588  -21.0759   25.2670 N   0  0  0  0  0  0  0  0  0  0  0  0
   13.5934  -20.7733   26.4901 C   0  0  0  0  0  0  0  0  0  0  0  0
   14.3449  -20.1679   27.4015 N   0  0  0  0  0  0  0  0  0  0  0  0
   17.6596  -17.6039   25.8550 O   0  0  0  0  0  0  0  0  0  0  0  0
   15.6168  -19.8362   27.1129 C   0  0  0  0  0  0  0  0  0  0  0  0
   16.1396  -20.1301   25.8226 C   0  0  0  0  0  0  0  0  0  0  0  0
   16.3750  -19.2097   28.0763 O   0  0  0  0  0  0  0  0  0  0  0  0
   17.4915  -19.8524   25.3797 N   0  0  0  0  0  0  0  0  0  0  0  0
   18.1334  -20.8786   24.5478 C   0  0  2  0  0  0  0  0  0  0  0  0
   17.2540  -21.2482   23.3943 C   0  0  0  0  0  0  0  0  0  0  0  0
   15.3239  -20.7670   24.9212 C   0  0  0  0  0  0  0  0  0  0  0  0
   15.8224  -21.0788   23.6356 N   0  0  0  0  0  0  0  0  0  0  0  0
   18.5045  -22.1599   25.3160 C   0  0  0  0  0  0  0  0  0  0  0  0
   19.3351  -21.8397   26.4703 N   0  0  0  0  0  0  0  0  0  0  0  0
   23.5147  -22.6338   26.4230 C   0  0  0  0  0  0  0  0  0  0  0  0
   22.8886  -22.3013   27.6126 C   0  0  0  0  0  0  0  0  0  0  0  0
   21.5052  -22.0382   27.6353 C   0  0  0  0  0  0  0  0  0  0  0  0
   20.7675  -22.1102   26.4634 C   0  0  0  0  0  0  0  0  0  0  0  0
   21.3995  -22.4448   25.2694 C   0  0  0  0  0  0  0  0  0  0  0  0
   22.7716  -22.7077   25.2490 C   0  0  0  0  0  0  0  0  0  0  0  0
   18.2212  -18.6771   25.7129 C   0  0  0  0  0  0  0  0  0  0  0  0
  1  3  1  0  0  0  0
  2  3  2  0  0  0  0
  2 12  1  0  0  0  0
  3  4  1  0  0  0  0
  4  6  1  0  0  0  0
  5 22  1  0  0  0  0
  6  7  1  0  0  0  0
  6  8  2  0  0  0  0
  7 12  2  0  0  0  0
  7  9  1  0  0  0  0
  9 10  1  0  0  0  0
  9 22  1  0  0  0  0
 10 11  1  0  0  0  0
 10 14  1  1  0  0  0
 11 13  1  0  0  0  0
 12 13  1  0  0  0  0
 14 15  1  0  0  0  0
 15 19  1  0  0  0  0
 16 17  2  0  0  0  0
 16 21  1  0  0  0  0
 17 18  1  0  0  0  0
 18 19  2  0  0  0  0
 19 20  1  0  0  0  0
 20 21  2  0  0  0  0
M  END
>  <CHROM.1>
-33.40862458,-54.76675555,-105.07390670,-167.97938992,17.74711864,-20.86070033
25.94324411,-3.02915513,0.22237095,-2.12939025

>  <Name>
ligand

>  <RI>
0

>  <Rbt.Current_Directory>
/home/itssahil/PROJECTS/Mol_Feturizer/Test_systems_manuscript/rnas/3sd3

>  <Rbt.Executable>
rbdock ($Id: //depot/dev/client3/rdock/2013.1/src/exe/rbdock.cxx#4 $)

>  <Rbt.Library>
libRbt.so (2013.1, Build901 2013/11/27)

>  <Rbt.Parameter_File>
/export/apps/rDock/src/rDock_2013.1_src/data/scripts/dock_solv.prm

>  <Rbt.Receptor>
prm/pocket_docking_2.prm

>  <SCORE>
-10.757

>  <SCORE.INTER>
-10.4253

>  <SCORE.INTER.CONST>
1

>  <SCORE.INTER.POLAR>
0

>  <SCORE.INTER.ROT>
4

>  <SCORE.INTER.SOLV>
22.9446

>  <SCORE.INTER.VDW>
-20.8651

>  <SCORE.INTER.norm>
-0.473877

>  <SCORE.INTRA>
-0.33168

>  <SCORE.INTRA.DIHEDRAL>
0.190838

>  <SCORE.INTRA.DIHEDRAL.0>
2.54655

>  <SCORE.INTRA.POLAR>
0

>  <SCORE.INTRA.POLAR.0>
0

>  <SCORE.INTRA.REPUL>
0

>  <SCORE.INTRA.REPUL.0>
0

>  <SCORE.INTRA.SOLV>
0.0398895

>  <SCORE.INTRA.SOLV.lig_0>
-56.4922

>  <SCORE.INTRA.VDW>
-0.447043

>  <SCORE.INTRA.VDW.0>
-0.696801

>  <SCORE.INTRA.norm>
-0.0150763

>  <SCORE.RESTR>
0

>  <SCORE.RESTR.CAVITY>
0

>  <SCORE.RESTR.norm>
0

>  <SCORE.SYSTEM>
0

>  <SCORE.SYSTEM.CONST>
0

>  <SCORE.SYSTEM.DIHEDRAL>
0

>  <SCORE.SYSTEM.SOLV>
0

>  <SCORE.SYSTEM.norm>
0

>  <SCORE.heavy>
22

>  <SCORE.norm>
-0.488954

>  <RMSD>
0.564

$$$$
ligand
 OpenBabel02271912143D
libRbt.so/2013.1/901 2013/11/27
 22 24  0  0  0  0  0  0  0  0999 V2000
   12.4107  -21.3799   27.1350 N   0  0  0  0  0  0  0  0  0  0  0  0
   14.1260  -21.2127   25.4729 N   0  0  0  0  0  0  0  0  0  0  0  0
   13.7136  -20.9337   26.7205 C   0  0  0  0  0  0  0  0  0  0  0  0
   14.4691  -20.2608   27.5797 N   0  0  0  0  0  0  0  0  0  0  0  0
   18.2011  -17.6185   24.7972 O   0  0  0  0  0  0  0  0  0  0  0  0
   15.6908  -19.8335   27.2110 C   0  0  0  0  0  0  0  0  0  0  0  0
   16.1555  -20.1001   25.8929 C   0  0  0  0  0  0  0  0  0  0  0  0
   16.4545  -19.1385   28.1217 O   0  0  0  0  0  0  0  0  0  0  0  0
   17.4517  -19.7222   25.3655 N   0  0  0  0  0  0  0  0  0  0  0  0
   18.1207  -20.7042   24.5023 C   0  0  2  0  0  0  0  0  0  0  0  0
   17.2045  -21.1548   23.4078 C   0  0  0  0  0  0  0  0  0  0  0  0
   15.3392  -20.8094   25.0477 C   0  0  0  0  0  0  0  0  0  0  0  0
   15.7815  -21.0956   23.7359 N   0  0  0  0  0  0  0  0  0  0  0  0
   18.6381  -21.9436   25.2545 C   0  0  0  0  0  0  0  0  0  0  0  0
   19.6808  -21.5669   26.2011 N   0  0  0  0  0  0  0  0  0  0  0  0
   23.6629  -23.0100   25.7985 C   0  0  0  0  0  0  0  0  0  0  0  0
   22.8391  -22.9382   24.6878 C   0  0  0  0  0  0  0  0  0  0  0  0
   21.5202  -22.4605   24.8140 C   0  0  0  0  0  0  0  0  0  0  0  0
   21.0437  -22.0625   26.0539 C   0  0  0  0  0  0  0  0  0  0  0  0
   21.8741  -22.1357   27.1684 C   0  0  0  0  0  0  0  0  0  0  0  0
   23.1830  -22.6078   27.0410 C   0  0  0  0  0  0  0  0  0  0  0  0
   18.1051  -18.4895   25.6454 C   0  0  0  0  0  0  0  0  0  0  0  0
  1  3  1  0  0  0  0
  2  3  2  0  0  0  0
  2 12  1  0  0  0  0
  3  4  1  0  0  0  0
  4  6  1  0  0  0  0
  5 22  1  0  0  0  0
  6  7  1  0  0  0  0
  6  8  2  0  0  0  0
  7 12  2  0  0  0  0
  7  9  1  0  0  0  0
  9 10  1  0  0  0  0
  9 22  1  0  0  0  0
 10 11  1  0  0  0  0
 10 14  1  1  0  0  0
 11 13  1  0  0  0  0
 12 13  1  0  0  0  0
 14 15  1  0  0  0  0
 15 19  1  0  0  0  0
 16 17  2  0  0  0  0
 16 21  1  0  0  0  0
 17 18  1  0  0  0  0
 18 19  2  0  0  0  0
 19 20  1  0  0  0  0
 20 21  2  0  0  0  0
M  END
>  <CHROM.1>
-107.90423933,-64.42234159,-116.52281180,24.45962586,17.87136536,-20.87830258
25.79915322,-3.11049184,0.25625714,-1.43715441

>  <Name>
ligand

>  <RI>
0

>  <Rbt.Current_Directory>
/home/itssahil/PROJECTS/Mol_Feturizer/Test_systems_manuscript/rnas/3sd3

>  <Rbt.Executable>
rbdock ($Id: //depot/dev/client3/rdock/2013.1/src/exe/rbdock.cxx#4 $)

>  <Rbt.Library>
libRbt.so (2013.1, Build901 2013/11/27)

>  <Rbt.Parameter_File>
/export/apps/rDock/src/rDock_2013.1_src/data/scripts/dock_solv.prm

>  <Rbt.Receptor>
prm/pocket_docking_2.prm

>  <SCORE>
-10.755

>  <SCORE.INTER>
-10.3702

>  <SCORE.INTER.CONST>
1

>  <SCORE.INTER.POLAR>
0

>  <SCORE.INTER.ROT>
4

>  <SCORE.INTER.SOLV>
21.8358

>  <SCORE.INTER.VDW>
-20.4587

>  <SCORE.INTER.norm>
-0.471371

>  <SCORE.INTRA>
-0.384865

>  <SCORE.INTRA.DIHEDRAL>
0.35974

>  <SCORE.INTRA.DIHEDRAL.0>
2.54655

>  <SCORE.INTRA.POLAR>
0

>  <SCORE.INTRA.POLAR.0>
0

>  <SCORE.INTRA.REPUL>
0

>  <SCORE.INTRA.REPUL.0>
0

>  <SCORE.INTRA.SOLV>
-0.33636

>  <SCORE.INTRA.SOLV.lig_0>
-56.4922

>  <SCORE.INTRA.VDW>
-0.396555

>  <SCORE.INTRA.VDW.0>
-0.696801

>  <SCORE.INTRA.norm>
-0.0174938

>  <SCORE.RESTR>
0

>  <SCORE.RESTR.CAVITY>
0

>  <SCORE.RESTR.norm>
0

>  <SCORE.SYSTEM>
0

>  <SCORE.SYSTEM.CONST>
0

>  <SCORE.SYSTEM.DIHEDRAL>
0

>  <SCORE.SYSTEM.SOLV>
0

>  <SCORE.SYSTEM.norm>
0

>  <SCORE.heavy>
22

>  <SCORE.norm>
-0.488864

>  <RMSD>
0.608

$$$$
ligand
 OpenBabel02271912143D
libRbt.so/2013.1/901 2013/11/27
 22 24  0  0  0  0  0  0  0  0999 V2000
   12.3117  -21.3561   27.0181 N   0  0  0  0  0  0  0  0  0  0  0  0
   14.0913  -21.2276   25.4213 N   0  0  0  0  0  0  0  0  0  0  0  0
   13.6330  -20.9255   26.6473 C   0  0  0  0  0  0  0  0  0  0  0  0
   14.3596  -20.2438   27.5243 N   0  0  0  0  0  0  0  0  0  0  0  0
   18.2731  -17.6992   24.8315 O   0  0  0  0  0  0  0  0  0  0  0  0
   15.5978  -19.8309   27.1965 C   0  0  0  0  0  0  0  0  0  0  0  0
   16.1111  -20.1221   25.9018 C   0  0  0  0  0  0  0  0  0  0  0  0
   16.3308  -19.1263   28.1249 O   0  0  0  0  0  0  0  0  0  0  0  0
   17.4295  -19.7615   25.4192 N   0  0  0  0  0  0  0  0  0  0  0  0
   18.1242  -20.7619   24.5984 C   0  0  2  0  0  0  0  0  0  0  0  0
   17.2477  -21.2242   23.4765 C   0  0  0  0  0  0  0  0  0  0  0  0
   15.3229  -20.8395   25.0371 C   0  0  0  0  0  0  0  0  0  0  0  0
   15.8135  -21.1500   23.7482 N   0  0  0  0  0  0  0  0  0  0  0  0
   18.6030  -21.9924   25.3898 C   0  0  0  0  0  0  0  0  0  0  0  0
   19.5054  -21.5897   26.4615 N   0  0  0  0  0  0  0  0  0  0  0  0
   23.5950  -22.7619   26.4109 C   0  0  0  0  0  0  0  0  0  0  0  0
   23.0050  -22.3662   27.5995 C   0  0  0  0  0  0  0  0  0  0  0  0
   21.6514  -21.9779   27.6233 C   0  0  0  0  0  0  0  0  0  0  0  0
   20.9071  -21.9897   26.4534 C   0  0  0  0  0  0  0  0  0  0  0  0
   21.5028  -22.3881   25.2603 C   0  0  0  0  0  0  0  0  0  0  0  0
   22.8452  -22.7751   25.2389 C   0  0  0  0  0  0  0  0  0  0  0  0
   18.0807  -18.5289   25.7044 C   0  0  0  0  0  0  0  0  0  0  0  0
  1  3  1  0  0  0  0
  2  3  2  0  0  0  0
  2 12  1  0  0  0  0
  3  4  1  0  0  0  0
  4  6  1  0  0  0  0
  5 22  1  0  0  0  0
  6  7  1  0  0  0  0
  6  8  2  0  0  0  0
  7 12  2  0  0  0  0
  7  9  1  0  0  0  0
  9 10  1  0  0  0  0
  9 22  1  0  0  0  0
 10 11  1  0  0  0  0
 10 14  1  1  0  0  0
 11 13  1  0  0  0  0
 12 13  1  0  0  0  0
 14 15  1  0  0  0  0
 15 19  1  0  0  0  0
 16 17  2  0  0  0  0
 16 21  1  0  0  0  0
 17 18  1  0  0  0  0
 18 19  2  0  0  0  0
 19 20  1  0  0  0  0
 20 21  2  0  0  0  0
M  END
>  <CHROM.1>
-111.47351197,-58.51191714,-114.69355905,-159.86267160,17.81315264,-20.85887976
25.94408240,3.11937125,0.22432862,-1.49192601

>  <Name>
ligand

>  <RI>
0

>  <Rbt.Current_Directory>
/home/itssahil/PROJECTS/Mol_Feturizer/Test_systems_manuscript/rnas/3sd3

>  <Rbt.Executable>
rbdock ($Id: //depot/dev/client3/rdock/2013.1/src/exe/rbdock.cxx#4 $)

>  <Rbt.Library>
libRbt.so (2013.1, Build901 2013/11/27)

>  <Rbt.Parameter_File>
/export/apps/rDock/src/rDock_2013.1_src/data/scripts/dock_solv.prm

>  <Rbt.Receptor>
prm/pocket_docking_2.prm

>  <SCORE>
-10.6351

>  <SCORE.INTER>
-10.3143

>  <SCORE.INTER.CONST>
1

>  <SCORE.INTER.POLAR>
0

>  <SCORE.INTER.ROT>
4

>  <SCORE.INTER.SOLV>
22.0926

>  <SCORE.INTER.VDW>
-20.507

>  <SCORE.INTER.norm>
-0.46883

>  <SCORE.INTRA>
-0.320889

>  <SCORE.INTRA.DIHEDRAL>
0.288789

>  <SCORE.INTRA.DIHEDRAL.0>
2.54655

>  <SCORE.INTRA.POLAR>
0

>  <SCORE.INTRA.POLAR.0>
0

>  <SCORE.INTRA.REPUL>
0

>  <SCORE.INTRA.REPUL.0>
0

>  <SCORE.INTRA.SOLV>
-0.245116

>  <SCORE.INTRA.SOLV.lig_0>
-56.4922

>  <SCORE.INTRA.VDW>
-0.342725

>  <SCORE.INTRA.VDW.0>
-0.696801

>  <SCORE.INTRA.norm>
-0.0145858

>  <SCORE.RESTR>
0

>  <SCORE.RESTR.CAVITY>
0

>  <SCORE.RESTR.norm>
0

>  <SCORE.SYSTEM>
0

>  <SCORE.SYSTEM.CONST>
0

>  <SCORE.SYSTEM.DIHEDRAL>
0

>  <SCORE.SYSTEM.SOLV>
0

>  <SCORE.SYSTEM.norm>
0

>  <SCORE.heavy>
22

>  <SCORE.norm>
-0.483416

>  <RMSD>
0.616

$$$$
ligand
 OpenBabel02271912143D
libRbt.so/2013.1/901 2013/11/27
 22 24  0  0  0  0  0  0  0  0999 V2000
   12.1541  -21.0476   26.7727 N   0  0  0  0  0  0  0  0  0  0  0  0
   14.0303  -21.0550   25.2851 N   0  0  0  0  0  0  0  0  0  0  0  0
   13.5232  -20.7162   26.4819 C   0  0  0  0  0  0  0  0  0  0  0  0
   14.2442  -20.0867   27.4014 N   0  0  0  0  0  0  0  0  0  0  0  0
   18.1268  -17.6653   25.0982 O   0  0  0  0  0  0  0  0  0  0  0  0
   15.5267  -19.7667   27.1485 C   0  0  0  0  0  0  0  0  0  0  0  0
   16.0935  -20.0989   25.8865 C   0  0  0  0  0  0  0  0  0  0  0  0
   16.2528  -19.1146   28.1198 O   0  0  0  0  0  0  0  0  0  0  0  0
   17.4612  -19.8375   25.4837 N   0  0  0  0  0  0  0  0  0  0  0  0
   18.1283  -20.8888   24.7048 C   0  0  2  0  0  0  0  0  0  0  0  0
   17.2887  -21.2892   23.5321 C   0  0  0  0  0  0  0  0  0  0  0  0
   15.3078  -20.7594   24.9755 C   0  0  0  0  0  0  0  0  0  0  0  0
   15.8502  -21.1093   23.7177 N   0  0  0  0  0  0  0  0  0  0  0  0
   18.4675  -22.1485   25.5220 C   0  0  0  0  0  0  0  0  0  0  0  0
   19.3556  -21.8142   26.6287 N   0  0  0  0  0  0  0  0  0  0  0  0
   23.5294  -22.6174   26.4403 C   0  0  0  0  0  0  0  0  0  0  0  0
   22.7576  -22.7026   25.2938 C   0  0  0  0  0  0  0  0  0  0  0  0
   21.3756  -22.4371   25.3491 C   0  0  0  0  0  0  0  0  0  0  0  0
   20.7849  -22.0910   26.5549 C   0  0  0  0  0  0  0  0  0  0  0  0
   21.5632  -22.0060   27.7056 C   0  0  0  0  0  0  0  0  0  0  0  0
   22.9345  -22.2677   27.6485 C   0  0  0  0  0  0  0  0  0  0  0  0
   18.1829  -18.6550   25.8087 C   0  0  0  0  0  0  0  0  0  0  0  0
  1  3  1  0  0  0  0
  2  3  2  0  0  0  0
  2 12  1  0  0  0  0
  3  4  1  0  0  0  0
  4  6  1  0  0  0  0
  5 22  1  0  0  0  0
  6  7  1  0  0  0  0
  6  8  2  0  0  0  0
  7 12  2  0  0  0  0
  7  9  1  0  0  0  0
  9 10  1  0  0  0  0
  9 22  1  0  0  0  0
 10 11  1  0  0  0  0
 10 14  1  1  0  0  0
 11 13  1  0  0  0  0
 12 13  1  0  0  0  0
 14 15  1  0  0  0  0
 15 19  1  0  0  0  0
 16 17  2  0  0  0  0
 16 21  1  0  0  0  0
 17 18  1  0  0  0  0
 18 19  2  0  0  0  0
 19 20  1  0  0  0  0
 20 21  2  0  0  0  0
M  END
>  <CHROM.1>
-87.73704148,-59.76949368,-101.81674695,12.45675370,17.74944900,-20.83936153
25.96743912,-3.06574787,0.23056103,-2.00080365

>  <Name>
ligand

>  <RI>
0

>  <Rbt.Current_Directory>
/home/itssahil/PROJECTS/Mol_Feturizer/Test_systems_manuscript/rnas/3sd3

>  <Rbt.Executable>
rbdock ($Id: //depot/dev/client3/rdock/2013.1/src/exe/rbdock.cxx#4 $)

>  <Rbt.Library>
libRbt.so (2013.1, Build901 2013/11/27)

>  <Rbt.Parameter_File>
/export/apps/rDock/src/rDock_2013.1_src/data/scripts/dock_solv.prm

>  <Rbt.Receptor>
prm/pocket_docking_2.prm

>  <SCORE>
-11.012

>  <SCORE.INTER>
-10.4741

>  <SCORE.INTER.CONST>
1

>  <SCORE.INTER.POLAR>
0

>  <SCORE.INTER.ROT>
4

>  <SCORE.INTER.SOLV>
22.9369

>  <SCORE.INTER.VDW>
-20.895

>  <SCORE.INTER.norm>
-0.476094

>  <SCORE.INTRA>
-0.537894

>  <SCORE.INTRA.DIHEDRAL>
0.0649082

>  <SCORE.INTRA.DIHEDRAL.0>
2.54655

>  <SCORE.INTRA.POLAR>
0

>  <SCORE.INTRA.POLAR.0>
0

>  <SCORE.INTRA.REPUL>
0

>  <SCORE.INTRA.REPUL.0>
0

>  <SCORE.INTRA.SOLV>
-0.251567

>  <SCORE.INTRA.SOLV.lig_0>
-56.4922

>  <SCORE.INTRA.VDW>
-0.444564

>  <SCORE.INTRA.VDW.0>
-0.696801

>  <SCORE.INTRA.norm>
-0.0244497

>  <SCORE.RESTR>
0

>  <SCORE.RESTR.CAVITY>
0

>  <SCORE.RESTR.norm>
0

>  <SCORE.SYSTEM>
0

>  <SCORE.SYSTEM.CONST>
0

>  <SCORE.SYSTEM.DIHEDRAL>
0

>  <SCORE.SYSTEM.SOLV>
0

>  <SCORE.SYSTEM.norm>
0

>  <SCORE.heavy>
22

>  <SCORE.norm>
-0.500544

>  <RMSD>
0.617

$$$$
ligand
 OpenBabel02271912143D
libRbt.so/2013.1/901 2013/11/27
 22 24  0  0  0  0  0  0  0  0999 V2000
   12.1781  -21.0820   26.8079 N   0  0  0  0  0  0  0  0  0  0  0  0
   14.0345  -21.0600   25.2958 N   0  0  0  0  0  0  0  0  0  0  0  0
   13.5436  -20.7457   26.5059 C   0  0  0  0  0  0  0  0  0  0  0  0
   14.2773  -20.1359   27.4287 N   0  0  0  0  0  0  0  0  0  0  0  0
   19.1007  -18.7053   26.6313 O   0  0  0  0  0  0  0  0  0  0  0  0
   15.5567  -19.8116   27.1655 C   0  0  0  0  0  0  0  0  0  0  0  0
   16.1065  -20.1181   25.8895 C   0  0  0  0  0  0  0  0  0  0  0  0
   16.2962  -19.1804   28.1404 O   0  0  0  0  0  0  0  0  0  0  0  0
   17.4690  -19.8494   25.4742 N   0  0  0  0  0  0  0  0  0  0  0  0
   18.1247  -20.8848   24.6649 C   0  0  2  0  0  0  0  0  0  0  0  0
   17.2693  -21.2603   23.4954 C   0  0  0  0  0  0  0  0  0  0  0  0
   15.3081  -20.7590   24.9755 C   0  0  0  0  0  0  0  0  0  0  0  0
   15.8335  -21.0832   23.7037 N   0  0  0  0  0  0  0  0  0  0  0  0
   18.4734  -22.1614   25.4513 C   0  0  0  0  0  0  0  0  0  0  0  0
   19.3570  -21.8471   26.5673 N   0  0  0  0  0  0  0  0  0  0  0  0
   23.5296  -22.6409   26.3210 C   0  0  0  0  0  0  0  0  0  0  0  0
   22.9652  -22.2840   27.5342 C   0  0  0  0  0  0  0  0  0  0  0  0
   21.5845  -22.0209   27.6227 C   0  0  0  0  0  0  0  0  0  0  0  0
   20.7875  -22.1174   26.4921 C   0  0  0  0  0  0  0  0  0  0  0  0
   21.3575  -22.4764   25.2743 C   0  0  0  0  0  0  0  0  0  0  0  0
   22.7272  -22.7393   25.1887 C   0  0  0  0  0  0  0  0  0  0  0  0
   18.1960  -18.6744   25.8140 C   0  0  0  0  0  0  0  0  0  0  0  0
  1  3  1  0  0  0  0
  2  3  2  0  0  0  0
  2 12  1  0  0  0  0
  3  4  1  0  0  0  0
  4  6  1  0  0  0  0
  5 22  1  0  0  0  0
  6  7  1  0  0  0  0
  6  8  2  0  0  0  0
  7 12  2  0  0  0  0
  7  9  1  0  0  0  0
  9 10  1  0  0  0  0
  9 22  1  0  0  0  0
 10 11  1  0  0  0  0
 10 14  1  1  0  0  0
 11 13  1  0  0  0  0
 12 13  1  0  0  0  0
 14 15  1  0  0  0  0
 15 19  1  0  0  0  0
 16 17  2  0  0  0  0
 16 21  1  0  0  0  0
 17 18  1  0  0  0  0
 18 19  2  0  0  0  0
 19 20  1  0  0  0  0
 20 21  2  0  0  0  0
M  END
>  <CHROM.1>
107.12617389,-58.74470700,-102.18903704,-169.49695377,17.81063694,-20.91558481
26.02428300,-3.04410328,0.19926304,-2.09232856

>  <Name>
ligand

>  <RI>
0

>  <Rbt.Current_Directory>
/home/itssahil/PROJECTS/Mol_Feturizer/Test_systems_manuscript/rnas/3sd3

>  <Rbt.Executable>
rbdock ($Id: //depot/dev/client3/rdock/2013.1/src/exe/rbdock.cxx#4 $)

>  <Rbt.Library>
libRbt.so (2013.1, Build901 2013/11/27)

>  <Rbt.Parameter_File>
/export/apps/rDock/src/rDock_2013.1_src/data/scripts/dock_solv.prm

>  <Rbt.Receptor>
prm/pocket_docking_2.prm

>  <SCORE>
-10.6255

>  <SCORE.INTER>
-10.3641

>  <SCORE.INTER.CONST>
1

>  <SCORE.INTER.POLAR>
0

>  <SCORE.INTER.ROT>
4

>  <SCORE.INTER.SOLV>
22.3606

>  <SCORE.INTER.VDW>
-20.6296

>  <SCORE.INTER.norm>
-0.471097

>  <SCORE.INTRA>
-0.261363

>  <SCORE.INTRA.DIHEDRAL>
0.0367233

>  <SCORE.INTRA.DIHEDRAL.0>
2.54655

>  <SCORE.INTRA.POLAR>
0

>  <SCORE.INTRA.POLAR.0>
0

>  <SCORE.INTRA.REPUL>
0

>  <SCORE.INTRA.REPUL.0>
0

>  <SCORE.INTRA.SOLV>
0.651548

>  <SCORE.INTRA.SOLV.lig_0>
-56.4922

>  <SCORE.INTRA.VDW>
-0.605498

>  <SCORE.INTRA.VDW.0>
-0.696801

>  <SCORE.INTRA.norm>
-0.0118801

>  <SCORE.RESTR>
0

>  <SCORE.RESTR.CAVITY>
0

>  <SCORE.RESTR.norm>
0

>  <SCORE.SYSTEM>
0

>  <SCORE.SYSTEM.CONST>
0

>  <SCORE.SYSTEM.DIHEDRAL>
0

>  <SCORE.SYSTEM.SOLV>
0

>  <SCORE.SYSTEM.norm>
0

>  <SCORE.heavy>
22

>  <SCORE.norm>
-0.482977

>  <RMSD>
0.630

$$$$
ligand
 OpenBabel02271912143D
libRbt.so/2013.1/901 2013/11/27
 22 24  0  0  0  0  0  0  0  0999 V2000
   12.2380  -21.1051   26.7885 N   0  0  0  0  0  0  0  0  0  0  0  0
   14.1113  -21.0984   25.2972 N   0  0  0  0  0  0  0  0  0  0  0  0
   13.6011  -20.7551   26.4914 C   0  0  0  0  0  0  0  0  0  0  0  0
   14.3138  -20.1045   27.4028 N   0  0  0  0  0  0  0  0  0  0  0  0
   17.6471  -17.5570   25.8667 O   0  0  0  0  0  0  0  0  0  0  0  0
   15.5905  -19.7669   27.1439 C   0  0  0  0  0  0  0  0  0  0  0  0
   16.1602  -20.1034   25.8843 C   0  0  0  0  0  0  0  0  0  0  0  0
   16.3079  -19.0932   28.1068 O   0  0  0  0  0  0  0  0  0  0  0  0
   17.5228  -19.8246   25.4760 N   0  0  0  0  0  0  0  0  0  0  0  0
   18.2050  -20.8733   24.7069 C   0  0  2  0  0  0  0  0  0  0  0  0
   17.3697  -21.2994   23.5401 C   0  0  0  0  0  0  0  0  0  0  0  0
   15.3833  -20.7859   24.9819 C   0  0  0  0  0  0  0  0  0  0  0  0
   15.9289  -21.1404   23.7268 N   0  0  0  0  0  0  0  0  0  0  0  0
   18.5658  -22.1187   25.5366 C   0  0  0  0  0  0  0  0  0  0  0  0
   19.3483  -21.7420   26.7074 N   0  0  0  0  0  0  0  0  0  0  0  0
   23.5138  -22.5868   26.8972 C   0  0  0  0  0  0  0  0  0  0  0  0
   22.8207  -22.2683   28.0529 C   0  0  0  0  0  0  0  0  0  0  0  0
   21.4416  -21.9886   27.9971 C   0  0  0  0  0  0  0  0  0  0  0  0
   20.7753  -22.0301   26.7817 C   0  0  0  0  0  0  0  0  0  0  0  0
   21.4746  -22.3507   25.6219 C   0  0  0  0  0  0  0  0  0  0  0  0
   22.8424  -22.6301   25.6793 C   0  0  0  0  0  0  0  0  0  0  0  0
   18.2261  -18.6274   25.7870 C   0  0  0  0  0  0  0  0  0  0  0  0
  1  3  1  0  0  0  0
  2  3  2  0  0  0  0
  2 12  1  0  0  0  0
  3  4  1  0  0  0  0
  4  6  1  0  0  0  0
  5 22  1  0  0  0  0
  6  7  1  0  0  0  0
  6  8  2  0  0  0  0
  7 12  2  0  0  0  0
  7  9  1  0  0  0  0
  9 10  1  0  0  0  0
  9 22  1  0  0  0  0
 10 11  1  0  0  0  0
 10 14  1  1  0  0  0
 11 13  1  0  0  0  0
 12 13  1  0  0  0  0
 14 15  1  0  0  0  0
 15 19  1  0  0  0  0
 16 17  2  0  0  0  0
 16 21  1  0  0  0  0
 17 18  1  0  0  0  0
 18 19  2  0  0  0  0
 19 20  1  0  0  0  0
 20 21  2  0  0  0  0
M  END
>  <CHROM.1>
-33.49558194,-54.53496790,-107.13886786,-163.51057167,17.76649549,-20.82426291
26.09877122,-3.07296123,0.24435515,-2.12786020

>  <Name>
ligand

>  <RI>
0

>  <Rbt.Current_Directory>
/home/itssahil/PROJECTS/Mol_Feturizer/Test_systems_manuscript/rnas/3sd3

>  <Rbt.Executable>
rbdock ($Id: //depot/dev/client3/rdock/2013.1/src/exe/rbdock.cxx#4 $)

>  <Rbt.Library>
libRbt.so (2013.1, Build901 2013/11/27)

>  <Rbt.Parameter_File>
/export/apps/rDock/src/rDock_2013.1_src/data/scripts/dock_solv.prm

>  <Rbt.Receptor>
prm/pocket_docking_2.prm

>  <SCORE>
-10.8506

>  <SCORE.INTER>
-10.5153

>  <SCORE.INTER.CONST>
1

>  <SCORE.INTER.POLAR>
0

>  <SCORE.INTER.ROT>
4

>  <SCORE.INTER.SOLV>
22.8016

>  <SCORE.INTER.VDW>
-20.8774

>  <SCORE.INTER.norm>
-0.477968

>  <SCORE.INTRA>
-0.335296

>  <SCORE.INTRA.DIHEDRAL>
0.243076

>  <SCORE.INTRA.DIHEDRAL.0>
2.54655

>  <SCORE.INTRA.POLAR>
0

>  <SCORE.INTRA.POLAR.0>
0

>  <SCORE.INTRA.REPUL>
0

>  <SCORE.INTRA.REPUL.0>
0

>  <SCORE.INTRA.SOLV>
0.0451192

>  <SCORE.INTRA.SOLV.lig_0>
-56.4922

>  <SCORE.INTRA.VDW>
-0.479394

>  <SCORE.INTRA.VDW.0>
-0.696801

>  <SCORE.INTRA.norm>
-0.0152407

>  <SCORE.RESTR>
0

>  <SCORE.RESTR.CAVITY>
0

>  <SCORE.RESTR.norm>
0

>  <SCORE.SYSTEM>
0

>  <SCORE.SYSTEM.CONST>
0

>  <SCORE.SYSTEM.DIHEDRAL>
0

>  <SCORE.SYSTEM.SOLV>
0

>  <SCORE.SYSTEM.norm>
0

>  <SCORE.heavy>
22

>  <SCORE.norm>
-0.493209

>  <RMSD>
0.641

$$$$
ligand
 OpenBabel02271912143D
libRbt.so/2013.1/901 2013/11/27
 22 24  0  0  0  0  0  0  0  0999 V2000
   12.3092  -21.3629   27.0469 N   0  0  0  0  0  0  0  0  0  0  0  0
   14.0482  -21.1858   25.4106 N   0  0  0  0  0  0  0  0  0  0  0  0
   13.6282  -20.9376   26.6621 C   0  0  0  0  0  0  0  0  0  0  0  0
   14.3904  -20.3137   27.5518 N   0  0  0  0  0  0  0  0  0  0  0  0
   18.3843  -17.7596   24.8599 O   0  0  0  0  0  0  0  0  0  0  0  0
   15.6272  -19.9068   27.2113 C   0  0  0  0  0  0  0  0  0  0  0  0
   16.1006  -20.1416   25.8903 C   0  0  0  0  0  0  0  0  0  0  0  0
   16.3976  -19.2627   28.1532 O   0  0  0  0  0  0  0  0  0  0  0  0
   17.4125  -19.7806   25.3904 N   0  0  0  0  0  0  0  0  0  0  0  0
   18.0661  -20.7507   24.5023 C   0  0  2  0  0  0  0  0  0  0  0  0
   17.1519  -21.1405   23.3831 C   0  0  0  0  0  0  0  0  0  0  0  0
   15.2765  -20.8007   25.0128 C   0  0  0  0  0  0  0  0  0  0  0  0
   15.7270  -21.0547   23.6971 N   0  0  0  0  0  0  0  0  0  0  0  0
   18.5422  -22.0276   25.2183 C   0  0  0  0  0  0  0  0  0  0  0  0
   19.5483  -21.7040   26.2223 N   0  0  0  0  0  0  0  0  0  0  0  0
   23.5862  -22.9501   25.7282 C   0  0  0  0  0  0  0  0  0  0  0  0
   23.1344  -22.5517   26.9750 C   0  0  0  0  0  0  0  0  0  0  0  0
   21.7987  -22.1390   27.1455 C   0  0  0  0  0  0  0  0  0  0  0  0
   20.9333  -22.1295   26.0621 C   0  0  0  0  0  0  0  0  0  0  0  0
   21.3903  -22.5306   24.8102 C   0  0  0  0  0  0  0  0  0  0  0  0
   22.7152  -22.9419   24.6432 C   0  0  0  0  0  0  0  0  0  0  0  0
   18.0942  -18.5755   25.7187 C   0  0  0  0  0  0  0  0  0  0  0  0
  1  3  1  0  0  0  0
  2  3  2  0  0  0  0
  2 12  1  0  0  0  0
  3  4  1  0  0  0  0
  4  6  1  0  0  0  0
  5 22  1  0  0  0  0
  6  7  1  0  0  0  0
  6  8  2  0  0  0  0
  7 12  2  0  0  0  0
  7  9  1  0  0  0  0
  9 10  1  0  0  0  0
  9 22  1  0  0  0  0
 10 11  1  0  0  0  0
 10 14  1  1  0  0  0
 11 13  1  0  0  0  0
 12 13  1  0  0  0  0
 14 15  1  0  0  0  0
 15 19  1  0  0  0  0
 16 17  2  0  0  0  0
 16 21  1  0  0  0  0
 17 18  1  0  0  0  0
 18 19  2  0  0  0  0
 19 20  1  0  0  0  0
 20 21  2  0  0  0  0
M  END
>  <CHROM.1>
-118.06727802,-62.38491248,-112.29771893,-162.89544193,17.81061267,-20.91601409
25.78453858,-3.03209101,0.22532207,-1.75835549

>  <Name>
ligand

>  <RI>
0

>  <Rbt.Current_Directory>
/home/itssahil/PROJECTS/Mol_Feturizer/Test_systems_manuscript/rnas/3sd3

>  <Rbt.Executable>
rbdock ($Id: //depot/dev/client3/rdock/2013.1/src/exe/rbdock.cxx#4 $)

>  <Rbt.Library>
libRbt.so (2013.1, Build901 2013/11/27)

>  <Rbt.Parameter_File>
/export/apps/rDock/src/rDock_2013.1_src/data/scripts/dock_solv.prm

>  <Rbt.Receptor>
prm/pocket_docking_2.prm

>  <SCORE>
-10.7832

>  <SCORE.INTER>
-10.4823

>  <SCORE.INTER.CONST>
1

>  <SCORE.INTER.POLAR>
0

>  <SCORE.INTER.ROT>
4

>  <SCORE.INTER.SOLV>
22.2486

>  <SCORE.INTER.VDW>
-20.6711

>  <SCORE.INTER.norm>
-0.476467

>  <SCORE.INTRA>
-0.300947

>  <SCORE.INTRA.DIHEDRAL>
0.261958

>  <SCORE.INTRA.DIHEDRAL.0>
2.54655

>  <SCORE.INTRA.POLAR>
0

>  <SCORE.INTRA.POLAR.0>
0

>  <SCORE.INTRA.REPUL>
0

>  <SCORE.INTRA.REPUL.0>
0

>  <SCORE.INTRA.SOLV>
-0.301197

>  <SCORE.INTRA.SOLV.lig_0>
-56.4922

>  <SCORE.INTRA.VDW>
-0.281327

>  <SCORE.INTRA.VDW.0>
-0.696801

>  <SCORE.INTRA.norm>
-0.0136794

>  <SCORE.RESTR>
0

>  <SCORE.RESTR.CAVITY>
0

>  <SCORE.RESTR.norm>
0

>  <SCORE.SYSTEM>
0

>  <SCORE.SYSTEM.CONST>
0

>  <SCORE.SYSTEM.DIHEDRAL>
0

>  <SCORE.SYSTEM.SOLV>
0

>  <SCORE.SYSTEM.norm>
0

>  <SCORE.heavy>
22

>  <SCORE.norm>
-0.490146

>  <RMSD>
0.645

$$$$
ligand
 OpenBabel02271912143D
libRbt.so/2013.1/901 2013/11/27
 22 24  0  0  0  0  0  0  0  0999 V2000
   12.3276  -21.4018   27.0443 N   0  0  0  0  0  0  0  0  0  0  0  0
   14.0993  -21.2501   25.4408 N   0  0  0  0  0  0  0  0  0  0  0  0
   13.6295  -20.9283   26.6573 C   0  0  0  0  0  0  0  0  0  0  0  0
   14.3273  -20.1890   27.5107 N   0  0  0  0  0  0  0  0  0  0  0  0
   18.2768  -17.6365   24.7112 O   0  0  0  0  0  0  0  0  0  0  0  0
   15.5470  -19.7353   27.1674 C   0  0  0  0  0  0  0  0  0  0  0  0
   16.0713  -20.0461   25.8817 C   0  0  0  0  0  0  0  0  0  0  0  0
   16.2502  -18.9711   28.0713 O   0  0  0  0  0  0  0  0  0  0  0  0
   17.3731  -19.6463   25.3853 N   0  0  0  0  0  0  0  0  0  0  0  0
   18.1087  -20.6425   24.5957 C   0  0  2  0  0  0  0  0  0  0  0  0
   17.2518  -21.1769   23.4909 C   0  0  0  0  0  0  0  0  0  0  0  0
   15.3134  -20.8232   25.0420 C   0  0  0  0  0  0  0  0  0  0  0  0
   15.8159  -21.1542   23.7627 N   0  0  0  0  0  0  0  0  0  0  0  0
   18.6391  -21.8258   25.4252 C   0  0  0  0  0  0  0  0  0  0  0  0
   19.7719  -21.4083   26.2422 N   0  0  0  0  0  0  0  0  0  0  0  0
   23.6314  -23.1185   25.7122 C   0  0  0  0  0  0  0  0  0  0  0  0
   22.7844  -22.9761   24.6261 C   0  0  0  0  0  0  0  0  0  0  0  0
   21.5059  -22.4100   24.7945 C   0  0  0  0  0  0  0  0  0  0  0  0
   21.0925  -21.9953   26.0515 C   0  0  0  0  0  0  0  0  0  0  0  0
   21.9462  -22.1395   27.1412 C   0  0  0  0  0  0  0  0  0  0  0  0
   23.2150  -22.6994   26.9720 C   0  0  0  0  0  0  0  0  0  0  0  0
   17.9722  -18.3789   25.6296 C   0  0  0  0  0  0  0  0  0  0  0  0
  1  3  1  0  0  0  0
  2  3  2  0  0  0  0
  2 12  1  0  0  0  0
  3  4  1  0  0  0  0
  4  6  1  0  0  0  0
  5 22  1  0  0  0  0
  6  7  1  0  0  0  0
  6  8  2  0  0  0  0
  7 12  2  0  0  0  0
  7  9  1  0  0  0  0
  9 10  1  0  0  0  0
  9 22  1  0  0  0  0
 10 11  1  0  0  0  0
 10 14  1  1  0  0  0
 11 13  1  0  0  0  0
 12 13  1  0  0  0  0
 14 15  1  0  0  0  0
 15 19  1  0  0  0  0
 16 17  2  0  0  0  0
 16 21  1  0  0  0  0
 17 18  1  0  0  0  0
 18 19  2  0  0  0  0
 19 20  1  0  0  0  0
 20 21  2  0  0  0  0
M  END
>  <CHROM.1>
-120.43420717,-73.19469822,-117.51904951,32.16243547,17.83808699,-20.84752238
25.78621067,2.88807981,0.07020658,-0.00240184

>  <Name>
ligand

>  <RI>
0

>  <Rbt.Current_Directory>
/home/itssahil/PROJECTS/Mol_Feturizer/Test_systems_manuscript/rnas/3sd3

>  <Rbt.Executable>
rbdock ($Id: //depot/dev/client3/rdock/2013.1/src/exe/rbdock.cxx#4 $)

>  <Rbt.Library>
libRbt.so (2013.1, Build901 2013/11/27)

>  <Rbt.Parameter_File>
/export/apps/rDock/src/rDock_2013.1_src/data/scripts/dock_solv.prm

>  <Rbt.Receptor>
prm/pocket_docking_2.prm

>  <SCORE>
-10.3979

>  <SCORE.INTER>
-10.2309

>  <SCORE.INTER.CONST>
1

>  <SCORE.INTER.POLAR>
0

>  <SCORE.INTER.ROT>
4

>  <SCORE.INTER.SOLV>
22.1689

>  <SCORE.INTER.VDW>
-20.4769

>  <SCORE.INTER.norm>
-0.465042

>  <SCORE.INTRA>
-0.166985

>  <SCORE.INTRA.DIHEDRAL>
0.865499

>  <SCORE.INTRA.DIHEDRAL.0>
2.54655

>  <SCORE.INTRA.POLAR>
0

>  <SCORE.INTRA.POLAR.0>
0

>  <SCORE.INTRA.REPUL>
0

>  <SCORE.INTRA.REPUL.0>
0

>  <SCORE.INTRA.SOLV>
-0.468822

>  <SCORE.INTRA.SOLV.lig_0>
-56.4922

>  <SCORE.INTRA.VDW>
-0.365324

>  <SCORE.INTRA.VDW.0>
-0.696801

>  <SCORE.INTRA.norm>
-0.00759024

>  <SCORE.RESTR>
0

>  <SCORE.RESTR.CAVITY>
0

>  <SCORE.RESTR.norm>
0

>  <SCORE.SYSTEM>
0

>  <SCORE.SYSTEM.CONST>
0

>  <SCORE.SYSTEM.DIHEDRAL>
0

>  <SCORE.SYSTEM.SOLV>
0

>  <SCORE.SYSTEM.norm>
0

>  <SCORE.heavy>
22

>  <SCORE.norm>
-0.472632

>  <RMSD>
0.650

$$$$
ligand
 OpenBabel02271912143D
libRbt.so/2013.1/901 2013/11/27
 22 24  0  0  0  0  0  0  0  0999 V2000
   12.1354  -21.0645   26.7610 N   0  0  0  0  0  0  0  0  0  0  0  0
   14.0228  -21.0693   25.2876 N   0  0  0  0  0  0  0  0  0  0  0  0
   13.5043  -20.7256   26.4781 C   0  0  0  0  0  0  0  0  0  0  0  0
   14.2140  -20.0846   27.3986 N   0  0  0  0  0  0  0  0  0  0  0  0
   18.3871  -17.7907   24.9779 O   0  0  0  0  0  0  0  0  0  0  0  0
   15.4961  -19.7573   27.1530 C   0  0  0  0  0  0  0  0  0  0  0  0
   16.0747  -20.0945   25.8976 C   0  0  0  0  0  0  0  0  0  0  0  0
   16.2102  -19.0934   28.1250 O   0  0  0  0  0  0  0  0  0  0  0  0
   17.4436  -19.8264   25.5033 N   0  0  0  0  0  0  0  0  0  0  0  0
   18.1238  -20.8784   24.7369 C   0  0  2  0  0  0  0  0  0  0  0  0
   17.2959  -21.2931   23.5608 C   0  0  0  0  0  0  0  0  0  0  0  0
   15.3005  -20.7670   24.9855 C   0  0  0  0  0  0  0  0  0  0  0  0
   15.8548  -21.1219   23.7344 N   0  0  0  0  0  0  0  0  0  0  0  0
   18.4657  -22.1299   25.5656 C   0  0  0  0  0  0  0  0  0  0  0  0
   19.3404  -21.7811   26.6783 N   0  0  0  0  0  0  0  0  0  0  0  0
   23.5134  -22.5896   26.4939 C   0  0  0  0  0  0  0  0  0  0  0  0
   22.9240  -22.2756   27.7070 C   0  0  0  0  0  0  0  0  0  0  0  0
   21.5430  -22.0079   27.7751 C   0  0  0  0  0  0  0  0  0  0  0  0
   20.7708  -22.0567   26.6244 C   0  0  0  0  0  0  0  0  0  0  0  0
   21.3660  -22.3727   25.4066 C   0  0  0  0  0  0  0  0  0  0  0  0
   22.7358  -22.6401   25.3412 C   0  0  0  0  0  0  0  0  0  0  0  0
   18.1545  -18.6365   25.8252 C   0  0  0  0  0  0  0  0  0  0  0  0
  1  3  1  0  0  0  0
  2  3  2  0  0  0  0
  2 12  1  0  0  0  0
  3  4  1  0  0  0  0
  4  6  1  0  0  0  0
  5 22  1  0  0  0  0
  6  7  1  0  0  0  0
  6  8  2  0  0  0  0
  7 12  2  0  0  0  0
  7  9  1  0  0  0  0
  9 10  1  0  0  0  0
  9 22  1  0  0  0  0
 10 11  1  0  0  0  0
 10 14  1  1  0  0  0
 11 13  1  0  0  0  0
 12 13  1  0  0  0  0
 14 15  1  0  0  0  0
 15 19  1  0  0  0  0
 16 17  2  0  0  0  0
 16 21  1  0  0  0  0
 17 18  1  0  0  0  0
 18 19  2  0  0  0  0
 19 20  1  0  0  0  0
 20 21  2  0  0  0  0
M  END
>  <CHROM.1>
-106.86253849,-59.63622014,-102.33533648,-165.36257527,17.74912166,-20.83564875
25.98596496,-3.10510856,0.23027066,-1.86727496

>  <Name>
ligand

>  <RI>
0

>  <Rbt.Current_Directory>
/home/itssahil/PROJECTS/Mol_Feturizer/Test_systems_manuscript/rnas/3sd3

>  <Rbt.Executable>
rbdock ($Id: //depot/dev/client3/rdock/2013.1/src/exe/rbdock.cxx#4 $)

>  <Rbt.Library>
libRbt.so (2013.1, Build901 2013/11/27)

>  <Rbt.Parameter_File>
/export/apps/rDock/src/rDock_2013.1_src/data/scripts/dock_solv.prm

>  <Rbt.Receptor>
prm/pocket_docking_2.prm

>  <SCORE>
-10.8455

>  <SCORE.INTER>
-10.3928

>  <SCORE.INTER.CONST>
1

>  <SCORE.INTER.POLAR>
0

>  <SCORE.INTER.ROT>
4

>  <SCORE.INTER.SOLV>
22.7943

>  <SCORE.INTER.VDW>
-20.7933

>  <SCORE.INTER.norm>
-0.4724

>  <SCORE.INTRA>
-0.452733

>  <SCORE.INTRA.DIHEDRAL>
0.069659

>  <SCORE.INTRA.DIHEDRAL.0>
2.54655

>  <SCORE.INTRA.POLAR>
0

>  <SCORE.INTRA.POLAR.0>
0

>  <SCORE.INTRA.REPUL>
0

>  <SCORE.INTRA.REPUL.0>
0

>  <SCORE.INTRA.SOLV>
-0.258882

>  <SCORE.INTRA.SOLV.lig_0>
-56.4922

>  <SCORE.INTRA.VDW>
-0.358121

>  <SCORE.INTRA.VDW.0>
-0.696801

>  <SCORE.INTRA.norm>
-0.0205788

>  <SCORE.RESTR>
0

>  <SCORE.RESTR.CAVITY>
0

>  <SCORE.RESTR.norm>
0

>  <SCORE.SYSTEM>
0

>  <SCORE.SYSTEM.CONST>
0

>  <SCORE.SYSTEM.DIHEDRAL>
0

>  <SCORE.SYSTEM.SOLV>
0

>  <SCORE.SYSTEM.norm>
0

>  <SCORE.heavy>
22

>  <SCORE.norm>
-0.492979

>  <RMSD>
0.655

$$$$
ligand
 OpenBabel02271912143D
libRbt.so/2013.1/901 2013/11/27
 22 24  0  0  0  0  0  0  0  0999 V2000
   12.2108  -21.0388   26.8010 N   0  0  0  0  0  0  0  0  0  0  0  0
   14.0474  -21.0375   25.2648 N   0  0  0  0  0  0  0  0  0  0  0  0
   13.5844  -20.7453   26.4914 C   0  0  0  0  0  0  0  0  0  0  0  0
   14.3529  -20.1955   27.4236 N   0  0  0  0  0  0  0  0  0  0  0  0
   17.7864  -17.7433   25.9842 O   0  0  0  0  0  0  0  0  0  0  0  0
   15.6405  -19.9120   27.1535 C   0  0  0  0  0  0  0  0  0  0  0  0
   16.1618  -20.1964   25.8605 C   0  0  0  0  0  0  0  0  0  0  0  0
   16.4162  -19.3428   28.1383 O   0  0  0  0  0  0  0  0  0  0  0  0
   17.5284  -19.9665   25.4354 N   0  0  0  0  0  0  0  0  0  0  0  0
   18.1331  -20.9986   24.5833 C   0  0  2  0  0  0  0  0  0  0  0  0
   17.2490  -21.3014   23.4140 C   0  0  0  0  0  0  0  0  0  0  0  0
   15.3277  -20.7751   24.9370 C   0  0  0  0  0  0  0  0  0  0  0  0
   15.8240  -21.0763   23.6480 N   0  0  0  0  0  0  0  0  0  0  0  0
   18.4418  -22.3134   25.3222 C   0  0  0  0  0  0  0  0  0  0  0  0
   19.5392  -22.1238   26.2628 N   0  0  0  0  0  0  0  0  0  0  0  0
   23.5581  -23.0153   25.1880 C   0  0  0  0  0  0  0  0  0  0  0  0
   22.5525  -23.1122   24.2409 C   0  0  0  0  0  0  0  0  0  0  0  0
   21.2203  -22.8176   24.5900 C   0  0  0  0  0  0  0  0  0  0  0  0
   20.9133  -22.4311   25.8858 C   0  0  0  0  0  0  0  0  0  0  0  0
   21.9262  -22.3345   26.8354 C   0  0  0  0  0  0  0  0  0  0  0  0
   23.2477  -22.6250   26.4870 C   0  0  0  0  0  0  0  0  0  0  0  0
   18.3049  -18.8324   25.8037 C   0  0  0  0  0  0  0  0  0  0  0  0
  1  3  1  0  0  0  0
  2  3  2  0  0  0  0
  2 12  1  0  0  0  0
  3  4  1  0  0  0  0
  4  6  1  0  0  0  0
  5 22  1  0  0  0  0
  6  7  1  0  0  0  0
  6  8  2  0  0  0  0
  7 12  2  0  0  0  0
  7  9  1  0  0  0  0
  9 10  1  0  0  0  0
  9 22  1  0  0  0  0
 10 11  1  0  0  0  0
 10 14  1  1  0  0  0
 11 13  1  0  0  0  0
 12 13  1  0  0  0  0
 14 15  1  0  0  0  0
 15 19  1  0  0  0  0
 16 17  2  0  0  0  0
 16 21  1  0  0  0  0
 17 18  1  0  0  0  0
 18 19  2  0  0  0  0
 19 20  1  0  0  0  0
 20 21  2  0  0  0  0
M  END
>  <CHROM.1>
-32.49845884,-69.70752704,-94.62455005,4.79578318,17.79259516,-21.00480124
25.73453106,2.87061155,-0.14721803,0.82347521

>  <Name>
ligand

>  <RI>
0

>  <Rbt.Current_Directory>
/home/itssahil/PROJECTS/Mol_Feturizer/Test_systems_manuscript/rnas/3sd3

>  <Rbt.Executable>
rbdock ($Id: //depot/dev/client3/rdock/2013.1/src/exe/rbdock.cxx#4 $)

>  <Rbt.Library>
libRbt.so (2013.1, Build901 2013/11/27)

>  <Rbt.Parameter_File>
/export/apps/rDock/src/rDock_2013.1_src/data/scripts/dock_solv.prm

>  <Rbt.Receptor>
prm/pocket_docking_2.prm

>  <SCORE>
-11.208

>  <SCORE.INTER>
-10.7627

>  <SCORE.INTER.CONST>
1

>  <SCORE.INTER.POLAR>
0

>  <SCORE.INTER.ROT>
4

>  <SCORE.INTER.SOLV>
23.6141

>  <SCORE.INTER.VDW>
-21.3132

>  <SCORE.INTER.norm>
-0.489215

>  <SCORE.INTRA>
-0.445235

>  <SCORE.INTRA.DIHEDRAL>
0.122371

>  <SCORE.INTRA.DIHEDRAL.0>
2.54655

>  <SCORE.INTRA.POLAR>
0

>  <SCORE.INTRA.POLAR.0>
0

>  <SCORE.INTRA.REPUL>
0

>  <SCORE.INTRA.REPUL.0>
0

>  <SCORE.INTRA.SOLV>
-0.196467

>  <SCORE.INTRA.SOLV.lig_0>
-56.4922

>  <SCORE.INTRA.VDW>
-0.408187

>  <SCORE.INTRA.VDW.0>
-0.696801

>  <SCORE.INTRA.norm>
-0.020238

>  <SCORE.RESTR>
0

>  <SCORE.RESTR.CAVITY>
0

>  <SCORE.RESTR.norm>
0

>  <SCORE.SYSTEM>
0

>  <SCORE.SYSTEM.CONST>
0

>  <SCORE.SYSTEM.DIHEDRAL>
0

>  <SCORE.SYSTEM.SOLV>
0

>  <SCORE.SYSTEM.norm>
0

>  <SCORE.heavy>
22

>  <SCORE.norm>
-0.509453

>  <RMSD>
0.658

$$$$
ligand
 OpenBabel02271912143D
libRbt.so/2013.1/901 2013/11/27
 22 24  0  0  0  0  0  0  0  0999 V2000
   12.2433  -21.0759   26.8235 N   0  0  0  0  0  0  0  0  0  0  0  0
   14.0585  -21.0464   25.2624 N   0  0  0  0  0  0  0  0  0  0  0  0
   13.6069  -20.7581   26.4941 C   0  0  0  0  0  0  0  0  0  0  0  0
   14.3776  -20.1907   27.4137 N   0  0  0  0  0  0  0  0  0  0  0  0
   17.7683  -17.6555   25.7866 O   0  0  0  0  0  0  0  0  0  0  0  0
   15.6559  -19.8845   27.1251 C   0  0  0  0  0  0  0  0  0  0  0  0
   16.1648  -20.1640   25.8262 C   0  0  0  0  0  0  0  0  0  0  0  0
   16.4342  -19.2972   28.0972 O   0  0  0  0  0  0  0  0  0  0  0  0
   17.5210  -19.9105   25.3817 N   0  0  0  0  0  0  0  0  0  0  0  0
   18.1331  -20.9345   24.5251 C   0  0  2  0  0  0  0  0  0  0  0  0
   17.2391  -21.2581   23.3690 C   0  0  0  0  0  0  0  0  0  0  0  0
   15.3291  -20.7616   24.9162 C   0  0  0  0  0  0  0  0  0  0  0  0
   15.8134  -21.0585   23.6216 N   0  0  0  0  0  0  0  0  0  0  0  0
   18.4762  -22.2405   25.2643 C   0  0  0  0  0  0  0  0  0  0  0  0
   19.5965  -22.0323   26.1735 N   0  0  0  0  0  0  0  0  0  0  0  0
   23.5528  -23.0875   25.0180 C   0  0  0  0  0  0  0  0  0  0  0  0
   23.3053  -22.6424   26.3057 C   0  0  0  0  0  0  0  0  0  0  0  0
   21.9978  -22.2924   26.6948 C   0  0  0  0  0  0  0  0  0  0  0  0
   20.9551  -22.3918   25.7862 C   0  0  0  0  0  0  0  0  0  0  0  0
   21.2069  -22.8397   24.4928 C   0  0  0  0  0  0  0  0  0  0  0  0
   22.5043  -23.1885   24.1090 C   0  0  0  0  0  0  0  0  0  0  0  0
   18.2812  -18.7608   25.7353 C   0  0  0  0  0  0  0  0  0  0  0  0
  1  3  1  0  0  0  0
  2  3  2  0  0  0  0
  2 12  1  0  0  0  0
  3  4  1  0  0  0  0
  4  6  1  0  0  0  0
  5 22  1  0  0  0  0
  6  7  1  0  0  0  0
  6  8  2  0  0  0  0
  7 12  2  0  0  0  0
  7  9  1  0  0  0  0
  9 10  1  0  0  0  0
  9 22  1  0  0  0  0
 10 11  1  0  0  0  0
 10 14  1  1  0  0  0
 11 13  1  0  0  0  0
 12 13  1  0  0  0  0
 14 15  1  0  0  0  0
 15 19  1  0  0  0  0
 16 17  2  0  0  0  0
 16 21  1  0  0  0  0
 17 18  1  0  0  0  0
 18 19  2  0  0  0  0
 19 20  1  0  0  0  0
 20 21  2  0  0  0  0
M  END
>  <CHROM.1>
-40.01627437,-70.61792233,-97.81101179,-174.71413220,17.80384983,-20.98150047
25.66573619,2.85021291,-0.12621630,0.77622932

>  <Name>
ligand

>  <RI>
0

>  <Rbt.Current_Directory>
/home/itssahil/PROJECTS/Mol_Feturizer/Test_systems_manuscript/rnas/3sd3

>  <Rbt.Executable>
rbdock ($Id: //depot/dev/client3/rdock/2013.1/src/exe/rbdock.cxx#4 $)

>  <Rbt.Library>
libRbt.so (2013.1, Build901 2013/11/27)

>  <Rbt.Parameter_File>
/export/apps/rDock/src/rDock_2013.1_src/data/scripts/dock_solv.prm

>  <Rbt.Receptor>
prm/pocket_docking_2.prm

>  <SCORE>
-11.3063

>  <SCORE.INTER>
-10.9883

>  <SCORE.INTER.CONST>
1

>  <SCORE.INTER.POLAR>
0

>  <SCORE.INTER.ROT>
4

>  <SCORE.INTER.SOLV>
23.3057

>  <SCORE.INTER.VDW>
-21.3607

>  <SCORE.INTER.norm>
-0.499466

>  <SCORE.INTRA>
-0.318089

>  <SCORE.INTRA.DIHEDRAL>
0.282678

>  <SCORE.INTRA.DIHEDRAL.0>
2.54655

>  <SCORE.INTRA.POLAR>
0

>  <SCORE.INTRA.POLAR.0>
0

>  <SCORE.INTRA.REPUL>
0

>  <SCORE.INTRA.REPUL.0>
0

>  <SCORE.INTRA.SOLV>
-0.243904

>  <SCORE.INTRA.SOLV.lig_0>
-56.4922

>  <SCORE.INTRA.VDW>
-0.337476

>  <SCORE.INTRA.VDW.0>
-0.696801

>  <SCORE.INTRA.norm>
-0.0144586

>  <SCORE.RESTR>
0

>  <SCORE.RESTR.CAVITY>
0

>  <SCORE.RESTR.norm>
0

>  <SCORE.SYSTEM>
0

>  <SCORE.SYSTEM.CONST>
0

>  <SCORE.SYSTEM.DIHEDRAL>
0

>  <SCORE.SYSTEM.SOLV>
0

>  <SCORE.SYSTEM.norm>
0

>  <SCORE.heavy>
22

>  <SCORE.norm>
-0.513925

>  <RMSD>
0.693

$$$$
ligand
 OpenBabel02271912143D
libRbt.so/2013.1/901 2013/11/27
 22 24  0  0  0  0  0  0  0  0999 V2000
   12.2593  -21.0699   26.7936 N   0  0  0  0  0  0  0  0  0  0  0  0
   14.1046  -21.0488   25.2680 N   0  0  0  0  0  0  0  0  0  0  0  0
   13.6332  -20.7676   26.4940 C   0  0  0  0  0  0  0  0  0  0  0  0
   14.3937  -20.2209   27.4344 N   0  0  0  0  0  0  0  0  0  0  0  0
   18.6573  -17.9721   25.0345 O   0  0  0  0  0  0  0  0  0  0  0  0
   15.6814  -19.9294   27.1738 C   0  0  0  0  0  0  0  0  0  0  0  0
   16.2115  -20.2020   25.8819 C   0  0  0  0  0  0  0  0  0  0  0  0
   16.4487  -19.3635   28.1671 O   0  0  0  0  0  0  0  0  0  0  0  0
   17.5794  -19.9626   25.4663 N   0  0  0  0  0  0  0  0  0  0  0  0
   18.1938  -20.9857   24.6104 C   0  0  2  0  0  0  0  0  0  0  0  0
   17.3180  -21.2843   23.4338 C   0  0  0  0  0  0  0  0  0  0  0  0
   15.3854  -20.7780   24.9495 C   0  0  0  0  0  0  0  0  0  0  0  0
   15.8905  -21.0676   23.6612 N   0  0  0  0  0  0  0  0  0  0  0  0
   18.5046  -22.3042   25.3415 C   0  0  0  0  0  0  0  0  0  0  0  0
   19.5944  -22.1157   26.2912 N   0  0  0  0  0  0  0  0  0  0  0  0
   23.6061  -23.0140   25.1954 C   0  0  0  0  0  0  0  0  0  0  0  0
   23.3087  -22.6676   26.5027 C   0  0  0  0  0  0  0  0  0  0  0  0
   21.9827  -22.3700   26.8722 C   0  0  0  0  0  0  0  0  0  0  0  0
   20.9717  -22.4220   25.9246 C   0  0  0  0  0  0  0  0  0  0  0  0
   21.2736  -22.7707   24.6115 C   0  0  0  0  0  0  0  0  0  0  0  0
   22.5894  -23.0677   24.2471 C   0  0  0  0  0  0  0  0  0  0  0  0
   18.3482  -18.8274   25.8472 C   0  0  0  0  0  0  0  0  0  0  0  0
  1  3  1  0  0  0  0
  2  3  2  0  0  0  0
  2 12  1  0  0  0  0
  3  4  1  0  0  0  0
  4  6  1  0  0  0  0
  5 22  1  0  0  0  0
  6  7  1  0  0  0  0
  6  8  2  0  0  0  0
  7 12  2  0  0  0  0
  7  9  1  0  0  0  0
  9 10  1  0  0  0  0
  9 22  1  0  0  0  0
 10 11  1  0  0  0  0
 10 14  1  1  0  0  0
 11 13  1  0  0  0  0
 12 13  1  0  0  0  0
 14 15  1  0  0  0  0
 15 19  1  0  0  0  0
 16 17  2  0  0  0  0
 16 21  1  0  0  0  0
 17 18  1  0  0  0  0
 18 19  2  0  0  0  0
 19 20  1  0  0  0  0
 20 21  2  0  0  0  0
M  END
>  <CHROM.1>
-111.03250749,-69.62903947,-95.07643605,-173.41566653,17.88981742,-21.01970787
25.70047907,2.89987066,-0.15690755,0.91565935

>  <Name>
ligand

>  <RI>
0

>  <Rbt.Current_Directory>
/home/itssahil/PROJECTS/Mol_Feturizer/Test_systems_manuscript/rnas/3sd3

>  <Rbt.Executable>
rbdock ($Id: //depot/dev/client3/rdock/2013.1/src/exe/rbdock.cxx#4 $)

>  <Rbt.Library>
libRbt.so (2013.1, Build901 2013/11/27)

>  <Rbt.Parameter_File>
/export/apps/rDock/src/rDock_2013.1_src/data/scripts/dock_solv.prm

>  <Rbt.Receptor>
prm/pocket_docking_2.prm

>  <SCORE>
-10.9845

>  <SCORE.INTER>
-10.6021

>  <SCORE.INTER.CONST>
1

>  <SCORE.INTER.POLAR>
0

>  <SCORE.INTER.ROT>
4

>  <SCORE.INTER.SOLV>
22.6184

>  <SCORE.INTER.VDW>
-20.8742

>  <SCORE.INTER.norm>
-0.481916

>  <SCORE.INTRA>
-0.382315

>  <SCORE.INTRA.DIHEDRAL>
0.172607

>  <SCORE.INTRA.DIHEDRAL.0>
2.54655

>  <SCORE.INTRA.POLAR>
0

>  <SCORE.INTRA.POLAR.0>
0

>  <SCORE.INTRA.REPUL>
0

>  <SCORE.INTRA.REPUL.0>
0

>  <SCORE.INTRA.SOLV>
-0.410762

>  <SCORE.INTRA.SOLV.lig_0>
-56.4922

>  <SCORE.INTRA.VDW>
-0.263237

>  <SCORE.INTRA.VDW.0>
-0.696801

>  <SCORE.INTRA.norm>
-0.0173779

>  <SCORE.RESTR>
0

>  <SCORE.RESTR.CAVITY>
0

>  <SCORE.RESTR.norm>
0

>  <SCORE.SYSTEM>
0

>  <SCORE.SYSTEM.CONST>
0

>  <SCORE.SYSTEM.DIHEDRAL>
0

>  <SCORE.SYSTEM.SOLV>
0

>  <SCORE.SYSTEM.norm>
0

>  <SCORE.heavy>
22

>  <SCORE.norm>
-0.499294

>  <RMSD>
0.693

$$$$
ligand
 OpenBabel02271912143D
libRbt.so/2013.1/901 2013/11/27
 22 24  0  0  0  0  0  0  0  0999 V2000
   12.1224  -21.0559   26.7715 N   0  0  0  0  0  0  0  0  0  0  0  0
   14.0146  -21.0792   25.3046 N   0  0  0  0  0  0  0  0  0  0  0  0
   13.4929  -20.7226   26.4899 C   0  0  0  0  0  0  0  0  0  0  0  0
   14.2009  -20.0740   27.4063 N   0  0  0  0  0  0  0  0  0  0  0  0
   18.7995  -18.5533   26.8594 O   0  0  0  0  0  0  0  0  0  0  0  0
   15.4845  -19.7519   27.1618 C   0  0  0  0  0  0  0  0  0  0  0  0
   16.0666  -20.1027   25.9118 C   0  0  0  0  0  0  0  0  0  0  0  0
   16.1968  -19.0799   28.1296 O   0  0  0  0  0  0  0  0  0  0  0  0
   17.4373  -19.8413   25.5194 N   0  0  0  0  0  0  0  0  0  0  0  0
   18.1178  -20.9023   24.7657 C   0  0  2  0  0  0  0  0  0  0  0  0
   17.2930  -21.3268   23.5910 C   0  0  0  0  0  0  0  0  0  0  0  0
   15.2940  -20.7825   25.0038 C   0  0  0  0  0  0  0  0  0  0  0  0
   15.8517  -21.1509   23.7581 N   0  0  0  0  0  0  0  0  0  0  0  0
   18.4542  -22.1463   25.6078 C   0  0  0  0  0  0  0  0  0  0  0  0
   19.2980  -21.7826   26.7396 N   0  0  0  0  0  0  0  0  0  0  0  0
   23.4755  -22.5887   26.7378 C   0  0  0  0  0  0  0  0  0  0  0  0
   22.7525  -22.6894   25.5610 C   0  0  0  0  0  0  0  0  0  0  0  0
   21.3696  -22.4230   25.5546 C   0  0  0  0  0  0  0  0  0  0  0  0
   20.7289  -22.0606   26.7297 C   0  0  0  0  0  0  0  0  0  0  0  0
   21.4583  -21.9600   27.9108 C   0  0  0  0  0  0  0  0  0  0  0  0
   22.8306  -22.2226   27.9150 C   0  0  0  0  0  0  0  0  0  0  0  0
   18.1497  -18.6499   25.8319 C   0  0  0  0  0  0  0  0  0  0  0  0
  1  3  1  0  0  0  0
  2  3  2  0  0  0  0
  2 12  1  0  0  0  0
  3  4  1  0  0  0  0
  4  6  1  0  0  0  0
  5 22  1  0  0  0  0
  6  7  1  0  0  0  0
  6  8  2  0  0  0  0
  7 12  2  0  0  0  0
  7  9  1  0  0  0  0
  9 10  1  0  0  0  0
  9 22  1  0  0  0  0
 10 11  1  0  0  0  0
 10 14  1  1  0  0  0
 11 13  1  0  0  0  0
 12 13  1  0  0  0  0
 14 15  1  0  0  0  0
 15 19  1  0  0  0  0
 16 17  2  0  0  0  0
 16 21  1  0  0  0  0
 17 18  1  0  0  0  0
 18 19  2  0  0  0  0
 19 20  1  0  0  0  0
 20 21  2  0  0  0  0
M  END
>  <CHROM.1>
89.79041664,-58.18009893,-103.30069486,13.19879728,17.75434551,-20.88337724
26.14717355,-3.07479935,0.21732460,-2.12052119

>  <Name>
ligand

>  <RI>
0

>  <Rbt.Current_Directory>
/home/itssahil/PROJECTS/Mol_Feturizer/Test_systems_manuscript/rnas/3sd3

>  <Rbt.Executable>
rbdock ($Id: //depot/dev/client3/rdock/2013.1/src/exe/rbdock.cxx#4 $)

>  <Rbt.Library>
libRbt.so (2013.1, Build901 2013/11/27)

>  <Rbt.Parameter_File>
/export/apps/rDock/src/rDock_2013.1_src/data/scripts/dock_solv.prm

>  <Rbt.Receptor>
prm/pocket_docking_2.prm

>  <SCORE>
-10.7946

>  <SCORE.INTER>
-10.4508

>  <SCORE.INTER.CONST>
1

>  <SCORE.INTER.POLAR>
0

>  <SCORE.INTER.ROT>
4

>  <SCORE.INTER.SOLV>
22.6976

>  <SCORE.INTER.VDW>
-20.7997

>  <SCORE.INTER.norm>
-0.475037

>  <SCORE.INTRA>
-0.343827

>  <SCORE.INTRA.DIHEDRAL>
0.0593648

>  <SCORE.INTRA.DIHEDRAL.0>
2.54655

>  <SCORE.INTRA.POLAR>
0

>  <SCORE.INTRA.POLAR.0>
0

>  <SCORE.INTRA.REPUL>
0

>  <SCORE.INTRA.REPUL.0>
0

>  <SCORE.INTRA.SOLV>
0.641022

>  <SCORE.INTRA.SOLV.lig_0>
-56.4922

>  <SCORE.INTRA.VDW>
-0.69402

>  <SCORE.INTRA.VDW.0>
-0.696801

>  <SCORE.INTRA.norm>
-0.0156285

>  <SCORE.RESTR>
0

>  <SCORE.RESTR.CAVITY>
0

>  <SCORE.RESTR.norm>
0

>  <SCORE.SYSTEM>
0

>  <SCORE.SYSTEM.CONST>
0

>  <SCORE.SYSTEM.DIHEDRAL>
0

>  <SCORE.SYSTEM.SOLV>
0

>  <SCORE.SYSTEM.norm>
0

>  <SCORE.heavy>
22

>  <SCORE.norm>
-0.490665

>  <RMSD>
0.699

$$$$
ligand
 OpenBabel02271912143D
libRbt.so/2013.1/901 2013/11/27
 22 24  0  0  0  0  0  0  0  0999 V2000
   12.3838  -21.4528   27.1526 N   0  0  0  0  0  0  0  0  0  0  0  0
   14.1350  -21.2908   25.5278 N   0  0  0  0  0  0  0  0  0  0  0  0
   13.6550  -20.9298   26.7292 C   0  0  0  0  0  0  0  0  0  0  0  0
   14.3155  -20.1076   27.5352 N   0  0  0  0  0  0  0  0  0  0  0  0
   19.0412  -17.9910   25.4485 O   0  0  0  0  0  0  0  0  0  0  0  0
   15.5059  -19.6065   27.1573 C   0  0  0  0  0  0  0  0  0  0  0  0
   16.0393  -19.9573   25.8857 C   0  0  0  0  0  0  0  0  0  0  0  0
   16.1707  -18.7566   28.0124 O   0  0  0  0  0  0  0  0  0  0  0  0
   17.3140  -19.5137   25.3569 N   0  0  0  0  0  0  0  0  0  0  0  0
   18.0993  -20.5092   24.6159 C   0  0  2  0  0  0  0  0  0  0  0  0
   17.2671  -21.1495   23.5491 C   0  0  0  0  0  0  0  0  0  0  0  0
   15.3211  -20.8198   25.0959 C   0  0  0  0  0  0  0  0  0  0  0  0
   15.8338  -21.1915   23.8319 N   0  0  0  0  0  0  0  0  0  0  0  0
   18.6996  -21.6145   25.5034 C   0  0  0  0  0  0  0  0  0  0  0  0
   19.6833  -21.0531   26.4212 N   0  0  0  0  0  0  0  0  0  0  0  0
   23.4993  -22.8602   26.9448 C   0  0  0  0  0  0  0  0  0  0  0  0
   22.9998  -22.6592   25.6689 C   0  0  0  0  0  0  0  0  0  0  0  0
   21.7378  -22.0607   25.4887 C   0  0  0  0  0  0  0  0  0  0  0  0
   20.9917  -21.6729   26.5913 C   0  0  0  0  0  0  0  0  0  0  0  0
   21.4963  -21.8761   27.8723 C   0  0  0  0  0  0  0  0  0  0  0  0
   22.7495  -22.4680   28.0493 C   0  0  0  0  0  0  0  0  0  0  0  0
   17.8429  -18.2037   25.5272 C   0  0  0  0  0  0  0  0  0  0  0  0
  1  3  1  0  0  0  0
  2  3  2  0  0  0  0
  2 12  1  0  0  0  0
  3  4  1  0  0  0  0
  4  6  1  0  0  0  0
  5 22  1  0  0  0  0
  6  7  1  0  0  0  0
  6  8  2  0  0  0  0
  7 12  2  0  0  0  0
  7  9  1  0  0  0  0
  9 10  1  0  0  0  0
  9 22  1  0  0  0  0
 10 11  1  0  0  0  0
 10 14  1  1  0  0  0
 11 13  1  0  0  0  0
 12 13  1  0  0  0  0
 14 15  1  0  0  0  0
 15 19  1  0  0  0  0
 16 17  2  0  0  0  0
 16 21  1  0  0  0  0
 17 18  1  0  0  0  0
 18 19  2  0  0  0  0
 19 20  1  0  0  0  0
 20 21  2  0  0  0  0
M  END
>  <CHROM.1>
156.70816676,-65.21380462,-132.49599484,46.51394779,17.83977097,-20.72728284
26.07140752,3.06629991,0.19854012,-1.38055312

>  <Name>
ligand

>  <RI>
0

>  <Rbt.Current_Directory>
/home/itssahil/PROJECTS/Mol_Feturizer/Test_systems_manuscript/rnas/3sd3

>  <Rbt.Executable>
rbdock ($Id: //depot/dev/client3/rdock/2013.1/src/exe/rbdock.cxx#4 $)

>  <Rbt.Library>
libRbt.so (2013.1, Build901 2013/11/27)

>  <Rbt.Parameter_File>
/export/apps/rDock/src/rDock_2013.1_src/data/scripts/dock_solv.prm

>  <Rbt.Receptor>
prm/pocket_docking_2.prm

>  <SCORE>
-9.91716

>  <SCORE.INTER>
-9.86084

>  <SCORE.INTER.CONST>
1

>  <SCORE.INTER.POLAR>
0

>  <SCORE.INTER.ROT>
4

>  <SCORE.INTER.SOLV>
21.8786

>  <SCORE.INTER.VDW>
-20.1334

>  <SCORE.INTER.norm>
-0.44822

>  <SCORE.INTRA>
-0.056324

>  <SCORE.INTRA.DIHEDRAL>
0.280897

>  <SCORE.INTRA.DIHEDRAL.0>
2.54655

>  <SCORE.INTRA.POLAR>
0

>  <SCORE.INTRA.POLAR.0>
0

>  <SCORE.INTRA.REPUL>
0

>  <SCORE.INTRA.REPUL.0>
0

>  <SCORE.INTRA.SOLV>
0.350558

>  <SCORE.INTRA.SOLV.lig_0>
-56.4922

>  <SCORE.INTRA.VDW>
-0.372052

>  <SCORE.INTRA.VDW.0>
-0.696801

>  <SCORE.INTRA.norm>
-0.00256018

>  <SCORE.RESTR>
0

>  <SCORE.RESTR.CAVITY>
0

>  <SCORE.RESTR.norm>
0

>  <SCORE.SYSTEM>
0

>  <SCORE.SYSTEM.CONST>
0

>  <SCORE.SYSTEM.DIHEDRAL>
0

>  <SCORE.SYSTEM.SOLV>
0

>  <SCORE.SYSTEM.norm>
0

>  <SCORE.heavy>
22

>  <SCORE.norm>
-0.45078

>  <RMSD>
0.754

$$$$
ligand
 OpenBabel02271912143D
libRbt.so/2013.1/901 2013/11/27
 22 24  0  0  0  0  0  0  0  0999 V2000
   11.9792  -20.9977   26.6703 N   0  0  0  0  0  0  0  0  0  0  0  0
   13.9267  -21.0545   25.2785 N   0  0  0  0  0  0  0  0  0  0  0  0
   13.3598  -20.6706   26.4342 C   0  0  0  0  0  0  0  0  0  0  0  0
   14.0323  -20.0007   27.3620 N   0  0  0  0  0  0  0  0  0  0  0  0
   18.7510  -18.0633   25.0840 O   0  0  0  0  0  0  0  0  0  0  0  0
   15.3246  -19.6840   27.1598 C   0  0  0  0  0  0  0  0  0  0  0  0
   15.9543  -20.0635   25.9417 C   0  0  0  0  0  0  0  0  0  0  0  0
   15.9994  -18.9895   28.1385 O   0  0  0  0  0  0  0  0  0  0  0  0
   17.3393  -19.8110   25.5966 N   0  0  0  0  0  0  0  0  0  0  0  0
   18.0478  -20.8890   24.8946 C   0  0  2  0  0  0  0  0  0  0  0  0
   17.2687  -21.3409   23.6991 C   0  0  0  0  0  0  0  0  0  0  0  0
   15.2169  -20.7645   25.0205 C   0  0  0  0  0  0  0  0  0  0  0  0
   15.8221  -21.1616   23.8062 N   0  0  0  0  0  0  0  0  0  0  0  0
   18.3507  -22.1130   25.7777 C   0  0  0  0  0  0  0  0  0  0  0  0
   19.2634  -21.7507   26.8551 N   0  0  0  0  0  0  0  0  0  0  0  0
   23.4228  -22.5915   26.5497 C   0  0  0  0  0  0  0  0  0  0  0  0
   22.8894  -22.1766   27.7583 C   0  0  0  0  0  0  0  0  0  0  0  0
   21.5132  -21.8976   27.8664 C   0  0  0  0  0  0  0  0  0  0  0  0
   20.6896  -22.0366   26.7596 C   0  0  0  0  0  0  0  0  0  0  0  0
   21.2286  -22.4539   25.5462 C   0  0  0  0  0  0  0  0  0  0  0  0
   22.5938  -22.7323   25.4412 C   0  0  0  0  0  0  0  0  0  0  0  0
   18.0398  -18.6124   25.9087 C   0  0  0  0  0  0  0  0  0  0  0  0
  1  3  1  0  0  0  0
  2  3  2  0  0  0  0
  2 12  1  0  0  0  0
  3  4  1  0  0  0  0
  4  6  1  0  0  0  0
  5 22  1  0  0  0  0
  6  7  1  0  0  0  0
  6  8  2  0  0  0  0
  7 12  2  0  0  0  0
  7  9  1  0  0  0  0
  9 10  1  0  0  0  0
  9 22  1  0  0  0  0
 10 11  1  0  0  0  0
 10 14  1  1  0  0  0
 11 13  1  0  0  0  0
 12 13  1  0  0  0  0
 14 15  1  0  0  0  0
 15 19  1  0  0  0  0
 16 17  2  0  0  0  0
 16 21  1  0  0  0  0
 17 18  1  0  0  0  0
 18 19  2  0  0  0  0
 19 20  1  0  0  0  0
 20 21  2  0  0  0  0
M  END
>  <CHROM.1>
-135.56768259,-64.04762620,-99.36585368,-169.13289503,17.66787664,-20.82856858
26.05573908,-3.06938386,0.21838783,-2.07093060

>  <Name>
ligand

>  <RI>
0

>  <Rbt.Current_Directory>
/home/itssahil/PROJECTS/Mol_Feturizer/Test_systems_manuscript/rnas/3sd3

>  <Rbt.Executable>
rbdock ($Id: //depot/dev/client3/rdock/2013.1/src/exe/rbdock.cxx#4 $)

>  <Rbt.Library>
libRbt.so (2013.1, Build901 2013/11/27)

>  <Rbt.Parameter_File>
/export/apps/rDock/src/rDock_2013.1_src/data/scripts/dock_solv.prm

>  <Rbt.Receptor>
prm/pocket_docking_2.prm

>  <SCORE>
-10.7517

>  <SCORE.INTER>
-10.4432

>  <SCORE.INTER.CONST>
1

>  <SCORE.INTER.POLAR>
0

>  <SCORE.INTER.ROT>
4

>  <SCORE.INTER.SOLV>
23.4729

>  <SCORE.INTER.VDW>
-21.0531

>  <SCORE.INTER.norm>
-0.474692

>  <SCORE.INTRA>
-0.308488

>  <SCORE.INTRA.DIHEDRAL>
0.00498942

>  <SCORE.INTRA.DIHEDRAL.0>
2.54655

>  <SCORE.INTRA.POLAR>
0

>  <SCORE.INTRA.POLAR.0>
0

>  <SCORE.INTRA.REPUL>
0

>  <SCORE.INTRA.REPUL.0>
0

>  <SCORE.INTRA.SOLV>
-0.200913

>  <SCORE.INTRA.SOLV.lig_0>
-56.4922

>  <SCORE.INTRA.VDW>
-0.210527

>  <SCORE.INTRA.VDW.0>
-0.696801

>  <SCORE.INTRA.norm>
-0.0140222

>  <SCORE.RESTR>
0

>  <SCORE.RESTR.CAVITY>
0

>  <SCORE.RESTR.norm>
0

>  <SCORE.SYSTEM>
0

>  <SCORE.SYSTEM.CONST>
0

>  <SCORE.SYSTEM.DIHEDRAL>
0

>  <SCORE.SYSTEM.SOLV>
0

>  <SCORE.SYSTEM.norm>
0

>  <SCORE.heavy>
22

>  <SCORE.norm>
-0.488714

>  <RMSD>
0.759

$$$$
ligand
 OpenBabel02271912143D
libRbt.so/2013.1/901 2013/11/27
 22 24  0  0  0  0  0  0  0  0999 V2000
   12.4741  -21.5082   27.3000 N   0  0  0  0  0  0  0  0  0  0  0  0
   14.1129  -21.2931   25.5677 N   0  0  0  0  0  0  0  0  0  0  0  0
   13.7040  -20.9537   26.8013 C   0  0  0  0  0  0  0  0  0  0  0  0
   14.3976  -20.1249   27.5718 N   0  0  0  0  0  0  0  0  0  0  0  0
   18.8945  -17.9304   25.7247 O   0  0  0  0  0  0  0  0  0  0  0  0
   15.5503  -19.5944   27.1233 C   0  0  0  0  0  0  0  0  0  0  0  0
   16.0077  -19.9218   25.8164 C   0  0  0  0  0  0  0  0  0  0  0  0
   16.2509  -18.7382   27.9428 O   0  0  0  0  0  0  0  0  0  0  0  0
   17.2359  -19.4457   25.2114 N   0  0  0  0  0  0  0  0  0  0  0  0
   17.9926  -20.4169   24.4108 C   0  0  2  0  0  0  0  0  0  0  0  0
   17.1070  -21.0653   23.3930 C   0  0  0  0  0  0  0  0  0  0  0  0
   15.2584  -20.7923   25.0653 C   0  0  0  0  0  0  0  0  0  0  0  0
   15.6961  -21.1411   23.7671 N   0  0  0  0  0  0  0  0  0  0  0  0
   18.6722  -21.5170   25.2460 C   0  0  0  0  0  0  0  0  0  0  0  0
   19.6527  -20.9349   26.1543 N   0  0  0  0  0  0  0  0  0  0  0  0
   23.4085  -22.8105   26.8452 C   0  0  0  0  0  0  0  0  0  0  0  0
   22.9748  -22.5907   25.5486 C   0  0  0  0  0  0  0  0  0  0  0  0
   21.7330  -21.9695   25.3131 C   0  0  0  0  0  0  0  0  0  0  0  0
   20.9409  -21.5781   26.3818 C   0  0  0  0  0  0  0  0  0  0  0  0
   21.3795  -21.8002   27.6838 C   0  0  0  0  0  0  0  0  0  0  0  0
   22.6127  -22.4147   27.9157 C   0  0  0  0  0  0  0  0  0  0  0  0
   17.7469  -18.1261   25.3611 C   0  0  0  0  0  0  0  0  0  0  0  0
  1  3  1  0  0  0  0
  2  3  2  0  0  0  0
  2 12  1  0  0  0  0
  3  4  1  0  0  0  0
  4  6  1  0  0  0  0
  5 22  1  0  0  0  0
  6  7  1  0  0  0  0
  6  8  2  0  0  0  0
  7 12  2  0  0  0  0
  7  9  1  0  0  0  0
  9 10  1  0  0  0  0
  9 22  1  0  0  0  0
 10 11  1  0  0  0  0
 10 14  1  1  0  0  0
 11 13  1  0  0  0  0
 12 13  1  0  0  0  0
 14 15  1  0  0  0  0
 15 19  1  0  0  0  0
 16 17  2  0  0  0  0
 16 21  1  0  0  0  0
 17 18  1  0  0  0  0
 18 19  2  0  0  0  0
 19 20  1  0  0  0  0
 20 21  2  0  0  0  0
M  END
>  <CHROM.1>
127.83291816,-62.27897922,-139.43729765,50.30381851,17.79549716,-20.67856206
25.99270620,3.10818361,0.20113824,-1.49704167

>  <Name>
ligand

>  <RI>
0

>  <Rbt.Current_Directory>
/home/itssahil/PROJECTS/Mol_Feturizer/Test_systems_manuscript/rnas/3sd3

>  <Rbt.Executable>
rbdock ($Id: //depot/dev/client3/rdock/2013.1/src/exe/rbdock.cxx#4 $)

>  <Rbt.Library>
libRbt.so (2013.1, Build901 2013/11/27)

>  <Rbt.Parameter_File>
/export/apps/rDock/src/rDock_2013.1_src/data/scripts/dock_solv.prm

>  <Rbt.Receptor>
prm/pocket_docking_2.prm

>  <SCORE>
-9.80718

>  <SCORE.INTER>
-9.42803

>  <SCORE.INTER.CONST>
1

>  <SCORE.INTER.POLAR>
0

>  <SCORE.INTER.ROT>
4

>  <SCORE.INTER.SOLV>
22.2883

>  <SCORE.INTER.VDW>
-19.9815

>  <SCORE.INTER.norm>
-0.428547

>  <SCORE.INTRA>
-0.379181

>  <SCORE.INTRA.DIHEDRAL>
0.0313332

>  <SCORE.INTRA.DIHEDRAL.0>
2.54655

>  <SCORE.INTRA.POLAR>
0

>  <SCORE.INTRA.POLAR.0>
0

>  <SCORE.INTRA.REPUL>
0

>  <SCORE.INTRA.REPUL.0>
0

>  <SCORE.INTRA.SOLV>
0.531583

>  <SCORE.INTRA.SOLV.lig_0>
-56.4922

>  <SCORE.INTRA.VDW>
-0.660639

>  <SCORE.INTRA.VDW.0>
-0.696801

>  <SCORE.INTRA.norm>
-0.0172355

>  <SCORE.RESTR>
3.15935e-05

>  <SCORE.RESTR.CAVITY>
3.15935e-05

>  <SCORE.RESTR.norm>
1.43607e-06

>  <SCORE.SYSTEM>
0

>  <SCORE.SYSTEM.CONST>
0

>  <SCORE.SYSTEM.DIHEDRAL>
0

>  <SCORE.SYSTEM.SOLV>
0

>  <SCORE.SYSTEM.norm>
0

>  <SCORE.heavy>
22

>  <SCORE.norm>
-0.445781

>  <RMSD>
0.773

$$$$
ligand
 OpenBabel02271912143D
libRbt.so/2013.1/901 2013/11/27
 22 24  0  0  0  0  0  0  0  0999 V2000
   12.0905  -20.9849   26.6922 N   0  0  0  0  0  0  0  0  0  0  0  0
   13.9882  -21.0228   25.2326 N   0  0  0  0  0  0  0  0  0  0  0  0
   13.4736  -20.6915   26.4283 C   0  0  0  0  0  0  0  0  0  0  0  0
   14.1999  -20.1033   27.3708 N   0  0  0  0  0  0  0  0  0  0  0  0
   17.7151  -17.6508   25.8176 O   0  0  0  0  0  0  0  0  0  0  0  0
   15.4955  -19.8192   27.1434 C   0  0  0  0  0  0  0  0  0  0  0  0
   16.0710  -20.1446   25.8834 C   0  0  0  0  0  0  0  0  0  0  0  0
   16.2266  -19.2096   28.1381 O   0  0  0  0  0  0  0  0  0  0  0  0
   17.4523  -19.9189   25.5063 N   0  0  0  0  0  0  0  0  0  0  0  0
   18.0979  -20.9755   24.7164 C   0  0  2  0  0  0  0  0  0  0  0  0
   17.2643  -21.3261   23.5236 C   0  0  0  0  0  0  0  0  0  0  0  0
   15.2790  -20.7619   24.9479 C   0  0  0  0  0  0  0  0  0  0  0  0
   15.8295  -21.1043   23.6916 N   0  0  0  0  0  0  0  0  0  0  0  0
   18.3847  -22.2610   25.5132 C   0  0  0  0  0  0  0  0  0  0  0  0
   19.5737  -22.0936   26.3399 N   0  0  0  0  0  0  0  0  0  0  0  0
   23.4190  -23.1327   24.8447 C   0  0  0  0  0  0  0  0  0  0  0  0
   23.2834  -22.6816   26.1468 C   0  0  0  0  0  0  0  0  0  0  0  0
   22.0133  -22.3369   26.6482 C   0  0  0  0  0  0  0  0  0  0  0  0
   20.8950  -22.4475   25.8359 C   0  0  0  0  0  0  0  0  0  0  0  0
   21.0343  -22.9014   24.5276 C   0  0  0  0  0  0  0  0  0  0  0  0
   22.2949  -23.2450   24.0325 C   0  0  0  0  0  0  0  0  0  0  0  0
   18.2056  -18.7664   25.8654 C   0  0  0  0  0  0  0  0  0  0  0  0
  1  3  1  0  0  0  0
  2  3  2  0  0  0  0
  2 12  1  0  0  0  0
  3  4  1  0  0  0  0
  4  6  1  0  0  0  0
  5 22  1  0  0  0  0
  6  7  1  0  0  0  0
  6  8  2  0  0  0  0
  7 12  2  0  0  0  0
  7  9  1  0  0  0  0
  9 10  1  0  0  0  0
  9 22  1  0  0  0  0
 10 11  1  0  0  0  0
 10 14  1  1  0  0  0
 11 13  1  0  0  0  0
 12 13  1  0  0  0  0
 14 15  1  0  0  0  0
 15 19  1  0  0  0  0
 16 17  2  0  0  0  0
 16 21  1  0  0  0  0
 17 18  1  0  0  0  0
 18 19  2  0  0  0  0
 19 20  1  0  0  0  0
 20 21  2  0  0  0  0
M  END
>  <CHROM.1>
-42.14432132,-78.53172774,-90.89196677,-177.32301248,17.71615551,-20.98488753
25.69789836,2.82831286,-0.10942352,0.70862051

>  <Name>
ligand

>  <RI>
0

>  <Rbt.Current_Directory>
/home/itssahil/PROJECTS/Mol_Feturizer/Test_systems_manuscript/rnas/3sd3

>  <Rbt.Executable>
rbdock ($Id: //depot/dev/client3/rdock/2013.1/src/exe/rbdock.cxx#4 $)

>  <Rbt.Library>
libRbt.so (2013.1, Build901 2013/11/27)

>  <Rbt.Parameter_File>
/export/apps/rDock/src/rDock_2013.1_src/data/scripts/dock_solv.prm

>  <Rbt.Receptor>
prm/pocket_docking_2.prm

>  <SCORE>
-11.3234

>  <SCORE.INTER>
-11.2303

>  <SCORE.INTER.CONST>
1

>  <SCORE.INTER.POLAR>
0

>  <SCORE.INTER.ROT>
4

>  <SCORE.INTER.SOLV>
24.4289

>  <SCORE.INTER.VDW>
-21.8965

>  <SCORE.INTER.norm>
-0.51047

>  <SCORE.INTRA>
-0.0930168

>  <SCORE.INTRA.DIHEDRAL>
0.80727

>  <SCORE.INTRA.DIHEDRAL.0>
2.54655

>  <SCORE.INTRA.POLAR>
0

>  <SCORE.INTRA.POLAR.0>
0

>  <SCORE.INTRA.REPUL>
0

>  <SCORE.INTRA.REPUL.0>
0

>  <SCORE.INTRA.SOLV>
-0.359957

>  <SCORE.INTRA.SOLV.lig_0>
-56.4922

>  <SCORE.INTRA.VDW>
-0.316673

>  <SCORE.INTRA.VDW.0>
-0.696801

>  <SCORE.INTRA.norm>
-0.00422804

>  <SCORE.RESTR>
0

>  <SCORE.RESTR.CAVITY>
0

>  <SCORE.RESTR.norm>
0

>  <SCORE.SYSTEM>
0

>  <SCORE.SYSTEM.CONST>
0

>  <SCORE.SYSTEM.DIHEDRAL>
0

>  <SCORE.SYSTEM.SOLV>
0

>  <SCORE.SYSTEM.norm>
0

>  <SCORE.heavy>
22

>  <SCORE.norm>
-0.514698

>  <RMSD>
0.777

$$$$
ligand
 OpenBabel02271912143D
libRbt.so/2013.1/901 2013/11/27
 22 24  0  0  0  0  0  0  0  0999 V2000
   12.0940  -21.4288   26.9642 N   0  0  0  0  0  0  0  0  0  0  0  0
   13.9723  -21.3224   25.4831 N   0  0  0  0  0  0  0  0  0  0  0  0
   13.4053  -20.9361   26.6379 C   0  0  0  0  0  0  0  0  0  0  0  0
   14.0158  -20.1161   27.4845 N   0  0  0  0  0  0  0  0  0  0  0  0
   18.1827  -17.6639   24.8113 O   0  0  0  0  0  0  0  0  0  0  0  0
   15.2426  -19.6431   27.1972 C   0  0  0  0  0  0  0  0  0  0  0  0
   15.8686  -20.0211   25.9767 C   0  0  0  0  0  0  0  0  0  0  0  0
   15.8541  -18.7948   28.0927 O   0  0  0  0  0  0  0  0  0  0  0  0
   17.1902  -19.6093   25.5465 N   0  0  0  0  0  0  0  0  0  0  0  0
   18.0118  -20.6296   24.8826 C   0  0  2  0  0  0  0  0  0  0  0  0
   17.2547  -21.2679   23.7602 C   0  0  0  0  0  0  0  0  0  0  0  0
   15.1984  -20.8801   25.1421 C   0  0  0  0  0  0  0  0  0  0  0  0
   15.8028  -21.2786   23.9278 N   0  0  0  0  0  0  0  0  0  0  0  0
   18.5168  -21.7342   25.8284 C   0  0  0  0  0  0  0  0  0  0  0  0
   19.5627  -21.2178   26.7027 N   0  0  0  0  0  0  0  0  0  0  0  0
   23.5102  -22.8017   26.6025 C   0  0  0  0  0  0  0  0  0  0  0  0
   22.7971  -22.6502   25.4252 C   0  0  0  0  0  0  0  0  0  0  0  0
   21.4903  -22.1256   25.4513 C   0  0  0  0  0  0  0  0  0  0  0  0
   20.9146  -21.7612   26.6590 C   0  0  0  0  0  0  0  0  0  0  0  0
   21.6339  -21.9145   27.8406 C   0  0  0  0  0  0  0  0  0  0  0  0
   22.9310  -22.4331   27.8127 C   0  0  0  0  0  0  0  0  0  0  0  0
   17.7302  -18.3076   25.7431 C   0  0  0  0  0  0  0  0  0  0  0  0
  1  3  1  0  0  0  0
  2  3  2  0  0  0  0
  2 12  1  0  0  0  0
  3  4  1  0  0  0  0
  4  6  1  0  0  0  0
  5 22  1  0  0  0  0
  6  7  1  0  0  0  0
  6  8  2  0  0  0  0
  7 12  2  0  0  0  0
  7  9  1  0  0  0  0
  9 10  1  0  0  0  0
  9 22  1  0  0  0  0
 10 11  1  0  0  0  0
 10 14  1  1  0  0  0
 11 13  1  0  0  0  0
 12 13  1  0  0  0  0
 14 15  1  0  0  0  0
 15 19  1  0  0  0  0
 16 17  2  0  0  0  0
 16 21  1  0  0  0  0
 17 18  1  0  0  0  0
 18 19  2  0  0  0  0
 19 20  1  0  0  0  0
 20 21  2  0  0  0  0
M  END
>  <CHROM.1>
-126.75095573,-72.53193360,-117.69582203,38.15875458,17.66565577,-20.76132290
26.07212914,2.93851074,0.08220259,-0.48062105

>  <Name>
ligand

>  <RI>
0

>  <Rbt.Current_Directory>
/home/itssahil/PROJECTS/Mol_Feturizer/Test_systems_manuscript/rnas/3sd3

>  <Rbt.Executable>
rbdock ($Id: //depot/dev/client3/rdock/2013.1/src/exe/rbdock.cxx#4 $)

>  <Rbt.Library>
libRbt.so (2013.1, Build901 2013/11/27)

>  <Rbt.Parameter_File>
/export/apps/rDock/src/rDock_2013.1_src/data/scripts/dock_solv.prm

>  <Rbt.Receptor>
prm/pocket_docking_2.prm

>  <SCORE>
-10.3909

>  <SCORE.INTER>
-10.1552

>  <SCORE.INTER.CONST>
1

>  <SCORE.INTER.POLAR>
0

>  <SCORE.INTER.ROT>
4

>  <SCORE.INTER.SOLV>
23.3806

>  <SCORE.INTER.VDW>
-20.8304

>  <SCORE.INTER.norm>
-0.461602

>  <SCORE.INTRA>
-0.235673

>  <SCORE.INTRA.DIHEDRAL>
0.801361

>  <SCORE.INTRA.DIHEDRAL.0>
2.54655

>  <SCORE.INTRA.POLAR>
0

>  <SCORE.INTRA.POLAR.0>
0

>  <SCORE.INTRA.REPUL>
0

>  <SCORE.INTRA.REPUL.0>
0

>  <SCORE.INTRA.SOLV>
-0.418571

>  <SCORE.INTRA.SOLV.lig_0>
-56.4922

>  <SCORE.INTRA.VDW>
-0.427068

>  <SCORE.INTRA.VDW.0>
-0.696801

>  <SCORE.INTRA.norm>
-0.0107124

>  <SCORE.RESTR>
0

>  <SCORE.RESTR.CAVITY>
0

>  <SCORE.RESTR.norm>
0

>  <SCORE.SYSTEM>
0

>  <SCORE.SYSTEM.CONST>
0

>  <SCORE.SYSTEM.DIHEDRAL>
0

>  <SCORE.SYSTEM.SOLV>
0

>  <SCORE.SYSTEM.norm>
0

>  <SCORE.heavy>
22

>  <SCORE.norm>
-0.472314

>  <RMSD>
0.788

$$$$
ligand
 OpenBabel02271912143D
libRbt.so/2013.1/901 2013/11/27
 22 24  0  0  0  0  0  0  0  0999 V2000
   12.1003  -20.9959   26.7367 N   0  0  0  0  0  0  0  0  0  0  0  0
   13.9863  -21.0225   25.2618 N   0  0  0  0  0  0  0  0  0  0  0  0
   13.4808  -20.6989   26.4635 C   0  0  0  0  0  0  0  0  0  0  0  0
   14.2138  -20.1150   27.4035 N   0  0  0  0  0  0  0  0  0  0  0  0
   18.6932  -18.6497   26.9858 O   0  0  0  0  0  0  0  0  0  0  0  0
   15.5071  -19.8277   27.1673 C   0  0  0  0  0  0  0  0  0  0  0  0
   16.0729  -20.1448   25.9009 C   0  0  0  0  0  0  0  0  0  0  0  0
   16.2453  -19.2228   28.1597 O   0  0  0  0  0  0  0  0  0  0  0  0
   17.4508  -19.9149   25.5140 N   0  0  0  0  0  0  0  0  0  0  0  0
   18.0916  -20.9658   24.7129 C   0  0  2  0  0  0  0  0  0  0  0  0
   17.2490  -21.3108   23.5248 C   0  0  0  0  0  0  0  0  0  0  0  0
   15.2744  -20.7580   24.9682 C   0  0  0  0  0  0  0  0  0  0  0  0
   15.8152  -21.0921   23.7055 N   0  0  0  0  0  0  0  0  0  0  0  0
   18.3868  -22.2555   25.4998 C   0  0  0  0  0  0  0  0  0  0  0  0
   19.5766  -22.0880   26.3252 N   0  0  0  0  0  0  0  0  0  0  0  0
   23.4424  -23.1141   24.8744 C   0  0  0  0  0  0  0  0  0  0  0  0
   22.3396  -23.2347   24.0457 C   0  0  0  0  0  0  0  0  0  0  0  0
   21.0573  -22.8958   24.5194 C   0  0  0  0  0  0  0  0  0  0  0  0
   20.8974  -22.4417   25.8198 C   0  0  0  0  0  0  0  0  0  0  0  0
   22.0076  -22.3214   26.6503 C   0  0  0  0  0  0  0  0  0  0  0  0
   23.2794  -22.6560   26.1781 C   0  0  0  0  0  0  0  0  0  0  0  0
   18.2053  -18.7633   25.8738 C   0  0  0  0  0  0  0  0  0  0  0  0
  1  3  1  0  0  0  0
  2  3  2  0  0  0  0
  2 12  1  0  0  0  0
  3  4  1  0  0  0  0
  4  6  1  0  0  0  0
  5 22  1  0  0  0  0
  6  7  1  0  0  0  0
  6  8  2  0  0  0  0
  7 12  2  0  0  0  0
  7  9  1  0  0  0  0
  9 10  1  0  0  0  0
  9 22  1  0  0  0  0
 10 11  1  0  0  0  0
 10 14  1  1  0  0  0
 11 13  1  0  0  0  0
 12 13  1  0  0  0  0
 14 15  1  0  0  0  0
 15 19  1  0  0  0  0
 16 17  2  0  0  0  0
 16 21  1  0  0  0  0
 17 18  1  0  0  0  0
 18 19  2  0  0  0  0
 19 20  1  0  0  0  0
 20 21  2  0  0  0  0
M  END
>  <CHROM.1>
78.47591780,-78.12680041,-91.39935777,2.64301033,17.77453244,-21.03607621
25.77451129,2.86524584,-0.14350443,0.88010602

>  <Name>
ligand

>  <RI>
0

>  <Rbt.Current_Directory>
/home/itssahil/PROJECTS/Mol_Feturizer/Test_systems_manuscript/rnas/3sd3

>  <Rbt.Executable>
rbdock ($Id: //depot/dev/client3/rdock/2013.1/src/exe/rbdock.cxx#4 $)

>  <Rbt.Library>
libRbt.so (2013.1, Build901 2013/11/27)

>  <Rbt.Parameter_File>
/export/apps/rDock/src/rDock_2013.1_src/data/scripts/dock_solv.prm

>  <Rbt.Receptor>
prm/pocket_docking_2.prm

>  <SCORE>
-10.9141

>  <SCORE.INTER>
-10.9718

>  <SCORE.INTER.CONST>
1

>  <SCORE.INTER.POLAR>
0

>  <SCORE.INTER.ROT>
4

>  <SCORE.INTER.SOLV>
23.5899

>  <SCORE.INTER.VDW>
-21.4445

>  <SCORE.INTER.norm>
-0.49872

>  <SCORE.INTRA>
0.0577845

>  <SCORE.INTRA.DIHEDRAL>
0.77759

>  <SCORE.INTRA.DIHEDRAL.0>
2.54655

>  <SCORE.INTRA.POLAR>
0

>  <SCORE.INTRA.POLAR.0>
0

>  <SCORE.INTRA.REPUL>
0

>  <SCORE.INTRA.REPUL.0>
0

>  <SCORE.INTRA.SOLV>
0.206741

>  <SCORE.INTRA.SOLV.lig_0>
-56.4922

>  <SCORE.INTRA.VDW>
-0.434381

>  <SCORE.INTRA.VDW.0>
-0.696801

>  <SCORE.INTRA.norm>
0.00262657

>  <SCORE.RESTR>
0

>  <SCORE.RESTR.CAVITY>
0

>  <SCORE.RESTR.norm>
0

>  <SCORE.SYSTEM>
0

>  <SCORE.SYSTEM.CONST>
0

>  <SCORE.SYSTEM.DIHEDRAL>
0

>  <SCORE.SYSTEM.SOLV>
0

>  <SCORE.SYSTEM.norm>
0

>  <SCORE.heavy>
22

>  <SCORE.norm>
-0.496094

>  <RMSD>
0.808

$$$$
ligand
 OpenBabel02271912143D
libRbt.so/2013.1/901 2013/11/27
 22 24  0  0  0  0  0  0  0  0999 V2000
   12.6914  -21.4818   27.4937 N   0  0  0  0  0  0  0  0  0  0  0  0
   14.2240  -21.3150   25.6617 N   0  0  0  0  0  0  0  0  0  0  0  0
   13.8687  -20.9139   26.8934 C   0  0  0  0  0  0  0  0  0  0  0  0
   14.5682  -20.0124   27.5715 N   0  0  0  0  0  0  0  0  0  0  0  0
   18.4315  -17.6400   25.9573 O   0  0  0  0  0  0  0  0  0  0  0  0
   15.6721  -19.4683   27.0271 C   0  0  0  0  0  0  0  0  0  0  0  0
   16.0714  -19.8602   25.7188 C   0  0  0  0  0  0  0  0  0  0  0  0
   16.3800  -18.5361   27.7519 O   0  0  0  0  0  0  0  0  0  0  0  0
   17.2445  -19.3773   25.0175 N   0  0  0  0  0  0  0  0  0  0  0  0
   17.9962  -20.3680   24.2363 C   0  0  2  0  0  0  0  0  0  0  0  0
   17.0844  -21.1124   23.3117 C   0  0  0  0  0  0  0  0  0  0  0  0
   15.3191  -20.8042   25.0658 C   0  0  0  0  0  0  0  0  0  0  0  0
   15.7001  -21.2176   23.7687 N   0  0  0  0  0  0  0  0  0  0  0  0
   18.7647  -21.3866   25.0975 C   0  0  0  0  0  0  0  0  0  0  0  0
   19.7966  -20.7170   25.8797 N   0  0  0  0  0  0  0  0  0  0  0  0
   23.3633  -22.7549   26.9874 C   0  0  0  0  0  0  0  0  0  0  0  0
   22.4627  -22.3601   27.9623 C   0  0  0  0  0  0  0  0  0  0  0  0
   21.2797  -21.6860   27.6023 C   0  0  0  0  0  0  0  0  0  0  0  0
   21.0161  -21.4148   26.2682 C   0  0  0  0  0  0  0  0  0  0  0  0
   21.9231  -21.8130   25.2906 C   0  0  0  0  0  0  0  0  0  0  0  0
   23.0952  -22.4836   25.6494 C   0  0  0  0  0  0  0  0  0  0  0  0
   17.7080  -18.0325   25.0573 C   0  0  0  0  0  0  0  0  0  0  0  0
  1  3  1  0  0  0  0
  2  3  2  0  0  0  0
  2 12  1  0  0  0  0
  3  4  1  0  0  0  0
  4  6  1  0  0  0  0
  5 22  1  0  0  0  0
  6  7  1  0  0  0  0
  6  8  2  0  0  0  0
  7 12  2  0  0  0  0
  7  9  1  0  0  0  0
  9 10  1  0  0  0  0
  9 22  1  0  0  0  0
 10 11  1  0  0  0  0
 10 14  1  1  0  0  0
 11 13  1  0  0  0  0
 12 13  1  0  0  0  0
 14 15  1  0  0  0  0
 15 19  1  0  0  0  0
 16 17  2  0  0  0  0
 16 21  1  0  0  0  0
 17 18  1  0  0  0  0
 18 19  2  0  0  0  0
 19 20  1  0  0  0  0
 20 21  2  0  0  0  0
M  END
>  <CHROM.1>
84.92921084,-64.09992419,-151.15523179,-113.88064483,17.83103223,-20.58932347
25.95166739,3.08379555,0.20323786,-1.38379458

>  <Name>
ligand

>  <RI>
0

>  <Rbt.Current_Directory>
/home/itssahil/PROJECTS/Mol_Feturizer/Test_systems_manuscript/rnas/3sd3

>  <Rbt.Executable>
rbdock ($Id: //depot/dev/client3/rdock/2013.1/src/exe/rbdock.cxx#4 $)

>  <Rbt.Library>
libRbt.so (2013.1, Build901 2013/11/27)

>  <Rbt.Parameter_File>
/export/apps/rDock/src/rDock_2013.1_src/data/scripts/dock_solv.prm

>  <Rbt.Receptor>
prm/pocket_docking_2.prm

>  <SCORE>
-9.28523

>  <SCORE.INTER>
-8.49517

>  <SCORE.INTER.CONST>
1

>  <SCORE.INTER.POLAR>
0

>  <SCORE.INTER.ROT>
4

>  <SCORE.INTER.SOLV>
22.4033

>  <SCORE.INTER.VDW>
-19.3979

>  <SCORE.INTER.norm>
-0.386144

>  <SCORE.INTRA>
-0.790063

>  <SCORE.INTRA.DIHEDRAL>
-0.320145

>  <SCORE.INTRA.DIHEDRAL.0>
2.54655

>  <SCORE.INTRA.POLAR>
0

>  <SCORE.INTRA.POLAR.0>
0

>  <SCORE.INTRA.REPUL>
0

>  <SCORE.INTRA.REPUL.0>
0

>  <SCORE.INTRA.SOLV>
0.505532

>  <SCORE.INTRA.SOLV.lig_0>
-56.4922

>  <SCORE.INTRA.VDW>
-0.882757

>  <SCORE.INTRA.VDW.0>
-0.696801

>  <SCORE.INTRA.norm>
-0.035912

>  <SCORE.RESTR>
0

>  <SCORE.RESTR.CAVITY>
0

>  <SCORE.RESTR.norm>
0

>  <SCORE.SYSTEM>
0

>  <SCORE.SYSTEM.CONST>
0

>  <SCORE.SYSTEM.DIHEDRAL>
0

>  <SCORE.SYSTEM.SOLV>
0

>  <SCORE.SYSTEM.norm>
0

>  <SCORE.heavy>
22

>  <SCORE.norm>
-0.422056

>  <RMSD>
0.828

$$$$
ligand
 OpenBabel02271912143D
libRbt.so/2013.1/901 2013/11/27
 22 24  0  0  0  0  0  0  0  0999 V2000
   12.2677  -21.1693   26.8337 N   0  0  0  0  0  0  0  0  0  0  0  0
   14.0917  -21.0610   25.2864 N   0  0  0  0  0  0  0  0  0  0  0  0
   13.6020  -20.7503   26.4980 C   0  0  0  0  0  0  0  0  0  0  0  0
   14.3093  -20.0705   27.3921 N   0  0  0  0  0  0  0  0  0  0  0  0
   18.1899  -17.5089   24.8333 O   0  0  0  0  0  0  0  0  0  0  0  0
   15.5593  -19.6685   27.0970 C   0  0  0  0  0  0  0  0  0  0  0  0
   16.1059  -19.9689   25.8183 C   0  0  0  0  0  0  0  0  0  0  0  0
   16.2717  -18.9656   28.0426 O   0  0  0  0  0  0  0  0  0  0  0  0
   17.4400  -19.6205   25.3709 N   0  0  0  0  0  0  0  0  0  0  0  0
   18.1493  -20.6296   24.5737 C   0  0  2  0  0  0  0  0  0  0  0  0
   17.3007  -21.0899   23.4298 C   0  0  0  0  0  0  0  0  0  0  0  0
   15.3365  -20.6839   24.9349 C   0  0  0  0  0  0  0  0  0  0  0  0
   15.8601  -21.0036   23.6613 N   0  0  0  0  0  0  0  0  0  0  0  0
   18.5964  -21.8604   25.3830 C   0  0  0  0  0  0  0  0  0  0  0  0
   19.8315  -22.4087   24.8362 N   0  0  0  0  0  0  0  0  0  0  0  0
   23.4160  -22.5085   27.1260 C   0  0  0  0  0  0  0  0  0  0  0  0
   22.2107  -22.2174   27.7427 C   0  0  0  0  0  0  0  0  0  0  0  0
   21.0205  -22.1838   26.9906 C   0  0  0  0  0  0  0  0  0  0  0  0
   21.0547  -22.4408   25.6284 C   0  0  0  0  0  0  0  0  0  0  0  0
   22.2675  -22.7332   25.0115 C   0  0  0  0  0  0  0  0  0  0  0  0
   23.4471  -22.7683   25.7595 C   0  0  0  0  0  0  0  0  0  0  0  0
   18.0925  -18.3917   25.6691 C   0  0  0  0  0  0  0  0  0  0  0  0
  1  3  1  0  0  0  0
  2  3  2  0  0  0  0
  2 12  1  0  0  0  0
  3  4  1  0  0  0  0
  4  6  1  0  0  0  0
  5 22  1  0  0  0  0
  6  7  1  0  0  0  0
  6  8  2  0  0  0  0
  7 12  2  0  0  0  0
  7  9  1  0  0  0  0
  9 10  1  0  0  0  0
  9 22  1  0  0  0  0
 10 11  1  0  0  0  0
 10 14  1  1  0  0  0
 11 13  1  0  0  0  0
 12 13  1  0  0  0  0
 14 15  1  0  0  0  0
 15 19  1  0  0  0  0
 16 17  2  0  0  0  0
 16 21  1  0  0  0  0
 17 18  1  0  0  0  0
 18 19  2  0  0  0  0
 19 20  1  0  0  0  0
 20 21  2  0  0  0  0
M  END
>  <CHROM.1>
-103.63416108,-148.40434724,117.19092730,11.99131255,17.81695117,-20.81229582
25.79645708,-3.00749280,0.23565710,-2.07170377

>  <Name>
ligand

>  <RI>
0

>  <Rbt.Current_Directory>
/home/itssahil/PROJECTS/Mol_Feturizer/Test_systems_manuscript/rnas/3sd3

>  <Rbt.Executable>
rbdock ($Id: //depot/dev/client3/rdock/2013.1/src/exe/rbdock.cxx#4 $)

>  <Rbt.Library>
libRbt.so (2013.1, Build901 2013/11/27)

>  <Rbt.Parameter_File>
/export/apps/rDock/src/rDock_2013.1_src/data/scripts/dock_solv.prm

>  <Rbt.Receptor>
prm/pocket_docking_2.prm

>  <SCORE>
-9.33027

>  <SCORE.INTER>
-10.3649

>  <SCORE.INTER.CONST>
1

>  <SCORE.INTER.POLAR>
0

>  <SCORE.INTER.ROT>
4

>  <SCORE.INTER.SOLV>
24.0203

>  <SCORE.INTER.VDW>
-21.1833

>  <SCORE.INTER.norm>
-0.47113

>  <SCORE.INTRA>
1.03307

>  <SCORE.INTRA.DIHEDRAL>
3.14934

>  <SCORE.INTRA.DIHEDRAL.0>
2.54655

>  <SCORE.INTRA.POLAR>
0

>  <SCORE.INTRA.POLAR.0>
0

>  <SCORE.INTRA.REPUL>
0

>  <SCORE.INTRA.REPUL.0>
0

>  <SCORE.INTRA.SOLV>
-1.02289

>  <SCORE.INTRA.SOLV.lig_0>
-56.4922

>  <SCORE.INTRA.VDW>
-0.030156

>  <SCORE.INTRA.VDW.0>
-0.696801

>  <SCORE.INTRA.norm>
0.0469575

>  <SCORE.RESTR>
0.001529

>  <SCORE.RESTR.CAVITY>
0.001529

>  <SCORE.RESTR.norm>
6.95e-05

>  <SCORE.SYSTEM>
0

>  <SCORE.SYSTEM.CONST>
0

>  <SCORE.SYSTEM.DIHEDRAL>
0

>  <SCORE.SYSTEM.SOLV>
0

>  <SCORE.SYSTEM.norm>
0

>  <SCORE.heavy>
22

>  <SCORE.norm>
-0.424103

>  <RMSD>
0.876

$$$$
ligand
 OpenBabel02271912143D
libRbt.so/2013.1/901 2013/11/27
 22 24  0  0  0  0  0  0  0  0999 V2000
   12.2512  -21.5263   27.1558 N   0  0  0  0  0  0  0  0  0  0  0  0
   13.9992  -21.3088   25.5341 N   0  0  0  0  0  0  0  0  0  0  0  0
   13.5172  -20.9815   26.7443 C   0  0  0  0  0  0  0  0  0  0  0  0
   14.1709  -20.1732   27.5696 N   0  0  0  0  0  0  0  0  0  0  0  0
   18.8454  -18.0105   25.9135 O   0  0  0  0  0  0  0  0  0  0  0  0
   15.3564  -19.6522   27.2030 C   0  0  0  0  0  0  0  0  0  0  0  0
   15.8917  -19.9670   25.9229 C   0  0  0  0  0  0  0  0  0  0  0  0
   16.0143  -18.8173   28.0781 O   0  0  0  0  0  0  0  0  0  0  0  0
   17.1618  -19.4991   25.4041 N   0  0  0  0  0  0  0  0  0  0  0  0
   17.9554  -20.4691   24.6384 C   0  0  2  0  0  0  0  0  0  0  0  0
   17.1280  -21.0907   23.5570 C   0  0  0  0  0  0  0  0  0  0  0  0
   15.1806  -20.8165   25.1128 C   0  0  0  0  0  0  0  0  0  0  0  0
   15.6954  -21.1527   23.8398 N   0  0  0  0  0  0  0  0  0  0  0  0
   18.5666  -21.5901   25.4983 C   0  0  0  0  0  0  0  0  0  0  0  0
   19.8777  -21.9685   24.9855 N   0  0  0  0  0  0  0  0  0  0  0  0
   23.2117  -22.4710   27.5804 C   0  0  0  0  0  0  0  0  0  0  0  0
   21.9908  -22.0683   28.0951 C   0  0  0  0  0  0  0  0  0  0  0  0
   20.8831  -21.9010   27.2417 C   0  0  0  0  0  0  0  0  0  0  0  0
   21.0146  -22.1382   25.8819 C   0  0  0  0  0  0  0  0  0  0  0  0
   22.2428  -22.5431   25.3675 C   0  0  0  0  0  0  0  0  0  0  0  0
   23.3403  -22.7107   26.2158 C   0  0  0  0  0  0  0  0  0  0  0  0
   17.6788  -18.1889   25.6058 C   0  0  0  0  0  0  0  0  0  0  0  0
  1  3  1  0  0  0  0
  2  3  2  0  0  0  0
  2 12  1  0  0  0  0
  3  4  1  0  0  0  0
  4  6  1  0  0  0  0
  5 22  1  0  0  0  0
  6  7  1  0  0  0  0
  6  8  2  0  0  0  0
  7 12  2  0  0  0  0
  7  9  1  0  0  0  0
  9 10  1  0  0  0  0
  9 22  1  0  0  0  0
 10 11  1  0  0  0  0
 10 14  1  1  0  0  0
 11 13  1  0  0  0  0
 12 13  1  0  0  0  0
 14 15  1  0  0  0  0
 15 19  1  0  0  0  0
 16 17  2  0  0  0  0
 16 21  1  0  0  0  0
 17 18  1  0  0  0  0
 18 19  2  0  0  0  0
 19 20  1  0  0  0  0
 20 21  2  0  0  0  0
M  END
>  <CHROM.1>
135.37782277,-144.71493627,134.00574682,-2.07457589,17.71213260,-20.78815208
26.03633268,-3.03689917,0.18941633,-2.13708551

>  <Name>
ligand

>  <RI>
0

>  <Rbt.Current_Directory>
/home/itssahil/PROJECTS/Mol_Feturizer/Test_systems_manuscript/rnas/3sd3

>  <Rbt.Executable>
rbdock ($Id: //depot/dev/client3/rdock/2013.1/src/exe/rbdock.cxx#4 $)

>  <Rbt.Library>
libRbt.so (2013.1, Build901 2013/11/27)

>  <Rbt.Parameter_File>
/export/apps/rDock/src/rDock_2013.1_src/data/scripts/dock_solv.prm

>  <Rbt.Receptor>
prm/pocket_docking_2.prm

>  <SCORE>
-9.31449

>  <SCORE.INTER>
-10.7641

>  <SCORE.INTER.CONST>
1

>  <SCORE.INTER.POLAR>
0

>  <SCORE.INTER.ROT>
4

>  <SCORE.INTER.SOLV>
23.5882

>  <SCORE.INTER.VDW>
-21.3055

>  <SCORE.INTER.norm>
-0.489275

>  <SCORE.INTRA>
1.44956

>  <SCORE.INTRA.DIHEDRAL>
3.49439

>  <SCORE.INTRA.DIHEDRAL.0>
2.54655

>  <SCORE.INTRA.POLAR>
0

>  <SCORE.INTRA.POLAR.0>
0

>  <SCORE.INTRA.REPUL>
0

>  <SCORE.INTRA.REPUL.0>
0

>  <SCORE.INTRA.SOLV>
-0.786283

>  <SCORE.INTRA.SOLV.lig_0>
-56.4922

>  <SCORE.INTRA.VDW>
0.0955104

>  <SCORE.INTRA.VDW.0>
-0.696801

>  <SCORE.INTRA.norm>
0.0658893

>  <SCORE.RESTR>
0

>  <SCORE.RESTR.CAVITY>
0

>  <SCORE.RESTR.norm>
0

>  <SCORE.SYSTEM>
0

>  <SCORE.SYSTEM.CONST>
0

>  <SCORE.SYSTEM.DIHEDRAL>
0

>  <SCORE.SYSTEM.SOLV>
0

>  <SCORE.SYSTEM.norm>
0

>  <SCORE.heavy>
22

>  <SCORE.norm>
-0.423386

>  <RMSD>
0.987

$$$$
ligand
 OpenBabel02271912143D
libRbt.so/2013.1/901 2013/11/27
 22 24  0  0  0  0  0  0  0  0999 V2000
   12.1963  -21.4140   27.0297 N   0  0  0  0  0  0  0  0  0  0  0  0
   14.0054  -21.2270   25.4724 N   0  0  0  0  0  0  0  0  0  0  0  0
   13.4802  -20.8817   26.6595 C   0  0  0  0  0  0  0  0  0  0  0  0
   14.1075  -20.0669   27.4987 N   0  0  0  0  0  0  0  0  0  0  0  0
   18.4222  -17.8752   26.5931 O   0  0  0  0  0  0  0  0  0  0  0  0
   15.3091  -19.5573   27.1706 C   0  0  0  0  0  0  0  0  0  0  0  0
   15.8902  -19.8914   25.9156 C   0  0  0  0  0  0  0  0  0  0  0  0
   15.9389  -18.7153   28.0594 O   0  0  0  0  0  0  0  0  0  0  0  0
   17.1818  -19.4373   25.4392 N   0  0  0  0  0  0  0  0  0  0  0  0
   17.9975  -20.4214   24.7160 C   0  0  2  0  0  0  0  0  0  0  0  0
   17.2076  -21.0518   23.6120 C   0  0  0  0  0  0  0  0  0  0  0  0
   15.2048  -20.7469   25.0898 C   0  0  0  0  0  0  0  0  0  0  0  0
   15.7650  -21.1020   23.8414 N   0  0  0  0  0  0  0  0  0  0  0  0
   18.5691  -21.5350   25.6121 C   0  0  0  0  0  0  0  0  0  0  0  0
   19.3285  -22.4908   24.8154 N   0  0  0  0  0  0  0  0  0  0  0  0
   23.5189  -22.9891   25.3572 C   0  0  0  0  0  0  0  0  0  0  0  0
   22.7391  -22.5184   26.4002 C   0  0  0  0  0  0  0  0  0  0  0  0
   21.3513  -22.3521   26.2278 C   0  0  0  0  0  0  0  0  0  0  0  0
   20.7634  -22.6586   25.0099 C   0  0  0  0  0  0  0  0  0  0  0  0
   21.5497  -23.1317   23.9635 C   0  0  0  0  0  0  0  0  0  0  0  0
   22.9261  -23.2981   24.1370 C   0  0  0  0  0  0  0  0  0  0  0  0
   17.6990  -18.1276   25.6440 C   0  0  0  0  0  0  0  0  0  0  0  0
  1  3  1  0  0  0  0
  2  3  2  0  0  0  0
  2 12  1  0  0  0  0
  3  4  1  0  0  0  0
  4  6  1  0  0  0  0
  5 22  1  0  0  0  0
  6  7  1  0  0  0  0
  6  8  2  0  0  0  0
  7 12  2  0  0  0  0
  7  9  1  0  0  0  0
  9 10  1  0  0  0  0
  9 22  1  0  0  0  0
 10 11  1  0  0  0  0
 10 14  1  1  0  0  0
 11 13  1  0  0  0  0
 12 13  1  0  0  0  0
 14 15  1  0  0  0  0
 15 19  1  0  0  0  0
 16 17  2  0  0  0  0
 16 21  1  0  0  0  0
 17 18  1  0  0  0  0
 18 19  2  0  0  0  0
 19 20  1  0  0  0  0
 20 21  2  0  0  0  0
M  END
>  <CHROM.1>
93.63995265,178.21086932,115.54219207,25.38272504,17.66833132,-20.88523870
25.67815534,2.77922126,-0.00524503,0.54150618

>  <Name>
ligand

>  <RI>
0

>  <Rbt.Current_Directory>
/home/itssahil/PROJECTS/Mol_Feturizer/Test_systems_manuscript/rnas/3sd3

>  <Rbt.Executable>
rbdock ($Id: //depot/dev/client3/rdock/2013.1/src/exe/rbdock.cxx#4 $)

>  <Rbt.Library>
libRbt.so (2013.1, Build901 2013/11/27)

>  <Rbt.Parameter_File>
/export/apps/rDock/src/rDock_2013.1_src/data/scripts/dock_solv.prm

>  <Rbt.Receptor>
prm/pocket_docking_2.prm

>  <SCORE>
-11.7318

>  <SCORE.INTER>
-11.9267

>  <SCORE.INTER.CONST>
1

>  <SCORE.INTER.POLAR>
0

>  <SCORE.INTER.ROT>
4

>  <SCORE.INTER.SOLV>
25.8115

>  <SCORE.INTER.VDW>
-22.8216

>  <SCORE.INTER.norm>
-0.542122

>  <SCORE.INTRA>
0.194903

>  <SCORE.INTRA.DIHEDRAL>
0.253815

>  <SCORE.INTRA.DIHEDRAL.0>
2.54655

>  <SCORE.INTRA.POLAR>
0

>  <SCORE.INTRA.POLAR.0>
0

>  <SCORE.INTRA.REPUL>
0

>  <SCORE.INTRA.REPUL.0>
0

>  <SCORE.INTRA.SOLV>
-0.311911

>  <SCORE.INTRA.SOLV.lig_0>
-56.4922

>  <SCORE.INTRA.VDW>
0.223951

>  <SCORE.INTRA.VDW.0>
-0.696801

>  <SCORE.INTRA.norm>
0.0088592

>  <SCORE.RESTR>
0

>  <SCORE.RESTR.CAVITY>
0

>  <SCORE.RESTR.norm>
0

>  <SCORE.SYSTEM>
0

>  <SCORE.SYSTEM.CONST>
0

>  <SCORE.SYSTEM.DIHEDRAL>
0

>  <SCORE.SYSTEM.SOLV>
0

>  <SCORE.SYSTEM.norm>
0

>  <SCORE.heavy>
22

>  <SCORE.norm>
-0.533262

>  <RMSD>
0.990

$$$$
ligand
 OpenBabel02271912143D
libRbt.so/2013.1/901 2013/11/27
 22 24  0  0  0  0  0  0  0  0999 V2000
   11.8480  -20.8627   26.5803 N   0  0  0  0  0  0  0  0  0  0  0  0
   13.8643  -21.0002   25.2963 N   0  0  0  0  0  0  0  0  0  0  0  0
   13.2436  -20.5626   26.4042 C   0  0  0  0  0  0  0  0  0  0  0  0
   13.8764  -19.8637   27.3385 N   0  0  0  0  0  0  0  0  0  0  0  0
   17.4220  -17.4994   25.9800 O   0  0  0  0  0  0  0  0  0  0  0  0
   15.1819  -19.5714   27.1922 C   0  0  0  0  0  0  0  0  0  0  0  0
   15.8687  -20.0080   26.0250 C   0  0  0  0  0  0  0  0  0  0  0  0
   15.8147  -18.8459   28.1764 O   0  0  0  0  0  0  0  0  0  0  0  0
   17.2733  -19.7868   25.7435 N   0  0  0  0  0  0  0  0  0  0  0  0
   18.0018  -20.9012   25.1236 C   0  0  2  0  0  0  0  0  0  0  0  0
   17.2796  -21.3919   23.9078 C   0  0  0  0  0  0  0  0  0  0  0  0
   15.1703  -20.7369   25.0952 C   0  0  0  0  0  0  0  0  0  0  0  0
   15.8321  -21.1906   23.9313 N   0  0  0  0  0  0  0  0  0  0  0  0
   18.2405  -22.0918   26.0698 C   0  0  0  0  0  0  0  0  0  0  0  0
   19.0778  -23.0957   25.4246 N   0  0  0  0  0  0  0  0  0  0  0  0
   23.2878  -22.5794   25.0922 C   0  0  0  0  0  0  0  0  0  0  0  0
   22.6474  -22.2797   26.2828 C   0  0  0  0  0  0  0  0  0  0  0  0
   21.2543  -22.4493   26.3998 C   0  0  0  0  0  0  0  0  0  0  0  0
   20.5205  -22.9159   25.3196 C   0  0  0  0  0  0  0  0  0  0  0  0
   21.1670  -23.2164   24.1243 C   0  0  0  0  0  0  0  0  0  0  0  0
   22.5495  -23.0496   24.0106 C   0  0  0  0  0  0  0  0  0  0  0  0
   17.9738  -18.5852   26.0437 C   0  0  0  0  0  0  0  0  0  0  0  0
  1  3  1  0  0  0  0
  2  3  2  0  0  0  0
  2 12  1  0  0  0  0
  3  4  1  0  0  0  0
  4  6  1  0  0  0  0
  5 22  1  0  0  0  0
  6  7  1  0  0  0  0
  6  8  2  0  0  0  0
  7 12  2  0  0  0  0
  7  9  1  0  0  0  0
  9 10  1  0  0  0  0
  9 22  1  0  0  0  0
 10 11  1  0  0  0  0
 10 14  1  1  0  0  0
 11 13  1  0  0  0  0
 12 13  1  0  0  0  0
 14 15  1  0  0  0  0
 15 19  1  0  0  0  0
 16 17  2  0  0  0  0
 16 21  1  0  0  0  0
 17 18  1  0  0  0  0
 18 19  2  0  0  0  0
 19 20  1  0  0  0  0
 20 21  2  0  0  0  0
M  END
>  <CHROM.1>
-34.00494777,-174.46753799,78.04281950,43.50714626,17.49259355,-20.93436242
25.73573405,2.76791694,-0.02546140,0.51855877

>  <Name>
ligand

>  <RI>
0

>  <Rbt.Current_Directory>
/home/itssahil/PROJECTS/Mol_Feturizer/Test_systems_manuscript/rnas/3sd3

>  <Rbt.Executable>
rbdock ($Id: //depot/dev/client3/rdock/2013.1/src/exe/rbdock.cxx#4 $)

>  <Rbt.Library>
libRbt.so (2013.1, Build901 2013/11/27)

>  <Rbt.Parameter_File>
/export/apps/rDock/src/rDock_2013.1_src/data/scripts/dock_solv.prm

>  <Rbt.Receptor>
prm/pocket_docking_2.prm

>  <SCORE>
-11.9871

>  <SCORE.INTER>
-11.0851

>  <SCORE.INTER.CONST>
1

>  <SCORE.INTER.POLAR>
0

>  <SCORE.INTER.ROT>
4

>  <SCORE.INTER.SOLV>
29.4282

>  <SCORE.INTER.VDW>
-23.4662

>  <SCORE.INTER.norm>
-0.50387

>  <SCORE.INTRA>
-0.904311

>  <SCORE.INTRA.DIHEDRAL>
-0.575466

>  <SCORE.INTRA.DIHEDRAL.0>
2.54655

>  <SCORE.INTRA.POLAR>
0

>  <SCORE.INTRA.POLAR.0>
0

>  <SCORE.INTRA.REPUL>
0

>  <SCORE.INTRA.REPUL.0>
0

>  <SCORE.INTRA.SOLV>
-0.516974

>  <SCORE.INTRA.SOLV.lig_0>
-56.4922

>  <SCORE.INTRA.VDW>
-0.358091

>  <SCORE.INTRA.VDW.0>
-0.696801

>  <SCORE.INTRA.norm>
-0.0411051

>  <SCORE.RESTR>
0.00231243

>  <SCORE.RESTR.CAVITY>
0.00231243

>  <SCORE.RESTR.norm>
0.000105111

>  <SCORE.SYSTEM>
0

>  <SCORE.SYSTEM.CONST>
0

>  <SCORE.SYSTEM.DIHEDRAL>
0

>  <SCORE.SYSTEM.SOLV>
0

>  <SCORE.SYSTEM.norm>
0

>  <SCORE.heavy>
22

>  <SCORE.norm>
-0.54487

>  <RMSD>
1.045

$$$$
ligand
 OpenBabel02271912143D
libRbt.so/2013.1/901 2013/11/27
 22 24  0  0  0  0  0  0  0  0999 V2000
   11.8931  -21.0902   26.7452 N   0  0  0  0  0  0  0  0  0  0  0  0
   13.8448  -21.1168   25.3585 N   0  0  0  0  0  0  0  0  0  0  0  0
   13.2538  -20.6999   26.4903 C   0  0  0  0  0  0  0  0  0  0  0  0
   13.8846  -19.9411   27.3780 N   0  0  0  0  0  0  0  0  0  0  0  0
   18.1154  -18.0682   26.9759 O   0  0  0  0  0  0  0  0  0  0  0  0
   15.1576  -19.5641   27.1578 C   0  0  0  0  0  0  0  0  0  0  0  0
   15.8114  -19.9767   25.9633 C   0  0  0  0  0  0  0  0  0  0  0  0
   15.7892  -18.7776   28.0948 O   0  0  0  0  0  0  0  0  0  0  0  0
   17.1810  -19.6666   25.6040 N   0  0  0  0  0  0  0  0  0  0  0  0
   17.9512  -20.7414   24.9649 C   0  0  2  0  0  0  0  0  0  0  0  0
   17.2024  -21.3043   23.7974 C   0  0  0  0  0  0  0  0  0  0  0  0
   15.1174  -20.7698   25.0840 C   0  0  0  0  0  0  0  0  0  0  0  0
   15.7477  -21.2011   23.8944 N   0  0  0  0  0  0  0  0  0  0  0  0
   18.3199  -21.8937   25.9167 C   0  0  0  0  0  0  0  0  0  0  0  0
   19.0808  -22.9159   25.2089 N   0  0  0  0  0  0  0  0  0  0  0  0
   23.3254  -22.7131   25.0000 C   0  0  0  0  0  0  0  0  0  0  0  0
   22.5972  -23.0991   23.8872 C   0  0  0  0  0  0  0  0  0  0  0  0
   21.1919  -23.1674   23.9494 C   0  0  0  0  0  0  0  0  0  0  0  0
   20.5348  -22.8491   25.1283 C   0  0  0  0  0  0  0  0  0  0  0  0
   21.2694  -22.4614   26.2450 C   0  0  0  0  0  0  0  0  0  0  0  0
   22.6634  -22.3921   26.1809 C   0  0  0  0  0  0  0  0  0  0  0  0
   17.8119  -18.4145   25.8466 C   0  0  0  0  0  0  0  0  0  0  0  0
  1  3  1  0  0  0  0
  2  3  2  0  0  0  0
  2 12  1  0  0  0  0
  3  4  1  0  0  0  0
  4  6  1  0  0  0  0
  5 22  1  0  0  0  0
  6  7  1  0  0  0  0
  6  8  2  0  0  0  0
  7 12  2  0  0  0  0
  7  9  1  0  0  0  0
  9 10  1  0  0  0  0
  9 22  1  0  0  0  0
 10 11  1  0  0  0  0
 10 14  1  1  0  0  0
 11 13  1  0  0  0  0
 12 13  1  0  0  0  0
 14 15  1  0  0  0  0
 15 19  1  0  0  0  0
 16 17  2  0  0  0  0
 16 21  1  0  0  0  0
 17 18  1  0  0  0  0
 18 19  2  0  0  0  0
 19 20  1  0  0  0  0
 20 21  2  0  0  0  0
M  END
>  <CHROM.1>
71.29682015,-179.98258744,89.30123570,-139.24517583,17.51389731,-20.95243321
25.71519535,2.77431547,-0.03587993,0.62800376

>  <Name>
ligand

>  <RI>
0

>  <Rbt.Current_Directory>
/home/itssahil/PROJECTS/Mol_Feturizer/Test_systems_manuscript/rnas/3sd3

>  <Rbt.Executable>
rbdock ($Id: //depot/dev/client3/rdock/2013.1/src/exe/rbdock.cxx#4 $)

>  <Rbt.Library>
libRbt.so (2013.1, Build901 2013/11/27)

>  <Rbt.Parameter_File>
/export/apps/rDock/src/rDock_2013.1_src/data/scripts/dock_solv.prm

>  <Rbt.Receptor>
prm/pocket_docking_2.prm

>  <SCORE>
-12.2835

>  <SCORE.INTER>
-12.0086

>  <SCORE.INTER.CONST>
1

>  <SCORE.INTER.POLAR>
0

>  <SCORE.INTER.ROT>
4

>  <SCORE.INTER.SOLV>
28.1585

>  <SCORE.INTER.VDW>
-23.6585

>  <SCORE.INTER.norm>
-0.545845

>  <SCORE.INTRA>
-0.290878

>  <SCORE.INTRA.DIHEDRAL>
-0.348868

>  <SCORE.INTRA.DIHEDRAL.0>
2.54655

>  <SCORE.INTRA.POLAR>
0

>  <SCORE.INTRA.POLAR.0>
0

>  <SCORE.INTRA.REPUL>
0

>  <SCORE.INTRA.REPUL.0>
0

>  <SCORE.INTRA.SOLV>
-0.271107

>  <SCORE.INTRA.SOLV.lig_0>
-56.4922

>  <SCORE.INTRA.VDW>
0.0191096

>  <SCORE.INTRA.VDW.0>
-0.696801

>  <SCORE.INTRA.norm>
-0.0132217

>  <SCORE.RESTR>
0.0159185

>  <SCORE.RESTR.CAVITY>
0.0159185

>  <SCORE.RESTR.norm>
0.000723568

>  <SCORE.SYSTEM>
0

>  <SCORE.SYSTEM.CONST>
0

>  <SCORE.SYSTEM.DIHEDRAL>
0

>  <SCORE.SYSTEM.SOLV>
0

>  <SCORE.SYSTEM.norm>
0

>  <SCORE.heavy>
22

>  <SCORE.norm>
-0.558343

>  <RMSD>
1.080

$$$$
ligand
 OpenBabel02271912143D
libRbt.so/2013.1/901 2013/11/27
 22 24  0  0  0  0  0  0  0  0999 V2000
   11.8804  -21.1104   26.7290 N   0  0  0  0  0  0  0  0  0  0  0  0
   13.8238  -21.1157   25.3303 N   0  0  0  0  0  0  0  0  0  0  0  0
   13.2392  -20.7153   26.4714 C   0  0  0  0  0  0  0  0  0  0  0  0
   13.8748  -19.9684   27.3659 N   0  0  0  0  0  0  0  0  0  0  0  0
   18.1425  -18.1057   26.9582 O   0  0  0  0  0  0  0  0  0  0  0  0
   15.1461  -19.5873   27.1433 C   0  0  0  0  0  0  0  0  0  0  0  0
   15.7930  -19.9825   25.9392 C   0  0  0  0  0  0  0  0  0  0  0  0
   15.7828  -18.8135   28.0875 O   0  0  0  0  0  0  0  0  0  0  0  0
   17.1602  -19.6661   25.5761 N   0  0  0  0  0  0  0  0  0  0  0  0
   17.9274  -20.7312   24.9172 C   0  0  2  0  0  0  0  0  0  0  0  0
   17.1720  -21.2783   23.7465 C   0  0  0  0  0  0  0  0  0  0  0  0
   15.0944  -20.7637   25.0531 C   0  0  0  0  0  0  0  0  0  0  0  0
   15.7178  -21.1777   23.8537 N   0  0  0  0  0  0  0  0  0  0  0  0
   18.3027  -21.8964   25.8506 C   0  0  0  0  0  0  0  0  0  0  0  0
   19.0816  -22.8960   25.1300 N   0  0  0  0  0  0  0  0  0  0  0  0
   23.3312  -22.7031   25.0571 C   0  0  0  0  0  0  0  0  0  0  0  0
   22.6384  -23.0963   23.9244 C   0  0  0  0  0  0  0  0  0  0  0  0
   21.2317  -23.1614   23.9416 C   0  0  0  0  0  0  0  0  0  0  0  0
   20.5375  -22.8327   25.0961 C   0  0  0  0  0  0  0  0  0  0  0  0
   21.2365  -22.4377   26.2329 C   0  0  0  0  0  0  0  0  0  0  0  0
   22.6320  -22.3717   26.2135 C   0  0  0  0  0  0  0  0  0  0  0  0
   17.7915  -18.4170   25.8324 C   0  0  0  0  0  0  0  0  0  0  0  0
  1  3  1  0  0  0  0
  2  3  2  0  0  0  0
  2 12  1  0  0  0  0
  3  4  1  0  0  0  0
  4  6  1  0  0  0  0
  5 22  1  0  0  0  0
  6  7  1  0  0  0  0
  6  8  2  0  0  0  0
  7 12  2  0  0  0  0
  7  9  1  0  0  0  0
  9 10  1  0  0  0  0
  9 22  1  0  0  0  0
 10 11  1  0  0  0  0
 10 14  1  1  0  0  0
 11 13  1  0  0  0  0
 12 13  1  0  0  0  0
 14 15  1  0  0  0  0
 15 19  1  0  0  0  0
 16 17  2  0  0  0  0
 16 21  1  0  0  0  0
 17 18  1  0  0  0  0
 18 19  2  0  0  0  0
 19 20  1  0  0  0  0
 20 21  2  0  0  0  0
M  END
>  <CHROM.1>
73.80986888,-178.92465764,91.16591953,-141.73935597,17.50445955,-20.95342755
25.69501519,2.78190319,-0.04188077,0.64226538

>  <Name>
ligand

>  <RI>
0

>  <Rbt.Current_Directory>
/home/itssahil/PROJECTS/Mol_Feturizer/Test_systems_manuscript/rnas/3sd3

>  <Rbt.Executable>
rbdock ($Id: //depot/dev/client3/rdock/2013.1/src/exe/rbdock.cxx#4 $)

>  <Rbt.Library>
libRbt.so (2013.1, Build901 2013/11/27)

>  <Rbt.Parameter_File>
/export/apps/rDock/src/rDock_2013.1_src/data/scripts/dock_solv.prm

>  <Rbt.Receptor>
prm/pocket_docking_2.prm

>  <SCORE>
-12.1088

>  <SCORE.INTER>
-11.8164

>  <SCORE.INTER.CONST>
1

>  <SCORE.INTER.POLAR>
0

>  <SCORE.INTER.ROT>
4

>  <SCORE.INTER.SOLV>
28.2154

>  <SCORE.INTER.VDW>
-23.5494

>  <SCORE.INTER.norm>
-0.537111

>  <SCORE.INTRA>
-0.300237

>  <SCORE.INTRA.DIHEDRAL>
-0.287722

>  <SCORE.INTRA.DIHEDRAL.0>
2.54655

>  <SCORE.INTRA.POLAR>
0

>  <SCORE.INTRA.POLAR.0>
0

>  <SCORE.INTRA.REPUL>
0

>  <SCORE.INTRA.REPUL.0>
0

>  <SCORE.INTRA.SOLV>
-0.298286

>  <SCORE.INTRA.SOLV.lig_0>
-56.4922

>  <SCORE.INTRA.VDW>
-0.00723243

>  <SCORE.INTRA.VDW.0>
-0.696801

>  <SCORE.INTRA.norm>
-0.0136471

>  <SCORE.RESTR>
0.0078351

>  <SCORE.RESTR.CAVITY>
0.0078351

>  <SCORE.RESTR.norm>
0.000356141

>  <SCORE.SYSTEM>
0

>  <SCORE.SYSTEM.CONST>
0

>  <SCORE.SYSTEM.DIHEDRAL>
0

>  <SCORE.SYSTEM.SOLV>
0

>  <SCORE.SYSTEM.norm>
0

>  <SCORE.heavy>
22

>  <SCORE.norm>
-0.550402

>  <RMSD>
1.084

$$$$
ligand
 OpenBabel02271912143D
libRbt.so/2013.1/901 2013/11/27
 22 24  0  0  0  0  0  0  0  0999 V2000
   11.8558  -21.0158   26.6754 N   0  0  0  0  0  0  0  0  0  0  0  0
   13.8274  -21.0685   25.3177 N   0  0  0  0  0  0  0  0  0  0  0  0
   13.2293  -20.6549   26.4471 C   0  0  0  0  0  0  0  0  0  0  0  0
   13.8646  -19.9256   27.3561 N   0  0  0  0  0  0  0  0  0  0  0  0
   18.7052  -18.3889   26.7740 O   0  0  0  0  0  0  0  0  0  0  0  0
   15.1496  -19.5764   27.1609 C   0  0  0  0  0  0  0  0  0  0  0  0
   15.8114  -19.9862   25.9698 C   0  0  0  0  0  0  0  0  0  0  0  0
   15.7856  -18.8202   28.1196 O   0  0  0  0  0  0  0  0  0  0  0  0
   17.1934  -19.7041   25.6360 N   0  0  0  0  0  0  0  0  0  0  0  0
   17.9472  -20.7873   24.9914 C   0  0  2  0  0  0  0  0  0  0  0  0
   17.2029  -21.3136   23.8041 C   0  0  0  0  0  0  0  0  0  0  0  0
   15.1120  -20.7483   25.0678 C   0  0  0  0  0  0  0  0  0  0  0  0
   15.7498  -21.1764   23.8810 N   0  0  0  0  0  0  0  0  0  0  0  0
   18.2733  -21.9629   25.9303 C   0  0  0  0  0  0  0  0  0  0  0  0
   19.0625  -22.9697   25.2312 N   0  0  0  0  0  0  0  0  0  0  0  0
   23.3041  -22.7060   25.0301 C   0  0  0  0  0  0  0  0  0  0  0  0
   22.6464  -22.3713   26.2018 C   0  0  0  0  0  0  0  0  0  0  0  0
   21.2426  -22.4573   26.2753 C   0  0  0  0  0  0  0  0  0  0  0  0
   20.5159  -22.8764   25.1712 C   0  0  0  0  0  0  0  0  0  0  0  0
   21.1797  -23.2123   23.9950 C   0  0  0  0  0  0  0  0  0  0  0  0
   22.5727  -23.1285   23.9244 C   0  0  0  0  0  0  0  0  0  0  0  0
   17.8506  -18.4716   25.9079 C   0  0  0  0  0  0  0  0  0  0  0  0
  1  3  1  0  0  0  0
  2  3  2  0  0  0  0
  2 12  1  0  0  0  0
  3  4  1  0  0  0  0
  4  6  1  0  0  0  0
  5 22  1  0  0  0  0
  6  7  1  0  0  0  0
  6  8  2  0  0  0  0
  7 12  2  0  0  0  0
  7  9  1  0  0  0  0
  9 10  1  0  0  0  0
  9 22  1  0  0  0  0
 10 11  1  0  0  0  0
 10 14  1  1  0  0  0
 11 13  1  0  0  0  0
 12 13  1  0  0  0  0
 14 15  1  0  0  0  0
 15 19  1  0  0  0  0
 16 17  2  0  0  0  0
 16 21  1  0  0  0  0
 17 18  1  0  0  0  0
 18 19  2  0  0  0  0
 19 20  1  0  0  0  0
 20 21  2  0  0  0  0
M  END
>  <CHROM.1>
108.59684328,-177.88805466,86.93824498,39.48823619,17.53525158,-20.97854430
25.71267413,2.78940918,-0.04815194,0.64583314

>  <Name>
ligand

>  <RI>
0

>  <Rbt.Current_Directory>
/home/itssahil/PROJECTS/Mol_Feturizer/Test_systems_manuscript/rnas/3sd3

>  <Rbt.Executable>
rbdock ($Id: //depot/dev/client3/rdock/2013.1/src/exe/rbdock.cxx#4 $)

>  <Rbt.Library>
libRbt.so (2013.1, Build901 2013/11/27)

>  <Rbt.Parameter_File>
/export/apps/rDock/src/rDock_2013.1_src/data/scripts/dock_solv.prm

>  <Rbt.Receptor>
prm/pocket_docking_2.prm

>  <SCORE>
-12.2918

>  <SCORE.INTER>
-11.7256

>  <SCORE.INTER.CONST>
1

>  <SCORE.INTER.POLAR>
0

>  <SCORE.INTER.ROT>
4

>  <SCORE.INTER.SOLV>
28.2267

>  <SCORE.INTER.VDW>
-23.4926

>  <SCORE.INTER.norm>
-0.532981

>  <SCORE.INTRA>
-0.576171

>  <SCORE.INTRA.DIHEDRAL>
-0.404096

>  <SCORE.INTRA.DIHEDRAL.0>
2.54655

>  <SCORE.INTRA.POLAR>
0

>  <SCORE.INTRA.POLAR.0>
0

>  <SCORE.INTRA.REPUL>
0

>  <SCORE.INTRA.REPUL.0>
0

>  <SCORE.INTRA.SOLV>
-0.4231

>  <SCORE.INTRA.SOLV.lig_0>
-56.4922

>  <SCORE.INTRA.VDW>
-0.162574

>  <SCORE.INTRA.VDW.0>
-0.696801

>  <SCORE.INTRA.norm>
-0.0261896

>  <SCORE.RESTR>
0.00992825

>  <SCORE.RESTR.CAVITY>
0.00992825

>  <SCORE.RESTR.norm>
0.000451284

>  <SCORE.SYSTEM>
0

>  <SCORE.SYSTEM.CONST>
0

>  <SCORE.SYSTEM.DIHEDRAL>
0

>  <SCORE.SYSTEM.SOLV>
0

>  <SCORE.SYSTEM.norm>
0

>  <SCORE.heavy>
22

>  <SCORE.norm>
-0.55872

>  <RMSD>
1.095

$$$$
ligand
 OpenBabel02271912143D
libRbt.so/2013.1/901 2013/11/27
 22 24  0  0  0  0  0  0  0  0999 V2000
   11.8607  -21.0176   26.6667 N   0  0  0  0  0  0  0  0  0  0  0  0
   13.8349  -21.0664   25.3128 N   0  0  0  0  0  0  0  0  0  0  0  0
   13.2344  -20.6553   26.4417 C   0  0  0  0  0  0  0  0  0  0  0  0
   13.8674  -19.9270   27.3531 N   0  0  0  0  0  0  0  0  0  0  0  0
   18.0997  -17.6697   25.0257 O   0  0  0  0  0  0  0  0  0  0  0  0
   15.1525  -19.5765   27.1610 C   0  0  0  0  0  0  0  0  0  0  0  0
   15.8169  -19.9838   25.9705 C   0  0  0  0  0  0  0  0  0  0  0  0
   15.7861  -18.8215   28.1223 O   0  0  0  0  0  0  0  0  0  0  0  0
   17.1994  -19.7001   25.6398 N   0  0  0  0  0  0  0  0  0  0  0  0
   17.9551  -20.7817   24.9948 C   0  0  2  0  0  0  0  0  0  0  0  0
   17.2136  -21.3064   23.8052 C   0  0  0  0  0  0  0  0  0  0  0  0
   15.1198  -20.7449   25.0659 C   0  0  0  0  0  0  0  0  0  0  0  0
   15.7602  -21.1705   23.8795 N   0  0  0  0  0  0  0  0  0  0  0  0
   18.2803  -21.9586   25.9323 C   0  0  0  0  0  0  0  0  0  0  0  0
   19.0672  -22.9659   25.2315 N   0  0  0  0  0  0  0  0  0  0  0  0
   23.3089  -22.7073   25.0247 C   0  0  0  0  0  0  0  0  0  0  0  0
   22.6546  -22.3903   26.2033 C   0  0  0  0  0  0  0  0  0  0  0  0
   21.2508  -22.4747   26.2786 C   0  0  0  0  0  0  0  0  0  0  0  0
   20.5208  -22.8746   25.1697 C   0  0  0  0  0  0  0  0  0  0  0  0
   21.1812  -23.1928   23.9866 C   0  0  0  0  0  0  0  0  0  0  0  0
   22.5741  -23.1105   23.9141 C   0  0  0  0  0  0  0  0  0  0  0  0
   17.8551  -18.4676   25.9150 C   0  0  0  0  0  0  0  0  0  0  0  0
  1  3  1  0  0  0  0
  2  3  2  0  0  0  0
  2 12  1  0  0  0  0
  3  4  1  0  0  0  0
  4  6  1  0  0  0  0
  5 22  1  0  0  0  0
  6  7  1  0  0  0  0
  6  8  2  0  0  0  0
  7 12  2  0  0  0  0
  7  9  1  0  0  0  0
  9 10  1  0  0  0  0
  9 22  1  0  0  0  0
 10 11  1  0  0  0  0
 10 14  1  1  0  0  0
 11 13  1  0  0  0  0
 12 13  1  0  0  0  0
 14 15  1  0  0  0  0
 15 19  1  0  0  0  0
 16 17  2  0  0  0  0
 16 21  1  0  0  0  0
 17 18  1  0  0  0  0
 18 19  2  0  0  0  0
 19 20  1  0  0  0  0
 20 21  2  0  0  0  0
M  END
>  <CHROM.1>
-105.87691472,-178.10604282,86.90891077,40.37722261,17.50724793,-20.93723587
25.61562430,2.77975126,0.03439068,0.41253592

>  <Name>
ligand

>  <RI>
0

>  <Rbt.Current_Directory>
/home/itssahil/PROJECTS/Mol_Feturizer/Test_systems_manuscript/rnas/3sd3

>  <Rbt.Executable>
rbdock ($Id: //depot/dev/client3/rdock/2013.1/src/exe/rbdock.cxx#4 $)

>  <Rbt.Library>
libRbt.so (2013.1, Build901 2013/11/27)

>  <Rbt.Parameter_File>
/export/apps/rDock/src/rDock_2013.1_src/data/scripts/dock_solv.prm

>  <Rbt.Receptor>
prm/pocket_docking_2.prm

>  <SCORE>
-12.3506

>  <SCORE.INTER>
-11.747

>  <SCORE.INTER.CONST>
1

>  <SCORE.INTER.POLAR>
0

>  <SCORE.INTER.ROT>
4

>  <SCORE.INTER.SOLV>
28.4551

>  <SCORE.INTER.VDW>
-23.5831

>  <SCORE.INTER.norm>
-0.533957

>  <SCORE.INTRA>
-0.613482

>  <SCORE.INTRA.DIHEDRAL>
-0.373648

>  <SCORE.INTRA.DIHEDRAL.0>
2.54655

>  <SCORE.INTRA.POLAR>
0

>  <SCORE.INTRA.POLAR.0>
0

>  <SCORE.INTRA.REPUL>
0

>  <SCORE.INTRA.REPUL.0>
0

>  <SCORE.INTRA.SOLV>
-0.673877

>  <SCORE.INTRA.SOLV.lig_0>
-56.4922

>  <SCORE.INTRA.VDW>
-0.0897192

>  <SCORE.INTRA.VDW.0>
-0.696801

>  <SCORE.INTRA.norm>
-0.0278855

>  <SCORE.RESTR>
0.0099692

>  <SCORE.RESTR.CAVITY>
0.0099692

>  <SCORE.RESTR.norm>
0.000453146

>  <SCORE.SYSTEM>
0

>  <SCORE.SYSTEM.CONST>
0

>  <SCORE.SYSTEM.DIHEDRAL>
0

>  <SCORE.SYSTEM.SOLV>
0

>  <SCORE.SYSTEM.norm>
0

>  <SCORE.heavy>
22

>  <SCORE.norm>
-0.561389

>  <RMSD>
1.104

$$$$
ligand
 OpenBabel02271912143D
libRbt.so/2013.1/901 2013/11/27
 22 24  0  0  0  0  0  0  0  0999 V2000
   11.8526  -21.0189   26.6840 N   0  0  0  0  0  0  0  0  0  0  0  0
   13.8180  -21.0661   25.3172 N   0  0  0  0  0  0  0  0  0  0  0  0
   13.2240  -20.6543   26.4494 C   0  0  0  0  0  0  0  0  0  0  0  0
   13.8616  -19.9233   27.3555 N   0  0  0  0  0  0  0  0  0  0  0  0
   17.8907  -17.5756   25.0493 O   0  0  0  0  0  0  0  0  0  0  0  0
   15.1447  -19.5706   27.1543 C   0  0  0  0  0  0  0  0  0  0  0  0
   15.8021  -19.9785   25.9602 C   0  0  0  0  0  0  0  0  0  0  0  0
   15.7832  -18.8129   28.1102 O   0  0  0  0  0  0  0  0  0  0  0  0
   17.1818  -19.6927   25.6200 N   0  0  0  0  0  0  0  0  0  0  0  0
   17.9355  -20.7738   24.9718 C   0  0  2  0  0  0  0  0  0  0  0  0
   17.1872  -21.3019   23.7879 C   0  0  0  0  0  0  0  0  0  0  0  0
   15.1006  -20.7425   25.0614 C   0  0  0  0  0  0  0  0  0  0  0  0
   15.7341  -21.1686   23.8715 N   0  0  0  0  0  0  0  0  0  0  0  0
   18.2691  -21.9485   25.9090 C   0  0  0  0  0  0  0  0  0  0  0  0
   19.0575  -22.9533   25.2061 N   0  0  0  0  0  0  0  0  0  0  0  0
   23.3055  -22.7467   25.0915 C   0  0  0  0  0  0  0  0  0  0  0  0
   22.6313  -22.4504   26.2642 C   0  0  0  0  0  0  0  0  0  0  0  0
   21.2253  -22.5178   26.3091 C   0  0  0  0  0  0  0  0  0  0  0  0
   20.5130  -22.8800   25.1759 C   0  0  0  0  0  0  0  0  0  0  0  0
   21.1934  -23.1773   23.9987 C   0  0  0  0  0  0  0  0  0  0  0  0
   22.5885  -23.1121   23.9565 C   0  0  0  0  0  0  0  0  0  0  0  0
   17.8369  -18.4584   25.8890 C   0  0  0  0  0  0  0  0  0  0  0  0
  1  3  1  0  0  0  0
  2  3  2  0  0  0  0
  2 12  1  0  0  0  0
  3  4  1  0  0  0  0
  4  6  1  0  0  0  0
  5 22  1  0  0  0  0
  6  7  1  0  0  0  0
  6  8  2  0  0  0  0
  7 12  2  0  0  0  0
  7  9  1  0  0  0  0
  9 10  1  0  0  0  0
  9 22  1  0  0  0  0
 10 11  1  0  0  0  0
 10 14  1  1  0  0  0
 11 13  1  0  0  0  0
 12 13  1  0  0  0  0
 14 15  1  0  0  0  0
 15 19  1  0  0  0  0
 16 17  2  0  0  0  0
 16 21  1  0  0  0  0
 17 18  1  0  0  0  0
 18 19  2  0  0  0  0
 19 20  1  0  0  0  0
 20 21  2  0  0  0  0
M  END
>  <CHROM.1>
-94.35909557,-177.90064471,88.94667914,40.76380560,17.48447055,-20.93381809
25.61907659,2.77562865,0.03130800,0.39920784

>  <Name>
ligand

>  <RI>
0

>  <Rbt.Current_Directory>
/home/itssahil/PROJECTS/Mol_Feturizer/Test_systems_manuscript/rnas/3sd3

>  <Rbt.Executable>
rbdock ($Id: //depot/dev/client3/rdock/2013.1/src/exe/rbdock.cxx#4 $)

>  <Rbt.Library>
libRbt.so (2013.1, Build901 2013/11/27)

>  <Rbt.Parameter_File>
/export/apps/rDock/src/rDock_2013.1_src/data/scripts/dock_solv.prm

>  <Rbt.Receptor>
prm/pocket_docking_2.prm

>  <SCORE>
-12.3501

>  <SCORE.INTER>
-11.7533

>  <SCORE.INTER.CONST>
1

>  <SCORE.INTER.POLAR>
0

>  <SCORE.INTER.ROT>
4

>  <SCORE.INTER.SOLV>
28.6793

>  <SCORE.INTER.VDW>
-23.662

>  <SCORE.INTER.norm>
-0.534241

>  <SCORE.INTRA>
-0.607888

>  <SCORE.INTRA.DIHEDRAL>
-0.298746

>  <SCORE.INTRA.DIHEDRAL.0>
2.54655

>  <SCORE.INTRA.POLAR>
0

>  <SCORE.INTRA.POLAR.0>
0

>  <SCORE.INTRA.REPUL>
0

>  <SCORE.INTRA.REPUL.0>
0

>  <SCORE.INTRA.SOLV>
-0.674431

>  <SCORE.INTRA.SOLV.lig_0>
-56.4922

>  <SCORE.INTRA.VDW>
-0.121299

>  <SCORE.INTRA.VDW.0>
-0.696801

>  <SCORE.INTRA.norm>
-0.0276313

>  <SCORE.RESTR>
0.0110755

>  <SCORE.RESTR.CAVITY>
0.0110755

>  <SCORE.RESTR.norm>
0.000503431

>  <SCORE.SYSTEM>
0

>  <SCORE.SYSTEM.CONST>
0

>  <SCORE.SYSTEM.DIHEDRAL>
0

>  <SCORE.SYSTEM.SOLV>
0

>  <SCORE.SYSTEM.norm>
0

>  <SCORE.heavy>
22

>  <SCORE.norm>
-0.561369

>  <RMSD>
1.106

$$$$
ligand
 OpenBabel02271912143D
libRbt.so/2013.1/901 2013/11/27
 22 24  0  0  0  0  0  0  0  0999 V2000
   11.8165  -20.8687   26.5815 N   0  0  0  0  0  0  0  0  0  0  0  0
   13.8455  -21.0108   25.3182 N   0  0  0  0  0  0  0  0  0  0  0  0
   13.2113  -20.5607   26.4134 C   0  0  0  0  0  0  0  0  0  0  0  0
   13.8302  -19.8423   27.3422 N   0  0  0  0  0  0  0  0  0  0  0  0
   17.8882  -17.6053   25.2978 O   0  0  0  0  0  0  0  0  0  0  0  0
   15.1347  -19.5423   27.2031 C   0  0  0  0  0  0  0  0  0  0  0  0
   15.8355  -19.9919   26.0493 C   0  0  0  0  0  0  0  0  0  0  0  0
   15.7529  -18.7965   28.1815 O   0  0  0  0  0  0  0  0  0  0  0  0
   17.2409  -19.7643   25.7771 N   0  0  0  0  0  0  0  0  0  0  0  0
   17.9835  -20.8827   25.1815 C   0  0  2  0  0  0  0  0  0  0  0  0
   17.2763  -21.3980   23.9671 C   0  0  0  0  0  0  0  0  0  0  0  0
   15.1512  -20.7406   25.1248 C   0  0  0  0  0  0  0  0  0  0  0  0
   15.8272  -21.2075   23.9743 N   0  0  0  0  0  0  0  0  0  0  0  0
   18.2226  -22.0563   26.1485 C   0  0  0  0  0  0  0  0  0  0  0  0
   19.0126  -23.0968   25.5018 N   0  0  0  0  0  0  0  0  0  0  0  0
   23.2057  -22.6246   24.9574 C   0  0  0  0  0  0  0  0  0  0  0  0
   22.4161  -23.0495   23.9021 C   0  0  0  0  0  0  0  0  0  0  0  0
   21.0274  -23.2069   24.0754 C   0  0  0  0  0  0  0  0  0  0  0  0
   20.4483  -22.9377   25.3063 C   0  0  0  0  0  0  0  0  0  0  0  0
   21.2445  -22.5107   26.3650 C   0  0  0  0  0  0  0  0  0  0  0  0
   22.6218  -22.3530   26.1908 C   0  0  0  0  0  0  0  0  0  0  0  0
   17.9295  -18.5527   26.0647 C   0  0  0  0  0  0  0  0  0  0  0  0
  1  3  1  0  0  0  0
  2  3  2  0  0  0  0
  2 12  1  0  0  0  0
  3  4  1  0  0  0  0
  4  6  1  0  0  0  0
  5 22  1  0  0  0  0
  6  7  1  0  0  0  0
  6  8  2  0  0  0  0
  7 12  2  0  0  0  0
  7  9  1  0  0  0  0
  9 10  1  0  0  0  0
  9 22  1  0  0  0  0
 10 11  1  0  0  0  0
 10 14  1  1  0  0  0
 11 13  1  0  0  0  0
 12 13  1  0  0  0  0
 14 15  1  0  0  0  0
 15 19  1  0  0  0  0
 16 17  2  0  0  0  0
 16 21  1  0  0  0  0
 17 18  1  0  0  0  0
 18 19  2  0  0  0  0
 19 20  1  0  0  0  0
 20 21  2  0  0  0  0
M  END
>  <CHROM.1>
-83.04915274,-177.55354282,75.96713731,-132.28793720,17.47673569,-20.93935084
25.70270663,2.76774057,0.01634377,0.43688847

>  <Name>
ligand

>  <RI>
0

>  <Rbt.Current_Directory>
/home/itssahil/PROJECTS/Mol_Feturizer/Test_systems_manuscript/rnas/3sd3

>  <Rbt.Executable>
rbdock ($Id: //depot/dev/client3/rdock/2013.1/src/exe/rbdock.cxx#4 $)

>  <Rbt.Library>
libRbt.so (2013.1, Build901 2013/11/27)

>  <Rbt.Parameter_File>
/export/apps/rDock/src/rDock_2013.1_src/data/scripts/dock_solv.prm

>  <Rbt.Receptor>
prm/pocket_docking_2.prm

>  <SCORE>
-12.5321

>  <SCORE.INTER>
-11.6478

>  <SCORE.INTER.CONST>
1

>  <SCORE.INTER.POLAR>
0

>  <SCORE.INTER.ROT>
4

>  <SCORE.INTER.SOLV>
29.2042

>  <SCORE.INTER.VDW>
-23.7666

>  <SCORE.INTER.norm>
-0.529445

>  <SCORE.INTRA>
-0.938066

>  <SCORE.INTRA.DIHEDRAL>
-0.662643

>  <SCORE.INTRA.DIHEDRAL.0>
2.54655

>  <SCORE.INTRA.POLAR>
0

>  <SCORE.INTRA.POLAR.0>
0

>  <SCORE.INTRA.REPUL>
0

>  <SCORE.INTRA.REPUL.0>
0

>  <SCORE.INTRA.SOLV>
-0.656743

>  <SCORE.INTRA.SOLV.lig_0>
-56.4922

>  <SCORE.INTRA.VDW>
-0.278373

>  <SCORE.INTRA.VDW.0>
-0.696801

>  <SCORE.INTRA.norm>
-0.0426394

>  <SCORE.RESTR>
0.0537161

>  <SCORE.RESTR.CAVITY>
0.0537161

>  <SCORE.RESTR.norm>
0.00244164

>  <SCORE.SYSTEM>
0

>  <SCORE.SYSTEM.CONST>
0

>  <SCORE.SYSTEM.DIHEDRAL>
0

>  <SCORE.SYSTEM.SOLV>
0

>  <SCORE.SYSTEM.norm>
0

>  <SCORE.heavy>
22

>  <SCORE.norm>
-0.569642

>  <RMSD>
1.113

$$$$
ligand
 OpenBabel02271912143D
libRbt.so/2013.1/901 2013/11/27
 22 24  0  0  0  0  0  0  0  0999 V2000
   11.7792  -20.9263   26.5997 N   0  0  0  0  0  0  0  0  0  0  0  0
   13.7825  -21.0410   25.2935 N   0  0  0  0  0  0  0  0  0  0  0  0
   13.1669  -20.6028   26.4040 C   0  0  0  0  0  0  0  0  0  0  0  0
   13.7977  -19.8826   27.3233 N   0  0  0  0  0  0  0  0  0  0  0  0
   18.1621  -18.2387   27.1069 O   0  0  0  0  0  0  0  0  0  0  0  0
   15.0959  -19.5684   27.1584 C   0  0  0  0  0  0  0  0  0  0  0  0
   15.7768  -20.0050   25.9879 C   0  0  0  0  0  0  0  0  0  0  0  0
   15.7268  -18.8209   28.1274 O   0  0  0  0  0  0  0  0  0  0  0  0
   17.1738  -19.7614   25.6875 N   0  0  0  0  0  0  0  0  0  0  0  0
   17.9152  -20.8690   25.0707 C   0  0  2  0  0  0  0  0  0  0  0  0
   17.1880  -21.3857   23.8688 C   0  0  0  0  0  0  0  0  0  0  0  0
   15.0810  -20.7562   25.0741 C   0  0  0  0  0  0  0  0  0  0  0  0
   15.7375  -21.2104   23.9073 N   0  0  0  0  0  0  0  0  0  0  0  0
   18.1867  -22.0448   26.0265 C   0  0  0  0  0  0  0  0  0  0  0  0
   18.9998  -23.0597   25.3679 N   0  0  0  0  0  0  0  0  0  0  0  0
   23.2194  -22.6330   25.0300 C   0  0  0  0  0  0  0  0  0  0  0  0
   22.5921  -22.3597   26.2339 C   0  0  0  0  0  0  0  0  0  0  0  0
   21.1958  -22.4999   26.3527 C   0  0  0  0  0  0  0  0  0  0  0  0
   20.4460  -22.9109   25.2611 C   0  0  0  0  0  0  0  0  0  0  0  0
   21.0792  -23.1850   24.0525 C   0  0  0  0  0  0  0  0  0  0  0  0
   22.4649  -23.0475   23.9370 C   0  0  0  0  0  0  0  0  0  0  0  0
   17.8557  -18.5441   25.9667 C   0  0  0  0  0  0  0  0  0  0  0  0
  1  3  1  0  0  0  0
  2  3  2  0  0  0  0
  2 12  1  0  0  0  0
  3  4  1  0  0  0  0
  4  6  1  0  0  0  0
  5 22  1  0  0  0  0
  6  7  1  0  0  0  0
  6  8  2  0  0  0  0
  7 12  2  0  0  0  0
  7  9  1  0  0  0  0
  9 10  1  0  0  0  0
  9 22  1  0  0  0  0
 10 11  1  0  0  0  0
 10 14  1  1  0  0  0
 11 13  1  0  0  0  0
 12 13  1  0  0  0  0
 14 15  1  0  0  0  0
 15 19  1  0  0  0  0
 16 17  2  0  0  0  0
 16 21  1  0  0  0  0
 17 18  1  0  0  0  0
 18 19  2  0  0  0  0
 19 20  1  0  0  0  0
 20 21  2  0  0  0  0
M  END
>  <CHROM.1>
73.34780689,-176.24105085,80.77732192,44.86591452,17.45586921,-20.97976358
25.75967896,2.78426858,-0.06496547,0.66434420

>  <Name>
ligand

>  <RI>
0

>  <Rbt.Current_Directory>
/home/itssahil/PROJECTS/Mol_Feturizer/Test_systems_manuscript/rnas/3sd3

>  <Rbt.Executable>
rbdock ($Id: //depot/dev/client3/rdock/2013.1/src/exe/rbdock.cxx#4 $)

>  <Rbt.Library>
libRbt.so (2013.1, Build901 2013/11/27)

>  <Rbt.Parameter_File>
/export/apps/rDock/src/rDock_2013.1_src/data/scripts/dock_solv.prm

>  <Rbt.Receptor>
prm/pocket_docking_2.prm

>  <SCORE>
-12.3811

>  <SCORE.INTER>
-11.7547

>  <SCORE.INTER.CONST>
1

>  <SCORE.INTER.POLAR>
0

>  <SCORE.INTER.ROT>
4

>  <SCORE.INTER.SOLV>
29.246

>  <SCORE.INTER.VDW>
-23.8518

>  <SCORE.INTER.norm>
-0.534303

>  <SCORE.INTRA>
-0.670206

>  <SCORE.INTRA.DIHEDRAL>
-0.553786

>  <SCORE.INTRA.DIHEDRAL.0>
2.54655

>  <SCORE.INTRA.POLAR>
0

>  <SCORE.INTRA.POLAR.0>
0

>  <SCORE.INTRA.REPUL>
0

>  <SCORE.INTRA.REPUL.0>
0

>  <SCORE.INTRA.SOLV>
-0.338662

>  <SCORE.INTRA.SOLV.lig_0>
-56.4922

>  <SCORE.INTRA.VDW>
-0.223982

>  <SCORE.INTRA.VDW.0>
-0.696801

>  <SCORE.INTRA.norm>
-0.0304639

>  <SCORE.RESTR>
0.0438088

>  <SCORE.RESTR.CAVITY>
0.0438088

>  <SCORE.RESTR.norm>
0.00199131

>  <SCORE.SYSTEM>
0

>  <SCORE.SYSTEM.CONST>
0

>  <SCORE.SYSTEM.DIHEDRAL>
0

>  <SCORE.SYSTEM.SOLV>
0

>  <SCORE.SYSTEM.norm>
0

>  <SCORE.heavy>
22

>  <SCORE.norm>
-0.562775

>  <RMSD>
1.120

$$$$
ligand
 OpenBabel02271912143D
libRbt.so/2013.1/901 2013/11/27
 22 24  0  0  0  0  0  0  0  0999 V2000
   18.2694  -19.7905   21.9378 N   0  0  0  0  0  0  0  0  0  0  0  0
   18.1687  -19.2801   24.2750 N   0  0  0  0  0  0  0  0  0  0  0  0
   17.6589  -19.9527   23.2300 C   0  0  0  0  0  0  0  0  0  0  0  0
   16.6123  -20.7597   23.3527 N   0  0  0  0  0  0  0  0  0  0  0  0
   13.8979  -19.4430   27.2768 O   0  0  0  0  0  0  0  0  0  0  0  0
   16.0260  -20.9242   24.5529 C   0  0  0  0  0  0  0  0  0  0  0  0
   16.5315  -20.2177   25.6797 C   0  0  0  0  0  0  0  0  0  0  0  0
   14.9424  -21.7677   24.6529 O   0  0  0  0  0  0  0  0  0  0  0  0
   16.0177  -20.3128   27.0318 N   0  0  0  0  0  0  0  0  0  0  0  0
   17.0123  -20.3269   28.1123 C   0  0  2  0  0  0  0  0  0  0  0  0
   17.9566  -19.1737   27.9749 C   0  0  0  0  0  0  0  0  0  0  0  0
   17.6226  -19.4047   25.5003 C   0  0  0  0  0  0  0  0  0  0  0  0
   18.1500  -18.6991   26.6061 N   0  0  0  0  0  0  0  0  0  0  0  0
   17.8307  -21.6285   28.1880 C   0  0  0  0  0  0  0  0  0  0  0  0
   18.2920  -22.0184   26.8613 N   0  0  0  0  0  0  0  0  0  0  0  0
   22.4479  -22.4083   26.0377 C   0  0  0  0  0  0  0  0  0  0  0  0
   21.5181  -22.7216   25.0605 C   0  0  0  0  0  0  0  0  0  0  0  0
   20.1410  -22.5938   25.3263 C   0  0  0  0  0  0  0  0  0  0  0  0
   19.7139  -22.1549   26.5704 C   0  0  0  0  0  0  0  0  0  0  0  0
   20.6507  -21.8406   27.5505 C   0  0  0  0  0  0  0  0  0  0  0  0
   22.0166  -21.9659   27.2844 C   0  0  0  0  0  0  0  0  0  0  0  0
   14.6370  -20.4093   27.3621 C   0  0  0  0  0  0  0  0  0  0  0  0
  1  3  1  0  0  0  0
  2  3  2  0  0  0  0
  2 12  1  0  0  0  0
  3  4  1  0  0  0  0
  4  6  1  0  0  0  0
  5 22  1  0  0  0  0
  6  7  1  0  0  0  0
  6  8  2  0  0  0  0
  7 12  2  0  0  0  0
  7  9  1  0  0  0  0
  9 10  1  0  0  0  0
  9 22  1  0  0  0  0
 10 11  1  0  0  0  0
 10 14  1  6  0  0  0
 11 13  1  0  0  0  0
 12 13  1  0  0  0  0
 14 15  1  0  0  0  0
 15 19  1  0  0  0  0
 16 17  2  0  0  0  0
 16 21  1  0  0  0  0
 17 18  1  0  0  0  0
 18 19  2  0  0  0  0
 19 20  1  0  0  0  0
 20 21  2  0  0  0  0
M  END
>  <CHROM.1>
-73.95639899,46.10921096,120.51821648,176.60179568,17.86142177,-20.76580652
25.93892866,-3.08673243,-0.33012438,1.64108329

>  <Name>
ligand

>  <RI>
0

>  <Rbt.Current_Directory>
/home/itssahil/PROJECTS/Mol_Feturizer/Test_systems_manuscript/rnas/3sd3

>  <Rbt.Executable>
rbdock ($Id: //depot/dev/client3/rdock/2013.1/src/exe/rbdock.cxx#4 $)

>  <Rbt.Library>
libRbt.so (2013.1, Build901 2013/11/27)

>  <Rbt.Parameter_File>
/export/apps/rDock/src/rDock_2013.1_src/data/scripts/dock_solv.prm

>  <Rbt.Receptor>
prm/pocket_docking_3.prm

>  <SCORE>
-11.7409

>  <SCORE.INTER>
-12.0659

>  <SCORE.INTER.CONST>
1

>  <SCORE.INTER.POLAR>
0

>  <SCORE.INTER.ROT>
4

>  <SCORE.INTER.SOLV>
11.909

>  <SCORE.INTER.VDW>
-18.2802

>  <SCORE.INTER.norm>
-0.548448

>  <SCORE.INTRA>
0.324937

>  <SCORE.INTRA.DIHEDRAL>
0.950166

>  <SCORE.INTRA.DIHEDRAL.0>
2.54655

>  <SCORE.INTRA.POLAR>
0

>  <SCORE.INTRA.POLAR.0>
0

>  <SCORE.INTRA.REPUL>
0

>  <SCORE.INTRA.REPUL.0>
0

>  <SCORE.INTRA.SOLV>
1.98794

>  <SCORE.INTRA.SOLV.lig_0>
-56.4922

>  <SCORE.INTRA.VDW>
-1.14412

>  <SCORE.INTRA.VDW.0>
-0.696801

>  <SCORE.INTRA.norm>
0.0147698

>  <SCORE.RESTR>
0

>  <SCORE.RESTR.CAVITY>
0

>  <SCORE.RESTR.norm>
0

>  <SCORE.SYSTEM>
0

>  <SCORE.SYSTEM.CONST>
0

>  <SCORE.SYSTEM.DIHEDRAL>
0

>  <SCORE.SYSTEM.SOLV>
0

>  <SCORE.SYSTEM.norm>
0

>  <SCORE.heavy>
22

>  <SCORE.norm>
-0.533678

>  <RMSD>
3.630

$$$$
ligand
 OpenBabel02271912143D
libRbt.so/2013.1/901 2013/11/27
 22 24  0  0  0  0  0  0  0  0999 V2000
   18.1190  -20.1990   21.8807 N   0  0  0  0  0  0  0  0  0  0  0  0
   18.0289  -19.4172   24.1420 N   0  0  0  0  0  0  0  0  0  0  0  0
   17.5180  -20.2120   23.1873 C   0  0  0  0  0  0  0  0  0  0  0  0
   16.4786  -21.0065   23.4118 N   0  0  0  0  0  0  0  0  0  0  0  0
   13.6575  -20.2251   26.5099 O   0  0  0  0  0  0  0  0  0  0  0  0
   15.9012  -21.0326   24.6272 C   0  0  0  0  0  0  0  0  0  0  0  0
   16.4081  -20.1945   25.6592 C   0  0  0  0  0  0  0  0  0  0  0  0
   14.8251  -21.8661   24.8337 O   0  0  0  0  0  0  0  0  0  0  0  0
   15.9036  -20.1331   27.0167 N   0  0  0  0  0  0  0  0  0  0  0  0
   16.9050  -20.0125   28.0842 C   0  0  2  0  0  0  0  0  0  0  0  0
   17.8391  -18.8767   27.8050 C   0  0  0  0  0  0  0  0  0  0  0  0
   17.4915  -19.4004   25.3774 C   0  0  0  0  0  0  0  0  0  0  0  0
   18.0201  -18.5656   26.3884 N   0  0  0  0  0  0  0  0  0  0  0  0
   17.7342  -21.2901   28.3070 C   0  0  0  0  0  0  0  0  0  0  0  0
   18.0927  -21.8942   27.0296 N   0  0  0  0  0  0  0  0  0  0  0  0
   22.1575  -22.4894   25.9229 C   0  0  0  0  0  0  0  0  0  0  0  0
   21.8490  -22.0032   27.1823 C   0  0  0  0  0  0  0  0  0  0  0  0
   20.5055  -21.8049   27.5552 C   0  0  0  0  0  0  0  0  0  0  0  0
   19.4881  -22.0952   26.6589 C   0  0  0  0  0  0  0  0  0  0  0  0
   19.8012  -22.5838   25.3939 C   0  0  0  0  0  0  0  0  0  0  0  0
   21.1345  -22.7820   25.0263 C   0  0  0  0  0  0  0  0  0  0  0  0
   14.5258  -20.2000   27.3660 C   0  0  0  0  0  0  0  0  0  0  0  0
  1  3  1  0  0  0  0
  2  3  2  0  0  0  0
  2 12  1  0  0  0  0
  3  4  1  0  0  0  0
  4  6  1  0  0  0  0
  5 22  1  0  0  0  0
  6  7  1  0  0  0  0
  6  8  2  0  0  0  0
  7 12  2  0  0  0  0
  7  9  1  0  0  0  0
  9 10  1  0  0  0  0
  9 22  1  0  0  0  0
 10 11  1  0  0  0  0
 10 14  1  6  0  0  0
 11 13  1  0  0  0  0
 12 13  1  0  0  0  0
 14 15  1  0  0  0  0
 15 19  1  0  0  0  0
 16 17  2  0  0  0  0
 16 21  1  0  0  0  0
 17 18  1  0  0  0  0
 18 19  2  0  0  0  0
 19 20  1  0  0  0  0
 20 21  2  0  0  0  0
M  END
>  <CHROM.1>
-5.04516771,41.21176534,120.96265112,4.72343832,17.69412712,-20.79357260
25.88548392,-3.08862516,-0.30988551,1.55151306

>  <Name>
ligand

>  <RI>
0

>  <Rbt.Current_Directory>
/home/itssahil/PROJECTS/Mol_Feturizer/Test_systems_manuscript/rnas/3sd3

>  <Rbt.Executable>
rbdock ($Id: //depot/dev/client3/rdock/2013.1/src/exe/rbdock.cxx#4 $)

>  <Rbt.Library>
libRbt.so (2013.1, Build901 2013/11/27)

>  <Rbt.Parameter_File>
/export/apps/rDock/src/rDock_2013.1_src/data/scripts/dock_solv.prm

>  <Rbt.Receptor>
prm/pocket_docking_3.prm

>  <SCORE>
-11.902

>  <SCORE.INTER>
-12.7264

>  <SCORE.INTER.CONST>
1

>  <SCORE.INTER.POLAR>
0

>  <SCORE.INTER.ROT>
4

>  <SCORE.INTER.SOLV>
12.8557

>  <SCORE.INTER.VDW>
-19.0362

>  <SCORE.INTER.norm>
-0.578472

>  <SCORE.INTRA>
0.824413

>  <SCORE.INTRA.DIHEDRAL>
1.42344

>  <SCORE.INTRA.DIHEDRAL.0>
2.54655

>  <SCORE.INTRA.POLAR>
0

>  <SCORE.INTRA.POLAR.0>
0

>  <SCORE.INTRA.REPUL>
0

>  <SCORE.INTRA.REPUL.0>
0

>  <SCORE.INTRA.SOLV>
2.26938

>  <SCORE.INTRA.SOLV.lig_0>
-56.4922

>  <SCORE.INTRA.VDW>
-1.022

>  <SCORE.INTRA.VDW.0>
-0.696801

>  <SCORE.INTRA.norm>
0.0374733

>  <SCORE.RESTR>
0

>  <SCORE.RESTR.CAVITY>
0

>  <SCORE.RESTR.norm>
0

>  <SCORE.SYSTEM>
0

>  <SCORE.SYSTEM.CONST>
0

>  <SCORE.SYSTEM.DIHEDRAL>
0

>  <SCORE.SYSTEM.SOLV>
0

>  <SCORE.SYSTEM.norm>
0

>  <SCORE.heavy>
22

>  <SCORE.norm>
-0.540999

>  <RMSD>
3.670

$$$$
ligand
 OpenBabel02271912143D
libRbt.so/2013.1/901 2013/11/27
 22 24  0  0  0  0  0  0  0  0999 V2000
   18.3989  -20.4758   21.8661 N   0  0  0  0  0  0  0  0  0  0  0  0
   18.6309  -20.0465   24.2102 N   0  0  0  0  0  0  0  0  0  0  0  0
   17.8823  -20.5340   23.2071 C   0  0  0  0  0  0  0  0  0  0  0  0
   16.6840  -21.0659   23.4147 N   0  0  0  0  0  0  0  0  0  0  0  0
   14.7354  -19.2776   27.6124 O   0  0  0  0  0  0  0  0  0  0  0  0
   16.1822  -21.1289   24.6619 C   0  0  0  0  0  0  0  0  0  0  0  0
   16.9422  -20.6106   25.7474 C   0  0  0  0  0  0  0  0  0  0  0  0
   14.9374  -21.6863   24.8499 O   0  0  0  0  0  0  0  0  0  0  0  0
   16.5406  -20.6296   27.1400 N   0  0  0  0  0  0  0  0  0  0  0  0
   17.5914  -20.9270   28.1220 C   0  0  2  0  0  0  0  0  0  0  0  0
   18.7747  -20.0340   27.9149 C   0  0  0  0  0  0  0  0  0  0  0  0
   18.1798  -20.0814   25.4793 C   0  0  0  0  0  0  0  0  0  0  0  0
   18.9588  -19.5686   26.5417 N   0  0  0  0  0  0  0  0  0  0  0  0
   18.0679  -22.3906   28.0998 C   0  0  0  0  0  0  0  0  0  0  0  0
   18.1932  -22.8651   26.7271 N   0  0  0  0  0  0  0  0  0  0  0  0
   21.8593  -22.5322   24.5940 C   0  0  0  0  0  0  0  0  0  0  0  0
   21.8314  -22.3008   25.9590 C   0  0  0  0  0  0  0  0  0  0  0  0
   20.6213  -22.4102   26.6711 C   0  0  0  0  0  0  0  0  0  0  0  0
   19.4537  -22.7488   26.0043 C   0  0  0  0  0  0  0  0  0  0  0  0
   19.4849  -22.9810   24.6324 C   0  0  0  0  0  0  0  0  0  0  0  0
   20.6867  -22.8741   23.9277 C   0  0  0  0  0  0  0  0  0  0  0  0
   15.2128  -20.3997   27.5970 C   0  0  0  0  0  0  0  0  0  0  0  0
  1  3  1  0  0  0  0
  2  3  2  0  0  0  0
  2 12  1  0  0  0  0
  3  4  1  0  0  0  0
  4  6  1  0  0  0  0
  5 22  1  0  0  0  0
  6  7  1  0  0  0  0
  6  8  2  0  0  0  0
  7 12  2  0  0  0  0
  7  9  1  0  0  0  0
  9 10  1  0  0  0  0
  9 22  1  0  0  0  0
 10 11  1  0  0  0  0
 10 14  1  6  0  0  0
 11 13  1  0  0  0  0
 12 13  1  0  0  0  0
 14 15  1  0  0  0  0
 15 19  1  0  0  0  0
 16 17  2  0  0  0  0
 16 21  1  0  0  0  0
 17 18  1  0  0  0  0
 18 19  2  0  0  0  0
 19 20  1  0  0  0  0
 20 21  2  0  0  0  0
M  END
>  <CHROM.1>
-74.87471081,41.32022609,91.34072961,11.68059294,18.05316120,-21.20474039
25.72119933,0.37063494,0.38046560,-1.55126235

>  <Name>
ligand

>  <RI>
0

>  <Rbt.Current_Directory>
/home/itssahil/PROJECTS/Mol_Feturizer/Test_systems_manuscript/rnas/3sd3

>  <Rbt.Executable>
rbdock ($Id: //depot/dev/client3/rdock/2013.1/src/exe/rbdock.cxx#4 $)

>  <Rbt.Library>
libRbt.so (2013.1, Build901 2013/11/27)

>  <Rbt.Parameter_File>
/export/apps/rDock/src/rDock_2013.1_src/data/scripts/dock_solv.prm

>  <Rbt.Receptor>
prm/pocket_docking_3.prm

>  <SCORE>
-13.4633

>  <SCORE.INTER>
-12.5074

>  <SCORE.INTER.CONST>
1

>  <SCORE.INTER.POLAR>
0

>  <SCORE.INTER.ROT>
4

>  <SCORE.INTER.SOLV>
13.2465

>  <SCORE.INTER.VDW>
-19.0204

>  <SCORE.INTER.norm>
-0.568519

>  <SCORE.INTRA>
-0.955871

>  <SCORE.INTRA.DIHEDRAL>
0.879917

>  <SCORE.INTRA.DIHEDRAL.0>
2.54655

>  <SCORE.INTRA.POLAR>
0

>  <SCORE.INTRA.POLAR.0>
0

>  <SCORE.INTRA.REPUL>
0

>  <SCORE.INTRA.REPUL.0>
0

>  <SCORE.INTRA.SOLV>
2.70785

>  <SCORE.INTRA.SOLV.lig_0>
-56.4922

>  <SCORE.INTRA.VDW>
-2.74976

>  <SCORE.INTRA.VDW.0>
-0.696801

>  <SCORE.INTRA.norm>
-0.0434487

>  <SCORE.RESTR>
0

>  <SCORE.RESTR.CAVITY>
0

>  <SCORE.RESTR.norm>
0

>  <SCORE.SYSTEM>
0

>  <SCORE.SYSTEM.CONST>
0

>  <SCORE.SYSTEM.DIHEDRAL>
0

>  <SCORE.SYSTEM.SOLV>
0

>  <SCORE.SYSTEM.norm>
0

>  <SCORE.heavy>
22

>  <SCORE.norm>
-0.611968

>  <RMSD>
3.674

$$$$
ligand
 OpenBabel02271912143D
libRbt.so/2013.1/901 2013/11/27
 22 24  0  0  0  0  0  0  0  0999 V2000
   18.2101  -20.2647   21.9258 N   0  0  0  0  0  0  0  0  0  0  0  0
   18.0645  -19.4604   24.1763 N   0  0  0  0  0  0  0  0  0  0  0  0
   17.5952  -20.2854   23.2258 C   0  0  0  0  0  0  0  0  0  0  0  0
   16.5843  -21.1163   23.4486 N   0  0  0  0  0  0  0  0  0  0  0  0
   13.7991  -19.3895   27.2626 O   0  0  0  0  0  0  0  0  0  0  0  0
   15.9946  -21.1501   24.6578 C   0  0  0  0  0  0  0  0  0  0  0  0
   16.4574  -20.2811   25.6850 C   0  0  0  0  0  0  0  0  0  0  0  0
   14.9487  -22.0218   24.8628 O   0  0  0  0  0  0  0  0  0  0  0  0
   15.9355  -20.2232   27.0361 N   0  0  0  0  0  0  0  0  0  0  0  0
   16.9193  -20.0517   28.1129 C   0  0  2  0  0  0  0  0  0  0  0  0
   17.8126  -18.8844   27.8301 C   0  0  0  0  0  0  0  0  0  0  0  0
   17.5128  -19.4496   25.4054 C   0  0  0  0  0  0  0  0  0  0  0  0
   17.9977  -18.5833   26.4119 N   0  0  0  0  0  0  0  0  0  0  0  0
   17.7941  -21.2940   28.3603 C   0  0  0  0  0  0  0  0  0  0  0  0
   17.7789  -22.1685   27.1941 N   0  0  0  0  0  0  0  0  0  0  0  0
   21.2758  -22.6942   24.8284 C   0  0  0  0  0  0  0  0  0  0  0  0
   20.0256  -22.8817   24.2634 C   0  0  0  0  0  0  0  0  0  0  0  0
   18.8641  -22.7084   25.0407 C   0  0  0  0  0  0  0  0  0  0  0  0
   18.9717  -22.3507   26.3761 C   0  0  0  0  0  0  0  0  0  0  0  0
   20.2296  -22.1628   26.9411 C   0  0  0  0  0  0  0  0  0  0  0  0
   21.3809  -22.3331   26.1679 C   0  0  0  0  0  0  0  0  0  0  0  0
   14.5573  -20.3386   27.3711 C   0  0  0  0  0  0  0  0  0  0  0  0
  1  3  1  0  0  0  0
  2  3  2  0  0  0  0
  2 12  1  0  0  0  0
  3  4  1  0  0  0  0
  4  6  1  0  0  0  0
  5 22  1  0  0  0  0
  6  7  1  0  0  0  0
  6  8  2  0  0  0  0
  7 12  2  0  0  0  0
  7  9  1  0  0  0  0
  9 10  1  0  0  0  0
  9 22  1  0  0  0  0
 10 11  1  0  0  0  0
 10 14  1  6  0  0  0
 11 13  1  0  0  0  0
 12 13  1  0  0  0  0
 14 15  1  0  0  0  0
 15 19  1  0  0  0  0
 16 17  2  0  0  0  0
 16 21  1  0  0  0  0
 17 18  1  0  0  0  0
 18 19  2  0  0  0  0
 19 20  1  0  0  0  0
 20 21  2  0  0  0  0
M  END
>  <CHROM.1>
-80.16049477,20.05490049,111.59325651,-154.11866908,17.54624050,-20.86417549
25.78438718,0.38118901,0.41855504,-1.61388957

>  <Name>
ligand

>  <RI>
0

>  <Rbt.Current_Directory>
/home/itssahil/PROJECTS/Mol_Feturizer/Test_systems_manuscript/rnas/3sd3

>  <Rbt.Executable>
rbdock ($Id: //depot/dev/client3/rdock/2013.1/src/exe/rbdock.cxx#4 $)

>  <Rbt.Library>
libRbt.so (2013.1, Build901 2013/11/27)

>  <Rbt.Parameter_File>
/export/apps/rDock/src/rDock_2013.1_src/data/scripts/dock_solv.prm

>  <Rbt.Receptor>
prm/pocket_docking_3.prm

>  <SCORE>
-13.9065

>  <SCORE.INTER>
-14.4561

>  <SCORE.INTER.CONST>
1

>  <SCORE.INTER.POLAR>
0

>  <SCORE.INTER.ROT>
4

>  <SCORE.INTER.SOLV>
13.8564

>  <SCORE.INTER.VDW>
-20.5228

>  <SCORE.INTER.norm>
-0.657094

>  <SCORE.INTRA>
0.549565

>  <SCORE.INTRA.DIHEDRAL>
4.13615

>  <SCORE.INTRA.DIHEDRAL.0>
2.54655

>  <SCORE.INTRA.POLAR>
0

>  <SCORE.INTRA.POLAR.0>
0

>  <SCORE.INTRA.REPUL>
0

>  <SCORE.INTRA.REPUL.0>
0

>  <SCORE.INTRA.SOLV>
1.92651

>  <SCORE.INTRA.SOLV.lig_0>
-56.4922

>  <SCORE.INTRA.VDW>
-2.48177

>  <SCORE.INTRA.VDW.0>
-0.696801

>  <SCORE.INTRA.norm>
0.0249802

>  <SCORE.RESTR>
0

>  <SCORE.RESTR.CAVITY>
0

>  <SCORE.RESTR.norm>
0

>  <SCORE.SYSTEM>
0

>  <SCORE.SYSTEM.CONST>
0

>  <SCORE.SYSTEM.DIHEDRAL>
0

>  <SCORE.SYSTEM.SOLV>
0

>  <SCORE.SYSTEM.norm>
0

>  <SCORE.heavy>
22

>  <SCORE.norm>
-0.632114

>  <RMSD>
3.808

$$$$
ligand
 OpenBabel02271912143D
libRbt.so/2013.1/901 2013/11/27
 22 24  0  0  0  0  0  0  0  0999 V2000
   18.2865  -20.3017   21.9727 N   0  0  0  0  0  0  0  0  0  0  0  0
   18.1292  -19.4949   24.2216 N   0  0  0  0  0  0  0  0  0  0  0  0
   17.6574  -20.3127   23.2661 C   0  0  0  0  0  0  0  0  0  0  0  0
   16.6315  -21.1278   23.4780 N   0  0  0  0  0  0  0  0  0  0  0  0
   13.8327  -19.3575   27.2625 O   0  0  0  0  0  0  0  0  0  0  0  0
   16.0284  -21.1524   24.6809 C   0  0  0  0  0  0  0  0  0  0  0  0
   16.4935  -20.2905   25.7130 C   0  0  0  0  0  0  0  0  0  0  0  0
   14.9670  -22.0077   24.8746 O   0  0  0  0  0  0  0  0  0  0  0  0
   15.9581  -20.2243   27.0584 N   0  0  0  0  0  0  0  0  0  0  0  0
   16.9329  -20.0679   28.1457 C   0  0  2  0  0  0  0  0  0  0  0  0
   17.8470  -18.9146   27.8725 C   0  0  0  0  0  0  0  0  0  0  0  0
   17.5646  -19.4754   25.4447 C   0  0  0  0  0  0  0  0  0  0  0  0
   18.0520  -18.6166   26.4564 N   0  0  0  0  0  0  0  0  0  0  0  0
   17.7856  -21.3235   28.4024 C   0  0  0  0  0  0  0  0  0  0  0  0
   17.7700  -22.1975   27.2358 N   0  0  0  0  0  0  0  0  0  0  0  0
   21.2661  -22.7214   24.8684 C   0  0  0  0  0  0  0  0  0  0  0  0
   20.0168  -22.9394   24.3123 C   0  0  0  0  0  0  0  0  0  0  0  0
   18.8555  -22.7669   25.0903 C   0  0  0  0  0  0  0  0  0  0  0  0
   18.9625  -22.3793   26.4173 C   0  0  0  0  0  0  0  0  0  0  0  0
   20.2195  -22.1607   26.9734 C   0  0  0  0  0  0  0  0  0  0  0  0
   21.3705  -22.3303   26.1996 C   0  0  0  0  0  0  0  0  0  0  0  0
   14.5748  -20.3183   27.3786 C   0  0  0  0  0  0  0  0  0  0  0  0
  1  3  1  0  0  0  0
  2  3  2  0  0  0  0
  2 12  1  0  0  0  0
  3  4  1  0  0  0  0
  4  6  1  0  0  0  0
  5 22  1  0  0  0  0
  6  7  1  0  0  0  0
  6  8  2  0  0  0  0
  7 12  2  0  0  0  0
  7  9  1  0  0  0  0
  9 10  1  0  0  0  0
  9 22  1  0  0  0  0
 10 11  1  0  0  0  0
 10 14  1  6  0  0  0
 11 13  1  0  0  0  0
 12 13  1  0  0  0  0
 14 15  1  0  0  0  0
 15 19  1  0  0  0  0
 16 17  2  0  0  0  0
 16 21  1  0  0  0  0
 17 18  1  0  0  0  0
 18 19  2  0  0  0  0
 19 20  1  0  0  0  0
 20 21  2  0  0  0  0
M  END
>  <CHROM.1>
-80.19533830,20.08637014,110.49134864,-155.63749811,17.56935760,-20.88086152
25.81742432,0.38857064,0.42377303,-1.61660920

>  <Name>
ligand

>  <RI>
0

>  <Rbt.Current_Directory>
/home/itssahil/PROJECTS/Mol_Feturizer/Test_systems_manuscript/rnas/3sd3

>  <Rbt.Executable>
rbdock ($Id: //depot/dev/client3/rdock/2013.1/src/exe/rbdock.cxx#4 $)

>  <Rbt.Library>
libRbt.so (2013.1, Build901 2013/11/27)

>  <Rbt.Parameter_File>
/export/apps/rDock/src/rDock_2013.1_src/data/scripts/dock_solv.prm

>  <Rbt.Receptor>
prm/pocket_docking_3.prm

>  <SCORE>
-13.8975

>  <SCORE.INTER>
-14.4268

>  <SCORE.INTER.CONST>
1

>  <SCORE.INTER.POLAR>
0

>  <SCORE.INTER.ROT>
4

>  <SCORE.INTER.SOLV>
13.5672

>  <SCORE.INTER.VDW>
-20.4069

>  <SCORE.INTER.norm>
-0.655761

>  <SCORE.INTRA>
0.52922

>  <SCORE.INTRA.DIHEDRAL>
4.11678

>  <SCORE.INTRA.DIHEDRAL.0>
2.54655

>  <SCORE.INTRA.POLAR>
0

>  <SCORE.INTRA.POLAR.0>
0

>  <SCORE.INTRA.REPUL>
0

>  <SCORE.INTRA.REPUL.0>
0

>  <SCORE.INTRA.SOLV>
1.95981

>  <SCORE.INTRA.SOLV.lig_0>
-56.4922

>  <SCORE.INTRA.VDW>
-2.50908

>  <SCORE.INTRA.VDW.0>
-0.696801

>  <SCORE.INTRA.norm>
0.0240554

>  <SCORE.RESTR>
0

>  <SCORE.RESTR.CAVITY>
0

>  <SCORE.RESTR.norm>
0

>  <SCORE.SYSTEM>
0

>  <SCORE.SYSTEM.CONST>
0

>  <SCORE.SYSTEM.DIHEDRAL>
0

>  <SCORE.SYSTEM.SOLV>
0

>  <SCORE.SYSTEM.norm>
0

>  <SCORE.heavy>
22

>  <SCORE.norm>
-0.631706

>  <RMSD>
3.815

$$$$
ligand
 OpenBabel02271912143D
libRbt.so/2013.1/901 2013/11/27
 22 24  0  0  0  0  0  0  0  0999 V2000
   18.6108  -20.7933   21.9620 N   0  0  0  0  0  0  0  0  0  0  0  0
   18.2984  -19.7584   24.0984 N   0  0  0  0  0  0  0  0  0  0  0  0
   17.8746  -20.6520   23.1895 C   0  0  0  0  0  0  0  0  0  0  0  0
   16.8006  -21.4061   23.3885 N   0  0  0  0  0  0  0  0  0  0  0  0
   13.9344  -19.4284   27.8377 O   0  0  0  0  0  0  0  0  0  0  0  0
   16.0973  -21.2883   24.5299 C   0  0  0  0  0  0  0  0  0  0  0  0
   16.5098  -20.3428   25.5099 C   0  0  0  0  0  0  0  0  0  0  0  0
   14.9878  -22.0830   24.7117 O   0  0  0  0  0  0  0  0  0  0  0  0
   15.8657  -20.1227   26.7897 N   0  0  0  0  0  0  0  0  0  0  0  0
   16.7507  -19.8905   27.9385 C   0  0  2  0  0  0  0  0  0  0  0  0
   17.7332  -18.8025   27.6357 C   0  0  0  0  0  0  0  0  0  0  0  0
   17.6336  -19.5960   25.2590 C   0  0  0  0  0  0  0  0  0  0  0  0
   18.0698  -18.6564   26.2210 N   0  0  0  0  0  0  0  0  0  0  0  0
   17.5243  -21.1420   28.3912 C   0  0  0  0  0  0  0  0  0  0  0  0
   17.6900  -22.0690   27.2784 N   0  0  0  0  0  0  0  0  0  0  0  0
   21.4701  -22.6317   25.4088 C   0  0  0  0  0  0  0  0  0  0  0  0
   21.4024  -22.0771   26.6759 C   0  0  0  0  0  0  0  0  0  0  0  0
   20.1543  -21.8890   27.3007 C   0  0  0  0  0  0  0  0  0  0  0  0
   18.9894  -22.2582   26.6454 C   0  0  0  0  0  0  0  0  0  0  0  0
   19.0607  -22.8156   25.3721 C   0  0  0  0  0  0  0  0  0  0  0  0
   20.2999  -23.0035   24.7545 C   0  0  0  0  0  0  0  0  0  0  0  0
   14.4575  -20.1367   26.9939 C   0  0  0  0  0  0  0  0  0  0  0  0
  1  3  1  0  0  0  0
  2  3  2  0  0  0  0
  2 12  1  0  0  0  0
  3  4  1  0  0  0  0
  4  6  1  0  0  0  0
  5 22  1  0  0  0  0
  6  7  1  0  0  0  0
  6  8  2  0  0  0  0
  7 12  2  0  0  0  0
  7  9  1  0  0  0  0
  9 10  1  0  0  0  0
  9 22  1  0  0  0  0
 10 11  1  0  0  0  0
 10 14  1  6  0  0  0
 11 13  1  0  0  0  0
 12 13  1  0  0  0  0
 14 15  1  0  0  0  0
 15 19  1  0  0  0  0
 16 17  2  0  0  0  0
 16 21  1  0  0  0  0
 17 18  1  0  0  0  0
 18 19  2  0  0  0  0
 19 20  1  0  0  0  0
 20 21  2  0  0  0  0
M  END
>  <CHROM.1>
-147.76604411,25.95203112,107.81098379,19.11697840,17.61225499,-20.89966678
25.83667947,0.39727854,0.37477945,-1.69306110

>  <Name>
ligand

>  <RI>
0

>  <Rbt.Current_Directory>
/home/itssahil/PROJECTS/Mol_Feturizer/Test_systems_manuscript/rnas/3sd3

>  <Rbt.Executable>
rbdock ($Id: //depot/dev/client3/rdock/2013.1/src/exe/rbdock.cxx#4 $)

>  <Rbt.Library>
libRbt.so (2013.1, Build901 2013/11/27)

>  <Rbt.Parameter_File>
/export/apps/rDock/src/rDock_2013.1_src/data/scripts/dock_solv.prm

>  <Rbt.Receptor>
prm/pocket_docking_2.prm

>  <SCORE>
-10.5939

>  <SCORE.INTER>
-12.9604

>  <SCORE.INTER.CONST>
1

>  <SCORE.INTER.POLAR>
0

>  <SCORE.INTER.ROT>
4

>  <SCORE.INTER.SOLV>
13.4746

>  <SCORE.INTER.VDW>
-19.3985

>  <SCORE.INTER.norm>
-0.589109

>  <SCORE.INTRA>
0.404198

>  <SCORE.INTRA.DIHEDRAL>
3.27181

>  <SCORE.INTRA.DIHEDRAL.0>
2.54655

>  <SCORE.INTRA.POLAR>
0

>  <SCORE.INTRA.POLAR.0>
0

>  <SCORE.INTRA.REPUL>
0

>  <SCORE.INTRA.REPUL.0>
0

>  <SCORE.INTRA.SOLV>
2.06317

>  <SCORE.INTRA.SOLV.lig_0>
-56.4922

>  <SCORE.INTRA.VDW>
-2.26329

>  <SCORE.INTRA.VDW.0>
-0.696801

>  <SCORE.INTRA.norm>
0.0183726

>  <SCORE.RESTR>
1.96228

>  <SCORE.RESTR.CAVITY>
1.96228

>  <SCORE.RESTR.norm>
0.0891944

>  <SCORE.SYSTEM>
0

>  <SCORE.SYSTEM.CONST>
0

>  <SCORE.SYSTEM.DIHEDRAL>
0

>  <SCORE.SYSTEM.SOLV>
0

>  <SCORE.SYSTEM.norm>
0

>  <SCORE.heavy>
22

>  <SCORE.norm>
-0.481542

>  <RMSD>
3.826

$$$$
ligand
 OpenBabel02271912143D
libRbt.so/2013.1/901 2013/11/27
 22 24  0  0  0  0  0  0  0  0999 V2000
   18.4284  -20.6926   22.0308 N   0  0  0  0  0  0  0  0  0  0  0  0
   18.2548  -19.6754   24.1914 N   0  0  0  0  0  0  0  0  0  0  0  0
   17.7556  -20.5401   23.2929 C   0  0  0  0  0  0  0  0  0  0  0  0
   16.6639  -21.2558   23.5330 N   0  0  0  0  0  0  0  0  0  0  0  0
   13.9070  -20.9720   27.4507 O   0  0  0  0  0  0  0  0  0  0  0  0
   16.0191  -21.1270   24.7072 C   0  0  0  0  0  0  0  0  0  0  0  0
   16.5123  -20.2110   25.6778 C   0  0  0  0  0  0  0  0  0  0  0  0
   14.8896  -21.8816   24.9312 O   0  0  0  0  0  0  0  0  0  0  0  0
   15.9369  -19.9840   26.9888 N   0  0  0  0  0  0  0  0  0  0  0  0
   16.8823  -19.8007   28.0976 C   0  0  2  0  0  0  0  0  0  0  0  0
   17.8907  -18.7466   27.7621 C   0  0  0  0  0  0  0  0  0  0  0  0
   17.6511  -19.5038   25.3836 C   0  0  0  0  0  0  0  0  0  0  0  0
   18.1669  -18.5943   26.3350 N   0  0  0  0  0  0  0  0  0  0  0  0
   17.6274  -21.0865   28.4991 C   0  0  0  0  0  0  0  0  0  0  0  0
   17.6991  -22.0074   27.3713 N   0  0  0  0  0  0  0  0  0  0  0  0
   21.3618  -22.7278   25.3299 C   0  0  0  0  0  0  0  0  0  0  0  0
   21.3775  -22.2098   26.6140 C   0  0  0  0  0  0  0  0  0  0  0  0
   20.1687  -21.9699   27.2956 C   0  0  0  0  0  0  0  0  0  0  0  0
   18.9588  -22.2511   26.6793 C   0  0  0  0  0  0  0  0  0  0  0  0
   18.9461  -22.7718   25.3887 C   0  0  0  0  0  0  0  0  0  0  0  0
   20.1464  -23.0113   24.7147 C   0  0  0  0  0  0  0  0  0  0  0  0
   14.5402  -19.9476   27.2583 C   0  0  0  0  0  0  0  0  0  0  0  0
  1  3  1  0  0  0  0
  2  3  2  0  0  0  0
  2 12  1  0  0  0  0
  3  4  1  0  0  0  0
  4  6  1  0  0  0  0
  5 22  1  0  0  0  0
  6  7  1  0  0  0  0
  6  8  2  0  0  0  0
  7 12  2  0  0  0  0
  7  9  1  0  0  0  0
  9 10  1  0  0  0  0
  9 22  1  0  0  0  0
 10 11  1  0  0  0  0
 10 14  1  6  0  0  0
 11 13  1  0  0  0  0
 12 13  1  0  0  0  0
 14 15  1  0  0  0  0
 15 19  1  0  0  0  0
 16 17  2  0  0  0  0
 16 21  1  0  0  0  0
 17 18  1  0  0  0  0
 18 19  2  0  0  0  0
 19 20  1  0  0  0  0
 20 21  2  0  0  0  0
M  END
>  <CHROM.1>
83.86289907,25.61856184,108.44131146,20.37687919,17.59433590,-20.91673043
25.91092870,0.34836973,0.32997088,-1.65089072

>  <Name>
ligand

>  <RI>
0

>  <Rbt.Current_Directory>
/home/itssahil/PROJECTS/Mol_Feturizer/Test_systems_manuscript/rnas/3sd3

>  <Rbt.Executable>
rbdock ($Id: //depot/dev/client3/rdock/2013.1/src/exe/rbdock.cxx#4 $)

>  <Rbt.Library>
libRbt.so (2013.1, Build901 2013/11/27)

>  <Rbt.Parameter_File>
/export/apps/rDock/src/rDock_2013.1_src/data/scripts/dock_solv.prm

>  <Rbt.Receptor>
prm/pocket_docking_3.prm

>  <SCORE>
-14.6736

>  <SCORE.INTER>
-14.9711

>  <SCORE.INTER.CONST>
1

>  <SCORE.INTER.POLAR>
0

>  <SCORE.INTER.ROT>
4

>  <SCORE.INTER.SOLV>
12.9846

>  <SCORE.INTER.VDW>
-20.5756

>  <SCORE.INTER.norm>
-0.680504

>  <SCORE.INTRA>
0.297456

>  <SCORE.INTRA.DIHEDRAL>
3.32875

>  <SCORE.INTRA.DIHEDRAL.0>
2.54655

>  <SCORE.INTRA.POLAR>
0

>  <SCORE.INTRA.POLAR.0>
0

>  <SCORE.INTRA.REPUL>
0

>  <SCORE.INTRA.REPUL.0>
0

>  <SCORE.INTRA.SOLV>
2.53397

>  <SCORE.INTRA.SOLV.lig_0>
-56.4922

>  <SCORE.INTRA.VDW>
-2.63391

>  <SCORE.INTRA.VDW.0>
-0.696801

>  <SCORE.INTRA.norm>
0.0135207

>  <SCORE.RESTR>
0

>  <SCORE.RESTR.CAVITY>
0

>  <SCORE.RESTR.norm>
0

>  <SCORE.SYSTEM>
0

>  <SCORE.SYSTEM.CONST>
0

>  <SCORE.SYSTEM.DIHEDRAL>
0

>  <SCORE.SYSTEM.SOLV>
0

>  <SCORE.SYSTEM.norm>
0

>  <SCORE.heavy>
22

>  <SCORE.norm>
-0.666983

>  <RMSD>
3.846

$$$$
ligand
 OpenBabel02271912143D
libRbt.so/2013.1/901 2013/11/27
 22 24  0  0  0  0  0  0  0  0999 V2000
   18.2050  -20.3420   21.9399 N   0  0  0  0  0  0  0  0  0  0  0  0
   18.0296  -19.4487   24.1544 N   0  0  0  0  0  0  0  0  0  0  0  0
   17.5766  -20.3152   23.2334 C   0  0  0  0  0  0  0  0  0  0  0  0
   16.5701  -21.1447   23.4793 N   0  0  0  0  0  0  0  0  0  0  0  0
   13.6442  -20.2814   26.4754 O   0  0  0  0  0  0  0  0  0  0  0  0
   15.9680  -21.1346   24.6829 C   0  0  0  0  0  0  0  0  0  0  0  0
   16.4132  -20.2211   25.6787 C   0  0  0  0  0  0  0  0  0  0  0  0
   14.9268  -22.0058   24.9123 O   0  0  0  0  0  0  0  0  0  0  0  0
   15.8767  -20.1129   27.0210 N   0  0  0  0  0  0  0  0  0  0  0  0
   16.8479  -19.8901   28.0999 C   0  0  2  0  0  0  0  0  0  0  0  0
   17.7349  -18.7278   27.7792 C   0  0  0  0  0  0  0  0  0  0  0  0
   17.4650  -19.3928   25.3765 C   0  0  0  0  0  0  0  0  0  0  0  0
   17.9325  -18.4827   26.3519 N   0  0  0  0  0  0  0  0  0  0  0  0
   17.7296  -21.1141   28.4062 C   0  0  0  0  0  0  0  0  0  0  0  0
   17.7063  -22.0513   27.2898 N   0  0  0  0  0  0  0  0  0  0  0  0
   21.1740  -22.7733   24.9330 C   0  0  0  0  0  0  0  0  0  0  0  0
   21.3068  -22.3697   26.2510 C   0  0  0  0  0  0  0  0  0  0  0  0
   20.1630  -22.1300   27.0368 C   0  0  0  0  0  0  0  0  0  0  0  0
   18.8998  -22.2965   26.4897 C   0  0  0  0  0  0  0  0  0  0  0  0
   18.7695  -22.7024   25.1648 C   0  0  0  0  0  0  0  0  0  0  0  0
   19.9053  -22.9419   24.3872 C   0  0  0  0  0  0  0  0  0  0  0  0
   14.4961  -20.2260   27.3464 C   0  0  0  0  0  0  0  0  0  0  0  0
  1  3  1  0  0  0  0
  2  3  2  0  0  0  0
  2 12  1  0  0  0  0
  3  4  1  0  0  0  0
  4  6  1  0  0  0  0
  5 22  1  0  0  0  0
  6  7  1  0  0  0  0
  6  8  2  0  0  0  0
  7 12  2  0  0  0  0
  7  9  1  0  0  0  0
  9 10  1  0  0  0  0
  9 22  1  0  0  0  0
 10 11  1  0  0  0  0
 10 14  1  6  0  0  0
 11 13  1  0  0  0  0
 12 13  1  0  0  0  0
 14 15  1  0  0  0  0
 15 19  1  0  0  0  0
 16 17  2  0  0  0  0
 16 21  1  0  0  0  0
 17 18  1  0  0  0  0
 18 19  2  0  0  0  0
 19 20  1  0  0  0  0
 20 21  2  0  0  0  0
M  END
>  <CHROM.1>
-8.07299406,18.60760890,112.97409572,27.14549640,17.48398603,-20.87136557
25.77043778,0.30464228,0.38260284,-1.64521301

>  <Name>
ligand

>  <RI>
0

>  <Rbt.Current_Directory>
/home/itssahil/PROJECTS/Mol_Feturizer/Test_systems_manuscript/rnas/3sd3

>  <Rbt.Executable>
rbdock ($Id: //depot/dev/client3/rdock/2013.1/src/exe/rbdock.cxx#4 $)

>  <Rbt.Library>
libRbt.so (2013.1, Build901 2013/11/27)

>  <Rbt.Parameter_File>
/export/apps/rDock/src/rDock_2013.1_src/data/scripts/dock_solv.prm

>  <Rbt.Receptor>
prm/pocket_docking_3.prm

>  <SCORE>
-14.1222

>  <SCORE.INTER>
-15.0228

>  <SCORE.INTER.CONST>
1

>  <SCORE.INTER.POLAR>
0

>  <SCORE.INTER.ROT>
4

>  <SCORE.INTER.SOLV>
13.8802

>  <SCORE.INTER.VDW>
-20.9086

>  <SCORE.INTER.norm>
-0.682854

>  <SCORE.INTRA>
0.900613

>  <SCORE.INTRA.DIHEDRAL>
4.2854

>  <SCORE.INTRA.DIHEDRAL.0>
2.54655

>  <SCORE.INTRA.POLAR>
0

>  <SCORE.INTRA.POLAR.0>
0

>  <SCORE.INTRA.REPUL>
0

>  <SCORE.INTRA.REPUL.0>
0

>  <SCORE.INTRA.SOLV>
2.17233

>  <SCORE.INTRA.SOLV.lig_0>
-56.4922

>  <SCORE.INTRA.VDW>
-2.32825

>  <SCORE.INTRA.VDW.0>
-0.696801

>  <SCORE.INTRA.norm>
0.0409369

>  <SCORE.RESTR>
0

>  <SCORE.RESTR.CAVITY>
0

>  <SCORE.RESTR.norm>
0

>  <SCORE.SYSTEM>
0

>  <SCORE.SYSTEM.CONST>
0

>  <SCORE.SYSTEM.DIHEDRAL>
0

>  <SCORE.SYSTEM.SOLV>
0

>  <SCORE.SYSTEM.norm>
0

>  <SCORE.heavy>
22

>  <SCORE.norm>
-0.641917

>  <RMSD>
3.851

$$$$
ligand
 OpenBabel02271912143D
libRbt.so/2013.1/901 2013/11/27
 22 24  0  0  0  0  0  0  0  0999 V2000
   18.4293  -20.6164   22.0114 N   0  0  0  0  0  0  0  0  0  0  0  0
   18.2577  -19.6262   24.1847 N   0  0  0  0  0  0  0  0  0  0  0  0
   17.7616  -20.4847   23.2786 C   0  0  0  0  0  0  0  0  0  0  0  0
   16.6775  -21.2130   23.5157 N   0  0  0  0  0  0  0  0  0  0  0  0
   13.9542  -20.9922   27.5292 O   0  0  0  0  0  0  0  0  0  0  0  0
   16.0377  -21.1037   24.6946 C   0  0  0  0  0  0  0  0  0  0  0  0
   16.5277  -20.1948   25.6735 C   0  0  0  0  0  0  0  0  0  0  0  0
   14.9161  -21.8710   24.9154 O   0  0  0  0  0  0  0  0  0  0  0  0
   15.9571  -19.9883   26.9899 N   0  0  0  0  0  0  0  0  0  0  0  0
   16.9065  -19.8097   28.0961 C   0  0  2  0  0  0  0  0  0  0  0  0
   17.9037  -18.7427   27.7680 C   0  0  0  0  0  0  0  0  0  0  0  0
   17.6586  -19.4740   25.3819 C   0  0  0  0  0  0  0  0  0  0  0  0
   18.1712  -18.5711   26.3414 N   0  0  0  0  0  0  0  0  0  0  0  0
   17.6651  -21.0934   28.4786 C   0  0  0  0  0  0  0  0  0  0  0  0
   17.7023  -22.0182   27.3523 N   0  0  0  0  0  0  0  0  0  0  0  0
   21.3286  -22.7234   25.2417 C   0  0  0  0  0  0  0  0  0  0  0  0
   20.1134  -22.9988   24.6375 C   0  0  0  0  0  0  0  0  0  0  0  0
   18.9094  -22.7667   25.3303 C   0  0  0  0  0  0  0  0  0  0  0  0
   18.9398  -22.2628   26.6218 C   0  0  0  0  0  0  0  0  0  0  0  0
   20.1627  -21.9868   27.2263 C   0  0  0  0  0  0  0  0  0  0  0  0
   21.3562  -22.2156   26.5368 C   0  0  0  0  0  0  0  0  0  0  0  0
   14.5615  -19.9676   27.2668 C   0  0  0  0  0  0  0  0  0  0  0  0
  1  3  1  0  0  0  0
  2  3  2  0  0  0  0
  2 12  1  0  0  0  0
  3  4  1  0  0  0  0
  4  6  1  0  0  0  0
  5 22  1  0  0  0  0
  6  7  1  0  0  0  0
  6  8  2  0  0  0  0
  7 12  2  0  0  0  0
  7  9  1  0  0  0  0
  9 10  1  0  0  0  0
  9 22  1  0  0  0  0
 10 11  1  0  0  0  0
 10 14  1  6  0  0  0
 11 13  1  0  0  0  0
 12 13  1  0  0  0  0
 14 15  1  0  0  0  0
 15 19  1  0  0  0  0
 16 17  2  0  0  0  0
 16 21  1  0  0  0  0
 17 18  1  0  0  0  0
 18 19  2  0  0  0  0
 19 20  1  0  0  0  0
 20 21  2  0  0  0  0
M  END
>  <CHROM.1>
88.30444271,23.82089767,108.40867427,-158.69463784,17.60090585,-20.90565026
25.89237269,0.38104772,0.33615874,-1.63315598

>  <Name>
ligand

>  <RI>
0

>  <Rbt.Current_Directory>
/home/itssahil/PROJECTS/Mol_Feturizer/Test_systems_manuscript/rnas/3sd3

>  <Rbt.Executable>
rbdock ($Id: //depot/dev/client3/rdock/2013.1/src/exe/rbdock.cxx#4 $)

>  <Rbt.Library>
libRbt.so (2013.1, Build901 2013/11/27)

>  <Rbt.Parameter_File>
/export/apps/rDock/src/rDock_2013.1_src/data/scripts/dock_solv.prm

>  <Rbt.Receptor>
prm/pocket_docking_3.prm

>  <SCORE>
-14.5093

>  <SCORE.INTER>
-14.933

>  <SCORE.INTER.CONST>
1

>  <SCORE.INTER.POLAR>
0

>  <SCORE.INTER.ROT>
4

>  <SCORE.INTER.SOLV>
12.8215

>  <SCORE.INTER.VDW>
-20.4958

>  <SCORE.INTER.norm>
-0.678772

>  <SCORE.INTRA>
0.423662

>  <SCORE.INTRA.DIHEDRAL>
3.56424

>  <SCORE.INTRA.DIHEDRAL.0>
2.54655

>  <SCORE.INTRA.POLAR>
0

>  <SCORE.INTRA.POLAR.0>
0

>  <SCORE.INTRA.REPUL>
0

>  <SCORE.INTRA.REPUL.0>
0

>  <SCORE.INTRA.SOLV>
2.53284

>  <SCORE.INTRA.SOLV.lig_0>
-56.4922

>  <SCORE.INTRA.VDW>
-2.62488

>  <SCORE.INTRA.VDW.0>
-0.696801

>  <SCORE.INTRA.norm>
0.0192574

>  <SCORE.RESTR>
0

>  <SCORE.RESTR.CAVITY>
0

>  <SCORE.RESTR.norm>
0

>  <SCORE.SYSTEM>
0

>  <SCORE.SYSTEM.CONST>
0

>  <SCORE.SYSTEM.DIHEDRAL>
0

>  <SCORE.SYSTEM.SOLV>
0

>  <SCORE.SYSTEM.norm>
0

>  <SCORE.heavy>
22

>  <SCORE.norm>
-0.659514

>  <RMSD>
3.853

$$$$
ligand
 OpenBabel02271912143D
libRbt.so/2013.1/901 2013/11/27
 22 24  0  0  0  0  0  0  0  0999 V2000
   18.4189  -20.6682   22.0210 N   0  0  0  0  0  0  0  0  0  0  0  0
   18.2487  -19.6587   24.1855 N   0  0  0  0  0  0  0  0  0  0  0  0
   17.7513  -20.5243   23.2869 C   0  0  0  0  0  0  0  0  0  0  0  0
   16.6660  -21.2487   23.5302 N   0  0  0  0  0  0  0  0  0  0  0  0
   13.9303  -20.9952   27.4809 O   0  0  0  0  0  0  0  0  0  0  0  0
   16.0261  -21.1280   24.7080 C   0  0  0  0  0  0  0  0  0  0  0  0
   16.5175  -20.2114   25.6789 C   0  0  0  0  0  0  0  0  0  0  0  0
   14.9032  -21.8915   24.9353 O   0  0  0  0  0  0  0  0  0  0  0  0
   15.9470  -19.9925   26.9934 N   0  0  0  0  0  0  0  0  0  0  0  0
   16.8966  -19.8057   28.0981 C   0  0  2  0  0  0  0  0  0  0  0  0
   17.8956  -18.7433   27.7608 C   0  0  0  0  0  0  0  0  0  0  0  0
   17.6496  -19.4950   25.3812 C   0  0  0  0  0  0  0  0  0  0  0  0
   18.1636  -18.5847   26.3328 N   0  0  0  0  0  0  0  0  0  0  0  0
   17.6530  -21.0873   28.4920 C   0  0  0  0  0  0  0  0  0  0  0  0
   17.6845  -22.0240   27.3755 N   0  0  0  0  0  0  0  0  0  0  0  0
   21.2581  -22.7288   25.1768 C   0  0  0  0  0  0  0  0  0  0  0  0
   21.3289  -22.2497   26.4741 C   0  0  0  0  0  0  0  0  0  0  0  0
   20.1498  -22.0152   27.2077 C   0  0  0  0  0  0  0  0  0  0  0  0
   18.9140  -22.2627   26.6296 C   0  0  0  0  0  0  0  0  0  0  0  0
   18.8460  -22.7444   25.3256 C   0  0  0  0  0  0  0  0  0  0  0  0
   20.0169  -22.9785   24.6000 C   0  0  0  0  0  0  0  0  0  0  0  0
   14.5514  -19.9670   27.2699 C   0  0  0  0  0  0  0  0  0  0  0  0
  1  3  1  0  0  0  0
  2  3  2  0  0  0  0
  2 12  1  0  0  0  0
  3  4  1  0  0  0  0
  4  6  1  0  0  0  0
  5 22  1  0  0  0  0
  6  7  1  0  0  0  0
  6  8  2  0  0  0  0
  7 12  2  0  0  0  0
  7  9  1  0  0  0  0
  9 10  1  0  0  0  0
  9 22  1  0  0  0  0
 10 11  1  0  0  0  0
 10 14  1  6  0  0  0
 11 13  1  0  0  0  0
 12 13  1  0  0  0  0
 14 15  1  0  0  0  0
 15 19  1  0  0  0  0
 16 17  2  0  0  0  0
 16 21  1  0  0  0  0
 17 18  1  0  0  0  0
 18 19  2  0  0  0  0
 19 20  1  0  0  0  0
 20 21  2  0  0  0  0
M  END
>  <CHROM.1>
84.90650625,23.60620523,107.36605956,23.35878660,17.57988354,-20.91860172
25.88704737,0.40473752,0.33117725,-1.64926019

>  <Name>
ligand

>  <RI>
0

>  <Rbt.Current_Directory>
/home/itssahil/PROJECTS/Mol_Feturizer/Test_systems_manuscript/rnas/3sd3

>  <Rbt.Executable>
rbdock ($Id: //depot/dev/client3/rdock/2013.1/src/exe/rbdock.cxx#4 $)

>  <Rbt.Library>
libRbt.so (2013.1, Build901 2013/11/27)

>  <Rbt.Parameter_File>
/export/apps/rDock/src/rDock_2013.1_src/data/scripts/dock_solv.prm

>  <Rbt.Receptor>
prm/pocket_docking_3.prm

>  <SCORE>
-14.6416

>  <SCORE.INTER>
-15.0037

>  <SCORE.INTER.CONST>
1

>  <SCORE.INTER.POLAR>
0

>  <SCORE.INTER.ROT>
4

>  <SCORE.INTER.SOLV>
13.0075

>  <SCORE.INTER.VDW>
-20.605

>  <SCORE.INTER.norm>
-0.681988

>  <SCORE.INTRA>
0.362174

>  <SCORE.INTRA.DIHEDRAL>
3.57248

>  <SCORE.INTRA.DIHEDRAL.0>
2.54655

>  <SCORE.INTRA.POLAR>
0

>  <SCORE.INTRA.POLAR.0>
0

>  <SCORE.INTRA.REPUL>
0

>  <SCORE.INTRA.REPUL.0>
0

>  <SCORE.INTRA.SOLV>
2.71219

>  <SCORE.INTRA.SOLV.lig_0>
-56.4922

>  <SCORE.INTRA.VDW>
-2.78016

>  <SCORE.INTRA.VDW.0>
-0.696801

>  <SCORE.INTRA.norm>
0.0164624

>  <SCORE.RESTR>
0

>  <SCORE.RESTR.CAVITY>
0

>  <SCORE.RESTR.norm>
0

>  <SCORE.SYSTEM>
0

>  <SCORE.SYSTEM.CONST>
0

>  <SCORE.SYSTEM.DIHEDRAL>
0

>  <SCORE.SYSTEM.SOLV>
0

>  <SCORE.SYSTEM.norm>
0

>  <SCORE.heavy>
22

>  <SCORE.norm>
-0.665526

>  <RMSD>
3.863

$$$$
ligand
 OpenBabel02271912143D
libRbt.so/2013.1/901 2013/11/27
 22 24  0  0  0  0  0  0  0  0999 V2000
   18.4998  -20.2932   22.0807 N   0  0  0  0  0  0  0  0  0  0  0  0
   18.1891  -19.3947   24.2783 N   0  0  0  0  0  0  0  0  0  0  0  0
   17.7803  -20.2486   23.3254 C   0  0  0  0  0  0  0  0  0  0  0  0
   16.7360  -21.0499   23.4963 N   0  0  0  0  0  0  0  0  0  0  0  0
   13.8683  -21.1363   27.4486 O   0  0  0  0  0  0  0  0  0  0  0  0
   16.0488  -21.0227   24.6531 C   0  0  0  0  0  0  0  0  0  0  0  0
   16.4457  -20.1216   25.6801 C   0  0  0  0  0  0  0  0  0  0  0  0
   14.9701  -21.8647   24.8050 O   0  0  0  0  0  0  0  0  0  0  0  0
   15.8165  -19.9982   26.9802 N   0  0  0  0  0  0  0  0  0  0  0  0
   16.7127  -19.8020   28.1270 C   0  0  2  0  0  0  0  0  0  0  0  0
   17.6524  -18.6648   27.8734 C   0  0  0  0  0  0  0  0  0  0  0  0
   17.5391  -19.3229   25.4563 C   0  0  0  0  0  0  0  0  0  0  0  0
   17.9597  -18.4257   26.4646 N   0  0  0  0  0  0  0  0  0  0  0  0
   17.5358  -21.0499   28.4943 C   0  0  0  0  0  0  0  0  0  0  0  0
   18.9178  -20.8958   28.0568 N   0  0  0  0  0  0  0  0  0  0  0  0
   20.4196  -23.1488   24.7749 C   0  0  0  0  0  0  0  0  0  0  0  0
   21.2971  -22.6031   25.6968 C   0  0  0  0  0  0  0  0  0  0  0  0
   20.8064  -21.8571   26.7859 C   0  0  0  0  0  0  0  0  0  0  0  0
   19.4411  -21.6664   26.9354 C   0  0  0  0  0  0  0  0  0  0  0  0
   18.5617  -22.2162   26.0074 C   0  0  0  0  0  0  0  0  0  0  0  0
   19.0500  -22.9578   24.9286 C   0  0  0  0  0  0  0  0  0  0  0  0
   14.4134  -20.0730   27.2045 C   0  0  0  0  0  0  0  0  0  0  0  0
  1  3  1  0  0  0  0
  2  3  2  0  0  0  0
  2 12  1  0  0  0  0
  3  4  1  0  0  0  0
  4  6  1  0  0  0  0
  5 22  1  0  0  0  0
  6  7  1  0  0  0  0
  6  8  2  0  0  0  0
  7 12  2  0  0  0  0
  7  9  1  0  0  0  0
  9 10  1  0  0  0  0
  9 22  1  0  0  0  0
 10 11  1  0  0  0  0
 10 14  1  6  0  0  0
 11 13  1  0  0  0  0
 12 13  1  0  0  0  0
 14 15  1  0  0  0  0
 15 19  1  0  0  0  0
 16 17  2  0  0  0  0
 16 21  1  0  0  0  0
 17 18  1  0  0  0  0
 18 19  2  0  0  0  0
 19 20  1  0  0  0  0
 20 21  2  0  0  0  0
M  END
>  <CHROM.1>
90.54051097,104.65937901,-108.64873462,-159.05957484,17.55149639,-20.77394097
25.91670423,0.42366570,0.31222452,-1.67768415

>  <Name>
ligand

>  <RI>
0

>  <Rbt.Current_Directory>
/home/itssahil/PROJECTS/Mol_Feturizer/Test_systems_manuscript/rnas/3sd3

>  <Rbt.Executable>
rbdock ($Id: //depot/dev/client3/rdock/2013.1/src/exe/rbdock.cxx#4 $)

>  <Rbt.Library>
libRbt.so (2013.1, Build901 2013/11/27)

>  <Rbt.Parameter_File>
/export/apps/rDock/src/rDock_2013.1_src/data/scripts/dock_solv.prm

>  <Rbt.Receptor>
prm/pocket_docking_3.prm

>  <SCORE>
-11.1713

>  <SCORE.INTER>
-13.7589

>  <SCORE.INTER.CONST>
1

>  <SCORE.INTER.POLAR>
0

>  <SCORE.INTER.ROT>
4

>  <SCORE.INTER.SOLV>
11.1083

>  <SCORE.INTER.VDW>
-19.142

>  <SCORE.INTER.norm>
-0.625404

>  <SCORE.INTRA>
2.58763

>  <SCORE.INTRA.DIHEDRAL>
4.58851

>  <SCORE.INTRA.DIHEDRAL.0>
2.54655

>  <SCORE.INTRA.POLAR>
0

>  <SCORE.INTRA.POLAR.0>
0

>  <SCORE.INTRA.REPUL>
0

>  <SCORE.INTRA.REPUL.0>
0

>  <SCORE.INTRA.SOLV>
1.59921

>  <SCORE.INTRA.SOLV.lig_0>
-56.4922

>  <SCORE.INTRA.VDW>
-0.50623

>  <SCORE.INTRA.VDW.0>
-0.696801

>  <SCORE.INTRA.norm>
0.117619

>  <SCORE.RESTR>
0

>  <SCORE.RESTR.CAVITY>
0

>  <SCORE.RESTR.norm>
0

>  <SCORE.SYSTEM>
0

>  <SCORE.SYSTEM.CONST>
0

>  <SCORE.SYSTEM.DIHEDRAL>
0

>  <SCORE.SYSTEM.SOLV>
0

>  <SCORE.SYSTEM.norm>
0

>  <SCORE.heavy>
22

>  <SCORE.norm>
-0.507784

>  <RMSD>
3.980

$$$$
ligand
 OpenBabel02271912143D
libRbt.so/2013.1/901 2013/11/27
 22 24  0  0  0  0  0  0  0  0999 V2000
   18.9924  -15.9013   24.0034 N   0  0  0  0  0  0  0  0  0  0  0  0
   17.8684  -17.2322   25.6460 N   0  0  0  0  0  0  0  0  0  0  0  0
   18.3023  -17.1054   24.3812 C   0  0  0  0  0  0  0  0  0  0  0  0
   18.1144  -18.0539   23.4719 N   0  0  0  0  0  0  0  0  0  0  0  0
   14.1429  -21.1393   25.0965 O   0  0  0  0  0  0  0  0  0  0  0  0
   17.4700  -19.1875   23.8049 C   0  0  0  0  0  0  0  0  0  0  0  0
   16.9853  -19.3510   25.1326 C   0  0  0  0  0  0  0  0  0  0  0  0
   17.2890  -20.1559   22.8431 O   0  0  0  0  0  0  0  0  0  0  0  0
   16.2960  -20.5217   25.6380 N   0  0  0  0  0  0  0  0  0  0  0  0
   16.6415  -20.9498   26.9997 C   0  0  2  0  0  0  0  0  0  0  0  0
   16.5303  -19.8043   27.9568 C   0  0  0  0  0  0  0  0  0  0  0  0
   17.2160  -18.3445   26.0366 C   0  0  0  0  0  0  0  0  0  0  0  0
   16.7529  -18.4867   27.3647 N   0  0  0  0  0  0  0  0  0  0  0  0
   18.0494  -21.5601   27.1219 C   0  0  0  0  0  0  0  0  0  0  0  0
   18.2670  -22.5529   26.0769 N   0  0  0  0  0  0  0  0  0  0  0  0
   22.0274  -22.8516   24.1093 C   0  0  0  0  0  0  0  0  0  0  0  0
   20.8558  -22.9475   23.3774 C   0  0  0  0  0  0  0  0  0  0  0  0
   19.6078  -22.8485   24.0224 C   0  0  0  0  0  0  0  0  0  0  0  0
   19.5510  -22.6563   25.3945 C   0  0  0  0  0  0  0  0  0  0  0  0
   20.7302  -22.5602   26.1274 C   0  0  0  0  0  0  0  0  0  0  0  0
   21.9676  -22.6564   25.4856 C   0  0  0  0  0  0  0  0  0  0  0  0
   15.3391  -21.2725   24.8995 C   0  0  0  0  0  0  0  0  0  0  0  0
  1  3  1  0  0  0  0
  2  3  2  0  0  0  0
  2 12  1  0  0  0  0
  3  4  1  0  0  0  0
  4  6  1  0  0  0  0
  5 22  1  0  0  0  0
  6  7  1  0  0  0  0
  6  8  2  0  0  0  0
  7 12  2  0  0  0  0
  7  9  1  0  0  0  0
  9 10  1  0  0  0  0
  9 22  1  0  0  0  0
 10 11  1  0  0  0  0
 10 14  1  6  0  0  0
 11 13  1  0  0  0  0
 12 13  1  0  0  0  0
 14 15  1  0  0  0  0
 15 19  1  0  0  0  0
 16 17  2  0  0  0  0
 16 21  1  0  0  0  0
 17 18  1  0  0  0  0
 18 19  2  0  0  0  0
 19 20  1  0  0  0  0
 20 21  2  0  0  0  0
M  END
>  <CHROM.1>
-101.59602553,-48.08895422,140.15232452,-137.92199624,18.01636554,-20.32523828
25.23403083,-2.37144614,-0.42150602,2.85330604

>  <Name>
ligand

>  <RI>
0

>  <Rbt.Current_Directory>
/home/itssahil/PROJECTS/Mol_Feturizer/Test_systems_manuscript/rnas/3sd3

>  <Rbt.Executable>
rbdock ($Id: //depot/dev/client3/rdock/2013.1/src/exe/rbdock.cxx#4 $)

>  <Rbt.Library>
libRbt.so (2013.1, Build901 2013/11/27)

>  <Rbt.Parameter_File>
/export/apps/rDock/src/rDock_2013.1_src/data/scripts/dock_solv.prm

>  <Rbt.Receptor>
prm/pocket_docking_3.prm

>  <SCORE>
-12.3924

>  <SCORE.INTER>
-11.6638

>  <SCORE.INTER.CONST>
1

>  <SCORE.INTER.POLAR>
0

>  <SCORE.INTER.ROT>
4

>  <SCORE.INTER.SOLV>
14.7338

>  <SCORE.INTER.VDW>
-18.9538

>  <SCORE.INTER.norm>
-0.530174

>  <SCORE.INTRA>
-0.728569

>  <SCORE.INTRA.DIHEDRAL>
0.512768

>  <SCORE.INTRA.DIHEDRAL.0>
2.54655

>  <SCORE.INTRA.POLAR>
0

>  <SCORE.INTRA.POLAR.0>
0

>  <SCORE.INTRA.REPUL>
0

>  <SCORE.INTRA.REPUL.0>
0

>  <SCORE.INTRA.SOLV>
0.0219558

>  <SCORE.INTRA.SOLV.lig_0>
-56.4922

>  <SCORE.INTRA.VDW>
-0.995931

>  <SCORE.INTRA.VDW.0>
-0.696801

>  <SCORE.INTRA.norm>
-0.0331168

>  <SCORE.RESTR>
0

>  <SCORE.RESTR.CAVITY>
0

>  <SCORE.RESTR.norm>
0

>  <SCORE.SYSTEM>
0

>  <SCORE.SYSTEM.CONST>
0

>  <SCORE.SYSTEM.DIHEDRAL>
0

>  <SCORE.SYSTEM.SOLV>
0

>  <SCORE.SYSTEM.norm>
0

>  <SCORE.heavy>
22

>  <SCORE.norm>
-0.563291

>  <RMSD>
4.089

$$$$
ligand
 OpenBabel02271912143D
libRbt.so/2013.1/901 2013/11/27
 22 24  0  0  0  0  0  0  0  0999 V2000
   19.7297  -17.4496   22.9024 N   0  0  0  0  0  0  0  0  0  0  0  0
   18.4356  -17.8921   24.8677 N   0  0  0  0  0  0  0  0  0  0  0  0
   18.8179  -18.2818   23.6404 C   0  0  0  0  0  0  0  0  0  0  0  0
   18.3812  -19.4076   23.0893 N   0  0  0  0  0  0  0  0  0  0  0  0
   14.3849  -20.8716   24.5118 O   0  0  0  0  0  0  0  0  0  0  0  0
   17.5268  -20.1997   23.7629 C   0  0  0  0  0  0  0  0  0  0  0  0
   17.0905  -19.8120   25.0605 C   0  0  0  0  0  0  0  0  0  0  0  0
   17.0898  -21.3623   23.1689 O   0  0  0  0  0  0  0  0  0  0  0  0
   16.1935  -20.5723   25.9082 N   0  0  0  0  0  0  0  0  0  0  0  0
   16.5116  -20.6005   27.3417 C   0  0  2  0  0  0  0  0  0  0  0  0
   16.7016  -19.2119   27.8671 C   0  0  0  0  0  0  0  0  0  0  0  0
   17.5810  -18.6441   25.5885 C   0  0  0  0  0  0  0  0  0  0  0  0
   17.1705  -18.2414   26.8800 N   0  0  0  0  0  0  0  0  0  0  0  0
   17.7596  -21.4335   27.6860 C   0  0  0  0  0  0  0  0  0  0  0  0
   17.9593  -22.4852   26.6965 N   0  0  0  0  0  0  0  0  0  0  0  0
   21.5413  -22.6706   24.4083 C   0  0  0  0  0  0  0  0  0  0  0  0
   20.3124  -22.7342   23.7732 C   0  0  0  0  0  0  0  0  0  0  0  0
   19.1229  -22.6724   24.5247 C   0  0  0  0  0  0  0  0  0  0  0  0
   19.1814  -22.5494   25.9046 C   0  0  0  0  0  0  0  0  0  0  0  0
   20.4180  -22.4856   26.5401 C   0  0  0  0  0  0  0  0  0  0  0  0
   21.5971  -22.5449   25.7928 C   0  0  0  0  0  0  0  0  0  0  0  0
   15.0589  -21.2908   25.4378 C   0  0  0  0  0  0  0  0  0  0  0  0
  1  3  1  0  0  0  0
  2  3  2  0  0  0  0
  2 12  1  0  0  0  0
  3  4  1  0  0  0  0
  4  6  1  0  0  0  0
  5 22  1  0  0  0  0
  6  7  1  0  0  0  0
  6  8  2  0  0  0  0
  7 12  2  0  0  0  0
  7  9  1  0  0  0  0
  9 10  1  0  0  0  0
  9 22  1  0  0  0  0
 10 11  1  0  0  0  0
 10 14  1  6  0  0  0
 11 13  1  0  0  0  0
 12 13  1  0  0  0  0
 14 15  1  0  0  0  0
 15 19  1  0  0  0  0
 16 17  2  0  0  0  0
 16 21  1  0  0  0  0
 17 18  1  0  0  0  0
 18 19  2  0  0  0  0
 19 20  1  0  0  0  0
 20 21  2  0  0  0  0
M  END
>  <CHROM.1>
-35.44972825,-27.46432764,120.03413272,-129.71554824,18.00677266,-20.57215335
25.24093084,-0.38257404,0.47778765,-0.61104081

>  <Name>
ligand

>  <RI>
0

>  <Rbt.Current_Directory>
/home/itssahil/PROJECTS/Mol_Feturizer/Test_systems_manuscript/rnas/3sd3

>  <Rbt.Executable>
rbdock ($Id: //depot/dev/client3/rdock/2013.1/src/exe/rbdock.cxx#4 $)

>  <Rbt.Library>
libRbt.so (2013.1, Build901 2013/11/27)

>  <Rbt.Parameter_File>
/export/apps/rDock/src/rDock_2013.1_src/data/scripts/dock_solv.prm

>  <Rbt.Receptor>
prm/pocket_docking_4.prm

>  <SCORE>
-10.3805

>  <SCORE.INTER>
-10.5596

>  <SCORE.INTER.CONST>
1

>  <SCORE.INTER.POLAR>
0

>  <SCORE.INTER.ROT>
4

>  <SCORE.INTER.SOLV>
12.8225

>  <SCORE.INTER.VDW>
-17.5806

>  <SCORE.INTER.norm>
-0.479984

>  <SCORE.INTRA>
0.179099

>  <SCORE.INTRA.DIHEDRAL>
3.23477

>  <SCORE.INTRA.DIHEDRAL.0>
2.54655

>  <SCORE.INTRA.POLAR>
0

>  <SCORE.INTRA.POLAR.0>
0

>  <SCORE.INTRA.REPUL>
0

>  <SCORE.INTRA.REPUL.0>
0

>  <SCORE.INTRA.SOLV>
1.06796

>  <SCORE.INTRA.SOLV.lig_0>
-56.4922

>  <SCORE.INTRA.VDW>
-1.97227

>  <SCORE.INTRA.VDW.0>
-0.696801

>  <SCORE.INTRA.norm>
0.00814085

>  <SCORE.RESTR>
0

>  <SCORE.RESTR.CAVITY>
0

>  <SCORE.RESTR.norm>
0

>  <SCORE.SYSTEM>
0

>  <SCORE.SYSTEM.CONST>
0

>  <SCORE.SYSTEM.DIHEDRAL>
0

>  <SCORE.SYSTEM.SOLV>
0

>  <SCORE.SYSTEM.norm>
0

>  <SCORE.heavy>
22

>  <SCORE.norm>
-0.471843

>  <RMSD>
4.186

$$$$
ligand
 OpenBabel02271912143D
libRbt.so/2013.1/901 2013/11/27
 22 24  0  0  0  0  0  0  0  0999 V2000
   12.5514  -20.8170   26.1582 N   0  0  0  0  0  0  0  0  0  0  0  0
   14.8357  -21.3913   25.7281 N   0  0  0  0  0  0  0  0  0  0  0  0
   13.9576  -20.6097   26.3779 C   0  0  0  0  0  0  0  0  0  0  0  0
   14.3464  -19.6548   27.2138 N   0  0  0  0  0  0  0  0  0  0  0  0
   18.4457  -17.9290   26.4140 O   0  0  0  0  0  0  0  0  0  0  0  0
   15.6576  -19.4440   27.4323 C   0  0  0  0  0  0  0  0  0  0  0  0
   16.6165  -20.2448   26.7514 C   0  0  0  0  0  0  0  0  0  0  0  0
   16.0340  -18.4477   28.3047 O   0  0  0  0  0  0  0  0  0  0  0  0
   18.0547  -20.1465   26.9037 N   0  0  0  0  0  0  0  0  0  0  0  0
   18.7999  -21.4117   26.9293 C   0  0  2  0  0  0  0  0  0  0  0  0
   18.4400  -22.2597   25.7495 C   0  0  0  0  0  0  0  0  0  0  0  0
   16.1609  -21.2257   25.9065 C   0  0  0  0  0  0  0  0  0  0  0  0
   17.0932  -22.0413   25.2254 N   0  0  0  0  0  0  0  0  0  0  0  0
   18.5851  -22.2347   28.2124 C   0  0  0  0  0  0  0  0  0  0  0  0
   19.1688  -21.5510   29.3601 N   0  0  0  0  0  0  0  0  0  0  0  0
   18.0621  -22.5944   33.3335 C   0  0  0  0  0  0  0  0  0  0  0  0
   17.2707  -21.7244   32.6023 C   0  0  0  0  0  0  0  0  0  0  0  0
   17.6309  -21.3758   31.2862 C   0  0  0  0  0  0  0  0  0  0  0  0
   18.7820  -21.9031   30.7207 C   0  0  0  0  0  0  0  0  0  0  0  0
   19.5752  -22.7772   31.4580 C   0  0  0  0  0  0  0  0  0  0  0  0
   19.2153  -23.1238   32.7628 C   0  0  0  0  0  0  0  0  0  0  0  0
   18.7662  -18.9223   27.0447 C   0  0  0  0  0  0  0  0  0  0  0  0
  1  3  1  0  0  0  0
  2  3  2  0  0  0  0
  2 12  1  0  0  0  0
  3  4  1  0  0  0  0
  4  6  1  0  0  0  0
  5 22  1  0  0  0  0
  6  7  1  0  0  0  0
  6  8  2  0  0  0  0
  7 12  2  0  0  0  0
  7  9  1  0  0  0  0
  9 10  1  0  0  0  0
  9 22  1  0  0  0  0
 10 11  1  0  0  0  0
 10 14  1  1  0  0  0
 11 13  1  0  0  0  0
 12 13  1  0  0  0  0
 14 15  1  0  0  0  0
 15 19  1  0  0  0  0
 16 17  2  0  0  0  0
 16 21  1  0  0  0  0
 17 18  1  0  0  0  0
 18 19  2  0  0  0  0
 19 20  1  0  0  0  0
 20 21  2  0  0  0  0
M  END
>  <CHROM.1>
-38.48367342,-67.45954399,162.08298921,-82.57507758,17.17221003,-20.91754643
28.14954655,2.06252838,0.08936302,-1.27813661

>  <Name>
ligand

>  <RI>
0

>  <Rbt.Current_Directory>
/home/itssahil/PROJECTS/Mol_Feturizer/Test_systems_manuscript/rnas/3sd3

>  <Rbt.Executable>
rbdock ($Id: //depot/dev/client3/rdock/2013.1/src/exe/rbdock.cxx#4 $)

>  <Rbt.Library>
libRbt.so (2013.1, Build901 2013/11/27)

>  <Rbt.Parameter_File>
/export/apps/rDock/src/rDock_2013.1_src/data/scripts/dock_solv.prm

>  <Rbt.Receptor>
prm/pocket_docking_8.prm

>  <SCORE>
-15.3888

>  <SCORE.INTER>
-14.081

>  <SCORE.INTER.CONST>
1

>  <SCORE.INTER.POLAR>
0

>  <SCORE.INTER.ROT>
4

>  <SCORE.INTER.SOLV>
23.457

>  <SCORE.INTER.VDW>
-23.473

>  <SCORE.INTER.norm>
-0.640045

>  <SCORE.INTRA>
-1.30777

>  <SCORE.INTRA.DIHEDRAL>
-0.504925

>  <SCORE.INTRA.DIHEDRAL.0>
2.54655

>  <SCORE.INTRA.POLAR>
0

>  <SCORE.INTRA.POLAR.0>
0

>  <SCORE.INTRA.REPUL>
0

>  <SCORE.INTRA.REPUL.0>
0

>  <SCORE.INTRA.SOLV>
-0.201467

>  <SCORE.INTRA.SOLV.lig_0>
-56.4922

>  <SCORE.INTRA.VDW>
-0.954577

>  <SCORE.INTRA.VDW.0>
-0.696801

>  <SCORE.INTRA.norm>
-0.0594443

>  <SCORE.RESTR>
0

>  <SCORE.RESTR.CAVITY>
0

>  <SCORE.RESTR.norm>
0

>  <SCORE.SYSTEM>
0

>  <SCORE.SYSTEM.CONST>
0

>  <SCORE.SYSTEM.DIHEDRAL>
0

>  <SCORE.SYSTEM.SOLV>
0

>  <SCORE.SYSTEM.norm>
0

>  <SCORE.heavy>
22

>  <SCORE.norm>
-0.699489

>  <RMSD>
4.199

$$$$
ligand
 OpenBabel02271912143D
libRbt.so/2013.1/901 2013/11/27
 22 24  0  0  0  0  0  0  0  0999 V2000
   18.7253  -15.8346   23.7732 N   0  0  0  0  0  0  0  0  0  0  0  0
   17.8097  -17.1970   25.5162 N   0  0  0  0  0  0  0  0  0  0  0  0
   18.1017  -17.0538   24.2130 C   0  0  0  0  0  0  0  0  0  0  0  0
   17.8333  -17.9996   23.3213 N   0  0  0  0  0  0  0  0  0  0  0  0
   14.1060  -21.0247   25.1836 O   0  0  0  0  0  0  0  0  0  0  0  0
   17.2491  -19.1472   23.7123 C   0  0  0  0  0  0  0  0  0  0  0  0
   16.9139  -19.3285   25.0832 C   0  0  0  0  0  0  0  0  0  0  0  0
   16.9822  -20.1124   22.7675 O   0  0  0  0  0  0  0  0  0  0  0  0
   16.3044  -20.5151   25.6502 N   0  0  0  0  0  0  0  0  0  0  0  0
   16.8029  -20.9457   26.9628 C   0  0  2  0  0  0  0  0  0  0  0  0
   16.7757  -19.8088   27.9360 C   0  0  0  0  0  0  0  0  0  0  0  0
   17.2233  -18.3238   25.9655 C   0  0  0  0  0  0  0  0  0  0  0  0
   16.9094  -18.4834   27.3347 N   0  0  0  0  0  0  0  0  0  0  0  0
   18.2264  -21.5304   26.9267 C   0  0  0  0  0  0  0  0  0  0  0  0
   18.2930  -22.6527   25.9987 N   0  0  0  0  0  0  0  0  0  0  0  0
   20.8777  -22.5565   22.6206 C   0  0  0  0  0  0  0  0  0  0  0  0
   19.6068  -22.0134   22.5332 C   0  0  0  0  0  0  0  0  0  0  0  0
   18.7467  -22.0412   23.6480 C   0  0  0  0  0  0  0  0  0  0  0  0
   19.1719  -22.6153   24.8364 C   0  0  0  0  0  0  0  0  0  0  0  0
   20.4498  -23.1602   24.9212 C   0  0  0  0  0  0  0  0  0  0  0  0
   21.3026  -23.1299   23.8149 C   0  0  0  0  0  0  0  0  0  0  0  0
   15.2866  -21.2787   25.0131 C   0  0  0  0  0  0  0  0  0  0  0  0
  1  3  1  0  0  0  0
  2  3  2  0  0  0  0
  2 12  1  0  0  0  0
  3  4  1  0  0  0  0
  4  6  1  0  0  0  0
  5 22  1  0  0  0  0
  6  7  1  0  0  0  0
  6  8  2  0  0  0  0
  7 12  2  0  0  0  0
  7  9  1  0  0  0  0
  9 10  1  0  0  0  0
  9 22  1  0  0  0  0
 10 11  1  0  0  0  0
 10 14  1  6  0  0  0
 11 13  1  0  0  0  0
 12 13  1  0  0  0  0
 14 15  1  0  0  0  0
 15 19  1  0  0  0  0
 16 17  2  0  0  0  0
 16 21  1  0  0  0  0
 17 18  1  0  0  0  0
 18 19  2  0  0  0  0
 19 20  1  0  0  0  0
 20 21  2  0  0  0  0
M  END
>  <CHROM.1>
-89.89431913,-56.81115936,118.76276438,-86.14217793,17.79341976,-20.26530934
24.92987681,-2.34873391,-0.72568192,2.85807888

>  <Name>
ligand

>  <RI>
0

>  <Rbt.Current_Directory>
/home/itssahil/PROJECTS/Mol_Feturizer/Test_systems_manuscript/rnas/3sd3

>  <Rbt.Executable>
rbdock ($Id: //depot/dev/client3/rdock/2013.1/src/exe/rbdock.cxx#4 $)

>  <Rbt.Library>
libRbt.so (2013.1, Build901 2013/11/27)

>  <Rbt.Parameter_File>
/export/apps/rDock/src/rDock_2013.1_src/data/scripts/dock_solv.prm

>  <Rbt.Receptor>
prm/pocket_docking_4.prm

>  <SCORE>
-13.3694

>  <SCORE.INTER>
-11.8026

>  <SCORE.INTER.CONST>
1

>  <SCORE.INTER.POLAR>
0

>  <SCORE.INTER.ROT>
4

>  <SCORE.INTER.SOLV>
15.1883

>  <SCORE.INTER.VDW>
-19.1978

>  <SCORE.INTER.norm>
-0.536482

>  <SCORE.INTRA>
-1.5668

>  <SCORE.INTRA.DIHEDRAL>
0.355419

>  <SCORE.INTRA.DIHEDRAL.0>
2.54655

>  <SCORE.INTRA.POLAR>
0

>  <SCORE.INTRA.POLAR.0>
0

>  <SCORE.INTRA.REPUL>
0

>  <SCORE.INTRA.REPUL.0>
0

>  <SCORE.INTRA.SOLV>
0.139996

>  <SCORE.INTRA.SOLV.lig_0>
-56.4922

>  <SCORE.INTRA.VDW>
-1.81451

>  <SCORE.INTRA.VDW.0>
-0.696801

>  <SCORE.INTRA.norm>
-0.0712182

>  <SCORE.RESTR>
0

>  <SCORE.RESTR.CAVITY>
0

>  <SCORE.RESTR.norm>
0

>  <SCORE.SYSTEM>
0

>  <SCORE.SYSTEM.CONST>
0

>  <SCORE.SYSTEM.DIHEDRAL>
0

>  <SCORE.SYSTEM.SOLV>
0

>  <SCORE.SYSTEM.norm>
0

>  <SCORE.heavy>
22

>  <SCORE.norm>
-0.6077

>  <RMSD>
4.342

$$$$
ligand
 OpenBabel02271912143D
libRbt.so/2013.1/901 2013/11/27
 22 24  0  0  0  0  0  0  0  0999 V2000
   21.1704  -16.3832   27.1511 N   0  0  0  0  0  0  0  0  0  0  0  0
   20.0543  -18.1857   28.2639 N   0  0  0  0  0  0  0  0  0  0  0  0
   20.0463  -17.2712   27.2802 C   0  0  0  0  0  0  0  0  0  0  0  0
   19.0359  -17.1618   26.4264 N   0  0  0  0  0  0  0  0  0  0  0  0
   14.8511  -20.1088   26.7142 O   0  0  0  0  0  0  0  0  0  0  0  0
   17.9743  -17.9823   26.5308 C   0  0  0  0  0  0  0  0  0  0  0  0
   17.9430  -18.9549   27.5688 C   0  0  0  0  0  0  0  0  0  0  0  0
   16.9401  -17.8483   25.6319 O   0  0  0  0  0  0  0  0  0  0  0  0
   16.8804  -19.9160   27.7890 N   0  0  0  0  0  0  0  0  0  0  0  0
   17.2913  -21.2707   28.1798 C   0  0  2  0  0  0  0  0  0  0  0  0
   18.2244  -21.2220   29.3492 C   0  0  0  0  0  0  0  0  0  0  0  0
   19.0184  -19.0333   28.4179 C   0  0  0  0  0  0  0  0  0  0  0  0
   19.0160  -19.9976   29.4516 N   0  0  0  0  0  0  0  0  0  0  0  0
   17.9613  -22.0689   27.0468 C   0  0  0  0  0  0  0  0  0  0  0  0
   19.1664  -21.3890   26.5879 N   0  0  0  0  0  0  0  0  0  0  0  0
   21.8126  -23.2235   23.8069 C   0  0  0  0  0  0  0  0  0  0  0  0
   20.4573  -23.1581   23.5303 C   0  0  0  0  0  0  0  0  0  0  0  0
   19.5761  -22.5514   24.4462 C   0  0  0  0  0  0  0  0  0  0  0  0
   20.0658  -22.0193   25.6293 C   0  0  0  0  0  0  0  0  0  0  0  0
   21.4284  -22.0864   25.9045 C   0  0  0  0  0  0  0  0  0  0  0  0
   22.3015  -22.6868   24.9938 C   0  0  0  0  0  0  0  0  0  0  0  0
   15.4947  -19.6319   27.6339 C   0  0  0  0  0  0  0  0  0  0  0  0
  1  3  1  0  0  0  0
  2  3  2  0  0  0  0
  2 12  1  0  0  0  0
  3  4  1  0  0  0  0
  4  6  1  0  0  0  0
  5 22  1  0  0  0  0
  6  7  1  0  0  0  0
  6  8  2  0  0  0  0
  7 12  2  0  0  0  0
  7  9  1  0  0  0  0
  9 10  1  0  0  0  0
  9 22  1  0  0  0  0
 10 11  1  0  0  0  0
 10 14  1  6  0  0  0
 11 13  1  0  0  0  0
 12 13  1  0  0  0  0
 14 15  1  0  0  0  0
 15 19  1  0  0  0  0
 16 17  2  0  0  0  0
 16 21  1  0  0  0  0
 17 18  1  0  0  0  0
 18 19  2  0  0  0  0
 19 20  1  0  0  0  0
 20 21  2  0  0  0  0
M  END
>  <CHROM.1>
109.77964475,60.34044704,172.77268616,50.95413589,18.82809151,-20.12009160
26.79390644,-2.20483226,-0.33179071,-2.77985383

>  <Name>
ligand

>  <RI>
0

>  <Rbt.Current_Directory>
/home/itssahil/PROJECTS/Mol_Feturizer/Test_systems_manuscript/rnas/3sd3

>  <Rbt.Executable>
rbdock ($Id: //depot/dev/client3/rdock/2013.1/src/exe/rbdock.cxx#4 $)

>  <Rbt.Library>
libRbt.so (2013.1, Build901 2013/11/27)

>  <Rbt.Parameter_File>
/export/apps/rDock/src/rDock_2013.1_src/data/scripts/dock_solv.prm

>  <Rbt.Receptor>
prm/pocket_docking_6.prm

>  <SCORE>
-10.9341

>  <SCORE.INTER>
-10.5993

>  <SCORE.INTER.CONST>
1

>  <SCORE.INTER.POLAR>
0

>  <SCORE.INTER.ROT>
4

>  <SCORE.INTER.SOLV>
9.28929

>  <SCORE.INTER.VDW>
-16.4293

>  <SCORE.INTER.norm>
-0.481788

>  <SCORE.INTRA>
-0.334747

>  <SCORE.INTRA.DIHEDRAL>
-0.881852

>  <SCORE.INTRA.DIHEDRAL.0>
2.54655

>  <SCORE.INTRA.POLAR>
0

>  <SCORE.INTRA.POLAR.0>
0

>  <SCORE.INTRA.REPUL>
0

>  <SCORE.INTRA.REPUL.0>
0

>  <SCORE.INTRA.SOLV>
1.94182

>  <SCORE.INTRA.SOLV.lig_0>
-56.4922

>  <SCORE.INTRA.VDW>
-0.864729

>  <SCORE.INTRA.VDW.0>
-0.696801

>  <SCORE.INTRA.norm>
-0.0152158

>  <SCORE.RESTR>
0

>  <SCORE.RESTR.CAVITY>
0

>  <SCORE.RESTR.norm>
0

>  <SCORE.SYSTEM>
0

>  <SCORE.SYSTEM.CONST>
0

>  <SCORE.SYSTEM.DIHEDRAL>
0

>  <SCORE.SYSTEM.SOLV>
0

>  <SCORE.SYSTEM.norm>
0

>  <SCORE.heavy>
22

>  <SCORE.norm>
-0.497004

>  <RMSD>
4.441

$$$$
ligand
 OpenBabel02271912143D
libRbt.so/2013.1/901 2013/11/27
 22 24  0  0  0  0  0  0  0  0999 V2000
   14.0877  -19.5404   27.6117 N   0  0  0  0  0  0  0  0  0  0  0  0
   15.9517  -20.8821   26.9345 N   0  0  0  0  0  0  0  0  0  0  0  0
   15.5007  -19.7052   27.3990 C   0  0  0  0  0  0  0  0  0  0  0  0
   16.3161  -18.6928   27.6669 N   0  0  0  0  0  0  0  0  0  0  0  0
   20.1873  -18.6630   25.2974 O   0  0  0  0  0  0  0  0  0  0  0  0
   17.6413  -18.8263   27.4737 C   0  0  0  0  0  0  0  0  0  0  0  0
   18.1533  -20.0548   26.9707 C   0  0  0  0  0  0  0  0  0  0  0  0
   18.4652  -17.7611   27.7602 O   0  0  0  0  0  0  0  0  0  0  0  0
   19.5530  -20.3489   26.7347 N   0  0  0  0  0  0  0  0  0  0  0  0
   20.0097  -21.6977   27.0936 C   0  0  2  0  0  0  0  0  0  0  0  0
   19.1290  -22.7357   26.4712 C   0  0  0  0  0  0  0  0  0  0  0  0
   17.2681  -21.0734   26.7206 C   0  0  0  0  0  0  0  0  0  0  0  0
   17.7527  -22.3073   26.2294 N   0  0  0  0  0  0  0  0  0  0  0  0
   20.0737  -21.9500   28.6108 C   0  0  0  0  0  0  0  0  0  0  0  0
   18.7769  -21.6932   29.2253 N   0  0  0  0  0  0  0  0  0  0  0  0
   18.3815  -21.4104   33.4520 C   0  0  0  0  0  0  0  0  0  0  0  0
   17.7762  -22.4527   32.7702 C   0  0  0  0  0  0  0  0  0  0  0  0
   17.9040  -22.5526   31.3713 C   0  0  0  0  0  0  0  0  0  0  0  0
   18.6363  -21.6041   30.6734 C   0  0  0  0  0  0  0  0  0  0  0  0
   19.2437  -20.5578   31.3614 C   0  0  0  0  0  0  0  0  0  0  0  0
   19.1177  -20.4614   32.7496 C   0  0  0  0  0  0  0  0  0  0  0  0
   20.4912  -19.4199   26.2042 C   0  0  0  0  0  0  0  0  0  0  0  0
  1  3  1  0  0  0  0
  2  3  2  0  0  0  0
  2 12  1  0  0  0  0
  3  4  1  0  0  0  0
  4  6  1  0  0  0  0
  5 22  1  0  0  0  0
  6  7  1  0  0  0  0
  6  8  2  0  0  0  0
  7 12  2  0  0  0  0
  7  9  1  0  0  0  0
  9 10  1  0  0  0  0
  9 22  1  0  0  0  0
 10 11  1  0  0  0  0
 10 14  1  1  0  0  0
 11 13  1  0  0  0  0
 12 13  1  0  0  0  0
 14 15  1  0  0  0  0
 15 19  1  0  0  0  0
 16 17  2  0  0  0  0
 16 21  1  0  0  0  0
 17 18  1  0  0  0  0
 18 19  2  0  0  0  0
 19 20  1  0  0  0  0
 20 21  2  0  0  0  0
M  END
>  <CHROM.1>
-40.31783299,56.18818855,-167.86622240,-113.91406972,18.22673398,-20.60252844
28.35775801,1.61631060,0.29331096,-1.27304749

>  <Name>
ligand

>  <RI>
0

>  <Rbt.Current_Directory>
/home/itssahil/PROJECTS/Mol_Feturizer/Test_systems_manuscript/rnas/3sd3

>  <Rbt.Executable>
rbdock ($Id: //depot/dev/client3/rdock/2013.1/src/exe/rbdock.cxx#4 $)

>  <Rbt.Library>
libRbt.so (2013.1, Build901 2013/11/27)

>  <Rbt.Parameter_File>
/export/apps/rDock/src/rDock_2013.1_src/data/scripts/dock_solv.prm

>  <Rbt.Receptor>
prm/pocket_docking_8.prm

>  <SCORE>
-10.1178

>  <SCORE.INTER>
-9.52607

>  <SCORE.INTER.CONST>
1

>  <SCORE.INTER.POLAR>
0

>  <SCORE.INTER.ROT>
4

>  <SCORE.INTER.SOLV>
18.8935

>  <SCORE.INTER.VDW>
-18.9152

>  <SCORE.INTER.norm>
-0.433003

>  <SCORE.INTRA>
-0.591773

>  <SCORE.INTRA.DIHEDRAL>
-0.771677

>  <SCORE.INTRA.DIHEDRAL.0>
2.54655

>  <SCORE.INTRA.POLAR>
0

>  <SCORE.INTRA.POLAR.0>
0

>  <SCORE.INTRA.REPUL>
0

>  <SCORE.INTRA.REPUL.0>
0

>  <SCORE.INTRA.SOLV>
1.93642

>  <SCORE.INTRA.SOLV.lig_0>
-56.4922

>  <SCORE.INTRA.VDW>
-1.17415

>  <SCORE.INTRA.VDW.0>
-0.696801

>  <SCORE.INTRA.norm>
-0.0268988

>  <SCORE.RESTR>
0

>  <SCORE.RESTR.CAVITY>
0

>  <SCORE.RESTR.norm>
0

>  <SCORE.SYSTEM>
0

>  <SCORE.SYSTEM.CONST>
0

>  <SCORE.SYSTEM.DIHEDRAL>
0

>  <SCORE.SYSTEM.SOLV>
0

>  <SCORE.SYSTEM.norm>
0

>  <SCORE.heavy>
22

>  <SCORE.norm>
-0.459902

>  <RMSD>
4.494

$$$$
ligand
 OpenBabel02271912143D
libRbt.so/2013.1/901 2013/11/27
 22 24  0  0  0  0  0  0  0  0999 V2000
   20.9625  -16.8000   25.8812 N   0  0  0  0  0  0  0  0  0  0  0  0
   20.2583  -18.5803   27.3192 N   0  0  0  0  0  0  0  0  0  0  0  0
   19.9710  -17.7543   26.2997 C   0  0  0  0  0  0  0  0  0  0  0  0
   18.8039  -17.7913   25.6686 N   0  0  0  0  0  0  0  0  0  0  0  0
   15.3161  -19.2984   27.8719 O   0  0  0  0  0  0  0  0  0  0  0  0
   17.8624  -18.6760   26.0455 C   0  0  0  0  0  0  0  0  0  0  0  0
   18.1273  -19.5581   27.1300 C   0  0  0  0  0  0  0  0  0  0  0  0
   16.6608  -18.6941   25.3737 O   0  0  0  0  0  0  0  0  0  0  0  0
   17.2207  -20.5728   27.6295 N   0  0  0  0  0  0  0  0  0  0  0  0
   17.8209  -21.8562   28.0161 C   0  0  2  0  0  0  0  0  0  0  0  0
   18.9619  -21.6414   28.9608 C   0  0  0  0  0  0  0  0  0  0  0  0
   19.3541  -19.4858   27.7409 C   0  0  0  0  0  0  0  0  0  0  0  0
   19.6457  -20.3579   28.8148 N   0  0  0  0  0  0  0  0  0  0  0  0
   18.3177  -22.6950   26.8248 C   0  0  0  0  0  0  0  0  0  0  0  0
   19.1898  -21.8992   25.9696 N   0  0  0  0  0  0  0  0  0  0  0  0
   19.4228  -22.6330   21.7853 C   0  0  0  0  0  0  0  0  0  0  0  0
   18.4622  -21.7681   22.2821 C   0  0  0  0  0  0  0  0  0  0  0  0
   18.3803  -21.5202   23.6660 C   0  0  0  0  0  0  0  0  0  0  0  0
   19.2624  -22.1448   24.5346 C   0  0  0  0  0  0  0  0  0  0  0  0
   20.2269  -23.0134   24.0324 C   0  0  0  0  0  0  0  0  0  0  0  0
   20.3082  -23.2566   22.6589 C   0  0  0  0  0  0  0  0  0  0  0  0
   15.8125  -20.4053   27.7464 C   0  0  0  0  0  0  0  0  0  0  0  0
  1  3  1  0  0  0  0
  2  3  2  0  0  0  0
  2 12  1  0  0  0  0
  3  4  1  0  0  0  0
  4  6  1  0  0  0  0
  5 22  1  0  0  0  0
  6  7  1  0  0  0  0
  6  8  2  0  0  0  0
  7 12  2  0  0  0  0
  7  9  1  0  0  0  0
  9 10  1  0  0  0  0
  9 22  1  0  0  0  0
 10 11  1  0  0  0  0
 10 14  1  6  0  0  0
 11 13  1  0  0  0  0
 12 13  1  0  0  0  0
 14 15  1  0  0  0  0
 15 19  1  0  0  0  0
 16 17  2  0  0  0  0
 16 21  1  0  0  0  0
 17 18  1  0  0  0  0
 18 19  2  0  0  0  0
 19 20  1  0  0  0  0
 20 21  2  0  0  0  0
M  END
>  <CHROM.1>
-25.31818254,51.93661168,-149.18809318,87.69681549,18.58508728,-20.41332486
26.10891324,-2.03986739,-0.97860575,-2.60084706

>  <Name>
ligand

>  <RI>
0

>  <Rbt.Current_Directory>
/home/itssahil/PROJECTS/Mol_Feturizer/Test_systems_manuscript/rnas/3sd3

>  <Rbt.Executable>
rbdock ($Id: //depot/dev/client3/rdock/2013.1/src/exe/rbdock.cxx#4 $)

>  <Rbt.Library>
libRbt.so (2013.1, Build901 2013/11/27)

>  <Rbt.Parameter_File>
/export/apps/rDock/src/rDock_2013.1_src/data/scripts/dock_solv.prm

>  <Rbt.Receptor>
prm/pocket_docking_5.prm

>  <SCORE>
-11.9394

>  <SCORE.INTER>
-11.3513

>  <SCORE.INTER.CONST>
1

>  <SCORE.INTER.POLAR>
0

>  <SCORE.INTER.ROT>
4

>  <SCORE.INTER.SOLV>
7.02217

>  <SCORE.INTER.VDW>
-16.1749

>  <SCORE.INTER.norm>
-0.515967

>  <SCORE.INTRA>
-0.588148

>  <SCORE.INTRA.DIHEDRAL>
-0.0932718

>  <SCORE.INTRA.DIHEDRAL.0>
2.54655

>  <SCORE.INTRA.POLAR>
0

>  <SCORE.INTRA.POLAR.0>
0

>  <SCORE.INTRA.REPUL>
0

>  <SCORE.INTRA.REPUL.0>
0

>  <SCORE.INTRA.SOLV>
2.07361

>  <SCORE.INTRA.SOLV.lig_0>
-56.4922

>  <SCORE.INTRA.VDW>
-1.57832

>  <SCORE.INTRA.VDW.0>
-0.696801

>  <SCORE.INTRA.norm>
-0.026734

>  <SCORE.RESTR>
0

>  <SCORE.RESTR.CAVITY>
0

>  <SCORE.RESTR.norm>
0

>  <SCORE.SYSTEM>
0

>  <SCORE.SYSTEM.CONST>
0

>  <SCORE.SYSTEM.DIHEDRAL>
0

>  <SCORE.SYSTEM.SOLV>
0

>  <SCORE.SYSTEM.norm>
0

>  <SCORE.heavy>
22

>  <SCORE.norm>
-0.542701

>  <RMSD>
4.772

$$$$
ligand
 OpenBabel02271912143D
libRbt.so/2013.1/901 2013/11/27
 22 24  0  0  0  0  0  0  0  0999 V2000
   21.2586  -16.4261   26.1766 N   0  0  0  0  0  0  0  0  0  0  0  0
   20.1850  -17.9986   27.6283 N   0  0  0  0  0  0  0  0  0  0  0  0
   20.1124  -17.2156   26.5394 C   0  0  0  0  0  0  0  0  0  0  0  0
   19.0188  -17.1479   25.7903 N   0  0  0  0  0  0  0  0  0  0  0  0
   14.7226  -19.8437   27.0022 O   0  0  0  0  0  0  0  0  0  0  0  0
   17.9352  -17.8778   26.1133 C   0  0  0  0  0  0  0  0  0  0  0  0
   17.9719  -18.7090   27.2675 C   0  0  0  0  0  0  0  0  0  0  0  0
   16.8140  -17.7899   25.3190 O   0  0  0  0  0  0  0  0  0  0  0  0
   16.8933  -19.5634   27.7232 N   0  0  0  0  0  0  0  0  0  0  0  0
   17.2760  -20.8827   28.2429 C   0  0  2  0  0  0  0  0  0  0  0  0
   18.3367  -20.7493   29.2905 C   0  0  0  0  0  0  0  0  0  0  0  0
   19.1311  -18.7508   28.0010 C   0  0  0  0  0  0  0  0  0  0  0  0
   19.1965  -19.5761   29.1469 N   0  0  0  0  0  0  0  0  0  0  0  0
   17.7715  -21.8583   27.1601 C   0  0  0  0  0  0  0  0  0  0  0  0
   18.8277  -21.2438   26.3652 N   0  0  0  0  0  0  0  0  0  0  0  0
   19.9791  -22.8782   22.6096 C   0  0  0  0  0  0  0  0  0  0  0  0
   18.9550  -21.9481   22.6730 C   0  0  0  0  0  0  0  0  0  0  0  0
   18.5697  -21.4026   23.9128 C   0  0  0  0  0  0  0  0  0  0  0  0
   19.2157  -21.7985   25.0742 C   0  0  0  0  0  0  0  0  0  0  0  0
   20.2446  -22.7333   25.0073 C   0  0  0  0  0  0  0  0  0  0  0  0
   20.6271  -23.2720   23.7762 C   0  0  0  0  0  0  0  0  0  0  0  0
   15.5153  -19.2111   27.6795 C   0  0  0  0  0  0  0  0  0  0  0  0
  1  3  1  0  0  0  0
  2  3  2  0  0  0  0
  2 12  1  0  0  0  0
  3  4  1  0  0  0  0
  4  6  1  0  0  0  0
  5 22  1  0  0  0  0
  6  7  1  0  0  0  0
  6  8  2  0  0  0  0
  7 12  2  0  0  0  0
  7  9  1  0  0  0  0
  9 10  1  0  0  0  0
  9 22  1  0  0  0  0
 10 11  1  0  0  0  0
 10 14  1  6  0  0  0
 11 13  1  0  0  0  0
 12 13  1  0  0  0  0
 14 15  1  0  0  0  0
 15 19  1  0  0  0  0
 16 17  2  0  0  0  0
 16 21  1  0  0  0  0
 17 18  1  0  0  0  0
 18 19  2  0  0  0  0
 19 20  1  0  0  0  0
 20 21  2  0  0  0  0
M  END
>  <CHROM.1>
117.16161086,52.28463040,-163.43973426,88.22903932,18.48835860,-19.88178270
26.36941129,-1.94207278,-0.63533535,-2.63041212

>  <Name>
ligand

>  <RI>
0

>  <Rbt.Current_Directory>
/home/itssahil/PROJECTS/Mol_Feturizer/Test_systems_manuscript/rnas/3sd3

>  <Rbt.Executable>
rbdock ($Id: //depot/dev/client3/rdock/2013.1/src/exe/rbdock.cxx#4 $)

>  <Rbt.Library>
libRbt.so (2013.1, Build901 2013/11/27)

>  <Rbt.Parameter_File>
/export/apps/rDock/src/rDock_2013.1_src/data/scripts/dock_solv.prm

>  <Rbt.Receptor>
prm/pocket_docking_8.prm

>  <SCORE>
-11.4991

>  <SCORE.INTER>
-11.0187

>  <SCORE.INTER.CONST>
1

>  <SCORE.INTER.POLAR>
0

>  <SCORE.INTER.ROT>
4

>  <SCORE.INTER.SOLV>
8.08117

>  <SCORE.INTER.VDW>
-16.3062

>  <SCORE.INTER.norm>
-0.500848

>  <SCORE.INTRA>
-0.480489

>  <SCORE.INTRA.DIHEDRAL>
-0.502028

>  <SCORE.INTRA.DIHEDRAL.0>
2.54655

>  <SCORE.INTRA.POLAR>
0

>  <SCORE.INTRA.POLAR.0>
0

>  <SCORE.INTRA.REPUL>
0

>  <SCORE.INTRA.REPUL.0>
0

>  <SCORE.INTRA.SOLV>
2.02858

>  <SCORE.INTRA.SOLV.lig_0>
-56.4922

>  <SCORE.INTRA.VDW>
-1.24376

>  <SCORE.INTRA.VDW.0>
-0.696801

>  <SCORE.INTRA.norm>
-0.0218404

>  <SCORE.RESTR>
0

>  <SCORE.RESTR.CAVITY>
0

>  <SCORE.RESTR.norm>
0

>  <SCORE.SYSTEM>
0

>  <SCORE.SYSTEM.CONST>
0

>  <SCORE.SYSTEM.DIHEDRAL>
0

>  <SCORE.SYSTEM.SOLV>
0

>  <SCORE.SYSTEM.norm>
0

>  <SCORE.heavy>
22

>  <SCORE.norm>
-0.522689

>  <RMSD>
4.785

$$$$
ligand
 OpenBabel02271912143D
libRbt.so/2013.1/901 2013/11/27
 22 24  0  0  0  0  0  0  0  0999 V2000
   21.0019  -16.7903   25.9197 N   0  0  0  0  0  0  0  0  0  0  0  0
   20.2850  -18.6375   27.2640 N   0  0  0  0  0  0  0  0  0  0  0  0
   19.9918  -17.7359   26.3125 C   0  0  0  0  0  0  0  0  0  0  0  0
   18.8021  -17.6907   25.7255 N   0  0  0  0  0  0  0  0  0  0  0  0
   15.3324  -19.2117   27.8649 O   0  0  0  0  0  0  0  0  0  0  0  0
   17.8430  -18.5659   26.0795 C   0  0  0  0  0  0  0  0  0  0  0  0
   18.1143  -19.5270   27.0930 C   0  0  0  0  0  0  0  0  0  0  0  0
   16.6181  -18.4981   25.4545 O   0  0  0  0  0  0  0  0  0  0  0  0
   17.1896  -20.5412   27.5594 N   0  0  0  0  0  0  0  0  0  0  0  0
   17.7559  -21.8674   27.8379 C   0  0  2  0  0  0  0  0  0  0  0  0
   18.9373  -21.7553   28.7501 C   0  0  0  0  0  0  0  0  0  0  0  0
   19.3641  -19.5378   27.6598 C   0  0  0  0  0  0  0  0  0  0  0  0
   19.6619  -20.4890   28.6623 N   0  0  0  0  0  0  0  0  0  0  0  0
   18.1784  -22.6412   26.5760 C   0  0  0  0  0  0  0  0  0  0  0  0
   19.0129  -21.8057   25.7212 N   0  0  0  0  0  0  0  0  0  0  0  0
   19.4623  -22.6698   21.5797 C   0  0  0  0  0  0  0  0  0  0  0  0
   18.5120  -21.7518   21.9942 C   0  0  0  0  0  0  0  0  0  0  0  0
   18.3588  -21.4606   23.3635 C   0  0  0  0  0  0  0  0  0  0  0  0
   19.1600  -22.0956   24.3003 C   0  0  0  0  0  0  0  0  0  0  0  0
   20.1143  -23.0177   23.8806 C   0  0  0  0  0  0  0  0  0  0  0  0
   20.2665  -23.3039   22.5215 C   0  0  0  0  0  0  0  0  0  0  0  0
   15.7936  -20.3339   27.7409 C   0  0  0  0  0  0  0  0  0  0  0  0
  1  3  1  0  0  0  0
  2  3  2  0  0  0  0
  2 12  1  0  0  0  0
  3  4  1  0  0  0  0
  4  6  1  0  0  0  0
  5 22  1  0  0  0  0
  6  7  1  0  0  0  0
  6  8  2  0  0  0  0
  7 12  2  0  0  0  0
  7  9  1  0  0  0  0
  9 10  1  0  0  0  0
  9 22  1  0  0  0  0
 10 11  1  0  0  0  0
 10 14  1  6  0  0  0
 11 13  1  0  0  0  0
 12 13  1  0  0  0  0
 14 15  1  0  0  0  0
 15 19  1  0  0  0  0
 16 17  2  0  0  0  0
 16 21  1  0  0  0  0
 17 18  1  0  0  0  0
 18 19  2  0  0  0  0
 19 20  1  0  0  0  0
 20 21  2  0  0  0  0
M  END
>  <CHROM.1>
-20.16561904,50.12570223,-158.41602118,95.09177213,18.55794323,-20.38954948
26.00454481,-2.00171870,-0.95157941,-2.56591038

>  <Name>
ligand

>  <RI>
0

>  <Rbt.Current_Directory>
/home/itssahil/PROJECTS/Mol_Feturizer/Test_systems_manuscript/rnas/3sd3

>  <Rbt.Executable>
rbdock ($Id: //depot/dev/client3/rdock/2013.1/src/exe/rbdock.cxx#4 $)

>  <Rbt.Library>
libRbt.so (2013.1, Build901 2013/11/27)

>  <Rbt.Parameter_File>
/export/apps/rDock/src/rDock_2013.1_src/data/scripts/dock_solv.prm

>  <Rbt.Receptor>
prm/pocket_docking_5.prm

>  <SCORE>
-11.8471

>  <SCORE.INTER>
-11.4424

>  <SCORE.INTER.CONST>
1

>  <SCORE.INTER.POLAR>
0

>  <SCORE.INTER.ROT>
4

>  <SCORE.INTER.SOLV>
7.04563

>  <SCORE.INTER.VDW>
-16.2435

>  <SCORE.INTER.norm>
-0.52011

>  <SCORE.INTRA>
-0.404703

>  <SCORE.INTRA.DIHEDRAL>
-0.262019

>  <SCORE.INTRA.DIHEDRAL.0>
2.54655

>  <SCORE.INTRA.POLAR>
0

>  <SCORE.INTRA.POLAR.0>
0

>  <SCORE.INTRA.REPUL>
0

>  <SCORE.INTRA.REPUL.0>
0

>  <SCORE.INTRA.SOLV>
2.09036

>  <SCORE.INTRA.SOLV.lig_0>
-56.4922

>  <SCORE.INTRA.VDW>
-1.31887

>  <SCORE.INTRA.VDW.0>
-0.696801

>  <SCORE.INTRA.norm>
-0.0183956

>  <SCORE.RESTR>
0

>  <SCORE.RESTR.CAVITY>
0

>  <SCORE.RESTR.norm>
0

>  <SCORE.SYSTEM>
0

>  <SCORE.SYSTEM.CONST>
0

>  <SCORE.SYSTEM.DIHEDRAL>
0

>  <SCORE.SYSTEM.SOLV>
0

>  <SCORE.SYSTEM.norm>
0

>  <SCORE.heavy>
22

>  <SCORE.norm>
-0.538506

>  <RMSD>
4.787

$$$$
ligand
 OpenBabel02271912143D
libRbt.so/2013.1/901 2013/11/27
 22 24  0  0  0  0  0  0  0  0999 V2000
   21.1199  -16.7240   25.9919 N   0  0  0  0  0  0  0  0  0  0  0  0
   20.3215  -18.5543   27.3131 N   0  0  0  0  0  0  0  0  0  0  0  0
   20.0774  -17.6465   26.3537 C   0  0  0  0  0  0  0  0  0  0  0  0
   18.9073  -17.5746   25.7312 N   0  0  0  0  0  0  0  0  0  0  0  0
   15.3470  -19.0231   27.8324 O   0  0  0  0  0  0  0  0  0  0  0  0
   17.9184  -18.4279   26.0558 C   0  0  0  0  0  0  0  0  0  0  0  0
   18.1373  -19.3947   27.0765 C   0  0  0  0  0  0  0  0  0  0  0  0
   16.7147  -18.3326   25.3943 O   0  0  0  0  0  0  0  0  0  0  0  0
   17.1765  -20.3877   27.5144 N   0  0  0  0  0  0  0  0  0  0  0  0
   17.7041  -21.7262   27.8091 C   0  0  2  0  0  0  0  0  0  0  0  0
   18.8598  -21.6406   28.7565 C   0  0  0  0  0  0  0  0  0  0  0  0
   19.3690  -19.4335   27.6807 C   0  0  0  0  0  0  0  0  0  0  0  0
   19.6150  -20.3910   28.6912 N   0  0  0  0  0  0  0  0  0  0  0  0
   18.1468  -22.5097   26.5602 C   0  0  0  0  0  0  0  0  0  0  0  0
   18.9694  -21.6707   25.6973 N   0  0  0  0  0  0  0  0  0  0  0  0
   19.6110  -22.6931   21.6176 C   0  0  0  0  0  0  0  0  0  0  0  0
   18.6685  -21.7343   21.9489 C   0  0  0  0  0  0  0  0  0  0  0  0
   18.4519  -21.3905   23.2974 C   0  0  0  0  0  0  0  0  0  0  0  0
   19.1827  -22.0147   24.2969 C   0  0  0  0  0  0  0  0  0  0  0  0
   20.1294  -22.9779   23.9608 C   0  0  0  0  0  0  0  0  0  0  0  0
   20.3446  -23.3162   22.6223 C   0  0  0  0  0  0  0  0  0  0  0  0
   15.7806  -20.1489   27.6539 C   0  0  0  0  0  0  0  0  0  0  0  0
  1  3  1  0  0  0  0
  2  3  2  0  0  0  0
  2 12  1  0  0  0  0
  3  4  1  0  0  0  0
  4  6  1  0  0  0  0
  5 22  1  0  0  0  0
  6  7  1  0  0  0  0
  6  8  2  0  0  0  0
  7 12  2  0  0  0  0
  7  9  1  0  0  0  0
  9 10  1  0  0  0  0
  9 22  1  0  0  0  0
 10 11  1  0  0  0  0
 10 14  1  6  0  0  0
 11 13  1  0  0  0  0
 12 13  1  0  0  0  0
 14 15  1  0  0  0  0
 15 19  1  0  0  0  0
 16 17  2  0  0  0  0
 16 21  1  0  0  0  0
 17 18  1  0  0  0  0
 18 19  2  0  0  0  0
 19 20  1  0  0  0  0
 20 21  2  0  0  0  0
M  END
>  <CHROM.1>
-23.92794968,47.22223414,-161.51357060,99.83409604,18.59235813,-20.28539829
26.00290216,-1.98484783,-0.90767768,-2.56516094

>  <Name>
ligand

>  <RI>
0

>  <Rbt.Current_Directory>
/home/itssahil/PROJECTS/Mol_Feturizer/Test_systems_manuscript/rnas/3sd3

>  <Rbt.Executable>
rbdock ($Id: //depot/dev/client3/rdock/2013.1/src/exe/rbdock.cxx#4 $)

>  <Rbt.Library>
libRbt.so (2013.1, Build901 2013/11/27)

>  <Rbt.Parameter_File>
/export/apps/rDock/src/rDock_2013.1_src/data/scripts/dock_solv.prm

>  <Rbt.Receptor>
prm/pocket_docking_5.prm

>  <SCORE>
-11.8801

>  <SCORE.INTER>
-11.5615

>  <SCORE.INTER.CONST>
1

>  <SCORE.INTER.POLAR>
0

>  <SCORE.INTER.ROT>
4

>  <SCORE.INTER.SOLV>
6.86943

>  <SCORE.INTER.VDW>
-16.2641

>  <SCORE.INTER.norm>
-0.525523

>  <SCORE.INTRA>
-0.318589

>  <SCORE.INTRA.DIHEDRAL>
-0.1306

>  <SCORE.INTRA.DIHEDRAL.0>
2.54655

>  <SCORE.INTRA.POLAR>
0

>  <SCORE.INTRA.POLAR.0>
0

>  <SCORE.INTRA.REPUL>
0

>  <SCORE.INTRA.REPUL.0>
0

>  <SCORE.INTRA.SOLV>
2.09826

>  <SCORE.INTRA.SOLV.lig_0>
-56.4922

>  <SCORE.INTRA.VDW>
-1.30242

>  <SCORE.INTRA.VDW.0>
-0.696801

>  <SCORE.INTRA.norm>
-0.0144813

>  <SCORE.RESTR>
0

>  <SCORE.RESTR.CAVITY>
0

>  <SCORE.RESTR.norm>
0

>  <SCORE.SYSTEM>
0

>  <SCORE.SYSTEM.CONST>
0

>  <SCORE.SYSTEM.DIHEDRAL>
0

>  <SCORE.SYSTEM.SOLV>
0

>  <SCORE.SYSTEM.norm>
0

>  <SCORE.heavy>
22

>  <SCORE.norm>
-0.540004

>  <RMSD>
4.788

$$$$
ligand
 OpenBabel02271912143D
libRbt.so/2013.1/901 2013/11/27
 22 24  0  0  0  0  0  0  0  0999 V2000
   21.0195  -16.7194   26.0156 N   0  0  0  0  0  0  0  0  0  0  0  0
   20.2551  -18.5701   27.3284 N   0  0  0  0  0  0  0  0  0  0  0  0
   19.9888  -17.6524   26.3844 C   0  0  0  0  0  0  0  0  0  0  0  0
   18.8076  -17.5801   25.7834 N   0  0  0  0  0  0  0  0  0  0  0  0
   14.9280  -20.5335   26.8750 O   0  0  0  0  0  0  0  0  0  0  0  0
   17.8296  -18.4432   26.1149 C   0  0  0  0  0  0  0  0  0  0  0  0
   18.0720  -19.4207   27.1199 C   0  0  0  0  0  0  0  0  0  0  0  0
   16.6139  -18.3472   25.4758 O   0  0  0  0  0  0  0  0  0  0  0  0
   17.1248  -20.4247   27.5625 N   0  0  0  0  0  0  0  0  0  0  0  0
   17.6652  -21.7634   27.8318 C   0  0  2  0  0  0  0  0  0  0  0  0
   18.8369  -21.6822   28.7598 C   0  0  0  0  0  0  0  0  0  0  0  0
   19.3143  -19.4593   27.7019 C   0  0  0  0  0  0  0  0  0  0  0  0
   19.5836  -20.4274   28.6964 N   0  0  0  0  0  0  0  0  0  0  0  0
   18.0905  -22.5292   26.5659 C   0  0  0  0  0  0  0  0  0  0  0  0
   18.9228  -21.6866   25.7161 N   0  0  0  0  0  0  0  0  0  0  0  0
   19.5542  -22.6532   21.6212 C   0  0  0  0  0  0  0  0  0  0  0  0
   18.5990  -21.7130   21.9692 C   0  0  0  0  0  0  0  0  0  0  0  0
   18.3858  -21.3877   23.3227 C   0  0  0  0  0  0  0  0  0  0  0  0
   19.1325  -22.0116   24.3106 C   0  0  0  0  0  0  0  0  0  0  0  0
   20.0919  -22.9561   23.9578 C   0  0  0  0  0  0  0  0  0  0  0  0
   20.3037  -23.2760   22.6143 C   0  0  0  0  0  0  0  0  0  0  0  0
   15.7302  -20.1960   27.7294 C   0  0  0  0  0  0  0  0  0  0  0  0
  1  3  1  0  0  0  0
  2  3  2  0  0  0  0
  2 12  1  0  0  0  0
  3  4  1  0  0  0  0
  4  6  1  0  0  0  0
  5 22  1  0  0  0  0
  6  7  1  0  0  0  0
  6  8  2  0  0  0  0
  7 12  2  0  0  0  0
  7  9  1  0  0  0  0
  9 10  1  0  0  0  0
  9 22  1  0  0  0  0
 10 11  1  0  0  0  0
 10 14  1  6  0  0  0
 11 13  1  0  0  0  0
 12 13  1  0  0  0  0
 14 15  1  0  0  0  0
 15 19  1  0  0  0  0
 16 17  2  0  0  0  0
 16 21  1  0  0  0  0
 17 18  1  0  0  0  0
 18 19  2  0  0  0  0
 19 20  1  0  0  0  0
 20 21  2  0  0  0  0
M  END
>  <CHROM.1>
99.37364781,48.74670066,-161.93929561,98.22561132,18.51127776,-20.37881490
25.97623548,-1.87388861,-0.81604446,-2.44321205

>  <Name>
ligand

>  <RI>
0

>  <Rbt.Current_Directory>
/home/itssahil/PROJECTS/Mol_Feturizer/Test_systems_manuscript/rnas/3sd3

>  <Rbt.Executable>
rbdock ($Id: //depot/dev/client3/rdock/2013.1/src/exe/rbdock.cxx#4 $)

>  <Rbt.Library>
libRbt.so (2013.1, Build901 2013/11/27)

>  <Rbt.Parameter_File>
/export/apps/rDock/src/rDock_2013.1_src/data/scripts/dock_solv.prm

>  <Rbt.Receptor>
prm/pocket_docking_4.prm

>  <SCORE>
-11.5722

>  <SCORE.INTER>
-11.1287

>  <SCORE.INTER.CONST>
1

>  <SCORE.INTER.POLAR>
0

>  <SCORE.INTER.ROT>
4

>  <SCORE.INTER.SOLV>
6.37229

>  <SCORE.INTER.VDW>
-15.8099

>  <SCORE.INTER.norm>
-0.505851

>  <SCORE.INTRA>
-0.443454

>  <SCORE.INTRA.DIHEDRAL>
-0.260272

>  <SCORE.INTRA.DIHEDRAL.0>
2.54655

>  <SCORE.INTRA.POLAR>
0

>  <SCORE.INTRA.POLAR.0>
0

>  <SCORE.INTRA.REPUL>
0

>  <SCORE.INTRA.REPUL.0>
0

>  <SCORE.INTRA.SOLV>
2.12232

>  <SCORE.INTRA.SOLV.lig_0>
-56.4922

>  <SCORE.INTRA.VDW>
-1.37448

>  <SCORE.INTRA.VDW.0>
-0.696801

>  <SCORE.INTRA.norm>
-0.020157

>  <SCORE.RESTR>
0

>  <SCORE.RESTR.CAVITY>
0

>  <SCORE.RESTR.norm>
0

>  <SCORE.SYSTEM>
0

>  <SCORE.SYSTEM.CONST>
0

>  <SCORE.SYSTEM.DIHEDRAL>
0

>  <SCORE.SYSTEM.SOLV>
0

>  <SCORE.SYSTEM.norm>
0

>  <SCORE.heavy>
22

>  <SCORE.norm>
-0.526008

>  <RMSD>
4.808

$$$$
ligand
 OpenBabel02271912143D
libRbt.so/2013.1/901 2013/11/27
 22 24  0  0  0  0  0  0  0  0999 V2000
   21.2165  -16.8107   25.9770 N   0  0  0  0  0  0  0  0  0  0  0  0
   20.3559  -18.6151   27.2948 N   0  0  0  0  0  0  0  0  0  0  0  0
   20.1424  -17.6965   26.3384 C   0  0  0  0  0  0  0  0  0  0  0  0
   18.9744  -17.5812   25.7184 N   0  0  0  0  0  0  0  0  0  0  0  0
   14.9586  -20.3632   26.7784 O   0  0  0  0  0  0  0  0  0  0  0  0
   17.9564  -18.3996   26.0427 C   0  0  0  0  0  0  0  0  0  0  0  0
   18.1427  -19.3764   27.0603 C   0  0  0  0  0  0  0  0  0  0  0  0
   16.7556  -18.2595   25.3838 O   0  0  0  0  0  0  0  0  0  0  0  0
   17.1478  -20.3358   27.4973 N   0  0  0  0  0  0  0  0  0  0  0  0
   17.6280  -21.6931   27.7873 C   0  0  2  0  0  0  0  0  0  0  0  0
   18.7878  -21.6514   28.7326 C   0  0  0  0  0  0  0  0  0  0  0  0
   19.3733  -19.4608   27.6619 C   0  0  0  0  0  0  0  0  0  0  0  0
   19.5870  -20.4293   28.6692 N   0  0  0  0  0  0  0  0  0  0  0  0
   18.0401  -22.4882   26.5353 C   0  0  0  0  0  0  0  0  0  0  0  0
   18.9570  -21.7070   25.7143 N   0  0  0  0  0  0  0  0  0  0  0  0
   19.6054  -22.6742   21.6222 C   0  0  0  0  0  0  0  0  0  0  0  0
   20.3561  -23.2959   22.6058 C   0  0  0  0  0  0  0  0  0  0  0  0
   20.1458  -22.9809   23.9623 C   0  0  0  0  0  0  0  0  0  0  0  0
   19.1858  -22.0445   24.3148 C   0  0  0  0  0  0  0  0  0  0  0  0
   18.4327  -21.4215   23.3240 C   0  0  0  0  0  0  0  0  0  0  0  0
   18.6411  -21.7367   21.9788 C   0  0  0  0  0  0  0  0  0  0  0  0
   15.7617  -20.0478   27.6404 C   0  0  0  0  0  0  0  0  0  0  0  0
  1  3  1  0  0  0  0
  2  3  2  0  0  0  0
  2 12  1  0  0  0  0
  3  4  1  0  0  0  0
  4  6  1  0  0  0  0
  5 22  1  0  0  0  0
  6  7  1  0  0  0  0
  6  8  2  0  0  0  0
  7 12  2  0  0  0  0
  7  9  1  0  0  0  0
  9 10  1  0  0  0  0
  9 22  1  0  0  0  0
 10 11  1  0  0  0  0
 10 14  1  6  0  0  0
 11 13  1  0  0  0  0
 12 13  1  0  0  0  0
 14 15  1  0  0  0  0
 15 19  1  0  0  0  0
 16 17  2  0  0  0  0
 16 21  1  0  0  0  0
 17 18  1  0  0  0  0
 18 19  2  0  0  0  0
 19 20  1  0  0  0  0
 20 21  2  0  0  0  0
M  END
>  <CHROM.1>
99.56617959,50.74438954,-161.70430695,-86.45338164,18.57033964,-20.35900355
25.93720479,-1.86324427,-0.76807971,-2.43673028

>  <Name>
ligand

>  <RI>
0

>  <Rbt.Current_Directory>
/home/itssahil/PROJECTS/Mol_Feturizer/Test_systems_manuscript/rnas/3sd3

>  <Rbt.Executable>
rbdock ($Id: //depot/dev/client3/rdock/2013.1/src/exe/rbdock.cxx#4 $)

>  <Rbt.Library>
libRbt.so (2013.1, Build901 2013/11/27)

>  <Rbt.Parameter_File>
/export/apps/rDock/src/rDock_2013.1_src/data/scripts/dock_solv.prm

>  <Rbt.Receptor>
prm/pocket_docking_4.prm

>  <SCORE>
-11.52

>  <SCORE.INTER>
-10.9921

>  <SCORE.INTER.CONST>
1

>  <SCORE.INTER.POLAR>
0

>  <SCORE.INTER.ROT>
4

>  <SCORE.INTER.SOLV>
6.14152

>  <SCORE.INTER.VDW>
-15.6419

>  <SCORE.INTER.norm>
-0.49964

>  <SCORE.INTRA>
-0.527922

>  <SCORE.INTRA.DIHEDRAL>
-0.392222

>  <SCORE.INTRA.DIHEDRAL.0>
2.54655

>  <SCORE.INTRA.POLAR>
0

>  <SCORE.INTRA.POLAR.0>
0

>  <SCORE.INTRA.REPUL>
0

>  <SCORE.INTRA.REPUL.0>
0

>  <SCORE.INTRA.SOLV>
2.10248

>  <SCORE.INTRA.SOLV.lig_0>
-56.4922

>  <SCORE.INTRA.VDW>
-1.38305

>  <SCORE.INTRA.VDW.0>
-0.696801

>  <SCORE.INTRA.norm>
-0.0239965

>  <SCORE.RESTR>
0

>  <SCORE.RESTR.CAVITY>
0

>  <SCORE.RESTR.norm>
0

>  <SCORE.SYSTEM>
0

>  <SCORE.SYSTEM.CONST>
0

>  <SCORE.SYSTEM.DIHEDRAL>
0

>  <SCORE.SYSTEM.SOLV>
0

>  <SCORE.SYSTEM.norm>
0

>  <SCORE.heavy>
22

>  <SCORE.norm>
-0.523637

>  <RMSD>
4.821

$$$$
ligand
 OpenBabel02271912143D
libRbt.so/2013.1/901 2013/11/27
 22 24  0  0  0  0  0  0  0  0999 V2000
   21.4196  -16.8065   25.8513 N   0  0  0  0  0  0  0  0  0  0  0  0
   20.4834  -18.5742   27.1673 N   0  0  0  0  0  0  0  0  0  0  0  0
   20.2979  -17.6171   26.2433 C   0  0  0  0  0  0  0  0  0  0  0  0
   19.1151  -17.3968   25.6827 N   0  0  0  0  0  0  0  0  0  0  0  0
   14.9252  -20.0140   26.9411 O   0  0  0  0  0  0  0  0  0  0  0  0
   18.0529  -18.1434   26.0365 C   0  0  0  0  0  0  0  0  0  0  0  0
   18.2095  -19.1582   27.0215 C   0  0  0  0  0  0  0  0  0  0  0  0
   16.8375  -17.8949   25.4392 O   0  0  0  0  0  0  0  0  0  0  0  0
   17.1645  -20.0501   27.4837 N   0  0  0  0  0  0  0  0  0  0  0  0
   17.5510  -21.4473   27.7194 C   0  0  2  0  0  0  0  0  0  0  0  0
   18.7527  -21.5191   28.6089 C   0  0  0  0  0  0  0  0  0  0  0  0
   19.4562  -19.3520   27.5615 C   0  0  0  0  0  0  0  0  0  0  0  0
   19.6403  -20.3602   28.5352 N   0  0  0  0  0  0  0  0  0  0  0  0
   17.8424  -22.2382   26.4313 C   0  0  0  0  0  0  0  0  0  0  0  0
   18.8646  -21.5646   25.6399 N   0  0  0  0  0  0  0  0  0  0  0  0
   19.6448  -22.7262   21.6220 C   0  0  0  0  0  0  0  0  0  0  0  0
   20.3761  -23.2851   22.6566 C   0  0  0  0  0  0  0  0  0  0  0  0
   20.1221  -22.9057   23.9888 C   0  0  0  0  0  0  0  0  0  0  0  0
   19.1386  -21.9685   24.2663 C   0  0  0  0  0  0  0  0  0  0  0  0
   18.4051  -21.4085   23.2244 C   0  0  0  0  0  0  0  0  0  0  0  0
   18.6569  -21.7877   21.9034 C   0  0  0  0  0  0  0  0  0  0  0  0
   15.8128  -19.6612   27.6994 C   0  0  0  0  0  0  0  0  0  0  0  0
  1  3  1  0  0  0  0
  2  3  2  0  0  0  0
  2 12  1  0  0  0  0
  3  4  1  0  0  0  0
  4  6  1  0  0  0  0
  5 22  1  0  0  0  0
  6  7  1  0  0  0  0
  6  8  2  0  0  0  0
  7 12  2  0  0  0  0
  7  9  1  0  0  0  0
  9 10  1  0  0  0  0
  9 22  1  0  0  0  0
 10 11  1  0  0  0  0
 10 14  1  6  0  0  0
 11 13  1  0  0  0  0
 12 13  1  0  0  0  0
 14 15  1  0  0  0  0
 15 19  1  0  0  0  0
 16 17  2  0  0  0  0
 16 21  1  0  0  0  0
 17 18  1  0  0  0  0
 18 19  2  0  0  0  0
 19 20  1  0  0  0  0
 20 21  2  0  0  0  0
M  END
>  <CHROM.1>
107.46363776,55.64437415,-168.30611051,-92.43188719,18.59800192,-20.20652853
25.89750013,-1.86757276,-0.70101504,-2.46040587

>  <Name>
ligand

>  <RI>
0

>  <Rbt.Current_Directory>
/home/itssahil/PROJECTS/Mol_Feturizer/Test_systems_manuscript/rnas/3sd3

>  <Rbt.Executable>
rbdock ($Id: //depot/dev/client3/rdock/2013.1/src/exe/rbdock.cxx#4 $)

>  <Rbt.Library>
libRbt.so (2013.1, Build901 2013/11/27)

>  <Rbt.Parameter_File>
/export/apps/rDock/src/rDock_2013.1_src/data/scripts/dock_solv.prm

>  <Rbt.Receptor>
prm/pocket_docking_5.prm

>  <SCORE>
-11.392

>  <SCORE.INTER>
-10.7659

>  <SCORE.INTER.CONST>
1

>  <SCORE.INTER.POLAR>
0

>  <SCORE.INTER.ROT>
4

>  <SCORE.INTER.SOLV>
6.1473

>  <SCORE.INTER.VDW>
-15.493

>  <SCORE.INTER.norm>
-0.489357

>  <SCORE.INTRA>
-0.626142

>  <SCORE.INTRA.DIHEDRAL>
-0.757189

>  <SCORE.INTRA.DIHEDRAL.0>
2.54655

>  <SCORE.INTRA.POLAR>
0

>  <SCORE.INTRA.POLAR.0>
0

>  <SCORE.INTRA.REPUL>
0

>  <SCORE.INTRA.REPUL.0>
0

>  <SCORE.INTRA.SOLV>
2.02017

>  <SCORE.INTRA.SOLV.lig_0>
-56.4922

>  <SCORE.INTRA.VDW>
-1.25763

>  <SCORE.INTRA.VDW.0>
-0.696801

>  <SCORE.INTRA.norm>
-0.028461

>  <SCORE.RESTR>
0

>  <SCORE.RESTR.CAVITY>
0

>  <SCORE.RESTR.norm>
0

>  <SCORE.SYSTEM>
0

>  <SCORE.SYSTEM.CONST>
0

>  <SCORE.SYSTEM.DIHEDRAL>
0

>  <SCORE.SYSTEM.SOLV>
0

>  <SCORE.SYSTEM.norm>
0

>  <SCORE.heavy>
22

>  <SCORE.norm>
-0.517818

>  <RMSD>
4.851

$$$$
ligand
 OpenBabel02271912143D
libRbt.so/2013.1/901 2013/11/27
 22 24  0  0  0  0  0  0  0  0999 V2000
   21.4029  -16.6428   28.7083 N   0  0  0  0  0  0  0  0  0  0  0  0
   20.2810  -18.7130   29.1423 N   0  0  0  0  0  0  0  0  0  0  0  0
   20.3412  -17.5735   28.4337 C   0  0  0  0  0  0  0  0  0  0  0  0
   19.4539  -17.2807   27.4910 N   0  0  0  0  0  0  0  0  0  0  0  0
   15.4458  -19.0634   27.8187 O   0  0  0  0  0  0  0  0  0  0  0  0
   18.4523  -18.1377   27.2196 C   0  0  0  0  0  0  0  0  0  0  0  0
   18.3500  -19.3489   27.9592 C   0  0  0  0  0  0  0  0  0  0  0  0
   17.5459  -17.8103   26.2364 O   0  0  0  0  0  0  0  0  0  0  0  0
   17.3419  -20.3718   27.7626 N   0  0  0  0  0  0  0  0  0  0  0  0
   17.7947  -21.7658   27.8550 C   0  0  2  0  0  0  0  0  0  0  0  0
   18.5501  -21.9916   29.1274 C   0  0  0  0  0  0  0  0  0  0  0  0
   19.2999  -19.6081   28.9153 C   0  0  0  0  0  0  0  0  0  0  0  0
   19.2261  -20.8091   29.6574 N   0  0  0  0  0  0  0  0  0  0  0  0
   18.6733  -22.2144   26.6732 C   0  0  0  0  0  0  0  0  0  0  0  0
   18.0717  -21.8098   25.4085 N   0  0  0  0  0  0  0  0  0  0  0  0
   19.8980  -22.7539   21.6836 C   0  0  0  0  0  0  0  0  0  0  0  0
   20.4341  -23.2491   22.8605 C   0  0  0  0  0  0  0  0  0  0  0  0
   19.8339  -22.9411   24.0967 C   0  0  0  0  0  0  0  0  0  0  0  0
   18.7039  -22.1384   24.1368 C   0  0  0  0  0  0  0  0  0  0  0  0
   18.1673  -21.6423   22.9523 C   0  0  0  0  0  0  0  0  0  0  0  0
   18.7628  -21.9506   21.7265 C   0  0  0  0  0  0  0  0  0  0  0  0
   15.9739  -20.1072   27.4738 C   0  0  0  0  0  0  0  0  0  0  0  0
  1  3  1  0  0  0  0
  2  3  2  0  0  0  0
  2 12  1  0  0  0  0
  3  4  1  0  0  0  0
  4  6  1  0  0  0  0
  5 22  1  0  0  0  0
  6  7  1  0  0  0  0
  6  8  2  0  0  0  0
  7 12  2  0  0  0  0
  7  9  1  0  0  0  0
  9 10  1  0  0  0  0
  9 22  1  0  0  0  0
 10 11  1  0  0  0  0
 10 14  1  6  0  0  0
 11 13  1  0  0  0  0
 12 13  1  0  0  0  0
 14 15  1  0  0  0  0
 15 19  1  0  0  0  0
 16 17  2  0  0  0  0
 16 21  1  0  0  0  0
 17 18  1  0  0  0  0
 18 19  2  0  0  0  0
 19 20  1  0  0  0  0
 20 21  2  0  0  0  0
M  END
>  <CHROM.1>
-26.10124980,-46.79514420,-178.98360924,5.46783062,18.66583899,-20.28995198
26.62208482,-1.59553845,-0.65943426,-2.21587299

>  <Name>
ligand

>  <RI>
0

>  <Rbt.Current_Directory>
/home/itssahil/PROJECTS/Mol_Feturizer/Test_systems_manuscript/rnas/3sd3

>  <Rbt.Executable>
rbdock ($Id: //depot/dev/client3/rdock/2013.1/src/exe/rbdock.cxx#4 $)

>  <Rbt.Library>
libRbt.so (2013.1, Build901 2013/11/27)

>  <Rbt.Parameter_File>
/export/apps/rDock/src/rDock_2013.1_src/data/scripts/dock_solv.prm

>  <Rbt.Receptor>
prm/pocket_docking_7.prm

>  <SCORE>
-13.2102

>  <SCORE.INTER>
-12.9019

>  <SCORE.INTER.CONST>
1

>  <SCORE.INTER.POLAR>
0

>  <SCORE.INTER.ROT>
4

>  <SCORE.INTER.SOLV>
11.0988

>  <SCORE.INTER.VDW>
-18.5675

>  <SCORE.INTER.norm>
-0.58645

>  <SCORE.INTRA>
-0.30828

>  <SCORE.INTRA.DIHEDRAL>
-0.324598

>  <SCORE.INTRA.DIHEDRAL.0>
2.54655

>  <SCORE.INTRA.POLAR>
0

>  <SCORE.INTRA.POLAR.0>
0

>  <SCORE.INTRA.REPUL>
0

>  <SCORE.INTRA.REPUL.0>
0

>  <SCORE.INTRA.SOLV>
0.257098

>  <SCORE.INTRA.SOLV.lig_0>
-56.4922

>  <SCORE.INTRA.VDW>
-0.27453

>  <SCORE.INTRA.VDW.0>
-0.696801

>  <SCORE.INTRA.norm>
-0.0140127

>  <SCORE.RESTR>
0

>  <SCORE.RESTR.CAVITY>
0

>  <SCORE.RESTR.norm>
0

>  <SCORE.SYSTEM>
0

>  <SCORE.SYSTEM.CONST>
0

>  <SCORE.SYSTEM.DIHEDRAL>
0

>  <SCORE.SYSTEM.SOLV>
0

>  <SCORE.SYSTEM.norm>
0

>  <SCORE.heavy>
22

>  <SCORE.norm>
-0.600463

>  <RMSD>
5.037

$$$$
ligand
 OpenBabel02271912143D
libRbt.so/2013.1/901 2013/11/27
 22 24  0  0  0  0  0  0  0  0999 V2000
   21.4572  -16.8164   29.0178 N   0  0  0  0  0  0  0  0  0  0  0  0
   20.3220  -18.8999   29.3393 N   0  0  0  0  0  0  0  0  0  0  0  0
   20.3909  -17.7250   28.6918 C   0  0  0  0  0  0  0  0  0  0  0  0
   19.5080  -17.3777   27.7636 N   0  0  0  0  0  0  0  0  0  0  0  0
   15.4992  -20.5073   26.5318 O   0  0  0  0  0  0  0  0  0  0  0  0
   18.5023  -18.2132   27.4448 C   0  0  0  0  0  0  0  0  0  0  0  0
   18.3907  -19.4610   28.1193 C   0  0  0  0  0  0  0  0  0  0  0  0
   17.6006  -17.8291   26.4779 O   0  0  0  0  0  0  0  0  0  0  0  0
   17.3773  -20.4661   27.8664 N   0  0  0  0  0  0  0  0  0  0  0  0
   17.8217  -21.8657   27.8864 C   0  0  2  0  0  0  0  0  0  0  0  0
   18.5721  -22.1628   29.1471 C   0  0  0  0  0  0  0  0  0  0  0  0
   19.3364  -19.7759   29.0628 C   0  0  0  0  0  0  0  0  0  0  0  0
   19.2534  -21.0139   29.7404 N   0  0  0  0  0  0  0  0  0  0  0  0
   18.7011  -22.2567   26.6849 C   0  0  0  0  0  0  0  0  0  0  0  0
   18.0847  -21.8192   25.4384 N   0  0  0  0  0  0  0  0  0  0  0  0
   19.8708  -22.7516   21.6912 C   0  0  0  0  0  0  0  0  0  0  0  0
   18.7436  -21.9486   21.7379 C   0  0  0  0  0  0  0  0  0  0  0  0
   18.1481  -21.6354   22.9751 C   0  0  0  0  0  0  0  0  0  0  0  0
   18.6901  -22.1335   24.1502 C   0  0  0  0  0  0  0  0  0  0  0  0
   19.8231  -22.9402   24.1001 C   0  0  0  0  0  0  0  0  0  0  0  0
   20.4140  -23.2482   22.8720 C   0  0  0  0  0  0  0  0  0  0  0  0
   16.0117  -20.1785   27.5885 C   0  0  0  0  0  0  0  0  0  0  0  0
  1  3  1  0  0  0  0
  2  3  2  0  0  0  0
  2 12  1  0  0  0  0
  3  4  1  0  0  0  0
  4  6  1  0  0  0  0
  5 22  1  0  0  0  0
  6  7  1  0  0  0  0
  6  8  2  0  0  0  0
  7 12  2  0  0  0  0
  7  9  1  0  0  0  0
  9 10  1  0  0  0  0
  9 22  1  0  0  0  0
 10 11  1  0  0  0  0
 10 14  1  6  0  0  0
 11 13  1  0  0  0  0
 12 13  1  0  0  0  0
 14 15  1  0  0  0  0
 15 19  1  0  0  0  0
 16 17  2  0  0  0  0
 16 21  1  0  0  0  0
 17 18  1  0  0  0  0
 18 19  2  0  0  0  0
 19 20  1  0  0  0  0
 20 21  2  0  0  0  0
M  END
>  <CHROM.1>
118.72381176,-48.57558258,-176.74606810,-175.51571730,18.69077796,-20.44547480
26.65648314,-1.50458865,-0.65615539,-2.12807246

>  <Name>
ligand

>  <RI>
0

>  <Rbt.Current_Directory>
/home/itssahil/PROJECTS/Mol_Feturizer/Test_systems_manuscript/rnas/3sd3

>  <Rbt.Executable>
rbdock ($Id: //depot/dev/client3/rdock/2013.1/src/exe/rbdock.cxx#4 $)

>  <Rbt.Library>
libRbt.so (2013.1, Build901 2013/11/27)

>  <Rbt.Parameter_File>
/export/apps/rDock/src/rDock_2013.1_src/data/scripts/dock_solv.prm

>  <Rbt.Receptor>
prm/pocket_docking_6.prm

>  <SCORE>
-12.5635

>  <SCORE.INTER>
-12.5029

>  <SCORE.INTER.CONST>
1

>  <SCORE.INTER.POLAR>
0

>  <SCORE.INTER.ROT>
4

>  <SCORE.INTER.SOLV>
10.2713

>  <SCORE.INTER.VDW>
-18.0257

>  <SCORE.INTER.norm>
-0.568314

>  <SCORE.INTRA>
-0.0605496

>  <SCORE.INTRA.DIHEDRAL>
-0.437948

>  <SCORE.INTRA.DIHEDRAL.0>
2.54655

>  <SCORE.INTRA.POLAR>
0

>  <SCORE.INTRA.POLAR.0>
0

>  <SCORE.INTRA.REPUL>
0

>  <SCORE.INTRA.REPUL.0>
0

>  <SCORE.INTRA.SOLV>
0.838794

>  <SCORE.INTRA.SOLV.lig_0>
-56.4922

>  <SCORE.INTRA.VDW>
-0.260973

>  <SCORE.INTRA.VDW.0>
-0.696801

>  <SCORE.INTRA.norm>
-0.00275226

>  <SCORE.RESTR>
0

>  <SCORE.RESTR.CAVITY>
0

>  <SCORE.RESTR.norm>
0

>  <SCORE.SYSTEM>
0

>  <SCORE.SYSTEM.CONST>
0

>  <SCORE.SYSTEM.DIHEDRAL>
0

>  <SCORE.SYSTEM.SOLV>
0

>  <SCORE.SYSTEM.norm>
0

>  <SCORE.heavy>
22

>  <SCORE.norm>
-0.571066

>  <RMSD>
5.087

$$$$
ligand
 OpenBabel02271912143D
libRbt.so/2013.1/901 2013/11/27
 22 24  0  0  0  0  0  0  0  0999 V2000
   18.1322  -20.1287   21.6458 N   0  0  0  0  0  0  0  0  0  0  0  0
   18.2769  -19.0995   23.8029 N   0  0  0  0  0  0  0  0  0  0  0  0
   17.6677  -19.9872   22.9997 C   0  0  0  0  0  0  0  0  0  0  0  0
   16.6533  -20.7354   23.4155 N   0  0  0  0  0  0  0  0  0  0  0  0
   14.5489  -20.5087   27.7018 O   0  0  0  0  0  0  0  0  0  0  0  0
   16.2029  -20.6174   24.6782 C   0  0  0  0  0  0  0  0  0  0  0  0
   16.8161  -19.6780   25.5534 C   0  0  0  0  0  0  0  0  0  0  0  0
   15.1499  -21.4058   25.0845 O   0  0  0  0  0  0  0  0  0  0  0  0
   16.4531  -19.4584   26.9395 N   0  0  0  0  0  0  0  0  0  0  0  0
   17.5588  -19.2358   27.8801 C   0  0  2  0  0  0  0  0  0  0  0  0
   18.4644  -18.1528   27.3826 C   0  0  0  0  0  0  0  0  0  0  0  0
   17.8685  -18.9372   25.0765 C   0  0  0  0  0  0  0  0  0  0  0  0
   18.5012  -18.0037   25.9291 N   0  0  0  0  0  0  0  0  0  0  0  0
   18.4009  -20.4937   28.1597 C   0  0  0  0  0  0  0  0  0  0  0  0
   17.6718  -21.4133   29.0244 N   0  0  0  0  0  0  0  0  0  0  0  0
   19.1682  -22.4387   32.8729 C   0  0  0  0  0  0  0  0  0  0  0  0
   17.9463  -21.7977   32.7556 C   0  0  0  0  0  0  0  0  0  0  0  0
   17.4449  -21.4564   31.4846 C   0  0  0  0  0  0  0  0  0  0  0  0
   18.1768  -21.7610   30.3469 C   0  0  0  0  0  0  0  0  0  0  0  0
   19.4044  -22.4054   30.4680 C   0  0  0  0  0  0  0  0  0  0  0  0
   19.8994  -22.7453   31.7296 C   0  0  0  0  0  0  0  0  0  0  0  0
   15.1179  -19.4644   27.4314 C   0  0  0  0  0  0  0  0  0  0  0  0
  1  3  1  0  0  0  0
  2  3  2  0  0  0  0
  2 12  1  0  0  0  0
  3  4  1  0  0  0  0
  4  6  1  0  0  0  0
  5 22  1  0  0  0  0
  6  7  1  0  0  0  0
  6  8  2  0  0  0  0
  7 12  2  0  0  0  0
  7  9  1  0  0  0  0
  9 10  1  0  0  0  0
  9 22  1  0  0  0  0
 10 11  1  0  0  0  0
 10 14  1  6  0  0  0
 11 13  1  0  0  0  0
 12 13  1  0  0  0  0
 14 15  1  0  0  0  0
 15 19  1  0  0  0  0
 16 17  2  0  0  0  0
 16 21  1  0  0  0  0
 17 18  1  0  0  0  0
 18 19  2  0  0  0  0
 19 20  1  0  0  0  0
 20 21  2  0  0  0  0
M  END
>  <CHROM.1>
82.38946949,-74.17941724,-117.36050897,118.30139800,17.45035772,-20.41182929
27.26790945,-1.74184933,0.14888446,1.86713079

>  <Name>
ligand

>  <RI>
0

>  <Rbt.Current_Directory>
/home/itssahil/PROJECTS/Mol_Feturizer/Test_systems_manuscript/rnas/3sd3

>  <Rbt.Executable>
rbdock ($Id: //depot/dev/client3/rdock/2013.1/src/exe/rbdock.cxx#4 $)

>  <Rbt.Library>
libRbt.so (2013.1, Build901 2013/11/27)

>  <Rbt.Parameter_File>
/export/apps/rDock/src/rDock_2013.1_src/data/scripts/dock_solv.prm

>  <Rbt.Receptor>
prm/pocket_docking_8.prm

>  <SCORE>
-14.3451

>  <SCORE.INTER>
-14.0909

>  <SCORE.INTER.CONST>
1

>  <SCORE.INTER.POLAR>
0

>  <SCORE.INTER.ROT>
4

>  <SCORE.INTER.SOLV>
13.6675

>  <SCORE.INTER.VDW>
-20.2165

>  <SCORE.INTER.norm>
-0.640496

>  <SCORE.INTRA>
-0.254195

>  <SCORE.INTRA.DIHEDRAL>
0.926444

>  <SCORE.INTRA.DIHEDRAL.0>
2.54655

>  <SCORE.INTRA.POLAR>
0

>  <SCORE.INTRA.POLAR.0>
0

>  <SCORE.INTRA.REPUL>
0

>  <SCORE.INTRA.REPUL.0>
0

>  <SCORE.INTRA.SOLV>
0.287122

>  <SCORE.INTRA.SOLV.lig_0>
-56.4922

>  <SCORE.INTRA.VDW>
-0.860978

>  <SCORE.INTRA.VDW.0>
-0.696801

>  <SCORE.INTRA.norm>
-0.0115543

>  <SCORE.RESTR>
0

>  <SCORE.RESTR.CAVITY>
0

>  <SCORE.RESTR.norm>
0

>  <SCORE.SYSTEM>
0

>  <SCORE.SYSTEM.CONST>
0

>  <SCORE.SYSTEM.DIHEDRAL>
0

>  <SCORE.SYSTEM.SOLV>
0

>  <SCORE.SYSTEM.norm>
0

>  <SCORE.heavy>
22

>  <SCORE.norm>
-0.65205

>  <RMSD>
5.102

$$$$
ligand
 OpenBabel02271912143D
libRbt.so/2013.1/901 2013/11/27
 22 24  0  0  0  0  0  0  0  0999 V2000
   18.5635  -17.0232   21.5717 N   0  0  0  0  0  0  0  0  0  0  0  0
   17.9334  -17.4970   23.8326 N   0  0  0  0  0  0  0  0  0  0  0  0
   18.0220  -17.9171   22.5598 C   0  0  0  0  0  0  0  0  0  0  0  0
   17.6262  -19.1280   22.1870 N   0  0  0  0  0  0  0  0  0  0  0  0
   14.2445  -20.8627   25.3238 O   0  0  0  0  0  0  0  0  0  0  0  0
   17.1157  -19.9790   23.0960 C   0  0  0  0  0  0  0  0  0  0  0  0
   16.9952  -19.5633   24.4514 C   0  0  0  0  0  0  0  0  0  0  0  0
   16.7134  -21.2293   22.6832 O   0  0  0  0  0  0  0  0  0  0  0  0
   16.4867  -20.3763   25.5384 N   0  0  0  0  0  0  0  0  0  0  0  0
   17.1827  -20.2595   26.8264 C   0  0  2  0  0  0  0  0  0  0  0  0
   17.2976  -18.8243   27.2355 C   0  0  0  0  0  0  0  0  0  0  0  0
   17.4296  -18.3051   24.7857 C   0  0  0  0  0  0  0  0  0  0  0  0
   17.3296  -17.8715   26.1276 N   0  0  0  0  0  0  0  0  0  0  0  0
   18.5875  -20.8888   26.8341 C   0  0  0  0  0  0  0  0  0  0  0  0
   19.3327  -20.4578   28.0105 N   0  0  0  0  0  0  0  0  0  0  0  0
   18.4969  -22.0490   31.8667 C   0  0  0  0  0  0  0  0  0  0  0  0
   18.1551  -22.7686   30.7341 C   0  0  0  0  0  0  0  0  0  0  0  0
   18.4298  -22.2480   29.4547 C   0  0  0  0  0  0  0  0  0  0  0  0
   19.0427  -21.0106   29.3277 C   0  0  0  0  0  0  0  0  0  0  0  0
   19.3852  -20.2898   30.4679 C   0  0  0  0  0  0  0  0  0  0  0  0
   19.1138  -20.8087   31.7365 C   0  0  0  0  0  0  0  0  0  0  0  0
   15.3882  -21.2737   25.4254 C   0  0  0  0  0  0  0  0  0  0  0  0
  1  3  1  0  0  0  0
  2  3  2  0  0  0  0
  2 12  1  0  0  0  0
  3  4  1  0  0  0  0
  4  6  1  0  0  0  0
  5 22  1  0  0  0  0
  6  7  1  0  0  0  0
  6  8  2  0  0  0  0
  7 12  2  0  0  0  0
  7  9  1  0  0  0  0
  9 10  1  0  0  0  0
  9 22  1  0  0  0  0
 10 11  1  0  0  0  0
 10 14  1  6  0  0  0
 11 13  1  0  0  0  0
 12 13  1  0  0  0  0
 14 15  1  0  0  0  0
 15 19  1  0  0  0  0
 16 17  2  0  0  0  0
 16 21  1  0  0  0  0
 17 18  1  0  0  0  0
 18 19  2  0  0  0  0
 19 20  1  0  0  0  0
 20 21  2  0  0  0  0
M  END
>  <CHROM.1>
-72.24883611,166.18826784,75.41066026,23.13234121,17.61029787,-20.01000410
26.23174585,-1.80555658,0.75354177,2.07143916

>  <Name>
ligand

>  <RI>
0

>  <Rbt.Current_Directory>
/home/itssahil/PROJECTS/Mol_Feturizer/Test_systems_manuscript/rnas/3sd3

>  <Rbt.Executable>
rbdock ($Id: //depot/dev/client3/rdock/2013.1/src/exe/rbdock.cxx#4 $)

>  <Rbt.Library>
libRbt.so (2013.1, Build901 2013/11/27)

>  <Rbt.Parameter_File>
/export/apps/rDock/src/rDock_2013.1_src/data/scripts/dock_solv.prm

>  <Rbt.Receptor>
prm/pocket_docking_7.prm

>  <SCORE>
-10.2353

>  <SCORE.INTER>
-10.5075

>  <SCORE.INTER.CONST>
1

>  <SCORE.INTER.POLAR>
0

>  <SCORE.INTER.ROT>
4

>  <SCORE.INTER.SOLV>
10.1561

>  <SCORE.INTER.VDW>
-16.657

>  <SCORE.INTER.norm>
-0.477613

>  <SCORE.INTRA>
0.272211

>  <SCORE.INTRA.DIHEDRAL>
-0.0740975

>  <SCORE.INTRA.DIHEDRAL.0>
2.54655

>  <SCORE.INTRA.POLAR>
0

>  <SCORE.INTRA.POLAR.0>
0

>  <SCORE.INTRA.REPUL>
0

>  <SCORE.INTRA.REPUL.0>
0

>  <SCORE.INTRA.SOLV>
-0.322773

>  <SCORE.INTRA.SOLV.lig_0>
-56.4922

>  <SCORE.INTRA.VDW>
0.470647

>  <SCORE.INTRA.VDW.0>
-0.696801

>  <SCORE.INTRA.norm>
0.0123732

>  <SCORE.RESTR>
0

>  <SCORE.RESTR.CAVITY>
0

>  <SCORE.RESTR.norm>
0

>  <SCORE.SYSTEM>
0

>  <SCORE.SYSTEM.CONST>
0

>  <SCORE.SYSTEM.DIHEDRAL>
0

>  <SCORE.SYSTEM.SOLV>
0

>  <SCORE.SYSTEM.norm>
0

>  <SCORE.heavy>
22

>  <SCORE.norm>
-0.46524

>  <RMSD>
5.105

$$$$
ligand
 OpenBabel02271912143D
libRbt.so/2013.1/901 2013/11/27
 22 24  0  0  0  0  0  0  0  0999 V2000
   21.8233  -16.5139   28.6098 N   0  0  0  0  0  0  0  0  0  0  0  0
   20.4034  -18.3890   29.0579 N   0  0  0  0  0  0  0  0  0  0  0  0
   20.6662  -17.3106   28.3015 C   0  0  0  0  0  0  0  0  0  0  0  0
   19.8932  -16.9584   27.2816 N   0  0  0  0  0  0  0  0  0  0  0  0
   15.1791  -19.1268   27.9544 O   0  0  0  0  0  0  0  0  0  0  0  0
   18.8052  -17.6899   26.9774 C   0  0  0  0  0  0  0  0  0  0  0  0
   18.4890  -18.8318   27.7650 C   0  0  0  0  0  0  0  0  0  0  0  0
   18.0207  -17.3033   25.9140 O   0  0  0  0  0  0  0  0  0  0  0  0
   17.3669  -19.7222   27.5429 N   0  0  0  0  0  0  0  0  0  0  0  0
   17.6186  -21.1561   27.7366 C   0  0  2  0  0  0  0  0  0  0  0  0
   18.2478  -21.4054   29.0716 C   0  0  0  0  0  0  0  0  0  0  0  0
   19.3275  -19.1583   28.8013 C   0  0  0  0  0  0  0  0  0  0  0  0
   19.0407  -20.2938   29.5931 N   0  0  0  0  0  0  0  0  0  0  0  0
   18.5064  -21.7849   26.6474 C   0  0  0  0  0  0  0  0  0  0  0  0
   17.9026  -21.6076   25.3325 N   0  0  0  0  0  0  0  0  0  0  0  0
   19.9729  -22.8065   21.8143 C   0  0  0  0  0  0  0  0  0  0  0  0
   18.8893  -21.9495   21.7194 C   0  0  0  0  0  0  0  0  0  0  0  0
   18.2003  -21.5481   22.8802 C   0  0  0  0  0  0  0  0  0  0  0  0
   18.6061  -22.0131   24.1219 C   0  0  0  0  0  0  0  0  0  0  0  0
   19.6956  -22.8742   24.2141 C   0  0  0  0  0  0  0  0  0  0  0  0
   20.3795  -23.2698   23.0617 C   0  0  0  0  0  0  0  0  0  0  0  0
   16.0705  -19.2965   27.1394 C   0  0  0  0  0  0  0  0  0  0  0  0
  1  3  1  0  0  0  0
  2  3  2  0  0  0  0
  2 12  1  0  0  0  0
  3  4  1  0  0  0  0
  4  6  1  0  0  0  0
  5 22  1  0  0  0  0
  6  7  1  0  0  0  0
  6  8  2  0  0  0  0
  7 12  2  0  0  0  0
  7  9  1  0  0  0  0
  9 10  1  0  0  0  0
  9 22  1  0  0  0  0
 10 11  1  0  0  0  0
 10 14  1  6  0  0  0
 11 13  1  0  0  0  0
 12 13  1  0  0  0  0
 14 15  1  0  0  0  0
 15 19  1  0  0  0  0
 16 17  2  0  0  0  0
 16 21  1  0  0  0  0
 17 18  1  0  0  0  0
 18 19  2  0  0  0  0
 19 20  1  0  0  0  0
 20 21  2  0  0  0  0
M  END
>  <CHROM.1>
-96.93575472,-58.32262252,174.61375647,-163.53448851,18.71536641,-19.96930582
26.53682654,-1.55134097,-0.50732083,-2.24473075

>  <Name>
ligand

>  <RI>
0

>  <Rbt.Current_Directory>
/home/itssahil/PROJECTS/Mol_Feturizer/Test_systems_manuscript/rnas/3sd3

>  <Rbt.Executable>
rbdock ($Id: //depot/dev/client3/rdock/2013.1/src/exe/rbdock.cxx#4 $)

>  <Rbt.Library>
libRbt.so (2013.1, Build901 2013/11/27)

>  <Rbt.Parameter_File>
/export/apps/rDock/src/rDock_2013.1_src/data/scripts/dock_solv.prm

>  <Rbt.Receptor>
prm/pocket_docking_6.prm

>  <SCORE>
-12.5026

>  <SCORE.INTER>
-11.7494

>  <SCORE.INTER.CONST>
1

>  <SCORE.INTER.POLAR>
0

>  <SCORE.INTER.ROT>
4

>  <SCORE.INTER.SOLV>
10.2203

>  <SCORE.INTER.VDW>
-17.5064

>  <SCORE.INTER.norm>
-0.534063

>  <SCORE.INTRA>
-0.753255

>  <SCORE.INTRA.DIHEDRAL>
-0.848387

>  <SCORE.INTRA.DIHEDRAL.0>
2.54655

>  <SCORE.INTRA.POLAR>
0

>  <SCORE.INTRA.POLAR.0>
0

>  <SCORE.INTRA.REPUL>
0

>  <SCORE.INTRA.REPUL.0>
0

>  <SCORE.INTRA.SOLV>
-0.248958

>  <SCORE.INTRA.SOLV.lig_0>
-56.4922

>  <SCORE.INTRA.VDW>
-0.204583

>  <SCORE.INTRA.VDW.0>
-0.696801

>  <SCORE.INTRA.norm>
-0.0342389

>  <SCORE.RESTR>
0

>  <SCORE.RESTR.CAVITY>
0

>  <SCORE.RESTR.norm>
0

>  <SCORE.SYSTEM>
0

>  <SCORE.SYSTEM.CONST>
0

>  <SCORE.SYSTEM.DIHEDRAL>
0

>  <SCORE.SYSTEM.SOLV>
0

>  <SCORE.SYSTEM.norm>
0

>  <SCORE.heavy>
22

>  <SCORE.norm>
-0.568302

>  <RMSD>
5.132

$$$$
ligand
 OpenBabel02271912143D
libRbt.so/2013.1/901 2013/11/27
 22 24  0  0  0  0  0  0  0  0999 V2000
   17.7689  -19.6128   21.7060 N   0  0  0  0  0  0  0  0  0  0  0  0
   17.8174  -18.9173   23.9966 N   0  0  0  0  0  0  0  0  0  0  0  0
   17.3243  -19.7519   23.0668 C   0  0  0  0  0  0  0  0  0  0  0  0
   16.4420  -20.6979   23.3640 N   0  0  0  0  0  0  0  0  0  0  0  0
   13.8643  -19.7249   27.0900 O   0  0  0  0  0  0  0  0  0  0  0  0
   16.0125  -20.8438   24.6311 C   0  0  0  0  0  0  0  0  0  0  0  0
   16.5039  -19.9692   25.6401 C   0  0  0  0  0  0  0  0  0  0  0  0
   15.0977  -21.8335   24.9128 O   0  0  0  0  0  0  0  0  0  0  0  0
   16.1490  -20.0219   27.0445 N   0  0  0  0  0  0  0  0  0  0  0  0
   17.2344  -19.7840   28.0050 C   0  0  2  0  0  0  0  0  0  0  0  0
   17.9578  -18.5147   27.6795 C   0  0  0  0  0  0  0  0  0  0  0  0
   17.4231  -19.0154   25.2812 C   0  0  0  0  0  0  0  0  0  0  0  0
   17.9341  -18.1402   26.2669 N   0  0  0  0  0  0  0  0  0  0  0  0
   18.2591  -20.9301   28.0825 C   0  0  0  0  0  0  0  0  0  0  0  0
   17.9610  -21.8050   29.2098 N   0  0  0  0  0  0  0  0  0  0  0  0
   18.9855  -20.7094   33.1911 C   0  0  0  0  0  0  0  0  0  0  0  0
   19.8296  -20.3772   32.1448 C   0  0  0  0  0  0  0  0  0  0  0  0
   19.4958  -20.7361   30.8245 C   0  0  0  0  0  0  0  0  0  0  0  0
   18.3199  -21.4256   30.5707 C   0  0  0  0  0  0  0  0  0  0  0  0
   17.4735  -21.7580   31.6243 C   0  0  0  0  0  0  0  0  0  0  0  0
   17.8051  -21.3993   32.9334 C   0  0  0  0  0  0  0  0  0  0  0  0
   14.8426  -20.3025   27.5336 C   0  0  0  0  0  0  0  0  0  0  0  0
  1  3  1  0  0  0  0
  2  3  2  0  0  0  0
  2 12  1  0  0  0  0
  3  4  1  0  0  0  0
  4  6  1  0  0  0  0
  5 22  1  0  0  0  0
  6  7  1  0  0  0  0
  6  8  2  0  0  0  0
  7 12  2  0  0  0  0
  7  9  1  0  0  0  0
  9 10  1  0  0  0  0
  9 22  1  0  0  0  0
 10 11  1  0  0  0  0
 10 14  1  6  0  0  0
 11 13  1  0  0  0  0
 12 13  1  0  0  0  0
 14 15  1  0  0  0  0
 15 19  1  0  0  0  0
 16 17  2  0  0  0  0
 16 21  1  0  0  0  0
 17 18  1  0  0  0  0
 18 19  2  0  0  0  0
 19 20  1  0  0  0  0
 20 21  2  0  0  0  0
M  END
>  <CHROM.1>
-48.68407367,-97.78039403,-78.28246194,-36.52033713,17.21452437,-20.27193457
27.36599751,-1.81540568,0.34218806,1.79363826

>  <Name>
ligand

>  <RI>
0

>  <Rbt.Current_Directory>
/home/itssahil/PROJECTS/Mol_Feturizer/Test_systems_manuscript/rnas/3sd3

>  <Rbt.Executable>
rbdock ($Id: //depot/dev/client3/rdock/2013.1/src/exe/rbdock.cxx#4 $)

>  <Rbt.Library>
libRbt.so (2013.1, Build901 2013/11/27)

>  <Rbt.Parameter_File>
/export/apps/rDock/src/rDock_2013.1_src/data/scripts/dock_solv.prm

>  <Rbt.Receptor>
prm/pocket_docking_8.prm

>  <SCORE>
-14.5506

>  <SCORE.INTER>
-15.0904

>  <SCORE.INTER.CONST>
1

>  <SCORE.INTER.POLAR>
0

>  <SCORE.INTER.ROT>
4

>  <SCORE.INTER.SOLV>
16.7908

>  <SCORE.INTER.VDW>
-21.9239

>  <SCORE.INTER.norm>
-0.685929

>  <SCORE.INTRA>
0.539879

>  <SCORE.INTRA.DIHEDRAL>
2.9424

>  <SCORE.INTRA.DIHEDRAL.0>
2.54655

>  <SCORE.INTRA.POLAR>
0

>  <SCORE.INTRA.POLAR.0>
0

>  <SCORE.INTRA.REPUL>
0

>  <SCORE.INTRA.REPUL.0>
0

>  <SCORE.INTRA.SOLV>
-0.576087

>  <SCORE.INTRA.SOLV.lig_0>
-56.4922

>  <SCORE.INTRA.VDW>
-0.643275

>  <SCORE.INTRA.VDW.0>
-0.696801

>  <SCORE.INTRA.norm>
0.02454

>  <SCORE.RESTR>
0

>  <SCORE.RESTR.CAVITY>
0

>  <SCORE.RESTR.norm>
0

>  <SCORE.SYSTEM>
0

>  <SCORE.SYSTEM.CONST>
0

>  <SCORE.SYSTEM.DIHEDRAL>
0

>  <SCORE.SYSTEM.SOLV>
0

>  <SCORE.SYSTEM.norm>
0

>  <SCORE.heavy>
22

>  <SCORE.norm>
-0.661389

>  <RMSD>
5.225

$$$$
ligand
 OpenBabel02271912143D
libRbt.so/2013.1/901 2013/11/27
 22 24  0  0  0  0  0  0  0  0999 V2000
   18.1272  -19.9607   21.7878 N   0  0  0  0  0  0  0  0  0  0  0  0
   18.1857  -19.3319   24.0974 N   0  0  0  0  0  0  0  0  0  0  0  0
   17.5777  -20.0182   23.1158 C   0  0  0  0  0  0  0  0  0  0  0  0
   16.4888  -20.7455   23.3328 N   0  0  0  0  0  0  0  0  0  0  0  0
   14.1122  -21.0992   27.4892 O   0  0  0  0  0  0  0  0  0  0  0  0
   15.9584  -20.8115   24.5679 C   0  0  0  0  0  0  0  0  0  0  0  0
   16.5687  -20.0871   25.6296 C   0  0  0  0  0  0  0  0  0  0  0  0
   14.8290  -21.5736   24.7661 O   0  0  0  0  0  0  0  0  0  0  0  0
   16.1231  -20.0814   27.0089 N   0  0  0  0  0  0  0  0  0  0  0  0
   17.1713  -20.1105   28.0373 C   0  0  2  0  0  0  0  0  0  0  0  0
   18.1800  -19.0320   27.7927 C   0  0  0  0  0  0  0  0  0  0  0  0
   17.6992  -19.3596   25.3535 C   0  0  0  0  0  0  0  0  0  0  0  0
   18.3301  -18.6386   26.3931 N   0  0  0  0  0  0  0  0  0  0  0  0
   17.9059  -21.4594   28.1392 C   0  0  0  0  0  0  0  0  0  0  0  0
   18.9699  -21.3865   29.1330 N   0  0  0  0  0  0  0  0  0  0  0  0
   18.2641  -22.5429   33.1661 C   0  0  0  0  0  0  0  0  0  0  0  0
   19.3948  -22.9943   32.5063 C   0  0  0  0  0  0  0  0  0  0  0  0
   19.6348  -22.6145   31.1716 C   0  0  0  0  0  0  0  0  0  0  0  0
   18.7361  -21.7876   30.5148 C   0  0  0  0  0  0  0  0  0  0  0  0
   17.6007  -21.3354   31.1806 C   0  0  0  0  0  0  0  0  0  0  0  0
   17.3651  -21.7114   32.5055 C   0  0  0  0  0  0  0  0  0  0  0  0
   14.7588  -20.0679   27.4129 C   0  0  0  0  0  0  0  0  0  0  0  0
  1  3  1  0  0  0  0
  2  3  2  0  0  0  0
  2 12  1  0  0  0  0
  3  4  1  0  0  0  0
  4  6  1  0  0  0  0
  5 22  1  0  0  0  0
  6  7  1  0  0  0  0
  6  8  2  0  0  0  0
  7 12  2  0  0  0  0
  7  9  1  0  0  0  0
  9 10  1  0  0  0  0
  9 22  1  0  0  0  0
 10 11  1  0  0  0  0
 10 14  1  6  0  0  0
 11 13  1  0  0  0  0
 12 13  1  0  0  0  0
 14 15  1  0  0  0  0
 15 19  1  0  0  0  0
 16 17  2  0  0  0  0
 16 21  1  0  0  0  0
 17 18  1  0  0  0  0
 18 19  2  0  0  0  0
 19 20  1  0  0  0  0
 20 21  2  0  0  0  0
M  END
>  <CHROM.1>
84.02181616,177.23458972,93.36882254,133.07745175,17.28833495,-20.73259489
27.38354077,-1.76659486,0.13513583,1.84526555

>  <Name>
ligand

>  <RI>
0

>  <Rbt.Current_Directory>
/home/itssahil/PROJECTS/Mol_Feturizer/Test_systems_manuscript/rnas/3sd3

>  <Rbt.Executable>
rbdock ($Id: //depot/dev/client3/rdock/2013.1/src/exe/rbdock.cxx#4 $)

>  <Rbt.Library>
libRbt.so (2013.1, Build901 2013/11/27)

>  <Rbt.Parameter_File>
/export/apps/rDock/src/rDock_2013.1_src/data/scripts/dock_solv.prm

>  <Rbt.Receptor>
prm/pocket_docking_7.prm

>  <SCORE>
-16.7096

>  <SCORE.INTER>
-16.3216

>  <SCORE.INTER.CONST>
1

>  <SCORE.INTER.POLAR>
0

>  <SCORE.INTER.ROT>
4

>  <SCORE.INTER.SOLV>
12.6876

>  <SCORE.INTER.VDW>
-21.377

>  <SCORE.INTER.norm>
-0.741892

>  <SCORE.INTRA>
-0.389054

>  <SCORE.INTRA.DIHEDRAL>
-0.209295

>  <SCORE.INTRA.DIHEDRAL.0>
2.54655

>  <SCORE.INTRA.POLAR>
0

>  <SCORE.INTRA.POLAR.0>
0

>  <SCORE.INTRA.REPUL>
0

>  <SCORE.INTRA.REPUL.0>
0

>  <SCORE.INTRA.SOLV>
-0.249481

>  <SCORE.INTRA.SOLV.lig_0>
-56.4922

>  <SCORE.INTRA.VDW>
-0.159666

>  <SCORE.INTRA.VDW.0>
-0.696801

>  <SCORE.INTRA.norm>
-0.0176843

>  <SCORE.RESTR>
0.00102795

>  <SCORE.RESTR.CAVITY>
0.00102795

>  <SCORE.RESTR.norm>
4.67252e-05

>  <SCORE.SYSTEM>
0

>  <SCORE.SYSTEM.CONST>
0

>  <SCORE.SYSTEM.DIHEDRAL>
0

>  <SCORE.SYSTEM.SOLV>
0

>  <SCORE.SYSTEM.norm>
0

>  <SCORE.heavy>
22

>  <SCORE.norm>
-0.759529

>  <RMSD>
5.256

$$$$
ligand
 OpenBabel02271912143D
libRbt.so/2013.1/901 2013/11/27
 22 24  0  0  0  0  0  0  0  0999 V2000
   18.4426  -20.2091   22.5570 N   0  0  0  0  0  0  0  0  0  0  0  0
   18.3035  -21.4352   24.6089 N   0  0  0  0  0  0  0  0  0  0  0  0
   18.9089  -20.4746   23.8915 C   0  0  0  0  0  0  0  0  0  0  0  0
   19.9214  -19.7650   24.3744 N   0  0  0  0  0  0  0  0  0  0  0  0
   22.2599  -22.2366   27.8603 O   0  0  0  0  0  0  0  0  0  0  0  0
   20.3734  -19.9986   25.6203 C   0  0  0  0  0  0  0  0  0  0  0  0
   19.7642  -21.0175   26.4047 C   0  0  0  0  0  0  0  0  0  0  0  0
   21.4243  -19.2479   26.0975 O   0  0  0  0  0  0  0  0  0  0  0  0
   20.1293  -21.3639   27.7640 N   0  0  0  0  0  0  0  0  0  0  0  0
   19.0253  -21.6769   28.6806 C   0  0  2  0  0  0  0  0  0  0  0  0
   18.1227  -22.7118   28.0850 C   0  0  0  0  0  0  0  0  0  0  0  0
   18.7137  -21.7141   25.8616 C   0  0  0  0  0  0  0  0  0  0  0  0
   18.0849  -22.7250   26.6240 N   0  0  0  0  0  0  0  0  0  0  0  0
   18.1795  -20.4532   29.0768 C   0  0  0  0  0  0  0  0  0  0  0  0
   17.4241  -19.9631   27.9303 N   0  0  0  0  0  0  0  0  0  0  0  0
   18.7534  -16.6133   25.6692 C   0  0  0  0  0  0  0  0  0  0  0  0
   19.3849  -16.9381   26.8580 C   0  0  0  0  0  0  0  0  0  0  0  0
   18.9504  -18.0463   27.6108 C   0  0  0  0  0  0  0  0  0  0  0  0
   17.8862  -18.8137   27.1620 C   0  0  0  0  0  0  0  0  0  0  0  0
   17.2537  -18.4848   25.9667 C   0  0  0  0  0  0  0  0  0  0  0  0
   17.6874  -17.3864   25.2200 C   0  0  0  0  0  0  0  0  0  0  0  0
   21.4650  -21.3993   28.2533 C   0  0  0  0  0  0  0  0  0  0  0  0
  1  3  1  0  0  0  0
  2  3  2  0  0  0  0
  2 12  1  0  0  0  0
  3  4  1  0  0  0  0
  4  6  1  0  0  0  0
  5 22  1  0  0  0  0
  6  7  1  0  0  0  0
  6  8  2  0  0  0  0
  7 12  2  0  0  0  0
  7  9  1  0  0  0  0
  9 10  1  0  0  0  0
  9 22  1  0  0  0  0
 10 11  1  0  0  0  0
 10 14  1  6  0  0  0
 11 13  1  0  0  0  0
 12 13  1  0  0  0  0
 14 15  1  0  0  0  0
 15 19  1  0  0  0  0
 16 17  2  0  0  0  0
 16 21  1  0  0  0  0
 17 18  1  0  0  0  0
 18 19  2  0  0  0  0
 19 20  1  0  0  0  0
 20 21  2  0  0  0  0
M  END
>  <CHROM.1>
-67.80471108,68.47922420,-99.80440172,-9.04798016,19.17303963,-20.20544634
26.49243366,-2.71830811,-1.23731915,1.34459033

>  <Name>
ligand

>  <RI>
0

>  <Rbt.Current_Directory>
/home/itssahil/PROJECTS/Mol_Feturizer/Test_systems_manuscript/rnas/3sd3

>  <Rbt.Executable>
rbdock ($Id: //depot/dev/client3/rdock/2013.1/src/exe/rbdock.cxx#4 $)

>  <Rbt.Library>
libRbt.so (2013.1, Build901 2013/11/27)

>  <Rbt.Parameter_File>
/export/apps/rDock/src/rDock_2013.1_src/data/scripts/dock_solv.prm

>  <Rbt.Receptor>
prm/pocket_docking_4.prm

>  <SCORE>
-6.47642

>  <SCORE.INTER>
-4.31509

>  <SCORE.INTER.CONST>
1

>  <SCORE.INTER.POLAR>
0

>  <SCORE.INTER.ROT>
4

>  <SCORE.INTER.SOLV>
9.02905

>  <SCORE.INTER.VDW>
-12.1531

>  <SCORE.INTER.norm>
-0.19614

>  <SCORE.INTRA>
-2.16133

>  <SCORE.INTRA.DIHEDRAL>
0.257022

>  <SCORE.INTRA.DIHEDRAL.0>
2.54655

>  <SCORE.INTRA.POLAR>
0

>  <SCORE.INTRA.POLAR.0>
0

>  <SCORE.INTRA.REPUL>
0

>  <SCORE.INTRA.REPUL.0>
0

>  <SCORE.INTRA.SOLV>
2.12714

>  <SCORE.INTRA.SOLV.lig_0>
-56.4922

>  <SCORE.INTRA.VDW>
-3.35341

>  <SCORE.INTRA.VDW.0>
-0.696801

>  <SCORE.INTRA.norm>
-0.0982422

>  <SCORE.RESTR>
0

>  <SCORE.RESTR.CAVITY>
0

>  <SCORE.RESTR.norm>
0

>  <SCORE.SYSTEM>
0

>  <SCORE.SYSTEM.CONST>
0

>  <SCORE.SYSTEM.DIHEDRAL>
0

>  <SCORE.SYSTEM.SOLV>
0

>  <SCORE.SYSTEM.norm>
0

>  <SCORE.heavy>
22

>  <SCORE.norm>
-0.294383

>  <RMSD>
5.260

$$$$
ligand
 OpenBabel02271912143D
libRbt.so/2013.1/901 2013/11/27
 22 24  0  0  0  0  0  0  0  0999 V2000
   18.1176  -20.0788   21.8303 N   0  0  0  0  0  0  0  0  0  0  0  0
   18.2090  -19.3955   24.1233 N   0  0  0  0  0  0  0  0  0  0  0  0
   17.5774  -20.0910   23.1633 C   0  0  0  0  0  0  0  0  0  0  0  0
   16.4735  -20.7869   23.4060 N   0  0  0  0  0  0  0  0  0  0  0  0
   14.1255  -20.9842   27.5979 O   0  0  0  0  0  0  0  0  0  0  0  0
   15.9515  -20.8103   24.6462 C   0  0  0  0  0  0  0  0  0  0  0  0
   16.5869  -20.0749   25.6854 C   0  0  0  0  0  0  0  0  0  0  0  0
   14.8062  -21.5406   24.8714 O   0  0  0  0  0  0  0  0  0  0  0  0
   16.1526  -20.0251   27.0674 N   0  0  0  0  0  0  0  0  0  0  0  0
   17.2078  -20.0539   28.0884 C   0  0  2  0  0  0  0  0  0  0  0  0
   18.2395  -19.0057   27.8101 C   0  0  0  0  0  0  0  0  0  0  0  0
   17.7320  -19.3812   25.3832 C   0  0  0  0  0  0  0  0  0  0  0  0
   18.3877  -18.6502   26.4002 N   0  0  0  0  0  0  0  0  0  0  0  0
   17.9115  -21.4169   28.2180 C   0  0  0  0  0  0  0  0  0  0  0  0
   19.0191  -21.3309   29.1619 N   0  0  0  0  0  0  0  0  0  0  0  0
   18.3499  -21.3886   33.3631 C   0  0  0  0  0  0  0  0  0  0  0  0
   17.7280  -22.3230   32.5521 C   0  0  0  0  0  0  0  0  0  0  0  0
   17.9460  -22.3100   31.1608 C   0  0  0  0  0  0  0  0  0  0  0  0
   18.7842  -21.3581   30.6003 C   0  0  0  0  0  0  0  0  0  0  0  0
   19.4079  -20.4204   31.4179 C   0  0  0  0  0  0  0  0  0  0  0  0
   19.1922  -20.4361   32.7983 C   0  0  0  0  0  0  0  0  0  0  0  0
   14.7922  -19.9697   27.4809 C   0  0  0  0  0  0  0  0  0  0  0  0
  1  3  1  0  0  0  0
  2  3  2  0  0  0  0
  2 12  1  0  0  0  0
  3  4  1  0  0  0  0
  4  6  1  0  0  0  0
  5 22  1  0  0  0  0
  6  7  1  0  0  0  0
  6  8  2  0  0  0  0
  7 12  2  0  0  0  0
  7  9  1  0  0  0  0
  9 10  1  0  0  0  0
  9 22  1  0  0  0  0
 10 11  1  0  0  0  0
 10 14  1  6  0  0  0
 11 13  1  0  0  0  0
 12 13  1  0  0  0  0
 14 15  1  0  0  0  0
 15 19  1  0  0  0  0
 16 17  2  0  0  0  0
 16 21  1  0  0  0  0
 17 18  1  0  0  0  0
 18 19  2  0  0  0  0
 19 20  1  0  0  0  0
 20 21  2  0  0  0  0
M  END
>  <CHROM.1>
84.63931797,174.94729224,78.92121764,47.28736914,17.31950658,-20.52724425
27.46050661,-1.78303901,0.29979812,1.77118526

>  <Name>
ligand

>  <RI>
0

>  <Rbt.Current_Directory>
/home/itssahil/PROJECTS/Mol_Feturizer/Test_systems_manuscript/rnas/3sd3

>  <Rbt.Executable>
rbdock ($Id: //depot/dev/client3/rdock/2013.1/src/exe/rbdock.cxx#4 $)

>  <Rbt.Library>
libRbt.so (2013.1, Build901 2013/11/27)

>  <Rbt.Parameter_File>
/export/apps/rDock/src/rDock_2013.1_src/data/scripts/dock_solv.prm

>  <Rbt.Receptor>
prm/pocket_docking_7.prm

>  <SCORE>
-16.7458

>  <SCORE.INTER>
-16.2077

>  <SCORE.INTER.CONST>
1

>  <SCORE.INTER.POLAR>
0

>  <SCORE.INTER.ROT>
4

>  <SCORE.INTER.SOLV>
12.5022

>  <SCORE.INTER.VDW>
-21.2392

>  <SCORE.INTER.norm>
-0.736713

>  <SCORE.INTRA>
-0.538091

>  <SCORE.INTRA.DIHEDRAL>
-0.583091

>  <SCORE.INTRA.DIHEDRAL.0>
2.54655

>  <SCORE.INTRA.POLAR>
0

>  <SCORE.INTRA.POLAR.0>
0

>  <SCORE.INTRA.REPUL>
0

>  <SCORE.INTRA.REPUL.0>
0

>  <SCORE.INTRA.SOLV>
-0.209442

>  <SCORE.INTRA.SOLV.lig_0>
-56.4922

>  <SCORE.INTRA.VDW>
-0.141824

>  <SCORE.INTRA.VDW.0>
-0.696801

>  <SCORE.INTRA.norm>
-0.0244587

>  <SCORE.RESTR>
0

>  <SCORE.RESTR.CAVITY>
0

>  <SCORE.RESTR.norm>
0

>  <SCORE.SYSTEM>
0

>  <SCORE.SYSTEM.CONST>
0

>  <SCORE.SYSTEM.DIHEDRAL>
0

>  <SCORE.SYSTEM.SOLV>
0

>  <SCORE.SYSTEM.norm>
0

>  <SCORE.heavy>
22

>  <SCORE.norm>
-0.761172

>  <RMSD>
5.266

$$$$
ligand
 OpenBabel02271912143D
libRbt.so/2013.1/901 2013/11/27
 22 24  0  0  0  0  0  0  0  0999 V2000
   18.1755  -20.0460   21.9764 N   0  0  0  0  0  0  0  0  0  0  0  0
   17.9822  -19.3007   24.2435 N   0  0  0  0  0  0  0  0  0  0  0  0
   17.5472  -20.1155   23.2683 C   0  0  0  0  0  0  0  0  0  0  0  0
   16.5584  -20.9801   23.4595 N   0  0  0  0  0  0  0  0  0  0  0  0
   13.6087  -20.2910   26.5116 O   0  0  0  0  0  0  0  0  0  0  0  0
   15.9567  -21.0599   24.6607 C   0  0  0  0  0  0  0  0  0  0  0  0
   16.3830  -20.2031   25.7136 C   0  0  0  0  0  0  0  0  0  0  0  0
   14.9342  -21.9657   24.8327 O   0  0  0  0  0  0  0  0  0  0  0  0
   15.8449  -20.1927   27.0595 N   0  0  0  0  0  0  0  0  0  0  0  0
   16.8116  -20.0193   28.1514 C   0  0  2  0  0  0  0  0  0  0  0  0
   17.6739  -18.8205   27.9069 C   0  0  0  0  0  0  0  0  0  0  0  0
   17.4170  -19.3353   25.4661 C   0  0  0  0  0  0  0  0  0  0  0  0
   17.8657  -18.4801   26.4985 N   0  0  0  0  0  0  0  0  0  0  0  0
   17.7190  -21.2417   28.3793 C   0  0  0  0  0  0  0  0  0  0  0  0
   18.6850  -20.9694   29.4365 N   0  0  0  0  0  0  0  0  0  0  0  0
   18.3776  -22.8870   33.2219 C   0  0  0  0  0  0  0  0  0  0  0  0
   19.4453  -23.1731   32.3879 C   0  0  0  0  0  0  0  0  0  0  0  0
   19.5535  -22.5410   31.1340 C   0  0  0  0  0  0  0  0  0  0  0  0
   18.5877  -21.6310   30.7318 C   0  0  0  0  0  0  0  0  0  0  0  0
   17.5158  -21.3454   31.5723 C   0  0  0  0  0  0  0  0  0  0  0  0
   17.4111  -21.9718   32.8169 C   0  0  0  0  0  0  0  0  0  0  0  0
   14.4671  -20.3554   27.3756 C   0  0  0  0  0  0  0  0  0  0  0  0
  1  3  1  0  0  0  0
  2  3  2  0  0  0  0
  2 12  1  0  0  0  0
  3  4  1  0  0  0  0
  4  6  1  0  0  0  0
  5 22  1  0  0  0  0
  6  7  1  0  0  0  0
  6  8  2  0  0  0  0
  7 12  2  0  0  0  0
  7  9  1  0  0  0  0
  9 10  1  0  0  0  0
  9 22  1  0  0  0  0
 10 11  1  0  0  0  0
 10 14  1  6  0  0  0
 11 13  1  0  0  0  0
 12 13  1  0  0  0  0
 14 15  1  0  0  0  0
 15 19  1  0  0  0  0
 16 17  2  0  0  0  0
 16 21  1  0  0  0  0
 17 18  1  0  0  0  0
 18 19  2  0  0  0  0
 19 20  1  0  0  0  0
 20 21  2  0  0  0  0
M  END
>  <CHROM.1>
-12.59994951,177.52719614,109.83447709,112.89583585,17.12448393,-20.73165518
27.45018644,-1.79429187,0.07345835,1.83265953

>  <Name>
ligand

>  <RI>
0

>  <Rbt.Current_Directory>
/home/itssahil/PROJECTS/Mol_Feturizer/Test_systems_manuscript/rnas/3sd3

>  <Rbt.Executable>
rbdock ($Id: //depot/dev/client3/rdock/2013.1/src/exe/rbdock.cxx#4 $)

>  <Rbt.Library>
libRbt.so (2013.1, Build901 2013/11/27)

>  <Rbt.Parameter_File>
/export/apps/rDock/src/rDock_2013.1_src/data/scripts/dock_solv.prm

>  <Rbt.Receptor>
prm/pocket_docking_8.prm

>  <SCORE>
-17.0618

>  <SCORE.INTER>
-16.9635

>  <SCORE.INTER.CONST>
1

>  <SCORE.INTER.POLAR>
0

>  <SCORE.INTER.ROT>
4

>  <SCORE.INTER.SOLV>
14.0481

>  <SCORE.INTER.VDW>
-22.2584

>  <SCORE.INTER.norm>
-0.771069

>  <SCORE.INTRA>
-0.0983363

>  <SCORE.INTRA.DIHEDRAL>
0.208067

>  <SCORE.INTRA.DIHEDRAL.0>
2.54655

>  <SCORE.INTRA.POLAR>
0

>  <SCORE.INTRA.POLAR.0>
0

>  <SCORE.INTRA.REPUL>
0

>  <SCORE.INTRA.REPUL.0>
0

>  <SCORE.INTRA.SOLV>
-0.300463

>  <SCORE.INTRA.SOLV.lig_0>
-56.4922

>  <SCORE.INTRA.VDW>
-0.0521387

>  <SCORE.INTRA.VDW.0>
-0.696801

>  <SCORE.INTRA.norm>
-0.00446983

>  <SCORE.RESTR>
0

>  <SCORE.RESTR.CAVITY>
0

>  <SCORE.RESTR.norm>
0

>  <SCORE.SYSTEM>
0

>  <SCORE.SYSTEM.CONST>
0

>  <SCORE.SYSTEM.DIHEDRAL>
0

>  <SCORE.SYSTEM.SOLV>
0

>  <SCORE.SYSTEM.norm>
0

>  <SCORE.heavy>
22

>  <SCORE.norm>
-0.775538

>  <RMSD>
5.316

$$$$
ligand
 OpenBabel02271912143D
libRbt.so/2013.1/901 2013/11/27
 22 24  0  0  0  0  0  0  0  0999 V2000
   18.2287  -20.2622   21.9231 N   0  0  0  0  0  0  0  0  0  0  0  0
   18.0800  -19.4167   24.1583 N   0  0  0  0  0  0  0  0  0  0  0  0
   17.5969  -20.2422   23.2151 C   0  0  0  0  0  0  0  0  0  0  0  0
   16.5577  -21.0372   23.4379 N   0  0  0  0  0  0  0  0  0  0  0  0
   13.9591  -21.1996   27.5382 O   0  0  0  0  0  0  0  0  0  0  0  0
   15.9519  -21.0327   24.6396 C   0  0  0  0  0  0  0  0  0  0  0  0
   16.4288  -20.1618   25.6587 C   0  0  0  0  0  0  0  0  0  0  0  0
   14.8766  -21.8676   24.8448 O   0  0  0  0  0  0  0  0  0  0  0  0
   15.8918  -20.0652   27.0017 N   0  0  0  0  0  0  0  0  0  0  0  0
   16.8669  -19.9069   28.0885 C   0  0  2  0  0  0  0  0  0  0  0  0
   17.8000  -18.7730   27.7987 C   0  0  0  0  0  0  0  0  0  0  0  0
   17.5133  -19.3684   25.3797 C   0  0  0  0  0  0  0  0  0  0  0  0
   18.0125  -18.5012   26.3784 N   0  0  0  0  0  0  0  0  0  0  0  0
   17.6988  -21.1717   28.3673 C   0  0  0  0  0  0  0  0  0  0  0  0
   18.6709  -20.9197   29.4240 N   0  0  0  0  0  0  0  0  0  0  0  0
   18.3759  -22.8992   33.1785 C   0  0  0  0  0  0  0  0  0  0  0  0
   19.4620  -23.1408   32.3541 C   0  0  0  0  0  0  0  0  0  0  0  0
   19.5662  -22.4881   31.1105 C   0  0  0  0  0  0  0  0  0  0  0  0
   18.5780  -21.6022   30.7087 C   0  0  0  0  0  0  0  0  0  0  0  0
   17.4877  -21.3613   31.5394 C   0  0  0  0  0  0  0  0  0  0  0  0
   17.3870  -22.0080   32.7738 C   0  0  0  0  0  0  0  0  0  0  0  0
   14.5066  -20.1319   27.3203 C   0  0  0  0  0  0  0  0  0  0  0  0
  1  3  1  0  0  0  0
  2  3  2  0  0  0  0
  2 12  1  0  0  0  0
  3  4  1  0  0  0  0
  4  6  1  0  0  0  0
  5 22  1  0  0  0  0
  6  7  1  0  0  0  0
  6  8  2  0  0  0  0
  7 12  2  0  0  0  0
  7  9  1  0  0  0  0
  9 10  1  0  0  0  0
  9 22  1  0  0  0  0
 10 11  1  0  0  0  0
 10 14  1  6  0  0  0
 11 13  1  0  0  0  0
 12 13  1  0  0  0  0
 14 15  1  0  0  0  0
 15 19  1  0  0  0  0
 16 17  2  0  0  0  0
 16 21  1  0  0  0  0
 17 18  1  0  0  0  0
 18 19  2  0  0  0  0
 19 20  1  0  0  0  0
 20 21  2  0  0  0  0
M  END
>  <CHROM.1>
88.44424239,178.04736551,114.24787840,115.06225268,17.17221209,-20.76766233
27.46199439,-1.76506139,0.14668748,1.83421616

>  <Name>
ligand

>  <RI>
0

>  <Rbt.Current_Directory>
/home/itssahil/PROJECTS/Mol_Feturizer/Test_systems_manuscript/rnas/3sd3

>  <Rbt.Executable>
rbdock ($Id: //depot/dev/client3/rdock/2013.1/src/exe/rbdock.cxx#4 $)

>  <Rbt.Library>
libRbt.so (2013.1, Build901 2013/11/27)

>  <Rbt.Parameter_File>
/export/apps/rDock/src/rDock_2013.1_src/data/scripts/dock_solv.prm

>  <Rbt.Receptor>
prm/pocket_docking_8.prm

>  <SCORE>
-17.38

>  <SCORE.INTER>
-17.1247

>  <SCORE.INTER.CONST>
1

>  <SCORE.INTER.POLAR>
0

>  <SCORE.INTER.ROT>
4

>  <SCORE.INTER.SOLV>
13.704

>  <SCORE.INTER.VDW>
-22.2511

>  <SCORE.INTER.norm>
-0.778394

>  <SCORE.INTRA>
-0.255285

>  <SCORE.INTRA.DIHEDRAL>
0.245075

>  <SCORE.INTRA.DIHEDRAL.0>
2.54655

>  <SCORE.INTRA.POLAR>
0

>  <SCORE.INTRA.POLAR.0>
0

>  <SCORE.INTRA.REPUL>
0

>  <SCORE.INTRA.REPUL.0>
0

>  <SCORE.INTRA.SOLV>
-0.287538

>  <SCORE.INTRA.SOLV.lig_0>
-56.4922

>  <SCORE.INTRA.VDW>
-0.234053

>  <SCORE.INTRA.VDW.0>
-0.696801

>  <SCORE.INTRA.norm>
-0.0116038

>  <SCORE.RESTR>
0

>  <SCORE.RESTR.CAVITY>
0

>  <SCORE.RESTR.norm>
0

>  <SCORE.SYSTEM>
0

>  <SCORE.SYSTEM.CONST>
0

>  <SCORE.SYSTEM.DIHEDRAL>
0

>  <SCORE.SYSTEM.SOLV>
0

>  <SCORE.SYSTEM.norm>
0

>  <SCORE.heavy>
22

>  <SCORE.norm>
-0.789998

>  <RMSD>
5.320

$$$$
ligand
 OpenBabel02271912143D
libRbt.so/2013.1/901 2013/11/27
 22 24  0  0  0  0  0  0  0  0999 V2000
   21.6213  -19.2941   22.7784 N   0  0  0  0  0  0  0  0  0  0  0  0
   21.4325  -20.0901   25.0287 N   0  0  0  0  0  0  0  0  0  0  0  0
   20.8583  -19.4695   23.9850 C   0  0  0  0  0  0  0  0  0  0  0  0
   19.6124  -19.0143   24.0327 N   0  0  0  0  0  0  0  0  0  0  0  0
   18.2192  -18.0069   28.4132 O   0  0  0  0  0  0  0  0  0  0  0  0
   18.8820  -19.1674   25.1527 C   0  0  0  0  0  0  0  0  0  0  0  0
   19.4622  -19.8089   26.2824 C   0  0  0  0  0  0  0  0  0  0  0  0
   17.5920  -18.6869   25.1755 O   0  0  0  0  0  0  0  0  0  0  0  0
   18.7916  -20.0622   27.5422 N   0  0  0  0  0  0  0  0  0  0  0  0
   19.0634  -21.3559   28.1820 C   0  0  2  0  0  0  0  0  0  0  0  0
   20.5376  -21.5860   28.3009 C   0  0  0  0  0  0  0  0  0  0  0  0
   20.7502  -20.2709   26.1763 C   0  0  0  0  0  0  0  0  0  0  0  0
   21.3464  -20.9204   27.2815 N   0  0  0  0  0  0  0  0  0  0  0  0
   18.4340  -22.5559   27.4515 C   0  0  0  0  0  0  0  0  0  0  0  0
   18.9283  -22.6356   26.0824 N   0  0  0  0  0  0  0  0  0  0  0  0
   16.7684  -20.9195   22.8434 C   0  0  0  0  0  0  0  0  0  0  0  0
   16.1704  -21.0367   24.0869 C   0  0  0  0  0  0  0  0  0  0  0  0
   16.8802  -21.6029   25.1634 C   0  0  0  0  0  0  0  0  0  0  0  0
   18.1809  -22.0463   24.9783 C   0  0  0  0  0  0  0  0  0  0  0  0
   18.7793  -21.9271   23.7275 C   0  0  0  0  0  0  0  0  0  0  0  0
   18.0745  -21.3631   22.6610 C   0  0  0  0  0  0  0  0  0  0  0  0
   17.8916  -19.1563   28.1701 C   0  0  0  0  0  0  0  0  0  0  0  0
  1  3  1  0  0  0  0
  2  3  2  0  0  0  0
  2 12  1  0  0  0  0
  3  4  1  0  0  0  0
  4  6  1  0  0  0  0
  5 22  1  0  0  0  0
  6  7  1  0  0  0  0
  6  8  2  0  0  0  0
  7 12  2  0  0  0  0
  7  9  1  0  0  0  0
  9 10  1  0  0  0  0
  9 22  1  0  0  0  0
 10 11  1  0  0  0  0
 10 14  1  6  0  0  0
 11 13  1  0  0  0  0
 12 13  1  0  0  0  0
 14 15  1  0  0  0  0
 15 19  1  0  0  0  0
 16 17  2  0  0  0  0
 16 21  1  0  0  0  0
 17 18  1  0  0  0  0
 18 19  2  0  0  0  0
 19 20  1  0  0  0  0
 20 21  2  0  0  0  0
M  END
>  <CHROM.1>
-54.65428318,59.14157019,-95.27197993,-11.28309298,19.03370053,-20.44873370
25.69730692,-1.73610415,0.37176896,1.58789008

>  <Name>
ligand

>  <RI>
0

>  <Rbt.Current_Directory>
/home/itssahil/PROJECTS/Mol_Feturizer/Test_systems_manuscript/rnas/3sd3

>  <Rbt.Executable>
rbdock ($Id: //depot/dev/client3/rdock/2013.1/src/exe/rbdock.cxx#4 $)

>  <Rbt.Library>
libRbt.so (2013.1, Build901 2013/11/27)

>  <Rbt.Parameter_File>
/export/apps/rDock/src/rDock_2013.1_src/data/scripts/dock_solv.prm

>  <Rbt.Receptor>
prm/pocket_docking_5.prm

>  <SCORE>
-9.09234

>  <SCORE.INTER>
-7.01555

>  <SCORE.INTER.CONST>
1

>  <SCORE.INTER.POLAR>
0

>  <SCORE.INTER.ROT>
4

>  <SCORE.INTER.SOLV>
6.3727

>  <SCORE.INTER.VDW>
-13.0679

>  <SCORE.INTER.norm>
-0.318889

>  <SCORE.INTRA>
-2.0768

>  <SCORE.INTRA.DIHEDRAL>
-0.154162

>  <SCORE.INTRA.DIHEDRAL.0>
2.54655

>  <SCORE.INTRA.POLAR>
0

>  <SCORE.INTRA.POLAR.0>
0

>  <SCORE.INTRA.REPUL>
0

>  <SCORE.INTRA.REPUL.0>
0

>  <SCORE.INTRA.SOLV>
2.43587

>  <SCORE.INTRA.SOLV.lig_0>
-56.4922

>  <SCORE.INTRA.VDW>
-3.21765

>  <SCORE.INTRA.VDW.0>
-0.696801

>  <SCORE.INTRA.norm>
-0.0943998

>  <SCORE.RESTR>
0

>  <SCORE.RESTR.CAVITY>
0

>  <SCORE.RESTR.norm>
0

>  <SCORE.SYSTEM>
0

>  <SCORE.SYSTEM.CONST>
0

>  <SCORE.SYSTEM.DIHEDRAL>
0

>  <SCORE.SYSTEM.SOLV>
0

>  <SCORE.SYSTEM.norm>
0

>  <SCORE.heavy>
22

>  <SCORE.norm>
-0.413288

>  <RMSD>
5.323

$$$$
ligand
 OpenBabel02271912143D
libRbt.so/2013.1/901 2013/11/27
 22 24  0  0  0  0  0  0  0  0999 V2000
   19.2516  -21.1355   20.7307 N   0  0  0  0  0  0  0  0  0  0  0  0
   17.5805  -21.2481   22.4418 N   0  0  0  0  0  0  0  0  0  0  0  0
   18.8814  -21.2991   22.1109 C   0  0  0  0  0  0  0  0  0  0  0  0
   19.8327  -21.4953   23.0154 N   0  0  0  0  0  0  0  0  0  0  0  0
   19.0617  -22.2847   27.7866 O   0  0  0  0  0  0  0  0  0  0  0  0
   19.5071  -21.6517   24.3119 C   0  0  0  0  0  0  0  0  0  0  0  0
   18.1379  -21.6161   24.6972 C   0  0  0  0  0  0  0  0  0  0  0  0
   20.5131  -21.8529   25.2300 O   0  0  0  0  0  0  0  0  0  0  0  0
   17.6420  -21.7471   26.0529 N   0  0  0  0  0  0  0  0  0  0  0  0
   16.5212  -20.8757   26.4289 C   0  0  2  0  0  0  0  0  0  0  0  0
   15.4080  -20.9899   25.4349 C   0  0  0  0  0  0  0  0  0  0  0  0
   17.1949  -21.3992   23.7239 C   0  0  0  0  0  0  0  0  0  0  0  0
   15.8282  -21.3499   24.0821 N   0  0  0  0  0  0  0  0  0  0  0  0
   16.9067  -19.3920   26.5699 C   0  0  0  0  0  0  0  0  0  0  0  0
   17.4292  -18.8791   25.3094 N   0  0  0  0  0  0  0  0  0  0  0  0
   19.3576  -15.0907   25.1347 C   0  0  0  0  0  0  0  0  0  0  0  0
   18.4737  -15.4621   24.1356 C   0  0  0  0  0  0  0  0  0  0  0  0
   17.8313  -16.7143   24.1879 C   0  0  0  0  0  0  0  0  0  0  0  0
   18.0854  -17.5792   25.2416 C   0  0  0  0  0  0  0  0  0  0  0  0
   18.9741  -17.2031   26.2444 C   0  0  0  0  0  0  0  0  0  0  0  0
   19.6089  -15.9595   26.1920 C   0  0  0  0  0  0  0  0  0  0  0  0
   18.1795  -22.6390   27.0227 C   0  0  0  0  0  0  0  0  0  0  0  0
  1  3  1  0  0  0  0
  2  3  2  0  0  0  0
  2 12  1  0  0  0  0
  3  4  1  0  0  0  0
  4  6  1  0  0  0  0
  5 22  1  0  0  0  0
  6  7  1  0  0  0  0
  6  8  2  0  0  0  0
  7 12  2  0  0  0  0
  7  9  1  0  0  0  0
  9 10  1  0  0  0  0
  9 22  1  0  0  0  0
 10 11  1  0  0  0  0
 10 14  1  6  0  0  0
 11 13  1  0  0  0  0
 12 13  1  0  0  0  0
 14 15  1  0  0  0  0
 15 19  1  0  0  0  0
 16 17  2  0  0  0  0
 16 21  1  0  0  0  0
 17 18  1  0  0  0  0
 18 19  2  0  0  0  0
 19 20  1  0  0  0  0
 20 21  2  0  0  0  0
M  END
>  <CHROM.1>
91.58141937,60.07181158,-168.84441298,-138.03509145,18.19006702,-20.03266062
24.85536145,-1.89260118,1.31298325,0.41076738

>  <Name>
ligand

>  <RI>
0

>  <Rbt.Current_Directory>
/home/itssahil/PROJECTS/Mol_Feturizer/Test_systems_manuscript/rnas/3sd3

>  <Rbt.Executable>
rbdock ($Id: //depot/dev/client3/rdock/2013.1/src/exe/rbdock.cxx#4 $)

>  <Rbt.Library>
libRbt.so (2013.1, Build901 2013/11/27)

>  <Rbt.Parameter_File>
/export/apps/rDock/src/rDock_2013.1_src/data/scripts/dock_solv.prm

>  <Rbt.Receptor>
prm/pocket_docking_7.prm

>  <SCORE>
-9.4123

>  <SCORE.INTER>
-9.12531

>  <SCORE.INTER.CONST>
1

>  <SCORE.INTER.POLAR>
0

>  <SCORE.INTER.ROT>
4

>  <SCORE.INTER.SOLV>
15.0848

>  <SCORE.INTER.VDW>
-17.3785

>  <SCORE.INTER.norm>
-0.414787

>  <SCORE.INTRA>
-0.286989

>  <SCORE.INTRA.DIHEDRAL>
-0.839127

>  <SCORE.INTRA.DIHEDRAL.0>
2.54655

>  <SCORE.INTRA.POLAR>
0

>  <SCORE.INTRA.POLAR.0>
0

>  <SCORE.INTRA.REPUL>
0

>  <SCORE.INTRA.REPUL.0>
0

>  <SCORE.INTRA.SOLV>
2.00565

>  <SCORE.INTRA.SOLV.lig_0>
-56.4922

>  <SCORE.INTRA.VDW>
-0.870249

>  <SCORE.INTRA.VDW.0>
-0.696801

>  <SCORE.INTRA.norm>
-0.013045

>  <SCORE.RESTR>
0

>  <SCORE.RESTR.CAVITY>
0

>  <SCORE.RESTR.norm>
0

>  <SCORE.SYSTEM>
0

>  <SCORE.SYSTEM.CONST>
0

>  <SCORE.SYSTEM.DIHEDRAL>
0

>  <SCORE.SYSTEM.SOLV>
0

>  <SCORE.SYSTEM.norm>
0

>  <SCORE.heavy>
22

>  <SCORE.norm>
-0.427832

>  <RMSD>
5.485

$$$$
ligand
 OpenBabel02271912143D
libRbt.so/2013.1/901 2013/11/27
 22 24  0  0  0  0  0  0  0  0999 V2000
   17.8325  -16.3772   23.5262 N   0  0  0  0  0  0  0  0  0  0  0  0
   18.8666  -18.5148   23.8330 N   0  0  0  0  0  0  0  0  0  0  0  0
   18.2685  -17.4460   24.3844 C   0  0  0  0  0  0  0  0  0  0  0  0
   18.0681  -17.3458   25.6926 N   0  0  0  0  0  0  0  0  0  0  0  0
   20.8193  -19.5572   28.3472 O   0  0  0  0  0  0  0  0  0  0  0  0
   18.4696  -18.3344   26.5128 C   0  0  0  0  0  0  0  0  0  0  0  0
   19.1181  -19.4762   25.9650 C   0  0  0  0  0  0  0  0  0  0  0  0
   18.2490  -18.2060   27.8658 O   0  0  0  0  0  0  0  0  0  0  0  0
   19.5829  -20.6227   26.7204 N   0  0  0  0  0  0  0  0  0  0  0  0
   19.3800  -21.9405   26.1046 C   0  0  2  0  0  0  0  0  0  0  0  0
   19.9216  -21.9594   24.7093 C   0  0  0  0  0  0  0  0  0  0  0  0
   19.2906  -19.5347   24.6047 C   0  0  0  0  0  0  0  0  0  0  0  0
   19.9236  -20.6629   24.0346 N   0  0  0  0  0  0  0  0  0  0  0  0
   17.9084  -22.3909   26.0689 C   0  0  0  0  0  0  0  0  0  0  0  0
   17.0901  -21.4043   25.3746 N   0  0  0  0  0  0  0  0  0  0  0  0
   13.3581  -20.1392   26.9786 C   0  0  0  0  0  0  0  0  0  0  0  0
   13.3875  -21.0281   25.9173 C   0  0  0  0  0  0  0  0  0  0  0  0
   14.6196  -21.4516   25.3823 C   0  0  0  0  0  0  0  0  0  0  0  0
   15.8069  -20.9763   25.9179 C   0  0  0  0  0  0  0  0  0  0  0  0
   15.7742  -20.0830   26.9847 C   0  0  0  0  0  0  0  0  0  0  0  0
   14.5510  -19.6655   27.5157 C   0  0  0  0  0  0  0  0  0  0  0  0
   20.1939  -20.5461   28.0033 C   0  0  0  0  0  0  0  0  0  0  0  0
  1  3  1  0  0  0  0
  2  3  2  0  0  0  0
  2 12  1  0  0  0  0
  3  4  1  0  0  0  0
  4  6  1  0  0  0  0
  5 22  1  0  0  0  0
  6  7  1  0  0  0  0
  6  8  2  0  0  0  0
  7 12  2  0  0  0  0
  7  9  1  0  0  0  0
  9 10  1  0  0  0  0
  9 22  1  0  0  0  0
 10 11  1  0  0  0  0
 10 14  1  6  0  0  0
 11 13  1  0  0  0  0
 12 13  1  0  0  0  0
 14 15  1  0  0  0  0
 15 19  1  0  0  0  0
 16 17  2  0  0  0  0
 16 21  1  0  0  0  0
 17 18  1  0  0  0  0
 18 19  2  0  0  0  0
 19 20  1  0  0  0  0
 20 21  2  0  0  0  0
M  END
>  <CHROM.1>
-28.09048300,56.63213116,-134.90064321,-103.34968912,17.87006567,-19.87883466
25.95257176,0.19527776,0.00609938,-0.39151415

>  <Name>
ligand

>  <RI>
0

>  <Rbt.Current_Directory>
/home/itssahil/PROJECTS/Mol_Feturizer/Test_systems_manuscript/rnas/3sd3

>  <Rbt.Executable>
rbdock ($Id: //depot/dev/client3/rdock/2013.1/src/exe/rbdock.cxx#4 $)

>  <Rbt.Library>
libRbt.so (2013.1, Build901 2013/11/27)

>  <Rbt.Parameter_File>
/export/apps/rDock/src/rDock_2013.1_src/data/scripts/dock_solv.prm

>  <Rbt.Receptor>
prm/pocket_docking_4.prm

>  <SCORE>
-13.8332

>  <SCORE.INTER>
-12.9504

>  <SCORE.INTER.CONST>
1

>  <SCORE.INTER.POLAR>
0

>  <SCORE.INTER.ROT>
4

>  <SCORE.INTER.SOLV>
7.30459

>  <SCORE.INTER.VDW>
-17.3351

>  <SCORE.INTER.norm>
-0.588654

>  <SCORE.INTRA>
-0.882781

>  <SCORE.INTRA.DIHEDRAL>
0.123257

>  <SCORE.INTRA.DIHEDRAL.0>
2.54655

>  <SCORE.INTRA.POLAR>
0

>  <SCORE.INTRA.POLAR.0>
0

>  <SCORE.INTRA.REPUL>
0

>  <SCORE.INTRA.REPUL.0>
0

>  <SCORE.INTRA.SOLV>
2.1083

>  <SCORE.INTRA.SOLV.lig_0>
-56.4922

>  <SCORE.INTRA.VDW>
-1.99856

>  <SCORE.INTRA.VDW.0>
-0.696801

>  <SCORE.INTRA.norm>
-0.0401264

>  <SCORE.RESTR>
0

>  <SCORE.RESTR.CAVITY>
0

>  <SCORE.RESTR.norm>
0

>  <SCORE.SYSTEM>
0

>  <SCORE.SYSTEM.CONST>
0

>  <SCORE.SYSTEM.DIHEDRAL>
0

>  <SCORE.SYSTEM.SOLV>
0

>  <SCORE.SYSTEM.norm>
0

>  <SCORE.heavy>
22

>  <SCORE.norm>
-0.62878

>  <RMSD>
5.549

$$$$
ligand
 OpenBabel02271912143D
libRbt.so/2013.1/901 2013/11/27
 22 24  0  0  0  0  0  0  0  0999 V2000
   18.7513  -16.5644   24.1951 N   0  0  0  0  0  0  0  0  0  0  0  0
   19.6323  -18.7658   24.5272 N   0  0  0  0  0  0  0  0  0  0  0  0
   18.9777  -17.7091   25.0360 C   0  0  0  0  0  0  0  0  0  0  0  0
   18.5349  -17.6885   26.2872 N   0  0  0  0  0  0  0  0  0  0  0  0
   20.8557  -20.3370   29.1778 O   0  0  0  0  0  0  0  0  0  0  0  0
   18.7375  -18.7491   27.0905 C   0  0  0  0  0  0  0  0  0  0  0  0
   19.4384  -19.8812   26.5890 C   0  0  0  0  0  0  0  0  0  0  0  0
   18.2673  -18.7024   28.3837 O   0  0  0  0  0  0  0  0  0  0  0  0
   19.7100  -21.0978   27.3288 N   0  0  0  0  0  0  0  0  0  0  0  0
   19.5824  -22.3591   26.5873 C   0  0  2  0  0  0  0  0  0  0  0  0
   20.3794  -22.3094   25.3213 C   0  0  0  0  0  0  0  0  0  0  0  0
   19.8652  -19.8553   25.2849 C   0  0  0  0  0  0  0  0  0  0  0  0
   20.5556  -20.9716   24.7597 N   0  0  0  0  0  0  0  0  0  0  0  0
   18.1299  -22.7337   26.2417 C   0  0  0  0  0  0  0  0  0  0  0  0
   17.4702  -21.6327   25.5505 N   0  0  0  0  0  0  0  0  0  0  0  0
   13.5934  -20.3272   26.7199 C   0  0  0  0  0  0  0  0  0  0  0  0
   13.7572  -21.0341   25.5404 C   0  0  0  0  0  0  0  0  0  0  0  0
   15.0377  -21.4699   25.1481 C   0  0  0  0  0  0  0  0  0  0  0  0
   16.1383  -21.1894   25.9434 C   0  0  0  0  0  0  0  0  0  0  0  0
   15.9706  -20.4789   27.1284 C   0  0  0  0  0  0  0  0  0  0  0  0
   14.6992  -20.0490   27.5172 C   0  0  0  0  0  0  0  0  0  0  0  0
   20.0671  -21.1386   28.7056 C   0  0  0  0  0  0  0  0  0  0  0  0
  1  3  1  0  0  0  0
  2  3  2  0  0  0  0
  2 12  1  0  0  0  0
  3  4  1  0  0  0  0
  4  6  1  0  0  0  0
  5 22  1  0  0  0  0
  6  7  1  0  0  0  0
  6  8  2  0  0  0  0
  7 12  2  0  0  0  0
  7  9  1  0  0  0  0
  9 10  1  0  0  0  0
  9 22  1  0  0  0  0
 10 11  1  0  0  0  0
 10 14  1  6  0  0  0
 11 13  1  0  0  0  0
 12 13  1  0  0  0  0
 14 15  1  0  0  0  0
 15 19  1  0  0  0  0
 16 17  2  0  0  0  0
 16 21  1  0  0  0  0
 17 18  1  0  0  0  0
 18 19  2  0  0  0  0
 19 20  1  0  0  0  0
 20 21  2  0  0  0  0
M  END
>  <CHROM.1>
-41.86969384,53.36780788,-132.98692887,-107.02514635,18.21424915,-20.22333656
26.36224340,0.08958752,-0.10546522,-0.37556131

>  <Name>
ligand

>  <RI>
0

>  <Rbt.Current_Directory>
/home/itssahil/PROJECTS/Mol_Feturizer/Test_systems_manuscript/rnas/3sd3

>  <Rbt.Executable>
rbdock ($Id: //depot/dev/client3/rdock/2013.1/src/exe/rbdock.cxx#4 $)

>  <Rbt.Library>
libRbt.so (2013.1, Build901 2013/11/27)

>  <Rbt.Parameter_File>
/export/apps/rDock/src/rDock_2013.1_src/data/scripts/dock_solv.prm

>  <Rbt.Receptor>
prm/pocket_docking_5.prm

>  <SCORE>
-14.1004

>  <SCORE.INTER>
-13.2498

>  <SCORE.INTER.CONST>
1

>  <SCORE.INTER.POLAR>
0

>  <SCORE.INTER.ROT>
4

>  <SCORE.INTER.SOLV>
6.29696

>  <SCORE.INTER.VDW>
-17.1989

>  <SCORE.INTER.norm>
-0.602266

>  <SCORE.INTRA>
-0.85052

>  <SCORE.INTRA.DIHEDRAL>
0.27925

>  <SCORE.INTRA.DIHEDRAL.0>
2.54655

>  <SCORE.INTRA.POLAR>
0

>  <SCORE.INTRA.POLAR.0>
0

>  <SCORE.INTRA.REPUL>
0

>  <SCORE.INTRA.REPUL.0>
0

>  <SCORE.INTRA.SOLV>
2.11665

>  <SCORE.INTRA.SOLV.lig_0>
-56.4922

>  <SCORE.INTRA.VDW>
-2.04847

>  <SCORE.INTRA.VDW.0>
-0.696801

>  <SCORE.INTRA.norm>
-0.03866

>  <SCORE.RESTR>
0

>  <SCORE.RESTR.CAVITY>
0

>  <SCORE.RESTR.norm>
0

>  <SCORE.SYSTEM>
0

>  <SCORE.SYSTEM.CONST>
0

>  <SCORE.SYSTEM.DIHEDRAL>
0

>  <SCORE.SYSTEM.SOLV>
0

>  <SCORE.SYSTEM.norm>
0

>  <SCORE.heavy>
22

>  <SCORE.norm>
-0.640926

>  <RMSD>
5.610

$$$$
ligand
 OpenBabel02271912143D
libRbt.so/2013.1/901 2013/11/27
 22 24  0  0  0  0  0  0  0  0999 V2000
   18.7134  -16.5864   24.2263 N   0  0  0  0  0  0  0  0  0  0  0  0
   19.6497  -18.7193   24.7806 N   0  0  0  0  0  0  0  0  0  0  0  0
   18.8592  -17.6924   25.1341 C   0  0  0  0  0  0  0  0  0  0  0  0
   18.2107  -17.6669   26.2919 N   0  0  0  0  0  0  0  0  0  0  0  0
   18.5935  -21.3268   29.7725 O   0  0  0  0  0  0  0  0  0  0  0  0
   18.3346  -18.6915   27.1557 C   0  0  0  0  0  0  0  0  0  0  0  0
   19.1736  -19.7904   26.8199 C   0  0  0  0  0  0  0  0  0  0  0  0
   17.6505  -18.6405   28.3495 O   0  0  0  0  0  0  0  0  0  0  0  0
   19.3850  -20.9680   27.6383 N   0  0  0  0  0  0  0  0  0  0  0  0
   19.4569  -22.2537   26.9320 C   0  0  2  0  0  0  0  0  0  0  0  0
   20.4525  -22.1875   25.8162 C   0  0  0  0  0  0  0  0  0  0  0  0
   19.8127  -19.7720   25.6055 C   0  0  0  0  0  0  0  0  0  0  0  0
   20.6445  -20.8564   25.2439 N   0  0  0  0  0  0  0  0  0  0  0  0
   18.1076  -22.7270   26.3621 C   0  0  0  0  0  0  0  0  0  0  0  0
   17.4547  -21.6462   25.6336 N   0  0  0  0  0  0  0  0  0  0  0  0
   13.5537  -20.3318   26.7088 C   0  0  0  0  0  0  0  0  0  0  0  0
   13.7524  -20.9960   25.5101 C   0  0  0  0  0  0  0  0  0  0  0  0
   15.0410  -21.4346   25.1487 C   0  0  0  0  0  0  0  0  0  0  0  0
   16.1148  -21.1994   25.9940 C   0  0  0  0  0  0  0  0  0  0  0  0
   15.9119  -20.5317   27.1981 C   0  0  0  0  0  0  0  0  0  0  0  0
   14.6325  -20.0992   27.5562 C   0  0  0  0  0  0  0  0  0  0  0  0
   19.5058  -20.9506   29.0560 C   0  0  0  0  0  0  0  0  0  0  0  0
  1  3  1  0  0  0  0
  2  3  2  0  0  0  0
  2 12  1  0  0  0  0
  3  4  1  0  0  0  0
  4  6  1  0  0  0  0
  5 22  1  0  0  0  0
  6  7  1  0  0  0  0
  6  8  2  0  0  0  0
  7 12  2  0  0  0  0
  7  9  1  0  0  0  0
  9 10  1  0  0  0  0
  9 22  1  0  0  0  0
 10 11  1  0  0  0  0
 10 14  1  6  0  0  0
 11 13  1  0  0  0  0
 12 13  1  0  0  0  0
 14 15  1  0  0  0  0
 15 19  1  0  0  0  0
 16 17  2  0  0  0  0
 16 21  1  0  0  0  0
 17 18  1  0  0  0  0
 18 19  2  0  0  0  0
 19 20  1  0  0  0  0
 20 21  2  0  0  0  0
M  END
>  <CHROM.1>
104.82378606,48.11911186,-123.21474649,-110.91539470,17.95479085,-20.23257794
26.54538677,0.18589030,-0.04030841,-0.55179413

>  <Name>
ligand

>  <RI>
0

>  <Rbt.Current_Directory>
/home/itssahil/PROJECTS/Mol_Feturizer/Test_systems_manuscript/rnas/3sd3

>  <Rbt.Executable>
rbdock ($Id: //depot/dev/client3/rdock/2013.1/src/exe/rbdock.cxx#4 $)

>  <Rbt.Library>
libRbt.so (2013.1, Build901 2013/11/27)

>  <Rbt.Parameter_File>
/export/apps/rDock/src/rDock_2013.1_src/data/scripts/dock_solv.prm

>  <Rbt.Receptor>
prm/pocket_docking_4.prm

>  <SCORE>
-14.4984

>  <SCORE.INTER>
-13.873

>  <SCORE.INTER.CONST>
1

>  <SCORE.INTER.POLAR>
0

>  <SCORE.INTER.ROT>
4

>  <SCORE.INTER.SOLV>
7.27734

>  <SCORE.INTER.VDW>
-17.9411

>  <SCORE.INTER.norm>
-0.630592

>  <SCORE.INTRA>
-0.625415

>  <SCORE.INTRA.DIHEDRAL>
0.734663

>  <SCORE.INTRA.DIHEDRAL.0>
2.54655

>  <SCORE.INTRA.POLAR>
0

>  <SCORE.INTRA.POLAR.0>
0

>  <SCORE.INTRA.REPUL>
0

>  <SCORE.INTRA.REPUL.0>
0

>  <SCORE.INTRA.SOLV>
2.45499

>  <SCORE.INTRA.SOLV.lig_0>
-56.4922

>  <SCORE.INTRA.VDW>
-2.22024

>  <SCORE.INTRA.VDW.0>
-0.696801

>  <SCORE.INTRA.norm>
-0.0284279

>  <SCORE.RESTR>
0

>  <SCORE.RESTR.CAVITY>
0

>  <SCORE.RESTR.norm>
0

>  <SCORE.SYSTEM>
0

>  <SCORE.SYSTEM.CONST>
0

>  <SCORE.SYSTEM.DIHEDRAL>
0

>  <SCORE.SYSTEM.SOLV>
0

>  <SCORE.SYSTEM.norm>
0

>  <SCORE.heavy>
22

>  <SCORE.norm>
-0.65902

>  <RMSD>
5.616

$$$$
ligand
 OpenBabel02271912143D
libRbt.so/2013.1/901 2013/11/27
 22 24  0  0  0  0  0  0  0  0999 V2000
   18.6889  -16.5860   24.1926 N   0  0  0  0  0  0  0  0  0  0  0  0
   19.6655  -18.6922   24.7785 N   0  0  0  0  0  0  0  0  0  0  0  0
   18.8659  -17.6692   25.1223 C   0  0  0  0  0  0  0  0  0  0  0  0
   18.2362  -17.6269   26.2900 N   0  0  0  0  0  0  0  0  0  0  0  0
   19.6717  -21.8481   29.7719 O   0  0  0  0  0  0  0  0  0  0  0  0
   18.3894  -18.6298   27.1742 C   0  0  0  0  0  0  0  0  0  0  0  0
   19.2389  -19.7239   26.8489 C   0  0  0  0  0  0  0  0  0  0  0  0
   17.7244  -18.5619   28.3778 O   0  0  0  0  0  0  0  0  0  0  0  0
   19.4811  -20.8796   27.6896 N   0  0  0  0  0  0  0  0  0  0  0  0
   19.5603  -22.1797   27.0111 C   0  0  2  0  0  0  0  0  0  0  0  0
   20.5363  -22.1243   25.8775 C   0  0  0  0  0  0  0  0  0  0  0  0
   19.8576  -19.7236   25.6238 C   0  0  0  0  0  0  0  0  0  0  0  0
   20.6993  -20.8038   25.2726 N   0  0  0  0  0  0  0  0  0  0  0  0
   18.2089  -22.6851   26.4745 C   0  0  0  0  0  0  0  0  0  0  0  0
   17.5470  -21.6436   25.6985 N   0  0  0  0  0  0  0  0  0  0  0  0
   13.6211  -20.3402   26.6934 C   0  0  0  0  0  0  0  0  0  0  0  0
   13.8392  -21.0399   25.5185 C   0  0  0  0  0  0  0  0  0  0  0  0
   15.1361  -21.4750   25.1837 C   0  0  0  0  0  0  0  0  0  0  0  0
   16.1986  -21.2009   26.0315 C   0  0  0  0  0  0  0  0  0  0  0  0
   15.9764  -20.4977   27.2117 C   0  0  0  0  0  0  0  0  0  0  0  0
   14.6887  -20.0686   27.5434 C   0  0  0  0  0  0  0  0  0  0  0  0
   19.6250  -20.8285   29.1043 C   0  0  0  0  0  0  0  0  0  0  0  0
  1  3  1  0  0  0  0
  2  3  2  0  0  0  0
  2 12  1  0  0  0  0
  3  4  1  0  0  0  0
  4  6  1  0  0  0  0
  5 22  1  0  0  0  0
  6  7  1  0  0  0  0
  6  8  2  0  0  0  0
  7 12  2  0  0  0  0
  7  9  1  0  0  0  0
  9 10  1  0  0  0  0
  9 22  1  0  0  0  0
 10 11  1  0  0  0  0
 10 14  1  6  0  0  0
 11 13  1  0  0  0  0
 12 13  1  0  0  0  0
 14 15  1  0  0  0  0
 15 19  1  0  0  0  0
 16 17  2  0  0  0  0
 16 21  1  0  0  0  0
 17 18  1  0  0  0  0
 18 19  2  0  0  0  0
 19 20  1  0  0  0  0
 20 21  2  0  0  0  0
M  END
>  <CHROM.1>
171.35574897,49.86440703,-124.30917155,-111.45706118,18.07565344,-20.22548745
26.57125679,0.00902464,-0.08893296,-0.55961990

>  <Name>
ligand

>  <RI>
0

>  <Rbt.Current_Directory>
/home/itssahil/PROJECTS/Mol_Feturizer/Test_systems_manuscript/rnas/3sd3

>  <Rbt.Executable>
rbdock ($Id: //depot/dev/client3/rdock/2013.1/src/exe/rbdock.cxx#4 $)

>  <Rbt.Library>
libRbt.so (2013.1, Build901 2013/11/27)

>  <Rbt.Parameter_File>
/export/apps/rDock/src/rDock_2013.1_src/data/scripts/dock_solv.prm

>  <Rbt.Receptor>
prm/pocket_docking_7.prm

>  <SCORE>
-14.0571

>  <SCORE.INTER>
-13.8178

>  <SCORE.INTER.CONST>
1

>  <SCORE.INTER.POLAR>
0

>  <SCORE.INTER.ROT>
4

>  <SCORE.INTER.SOLV>
6.81041

>  <SCORE.INTER.VDW>
-17.7487

>  <SCORE.INTER.norm>
-0.628081

>  <SCORE.INTRA>
-0.239267

>  <SCORE.INTRA.DIHEDRAL>
0.631421

>  <SCORE.INTRA.DIHEDRAL.0>
2.54655

>  <SCORE.INTRA.POLAR>
0

>  <SCORE.INTRA.POLAR.0>
0

>  <SCORE.INTRA.REPUL>
0

>  <SCORE.INTRA.REPUL.0>
0

>  <SCORE.INTRA.SOLV>
2.24386

>  <SCORE.INTRA.SOLV.lig_0>
-56.4922

>  <SCORE.INTRA.VDW>
-1.67691

>  <SCORE.INTRA.VDW.0>
-0.696801

>  <SCORE.INTRA.norm>
-0.0108758

>  <SCORE.RESTR>
0

>  <SCORE.RESTR.CAVITY>
0

>  <SCORE.RESTR.norm>
0

>  <SCORE.SYSTEM>
0

>  <SCORE.SYSTEM.CONST>
0

>  <SCORE.SYSTEM.DIHEDRAL>
0

>  <SCORE.SYSTEM.SOLV>
0

>  <SCORE.SYSTEM.norm>
0

>  <SCORE.heavy>
22

>  <SCORE.norm>
-0.638957

>  <RMSD>
5.628

$$$$
ligand
 OpenBabel02271912143D
libRbt.so/2013.1/901 2013/11/27
 22 24  0  0  0  0  0  0  0  0999 V2000
   18.5403  -16.3754   24.0808 N   0  0  0  0  0  0  0  0  0  0  0  0
   19.4585  -18.5564   24.4458 N   0  0  0  0  0  0  0  0  0  0  0  0
   18.7755  -17.5083   24.9351 C   0  0  0  0  0  0  0  0  0  0  0  0
   18.3127  -17.4859   26.1789 N   0  0  0  0  0  0  0  0  0  0  0  0
   19.4295  -21.7430   29.3955 O   0  0  0  0  0  0  0  0  0  0  0  0
   18.5232  -18.5354   26.9946 C   0  0  0  0  0  0  0  0  0  0  0  0
   19.2537  -19.6579   26.5141 C   0  0  0  0  0  0  0  0  0  0  0  0
   18.0318  -18.4871   28.2798 O   0  0  0  0  0  0  0  0  0  0  0  0
   19.5370  -20.8626   27.2686 N   0  0  0  0  0  0  0  0  0  0  0  0
   19.4457  -22.1324   26.5363 C   0  0  2  0  0  0  0  0  0  0  0  0
   20.2614  -22.0779   25.2825 C   0  0  0  0  0  0  0  0  0  0  0  0
   19.7004  -19.6347   25.2166 C   0  0  0  0  0  0  0  0  0  0  0  0
   20.4205  -20.7417   24.7120 N   0  0  0  0  0  0  0  0  0  0  0  0
   18.0063  -22.5382   26.1714 C   0  0  0  0  0  0  0  0  0  0  0  0
   17.3132  -21.4311   25.5239 N   0  0  0  0  0  0  0  0  0  0  0  0
   13.4600  -20.1928   26.8356 C   0  0  0  0  0  0  0  0  0  0  0  0
   13.5792  -21.0418   25.7482 C   0  0  0  0  0  0  0  0  0  0  0  0
   14.8517  -21.4562   25.3095 C   0  0  0  0  0  0  0  0  0  0  0  0
   15.9891  -21.0120   25.9665 C   0  0  0  0  0  0  0  0  0  0  0  0
   15.8662  -20.1589   27.0593 C   0  0  0  0  0  0  0  0  0  0  0  0
   14.6028  -19.7504   27.4945 C   0  0  0  0  0  0  0  0  0  0  0  0
   19.8731  -20.8848   28.6511 C   0  0  0  0  0  0  0  0  0  0  0  0
  1  3  1  0  0  0  0
  2  3  2  0  0  0  0
  2 12  1  0  0  0  0
  3  4  1  0  0  0  0
  4  6  1  0  0  0  0
  5 22  1  0  0  0  0
  6  7  1  0  0  0  0
  6  8  2  0  0  0  0
  7 12  2  0  0  0  0
  7  9  1  0  0  0  0
  9 10  1  0  0  0  0
  9 22  1  0  0  0  0
 10 11  1  0  0  0  0
 10 14  1  6  0  0  0
 11 13  1  0  0  0  0
 12 13  1  0  0  0  0
 14 15  1  0  0  0  0
 15 19  1  0  0  0  0
 16 17  2  0  0  0  0
 16 21  1  0  0  0  0
 17 18  1  0  0  0  0
 18 19  2  0  0  0  0
 19 20  1  0  0  0  0
 20 21  2  0  0  0  0
M  END
>  <CHROM.1>
139.76521992,50.33983026,-130.49566219,-97.37925020,17.97777041,-20.11084842
26.34038780,0.16306950,-0.00415785,-0.48964952

>  <Name>
ligand

>  <RI>
0

>  <Rbt.Current_Directory>
/home/itssahil/PROJECTS/Mol_Feturizer/Test_systems_manuscript/rnas/3sd3

>  <Rbt.Executable>
rbdock ($Id: //depot/dev/client3/rdock/2013.1/src/exe/rbdock.cxx#4 $)

>  <Rbt.Library>
libRbt.so (2013.1, Build901 2013/11/27)

>  <Rbt.Parameter_File>
/export/apps/rDock/src/rDock_2013.1_src/data/scripts/dock_solv.prm

>  <Rbt.Receptor>
prm/pocket_docking_8.prm

>  <SCORE>
-14.285

>  <SCORE.INTER>
-13.8013

>  <SCORE.INTER.CONST>
1

>  <SCORE.INTER.POLAR>
0

>  <SCORE.INTER.ROT>
4

>  <SCORE.INTER.SOLV>
6.77781

>  <SCORE.INTER.VDW>
-17.7268

>  <SCORE.INTER.norm>
-0.627332

>  <SCORE.INTRA>
-0.483694

>  <SCORE.INTRA.DIHEDRAL>
0.539252

>  <SCORE.INTRA.DIHEDRAL.0>
2.54655

>  <SCORE.INTRA.POLAR>
0

>  <SCORE.INTRA.POLAR.0>
0

>  <SCORE.INTRA.REPUL>
0

>  <SCORE.INTRA.REPUL.0>
0

>  <SCORE.INTRA.SOLV>
2.20364

>  <SCORE.INTRA.SOLV.lig_0>
-56.4922

>  <SCORE.INTRA.VDW>
-1.85514

>  <SCORE.INTRA.VDW.0>
-0.696801

>  <SCORE.INTRA.norm>
-0.0219861

>  <SCORE.RESTR>
0

>  <SCORE.RESTR.CAVITY>
0

>  <SCORE.RESTR.norm>
0

>  <SCORE.SYSTEM>
0

>  <SCORE.SYSTEM.CONST>
0

>  <SCORE.SYSTEM.DIHEDRAL>
0

>  <SCORE.SYSTEM.SOLV>
0

>  <SCORE.SYSTEM.norm>
0

>  <SCORE.heavy>
22

>  <SCORE.norm>
-0.649318

>  <RMSD>
5.651

$$$$
ligand
 OpenBabel02271912143D
libRbt.so/2013.1/901 2013/11/27
 22 24  0  0  0  0  0  0  0  0999 V2000
   18.5203  -16.3022   24.0798 N   0  0  0  0  0  0  0  0  0  0  0  0
   19.4009  -18.5121   24.3516 N   0  0  0  0  0  0  0  0  0  0  0  0
   18.7826  -17.4537   24.9008 C   0  0  0  0  0  0  0  0  0  0  0  0
   18.4075  -17.4376   26.1739 N   0  0  0  0  0  0  0  0  0  0  0  0
   19.2726  -21.2263   29.3818 O   0  0  0  0  0  0  0  0  0  0  0  0
   18.6446  -18.5045   26.9592 C   0  0  0  0  0  0  0  0  0  0  0  0
   19.3089  -19.6387   26.4144 C   0  0  0  0  0  0  0  0  0  0  0  0
   18.2446  -18.4624   28.2759 O   0  0  0  0  0  0  0  0  0  0  0  0
   19.6102  -20.8618   27.1316 N   0  0  0  0  0  0  0  0  0  0  0  0
   19.4335  -22.1175   26.3908 C   0  0  2  0  0  0  0  0  0  0  0  0
   20.1620  -22.0660   25.0842 C   0  0  0  0  0  0  0  0  0  0  0  0
   19.6655  -19.6080   25.0895 C   0  0  0  0  0  0  0  0  0  0  0  0
   20.3182  -20.7261   24.5217 N   0  0  0  0  0  0  0  0  0  0  0  0
   17.9617  -22.4793   26.1213 C   0  0  0  0  0  0  0  0  0  0  0  0
   17.2629  -21.3530   25.5146 N   0  0  0  0  0  0  0  0  0  0  0  0
   13.3958  -20.1903   26.8544 C   0  0  0  0  0  0  0  0  0  0  0  0
   14.5229  -19.7169   27.5048 C   0  0  0  0  0  0  0  0  0  0  0  0
   15.8059  -20.0971   27.0657 C   0  0  0  0  0  0  0  0  0  0  0  0
   15.9419  -20.9494   25.9804 C   0  0  0  0  0  0  0  0  0  0  0  0
   14.8072  -21.4234   25.3286 C   0  0  0  0  0  0  0  0  0  0  0  0
   13.5351  -21.0434   25.7642 C   0  0  0  0  0  0  0  0  0  0  0  0
   20.0402  -20.9137   28.4871 C   0  0  0  0  0  0  0  0  0  0  0  0
  1  3  1  0  0  0  0
  2  3  2  0  0  0  0
  2 12  1  0  0  0  0
  3  4  1  0  0  0  0
  4  6  1  0  0  0  0
  5 22  1  0  0  0  0
  6  7  1  0  0  0  0
  6  8  2  0  0  0  0
  7 12  2  0  0  0  0
  7  9  1  0  0  0  0
  9 10  1  0  0  0  0
  9 22  1  0  0  0  0
 10 11  1  0  0  0  0
 10 14  1  6  0  0  0
 11 13  1  0  0  0  0
 12 13  1  0  0  0  0
 14 15  1  0  0  0  0
 15 19  1  0  0  0  0
 16 17  2  0  0  0  0
 16 21  1  0  0  0  0
 17 18  1  0  0  0  0
 18 19  2  0  0  0  0
 19 20  1  0  0  0  0
 20 21  2  0  0  0  0
M  END
>  <CHROM.1>
102.74727693,51.42067467,-134.75078293,84.84550131,17.97052367,-20.05258751
26.28331534,0.21500926,0.00681493,-0.46617355

>  <Name>
ligand

>  <RI>
0

>  <Rbt.Current_Directory>
/home/itssahil/PROJECTS/Mol_Feturizer/Test_systems_manuscript/rnas/3sd3

>  <Rbt.Executable>
rbdock ($Id: //depot/dev/client3/rdock/2013.1/src/exe/rbdock.cxx#4 $)

>  <Rbt.Library>
libRbt.so (2013.1, Build901 2013/11/27)

>  <Rbt.Parameter_File>
/export/apps/rDock/src/rDock_2013.1_src/data/scripts/dock_solv.prm

>  <Rbt.Receptor>
prm/pocket_docking_4.prm

>  <SCORE>
-14.4313

>  <SCORE.INTER>
-13.6113

>  <SCORE.INTER.CONST>
1

>  <SCORE.INTER.POLAR>
0

>  <SCORE.INTER.ROT>
4

>  <SCORE.INTER.SOLV>
6.56842

>  <SCORE.INTER.VDW>
-17.5303

>  <SCORE.INTER.norm>
-0.618694

>  <SCORE.INTRA>
-0.820079

>  <SCORE.INTRA.DIHEDRAL>
0.345539

>  <SCORE.INTRA.DIHEDRAL.0>
2.54655

>  <SCORE.INTRA.POLAR>
0

>  <SCORE.INTRA.POLAR.0>
0

>  <SCORE.INTRA.REPUL>
0

>  <SCORE.INTRA.REPUL.0>
0

>  <SCORE.INTRA.SOLV>
2.2174

>  <SCORE.INTRA.SOLV.lig_0>
-56.4922

>  <SCORE.INTRA.VDW>
-2.10155

>  <SCORE.INTRA.VDW.0>
-0.696801

>  <SCORE.INTRA.norm>
-0.0372763

>  <SCORE.RESTR>
0

>  <SCORE.RESTR.CAVITY>
0

>  <SCORE.RESTR.norm>
0

>  <SCORE.SYSTEM>
0

>  <SCORE.SYSTEM.CONST>
0

>  <SCORE.SYSTEM.DIHEDRAL>
0

>  <SCORE.SYSTEM.SOLV>
0

>  <SCORE.SYSTEM.norm>
0

>  <SCORE.heavy>
22

>  <SCORE.norm>
-0.65597

>  <RMSD>
5.657

$$$$
ligand
 OpenBabel02271912143D
libRbt.so/2013.1/901 2013/11/27
 22 24  0  0  0  0  0  0  0  0999 V2000
   18.7029  -16.4049   24.1833 N   0  0  0  0  0  0  0  0  0  0  0  0
   19.5568  -18.6210   24.4875 N   0  0  0  0  0  0  0  0  0  0  0  0
   18.9264  -17.5579   25.0135 C   0  0  0  0  0  0  0  0  0  0  0  0
   18.5049  -17.5387   26.2720 N   0  0  0  0  0  0  0  0  0  0  0  0
   19.2299  -21.3537   29.5075 O   0  0  0  0  0  0  0  0  0  0  0  0
   18.7053  -18.6070   27.0656 C   0  0  0  0  0  0  0  0  0  0  0  0
   19.3809  -19.7461   26.5457 C   0  0  0  0  0  0  0  0  0  0  0  0
   18.2575  -18.5614   28.3667 O   0  0  0  0  0  0  0  0  0  0  0  0
   19.6468  -20.9711   27.2736 N   0  0  0  0  0  0  0  0  0  0  0  0
   19.4882  -22.2258   26.5269 C   0  0  2  0  0  0  0  0  0  0  0  0
   20.2646  -22.1800   25.2480 C   0  0  0  0  0  0  0  0  0  0  0  0
   19.7862  -19.7184   25.2348 C   0  0  0  0  0  0  0  0  0  0  0  0
   20.4511  -20.8415   24.6914 N   0  0  0  0  0  0  0  0  0  0  0  0
   18.0247  -22.5770   26.2035 C   0  0  0  0  0  0  0  0  0  0  0  0
   17.3581  -21.4472   25.5677 N   0  0  0  0  0  0  0  0  0  0  0  0
   13.4819  -20.2089   26.8100 C   0  0  0  0  0  0  0  0  0  0  0  0
   13.6205  -21.0600   25.7265 C   0  0  0  0  0  0  0  0  0  0  0  0
   14.9006  -21.4744   25.3107 C   0  0  0  0  0  0  0  0  0  0  0  0
   16.0262  -21.0281   25.9864 C   0  0  0  0  0  0  0  0  0  0  0  0
   15.8838  -20.1729   27.0752 C   0  0  0  0  0  0  0  0  0  0  0  0
   14.6129  -19.7644   27.4877 C   0  0  0  0  0  0  0  0  0  0  0  0
   20.0262  -21.0257   28.6439 C   0  0  0  0  0  0  0  0  0  0  0  0
  1  3  1  0  0  0  0
  2  3  2  0  0  0  0
  2 12  1  0  0  0  0
  3  4  1  0  0  0  0
  4  6  1  0  0  0  0
  5 22  1  0  0  0  0
  6  7  1  0  0  0  0
  6  8  2  0  0  0  0
  7 12  2  0  0  0  0
  7  9  1  0  0  0  0
  9 10  1  0  0  0  0
  9 22  1  0  0  0  0
 10 11  1  0  0  0  0
 10 14  1  6  0  0  0
 11 13  1  0  0  0  0
 12 13  1  0  0  0  0
 14 15  1  0  0  0  0
 15 19  1  0  0  0  0
 16 17  2  0  0  0  0
 16 21  1  0  0  0  0
 17 18  1  0  0  0  0
 18 19  2  0  0  0  0
 19 20  1  0  0  0  0
 20 21  2  0  0  0  0
M  END
>  <CHROM.1>
103.97687034,51.59671849,-134.47590393,-95.59891235,18.05003064,-20.14522671
26.37070212,0.18629145,-0.01288230,-0.46813139

>  <Name>
ligand

>  <RI>
0

>  <Rbt.Current_Directory>
/home/itssahil/PROJECTS/Mol_Feturizer/Test_systems_manuscript/rnas/3sd3

>  <Rbt.Executable>
rbdock ($Id: //depot/dev/client3/rdock/2013.1/src/exe/rbdock.cxx#4 $)

>  <Rbt.Library>
libRbt.so (2013.1, Build901 2013/11/27)

>  <Rbt.Parameter_File>
/export/apps/rDock/src/rDock_2013.1_src/data/scripts/dock_solv.prm

>  <Rbt.Receptor>
prm/pocket_docking_5.prm

>  <SCORE>
-14.4421

>  <SCORE.INTER>
-13.6283

>  <SCORE.INTER.CONST>
1

>  <SCORE.INTER.POLAR>
0

>  <SCORE.INTER.ROT>
4

>  <SCORE.INTER.SOLV>
6.5693

>  <SCORE.INTER.VDW>
-17.5419

>  <SCORE.INTER.norm>
-0.619466

>  <SCORE.INTRA>
-0.813845

>  <SCORE.INTRA.DIHEDRAL>
0.34163

>  <SCORE.INTRA.DIHEDRAL.0>
2.54655

>  <SCORE.INTRA.POLAR>
0

>  <SCORE.INTRA.POLAR.0>
0

>  <SCORE.INTRA.REPUL>
0

>  <SCORE.INTRA.REPUL.0>
0

>  <SCORE.INTRA.SOLV>
2.22045

>  <SCORE.INTRA.SOLV.lig_0>
-56.4922

>  <SCORE.INTRA.VDW>
-2.09489

>  <SCORE.INTRA.VDW.0>
-0.696801

>  <SCORE.INTRA.norm>
-0.0369929

>  <SCORE.RESTR>
0

>  <SCORE.RESTR.CAVITY>
0

>  <SCORE.RESTR.norm>
0

>  <SCORE.SYSTEM>
0

>  <SCORE.SYSTEM.CONST>
0

>  <SCORE.SYSTEM.DIHEDRAL>
0

>  <SCORE.SYSTEM.SOLV>
0

>  <SCORE.SYSTEM.norm>
0

>  <SCORE.heavy>
22

>  <SCORE.norm>
-0.656459

>  <RMSD>
5.660

$$$$
ligand
 OpenBabel02271912143D
libRbt.so/2013.1/901 2013/11/27
 22 24  0  0  0  0  0  0  0  0999 V2000
   18.3435  -16.2443   24.0470 N   0  0  0  0  0  0  0  0  0  0  0  0
   19.2491  -18.4429   24.3284 N   0  0  0  0  0  0  0  0  0  0  0  0
   18.6250  -17.3864   24.8748 C   0  0  0  0  0  0  0  0  0  0  0  0
   18.2614  -17.3637   26.1511 N   0  0  0  0  0  0  0  0  0  0  0  0
   20.9995  -20.2800   28.8126 O   0  0  0  0  0  0  0  0  0  0  0  0
   18.5167  -18.4218   26.9427 C   0  0  0  0  0  0  0  0  0  0  0  0
   19.1875  -19.5535   26.4009 C   0  0  0  0  0  0  0  0  0  0  0  0
   18.1283  -18.3730   28.2627 O   0  0  0  0  0  0  0  0  0  0  0  0
   19.5079  -20.7676   27.1251 N   0  0  0  0  0  0  0  0  0  0  0  0
   19.3372  -22.0311   26.3961 C   0  0  2  0  0  0  0  0  0  0  0  0
   20.0532  -21.9827   25.0825 C   0  0  0  0  0  0  0  0  0  0  0  0
   19.5317  -19.5299   25.0726 C   0  0  0  0  0  0  0  0  0  0  0  0
   20.1905  -20.6459   24.5077 N   0  0  0  0  0  0  0  0  0  0  0  0
   17.8668  -22.4099   26.1431 C   0  0  0  0  0  0  0  0  0  0  0  0
   17.1488  -21.2927   25.5421 N   0  0  0  0  0  0  0  0  0  0  0  0
   13.2660  -20.1988   26.8944 C   0  0  0  0  0  0  0  0  0  0  0  0
   14.3866  -19.6611   27.5050 C   0  0  0  0  0  0  0  0  0  0  0  0
   15.6746  -20.0183   27.0615 C   0  0  0  0  0  0  0  0  0  0  0  0
   15.8223  -20.9122   26.0118 C   0  0  0  0  0  0  0  0  0  0  0  0
   14.6942  -21.4508   25.4000 C   0  0  0  0  0  0  0  0  0  0  0  0
   13.4170  -21.0937   25.8398 C   0  0  0  0  0  0  0  0  0  0  0  0
   19.9507  -20.8042   28.4769 C   0  0  0  0  0  0  0  0  0  0  0  0
  1  3  1  0  0  0  0
  2  3  2  0  0  0  0
  2 12  1  0  0  0  0
  3  4  1  0  0  0  0
  4  6  1  0  0  0  0
  5 22  1  0  0  0  0
  6  7  1  0  0  0  0
  6  8  2  0  0  0  0
  7 12  2  0  0  0  0
  7  9  1  0  0  0  0
  9 10  1  0  0  0  0
  9 22  1  0  0  0  0
 10 11  1  0  0  0  0
 10 14  1  6  0  0  0
 11 13  1  0  0  0  0
 12 13  1  0  0  0  0
 14 15  1  0  0  0  0
 15 19  1  0  0  0  0
 16 17  2  0  0  0  0
 16 21  1  0  0  0  0
 17 18  1  0  0  0  0
 18 19  2  0  0  0  0
 19 20  1  0  0  0  0
 20 21  2  0  0  0  0
M  END
>  <CHROM.1>
-62.57482640,51.04170023,-135.41468808,87.82810487,17.94806693,-19.94179706
26.25440016,0.14739679,-0.04780047,-0.36088250

>  <Name>
ligand

>  <RI>
0

>  <Rbt.Current_Directory>
/home/itssahil/PROJECTS/Mol_Feturizer/Test_systems_manuscript/rnas/3sd3

>  <Rbt.Executable>
rbdock ($Id: //depot/dev/client3/rdock/2013.1/src/exe/rbdock.cxx#4 $)

>  <Rbt.Library>
libRbt.so (2013.1, Build901 2013/11/27)

>  <Rbt.Parameter_File>
/export/apps/rDock/src/rDock_2013.1_src/data/scripts/dock_solv.prm

>  <Rbt.Receptor>
prm/pocket_docking_4.prm

>  <SCORE>
-14.2587

>  <SCORE.INTER>
-13.4758

>  <SCORE.INTER.CONST>
1

>  <SCORE.INTER.POLAR>
0

>  <SCORE.INTER.ROT>
4

>  <SCORE.INTER.SOLV>
6.90721

>  <SCORE.INTER.VDW>
-17.553

>  <SCORE.INTER.norm>
-0.612537

>  <SCORE.INTRA>
-0.782849

>  <SCORE.INTRA.DIHEDRAL>
0.378047

>  <SCORE.INTRA.DIHEDRAL.0>
2.54655

>  <SCORE.INTRA.POLAR>
0

>  <SCORE.INTRA.POLAR.0>
0

>  <SCORE.INTRA.REPUL>
0

>  <SCORE.INTRA.REPUL.0>
0

>  <SCORE.INTRA.SOLV>
2.02834

>  <SCORE.INTRA.SOLV.lig_0>
-56.4922

>  <SCORE.INTRA.VDW>
-1.98604

>  <SCORE.INTRA.VDW.0>
-0.696801

>  <SCORE.INTRA.norm>
-0.035584

>  <SCORE.RESTR>
0

>  <SCORE.RESTR.CAVITY>
0

>  <SCORE.RESTR.norm>
0

>  <SCORE.SYSTEM>
0

>  <SCORE.SYSTEM.CONST>
0

>  <SCORE.SYSTEM.DIHEDRAL>
0

>  <SCORE.SYSTEM.SOLV>
0

>  <SCORE.SYSTEM.norm>
0

>  <SCORE.heavy>
22

>  <SCORE.norm>
-0.648121

>  <RMSD>
5.665

$$$$
ligand
 OpenBabel02271912143D
libRbt.so/2013.1/901 2013/11/27
 22 24  0  0  0  0  0  0  0  0999 V2000
   18.6183  -16.3077   24.0948 N   0  0  0  0  0  0  0  0  0  0  0  0
   19.5049  -18.4959   24.4931 N   0  0  0  0  0  0  0  0  0  0  0  0
   18.8093  -17.4440   24.9557 C   0  0  0  0  0  0  0  0  0  0  0  0
   18.2946  -17.4208   26.1789 N   0  0  0  0  0  0  0  0  0  0  0  0
   20.5016  -20.0427   29.2124 O   0  0  0  0  0  0  0  0  0  0  0  0
   18.4631  -18.4735   27.0003 C   0  0  0  0  0  0  0  0  0  0  0  0
   19.2053  -19.6001   26.5483 C   0  0  0  0  0  0  0  0  0  0  0  0
   17.9183  -18.4243   28.2638 O   0  0  0  0  0  0  0  0  0  0  0  0
   19.4481  -20.8084   27.3113 N   0  0  0  0  0  0  0  0  0  0  0  0
   19.3788  -22.0760   26.5728 C   0  0  2  0  0  0  0  0  0  0  0  0
   20.2470  -22.0247   25.3547 C   0  0  0  0  0  0  0  0  0  0  0  0
   19.7065  -19.5774   25.2709 C   0  0  0  0  0  0  0  0  0  0  0  0
   20.4394  -20.6885   24.7945 N   0  0  0  0  0  0  0  0  0  0  0  0
   17.9533  -22.4708   26.1466 C   0  0  0  0  0  0  0  0  0  0  0  0
   17.2625  -21.3294   25.5590 N   0  0  0  0  0  0  0  0  0  0  0  0
   13.3409  -20.2571   26.8129 C   0  0  0  0  0  0  0  0  0  0  0  0
   13.5118  -21.1286   25.7505 C   0  0  0  0  0  0  0  0  0  0  0  0
   14.8072  -21.4884   25.3310 C   0  0  0  0  0  0  0  0  0  0  0  0
   15.9152  -20.9676   25.9819 C   0  0  0  0  0  0  0  0  0  0  0  0
   15.7403  -20.0920   27.0495 C   0  0  0  0  0  0  0  0  0  0  0  0
   14.4544  -19.7378   27.4658 C   0  0  0  0  0  0  0  0  0  0  0  0
   19.7254  -20.8359   28.7067 C   0  0  0  0  0  0  0  0  0  0  0  0
  1  3  1  0  0  0  0
  2  3  2  0  0  0  0
  2 12  1  0  0  0  0
  3  4  1  0  0  0  0
  4  6  1  0  0  0  0
  5 22  1  0  0  0  0
  6  7  1  0  0  0  0
  6  8  2  0  0  0  0
  7 12  2  0  0  0  0
  7  9  1  0  0  0  0
  9 10  1  0  0  0  0
  9 22  1  0  0  0  0
 10 11  1  0  0  0  0
 10 14  1  6  0  0  0
 11 13  1  0  0  0  0
 12 13  1  0  0  0  0
 14 15  1  0  0  0  0
 15 19  1  0  0  0  0
 16 17  2  0  0  0  0
 16 21  1  0  0  0  0
 17 18  1  0  0  0  0
 18 19  2  0  0  0  0
 19 20  1  0  0  0  0
 20 21  2  0  0  0  0
M  END
>  <CHROM.1>
-43.73392625,46.29732223,-131.46726912,-90.88671706,17.98968417,-19.97644736
26.35052190,0.18522747,-0.07047057,-0.38197788

>  <Name>
ligand

>  <RI>
0

>  <Rbt.Current_Directory>
/home/itssahil/PROJECTS/Mol_Feturizer/Test_systems_manuscript/rnas/3sd3

>  <Rbt.Executable>
rbdock ($Id: //depot/dev/client3/rdock/2013.1/src/exe/rbdock.cxx#4 $)

>  <Rbt.Library>
libRbt.so (2013.1, Build901 2013/11/27)

>  <Rbt.Parameter_File>
/export/apps/rDock/src/rDock_2013.1_src/data/scripts/dock_solv.prm

>  <Rbt.Receptor>
prm/pocket_docking_6.prm

>  <SCORE>
-14.2421

>  <SCORE.INTER>
-13.7008

>  <SCORE.INTER.CONST>
1

>  <SCORE.INTER.POLAR>
0

>  <SCORE.INTER.ROT>
4

>  <SCORE.INTER.SOLV>
6.33268

>  <SCORE.INTER.VDW>
-17.5114

>  <SCORE.INTER.norm>
-0.622763

>  <SCORE.INTRA>
-0.541301

>  <SCORE.INTRA.DIHEDRAL>
0.788349

>  <SCORE.INTRA.DIHEDRAL.0>
2.54655

>  <SCORE.INTRA.POLAR>
0

>  <SCORE.INTRA.POLAR.0>
0

>  <SCORE.INTRA.REPUL>
0

>  <SCORE.INTRA.REPUL.0>
0

>  <SCORE.INTRA.SOLV>
2.21178

>  <SCORE.INTRA.SOLV.lig_0>
-56.4922

>  <SCORE.INTRA.VDW>
-2.04137

>  <SCORE.INTRA.VDW.0>
-0.696801

>  <SCORE.INTRA.norm>
-0.0246046

>  <SCORE.RESTR>
0

>  <SCORE.RESTR.CAVITY>
0

>  <SCORE.RESTR.norm>
0

>  <SCORE.SYSTEM>
0

>  <SCORE.SYSTEM.CONST>
0

>  <SCORE.SYSTEM.DIHEDRAL>
0

>  <SCORE.SYSTEM.SOLV>
0

>  <SCORE.SYSTEM.norm>
0

>  <SCORE.heavy>
22

>  <SCORE.norm>
-0.647367

>  <RMSD>
5.667

$$$$
ligand
 OpenBabel02271912143D
libRbt.so/2013.1/901 2013/11/27
 22 24  0  0  0  0  0  0  0  0999 V2000
   18.4431  -16.1942   24.0802 N   0  0  0  0  0  0  0  0  0  0  0  0
   19.3226  -18.4035   24.3604 N   0  0  0  0  0  0  0  0  0  0  0  0
   18.6897  -17.3492   24.9010 C   0  0  0  0  0  0  0  0  0  0  0  0
   18.2863  -17.3404   26.1656 N   0  0  0  0  0  0  0  0  0  0  0  0
   20.5759  -19.9553   28.9875 O   0  0  0  0  0  0  0  0  0  0  0  0
   18.5084  -18.4108   26.9505 C   0  0  0  0  0  0  0  0  0  0  0  0
   19.1873  -19.5407   26.4150 C   0  0  0  0  0  0  0  0  0  0  0  0
   18.0791  -18.3763   28.2582 O   0  0  0  0  0  0  0  0  0  0  0  0
   19.4755  -20.7668   27.1325 N   0  0  0  0  0  0  0  0  0  0  0  0
   19.3182  -22.0191   26.3816 C   0  0  2  0  0  0  0  0  0  0  0  0
   20.0755  -21.9593   25.0919 C   0  0  0  0  0  0  0  0  0  0  0  0
   19.5733  -19.5024   25.0985 C   0  0  0  0  0  0  0  0  0  0  0  0
   20.2410  -20.6162   24.5397 N   0  0  0  0  0  0  0  0  0  0  0  0
   17.8536  -22.3827   26.0776 C   0  0  0  0  0  0  0  0  0  0  0  0
   17.1465  -21.2326   25.5278 N   0  0  0  0  0  0  0  0  0  0  0  0
   13.2621  -20.1820   26.9095 C   0  0  0  0  0  0  0  0  0  0  0  0
   14.3812  -19.6309   27.5108 C   0  0  0  0  0  0  0  0  0  0  0  0
   15.6697  -19.9738   27.0576 C   0  0  0  0  0  0  0  0  0  0  0  0
   15.8195  -20.8670   26.0076 C   0  0  0  0  0  0  0  0  0  0  0  0
   14.6929  -21.4190   25.4051 C   0  0  0  0  0  0  0  0  0  0  0  0
   13.4151  -21.0761   25.8545 C   0  0  0  0  0  0  0  0  0  0  0  0
   19.8752  -20.8246   28.4969 C   0  0  0  0  0  0  0  0  0  0  0  0
  1  3  1  0  0  0  0
  2  3  2  0  0  0  0
  2 12  1  0  0  0  0
  3  4  1  0  0  0  0
  4  6  1  0  0  0  0
  5 22  1  0  0  0  0
  6  7  1  0  0  0  0
  6  8  2  0  0  0  0
  7 12  2  0  0  0  0
  7  9  1  0  0  0  0
  9 10  1  0  0  0  0
  9 22  1  0  0  0  0
 10 11  1  0  0  0  0
 10 14  1  6  0  0  0
 11 13  1  0  0  0  0
 12 13  1  0  0  0  0
 14 15  1  0  0  0  0
 15 19  1  0  0  0  0
 16 17  2  0  0  0  0
 16 21  1  0  0  0  0
 17 18  1  0  0  0  0
 18 19  2  0  0  0  0
 19 20  1  0  0  0  0
 20 21  2  0  0  0  0
M  END
>  <CHROM.1>
-34.40568075,48.36315388,-134.39073456,90.97710705,17.93150980,-19.90103858
26.27081826,0.19889383,-0.03370866,-0.33667399

>  <Name>
ligand

>  <RI>
0

>  <Rbt.Current_Directory>
/home/itssahil/PROJECTS/Mol_Feturizer/Test_systems_manuscript/rnas/3sd3

>  <Rbt.Executable>
rbdock ($Id: //depot/dev/client3/rdock/2013.1/src/exe/rbdock.cxx#4 $)

>  <Rbt.Library>
libRbt.so (2013.1, Build901 2013/11/27)

>  <Rbt.Parameter_File>
/export/apps/rDock/src/rDock_2013.1_src/data/scripts/dock_solv.prm

>  <Rbt.Receptor>
prm/pocket_docking_3.prm

>  <SCORE>
-14.1594

>  <SCORE.INTER>
-13.5233

>  <SCORE.INTER.CONST>
1

>  <SCORE.INTER.POLAR>
0

>  <SCORE.INTER.ROT>
4

>  <SCORE.INTER.SOLV>
6.69616

>  <SCORE.INTER.VDW>
-17.5143

>  <SCORE.INTER.norm>
-0.614696

>  <SCORE.INTRA>
-0.636139

>  <SCORE.INTRA.DIHEDRAL>
0.55455

>  <SCORE.INTRA.DIHEDRAL.0>
2.54655

>  <SCORE.INTRA.POLAR>
0

>  <SCORE.INTRA.POLAR.0>
0

>  <SCORE.INTRA.REPUL>
0

>  <SCORE.INTRA.REPUL.0>
0

>  <SCORE.INTRA.SOLV>
2.18476

>  <SCORE.INTRA.SOLV.lig_0>
-56.4922

>  <SCORE.INTRA.VDW>
-2.00579

>  <SCORE.INTRA.VDW.0>
-0.696801

>  <SCORE.INTRA.norm>
-0.0289154

>  <SCORE.RESTR>
0

>  <SCORE.RESTR.CAVITY>
0

>  <SCORE.RESTR.norm>
0

>  <SCORE.SYSTEM>
0

>  <SCORE.SYSTEM.CONST>
0

>  <SCORE.SYSTEM.DIHEDRAL>
0

>  <SCORE.SYSTEM.SOLV>
0

>  <SCORE.SYSTEM.norm>
0

>  <SCORE.heavy>
22

>  <SCORE.norm>
-0.643611

>  <RMSD>
5.673

$$$$
ligand
 OpenBabel02271912143D
libRbt.so/2013.1/901 2013/11/27
 22 24  0  0  0  0  0  0  0  0999 V2000
   18.5197  -16.3456   24.0422 N   0  0  0  0  0  0  0  0  0  0  0  0
   19.4106  -18.5428   24.3761 N   0  0  0  0  0  0  0  0  0  0  0  0
   18.7575  -17.4857   24.8862 C   0  0  0  0  0  0  0  0  0  0  0  0
   18.3263  -17.4608   26.1413 N   0  0  0  0  0  0  0  0  0  0  0  0
   21.0252  -21.1874   28.9030 O   0  0  0  0  0  0  0  0  0  0  0  0
   18.5397  -18.5170   26.9475 C   0  0  0  0  0  0  0  0  0  0  0  0
   19.2393  -19.6493   26.4447 C   0  0  0  0  0  0  0  0  0  0  0  0
   18.0814  -18.4659   28.2448 O   0  0  0  0  0  0  0  0  0  0  0  0
   19.5215  -20.8617   27.1875 N   0  0  0  0  0  0  0  0  0  0  0  0
   19.3910  -22.1267   26.4530 C   0  0  2  0  0  0  0  0  0  0  0  0
   20.1760  -22.0804   25.1793 C   0  0  0  0  0  0  0  0  0  0  0  0
   19.6539  -19.6281   25.1365 C   0  0  0  0  0  0  0  0  0  0  0  0
   20.3428  -20.7447   24.6100 N   0  0  0  0  0  0  0  0  0  0  0  0
   17.9364  -22.5074   26.1226 C   0  0  0  0  0  0  0  0  0  0  0  0
   17.2389  -21.3788   25.5186 N   0  0  0  0  0  0  0  0  0  0  0  0
   13.3775  -20.2110   26.8705 C   0  0  0  0  0  0  0  0  0  0  0  0
   13.5001  -21.0926   25.8097 C   0  0  0  0  0  0  0  0  0  0  0  0
   14.7753  -21.4839   25.3580 C   0  0  0  0  0  0  0  0  0  0  0  0
   15.9120  -20.9842   25.9753 C   0  0  0  0  0  0  0  0  0  0  0  0
   15.7856  -20.0984   27.0413 C   0  0  0  0  0  0  0  0  0  0  0  0
   14.5196  -19.7129   27.4896 C   0  0  0  0  0  0  0  0  0  0  0  0
   19.8916  -20.8951   28.5610 C   0  0  0  0  0  0  0  0  0  0  0  0
  1  3  1  0  0  0  0
  2  3  2  0  0  0  0
  2 12  1  0  0  0  0
  3  4  1  0  0  0  0
  4  6  1  0  0  0  0
  5 22  1  0  0  0  0
  6  7  1  0  0  0  0
  6  8  2  0  0  0  0
  7 12  2  0  0  0  0
  7  9  1  0  0  0  0
  9 10  1  0  0  0  0
  9 22  1  0  0  0  0
 10 11  1  0  0  0  0
 10 14  1  6  0  0  0
 11 13  1  0  0  0  0
 12 13  1  0  0  0  0
 14 15  1  0  0  0  0
 15 19  1  0  0  0  0
 16 17  2  0  0  0  0
 16 21  1  0  0  0  0
 17 18  1  0  0  0  0
 18 19  2  0  0  0  0
 19 20  1  0  0  0  0
 20 21  2  0  0  0  0
M  END
>  <CHROM.1>
-109.22999427,49.32913139,-132.82382500,-92.74229770,18.02611018,-20.06882349
26.27521432,0.07285342,-0.03613381,-0.41771906

>  <Name>
ligand

>  <RI>
0

>  <Rbt.Current_Directory>
/home/itssahil/PROJECTS/Mol_Feturizer/Test_systems_manuscript/rnas/3sd3

>  <Rbt.Executable>
rbdock ($Id: //depot/dev/client3/rdock/2013.1/src/exe/rbdock.cxx#4 $)

>  <Rbt.Library>
libRbt.so (2013.1, Build901 2013/11/27)

>  <Rbt.Parameter_File>
/export/apps/rDock/src/rDock_2013.1_src/data/scripts/dock_solv.prm

>  <Rbt.Receptor>
prm/pocket_docking_5.prm

>  <SCORE>
-14.1555

>  <SCORE.INTER>
-13.4959

>  <SCORE.INTER.CONST>
1

>  <SCORE.INTER.POLAR>
0

>  <SCORE.INTER.ROT>
4

>  <SCORE.INTER.SOLV>
6.49933

>  <SCORE.INTER.VDW>
-17.4304

>  <SCORE.INTER.norm>
-0.61345

>  <SCORE.INTRA>
-0.659613

>  <SCORE.INTRA.DIHEDRAL>
0.557243

>  <SCORE.INTRA.DIHEDRAL.0>
2.54655

>  <SCORE.INTRA.POLAR>
0

>  <SCORE.INTRA.POLAR.0>
0

>  <SCORE.INTRA.REPUL>
0

>  <SCORE.INTRA.REPUL.0>
0

>  <SCORE.INTRA.SOLV>
2.00277

>  <SCORE.INTRA.SOLV.lig_0>
-56.4922

>  <SCORE.INTRA.VDW>
-1.93962

>  <SCORE.INTRA.VDW.0>
-0.696801

>  <SCORE.INTRA.norm>
-0.0299824

>  <SCORE.RESTR>
0

>  <SCORE.RESTR.CAVITY>
0

>  <SCORE.RESTR.norm>
0

>  <SCORE.SYSTEM>
0

>  <SCORE.SYSTEM.CONST>
0

>  <SCORE.SYSTEM.DIHEDRAL>
0

>  <SCORE.SYSTEM.SOLV>
0

>  <SCORE.SYSTEM.norm>
0

>  <SCORE.heavy>
22

>  <SCORE.norm>
-0.643432

>  <RMSD>
5.674

$$$$
ligand
 OpenBabel02271912143D
libRbt.so/2013.1/901 2013/11/27
 22 24  0  0  0  0  0  0  0  0999 V2000
   18.6347  -16.3439   24.1071 N   0  0  0  0  0  0  0  0  0  0  0  0
   19.4930  -18.5571   24.4204 N   0  0  0  0  0  0  0  0  0  0  0  0
   18.8653  -17.4910   24.9436 C   0  0  0  0  0  0  0  0  0  0  0  0
   18.4528  -17.4635   26.2049 N   0  0  0  0  0  0  0  0  0  0  0  0
   19.2518  -21.3875   29.4435 O   0  0  0  0  0  0  0  0  0  0  0  0
   18.6599  -18.5261   27.0043 C   0  0  0  0  0  0  0  0  0  0  0  0
   19.3329  -19.6682   26.4875 C   0  0  0  0  0  0  0  0  0  0  0  0
   18.2214  -18.4720   28.3083 O   0  0  0  0  0  0  0  0  0  0  0  0
   19.6053  -20.8879   27.2219 N   0  0  0  0  0  0  0  0  0  0  0  0
   19.4427  -22.1478   26.4850 C   0  0  2  0  0  0  0  0  0  0  0  0
   20.2098  -22.1100   25.2003 C   0  0  0  0  0  0  0  0  0  0  0  0
   19.7288  -19.6491   25.1735 C   0  0  0  0  0  0  0  0  0  0  0  0
   20.3910  -20.7752   24.6332 N   0  0  0  0  0  0  0  0  0  0  0  0
   17.9773  -22.5026   26.1745 C   0  0  0  0  0  0  0  0  0  0  0  0
   17.2942  -21.3648   25.5713 N   0  0  0  0  0  0  0  0  0  0  0  0
   13.3921  -20.2290   26.8301 C   0  0  0  0  0  0  0  0  0  0  0  0
   14.5021  -19.7469   27.5030 C   0  0  0  0  0  0  0  0  0  0  0  0
   15.7966  -20.1182   27.0908 C   0  0  0  0  0  0  0  0  0  0  0  0
   15.9610  -20.9704   26.0094 C   0  0  0  0  0  0  0  0  0  0  0  0
   14.8434  -21.4532   25.3349 C   0  0  0  0  0  0  0  0  0  0  0  0
   13.5599  -21.0821   25.7438 C   0  0  0  0  0  0  0  0  0  0  0  0
   19.9946  -20.9326   28.5898 C   0  0  0  0  0  0  0  0  0  0  0  0
  1  3  1  0  0  0  0
  2  3  2  0  0  0  0
  2 12  1  0  0  0  0
  3  4  1  0  0  0  0
  4  6  1  0  0  0  0
  5 22  1  0  0  0  0
  6  7  1  0  0  0  0
  6  8  2  0  0  0  0
  7 12  2  0  0  0  0
  7  9  1  0  0  0  0
  9 10  1  0  0  0  0
  9 22  1  0  0  0  0
 10 11  1  0  0  0  0
 10 14  1  6  0  0  0
 11 13  1  0  0  0  0
 12 13  1  0  0  0  0
 14 15  1  0  0  0  0
 15 19  1  0  0  0  0
 16 17  2  0  0  0  0
 16 21  1  0  0  0  0
 17 18  1  0  0  0  0
 18 19  2  0  0  0  0
 19 20  1  0  0  0  0
 20 21  2  0  0  0  0
M  END
>  <CHROM.1>
111.73966515,49.94369155,-134.97464016,86.12219214,17.99580549,-20.08980496
26.33501431,0.21869237,-0.00437410,-0.47705921

>  <Name>
ligand

>  <RI>
0

>  <Rbt.Current_Directory>
/home/itssahil/PROJECTS/Mol_Feturizer/Test_systems_manuscript/rnas/3sd3

>  <Rbt.Executable>
rbdock ($Id: //depot/dev/client3/rdock/2013.1/src/exe/rbdock.cxx#4 $)

>  <Rbt.Library>
libRbt.so (2013.1, Build901 2013/11/27)

>  <Rbt.Parameter_File>
/export/apps/rDock/src/rDock_2013.1_src/data/scripts/dock_solv.prm

>  <Rbt.Receptor>
prm/pocket_docking_4.prm

>  <SCORE>
-14.4536

>  <SCORE.INTER>
-13.7492

>  <SCORE.INTER.CONST>
1

>  <SCORE.INTER.POLAR>
0

>  <SCORE.INTER.ROT>
4

>  <SCORE.INTER.SOLV>
6.46381

>  <SCORE.INTER.VDW>
-17.5874

>  <SCORE.INTER.norm>
-0.624965

>  <SCORE.INTRA>
-0.704333

>  <SCORE.INTRA.DIHEDRAL>
0.443884

>  <SCORE.INTRA.DIHEDRAL.0>
2.54655

>  <SCORE.INTRA.POLAR>
0

>  <SCORE.INTRA.POLAR.0>
0

>  <SCORE.INTRA.REPUL>
0

>  <SCORE.INTRA.REPUL.0>
0

>  <SCORE.INTRA.SOLV>
2.2018

>  <SCORE.INTRA.SOLV.lig_0>
-56.4922

>  <SCORE.INTRA.VDW>
-2.02717

>  <SCORE.INTRA.VDW.0>
-0.696801

>  <SCORE.INTRA.norm>
-0.0320151

>  <SCORE.RESTR>
0

>  <SCORE.RESTR.CAVITY>
0

>  <SCORE.RESTR.norm>
0

>  <SCORE.SYSTEM>
0

>  <SCORE.SYSTEM.CONST>
0

>  <SCORE.SYSTEM.DIHEDRAL>
0

>  <SCORE.SYSTEM.SOLV>
0

>  <SCORE.SYSTEM.norm>
0

>  <SCORE.heavy>
22

>  <SCORE.norm>
-0.65698

>  <RMSD>
5.679

$$$$
ligand
 OpenBabel02271912143D
libRbt.so/2013.1/901 2013/11/27
 22 24  0  0  0  0  0  0  0  0999 V2000
   18.3534  -16.2241   24.0672 N   0  0  0  0  0  0  0  0  0  0  0  0
   19.2487  -18.4304   24.3199 N   0  0  0  0  0  0  0  0  0  0  0  0
   18.6379  -17.3745   24.8823 C   0  0  0  0  0  0  0  0  0  0  0  0
   18.2901  -17.3601   26.1632 N   0  0  0  0  0  0  0  0  0  0  0  0
   19.3530  -21.4152   29.3025 O   0  0  0  0  0  0  0  0  0  0  0  0
   18.5484  -18.4260   26.9430 C   0  0  0  0  0  0  0  0  0  0  0  0
   19.2055  -19.5574   26.3840 C   0  0  0  0  0  0  0  0  0  0  0  0
   18.1764  -18.3855   28.2680 O   0  0  0  0  0  0  0  0  0  0  0  0
   19.5272  -20.7792   27.0945 N   0  0  0  0  0  0  0  0  0  0  0  0
   19.3399  -22.0357   26.3575 C   0  0  2  0  0  0  0  0  0  0  0  0
   20.0400  -21.9810   25.0356 C   0  0  0  0  0  0  0  0  0  0  0  0
   19.5336  -19.5251   25.0518 C   0  0  0  0  0  0  0  0  0  0  0  0
   20.1786  -20.6405   24.4700 N   0  0  0  0  0  0  0  0  0  0  0  0
   17.8642  -22.4035   26.1195 C   0  0  0  0  0  0  0  0  0  0  0  0
   17.1489  -21.2816   25.5239 N   0  0  0  0  0  0  0  0  0  0  0  0
   13.2729  -20.1798   26.8891 C   0  0  0  0  0  0  0  0  0  0  0  0
   13.4070  -21.0721   25.8387 C   0  0  0  0  0  0  0  0  0  0  0  0
   14.6871  -21.4417   25.3826 C   0  0  0  0  0  0  0  0  0  0  0  0
   15.8170  -20.9097   25.9852 C   0  0  0  0  0  0  0  0  0  0  0  0
   15.6791  -20.0132   27.0408 C   0  0  0  0  0  0  0  0  0  0  0  0
   14.4083  -19.6493   27.4934 C   0  0  0  0  0  0  0  0  0  0  0  0
   19.9863  -20.8294   28.4404 C   0  0  0  0  0  0  0  0  0  0  0  0
  1  3  1  0  0  0  0
  2  3  2  0  0  0  0
  2 12  1  0  0  0  0
  3  4  1  0  0  0  0
  4  6  1  0  0  0  0
  5 22  1  0  0  0  0
  6  7  1  0  0  0  0
  6  8  2  0  0  0  0
  7 12  2  0  0  0  0
  7  9  1  0  0  0  0
  9 10  1  0  0  0  0
  9 22  1  0  0  0  0
 10 11  1  0  0  0  0
 10 14  1  6  0  0  0
 11 13  1  0  0  0  0
 12 13  1  0  0  0  0
 14 15  1  0  0  0  0
 15 19  1  0  0  0  0
 16 17  2  0  0  0  0
 16 21  1  0  0  0  0
 17 18  1  0  0  0  0
 18 19  2  0  0  0  0
 19 20  1  0  0  0  0
 20 21  2  0  0  0  0
M  END
>  <CHROM.1>
119.11559138,51.60782449,-136.85504741,-91.53202493,17.86662794,-20.00068142
26.26707329,0.22041707,0.00642747,-0.45986265

>  <Name>
ligand

>  <RI>
0

>  <Rbt.Current_Directory>
/home/itssahil/PROJECTS/Mol_Feturizer/Test_systems_manuscript/rnas/3sd3

>  <Rbt.Executable>
rbdock ($Id: //depot/dev/client3/rdock/2013.1/src/exe/rbdock.cxx#4 $)

>  <Rbt.Library>
libRbt.so (2013.1, Build901 2013/11/27)

>  <Rbt.Parameter_File>
/export/apps/rDock/src/rDock_2013.1_src/data/scripts/dock_solv.prm

>  <Rbt.Receptor>
prm/pocket_docking_6.prm

>  <SCORE>
-14.457

>  <SCORE.INTER>
-13.7419

>  <SCORE.INTER.CONST>
1

>  <SCORE.INTER.POLAR>
0

>  <SCORE.INTER.ROT>
4

>  <SCORE.INTER.SOLV>
7.17583

>  <SCORE.INTER.VDW>
-17.8199

>  <SCORE.INTER.norm>
-0.624631

>  <SCORE.INTRA>
-0.715102

>  <SCORE.INTRA.DIHEDRAL>
0.306204

>  <SCORE.INTRA.DIHEDRAL.0>
2.54655

>  <SCORE.INTRA.POLAR>
0

>  <SCORE.INTRA.POLAR.0>
0

>  <SCORE.INTRA.REPUL>
0

>  <SCORE.INTRA.REPUL.0>
0

>  <SCORE.INTRA.SOLV>
2.14463

>  <SCORE.INTRA.SOLV.lig_0>
-56.4922

>  <SCORE.INTRA.VDW>
-1.94052

>  <SCORE.INTRA.VDW.0>
-0.696801

>  <SCORE.INTRA.norm>
-0.0325046

>  <SCORE.RESTR>
0

>  <SCORE.RESTR.CAVITY>
0

>  <SCORE.RESTR.norm>
0

>  <SCORE.SYSTEM>
0

>  <SCORE.SYSTEM.CONST>
0

>  <SCORE.SYSTEM.DIHEDRAL>
0

>  <SCORE.SYSTEM.SOLV>
0

>  <SCORE.SYSTEM.norm>
0

>  <SCORE.heavy>
22

>  <SCORE.norm>
-0.657136

>  <RMSD>
5.680

$$$$
ligand
 OpenBabel02271912143D
libRbt.so/2013.1/901 2013/11/27
 22 24  0  0  0  0  0  0  0  0999 V2000
   18.4113  -16.2764   23.9829 N   0  0  0  0  0  0  0  0  0  0  0  0
   19.3070  -18.4748   24.2950 N   0  0  0  0  0  0  0  0  0  0  0  0
   18.6893  -17.4073   24.8269 C   0  0  0  0  0  0  0  0  0  0  0  0
   18.3287  -17.3640   26.1036 N   0  0  0  0  0  0  0  0  0  0  0  0
   21.1927  -20.7055   28.7518 O   0  0  0  0  0  0  0  0  0  0  0  0
   18.5806  -18.4113   26.9103 C   0  0  0  0  0  0  0  0  0  0  0  0
   19.2448  -19.5542   26.3840 C   0  0  0  0  0  0  0  0  0  0  0  0
   18.1955  -18.3411   28.2303 O   0  0  0  0  0  0  0  0  0  0  0  0
   19.5611  -20.7590   27.1254 N   0  0  0  0  0  0  0  0  0  0  0  0
   19.3827  -22.0323   26.4156 C   0  0  2  0  0  0  0  0  0  0  0  0
   20.0959  -22.0069   25.0999 C   0  0  0  0  0  0  0  0  0  0  0  0
   19.5861  -19.5520   25.0546 C   0  0  0  0  0  0  0  0  0  0  0  0
   20.2383  -20.6795   24.5050 N   0  0  0  0  0  0  0  0  0  0  0  0
   17.9099  -22.4078   26.1715 C   0  0  0  0  0  0  0  0  0  0  0  0
   17.1976  -21.2986   25.5491 N   0  0  0  0  0  0  0  0  0  0  0  0
   13.2978  -20.1962   26.8443 C   0  0  0  0  0  0  0  0  0  0  0  0
   13.4507  -21.0778   25.7874 C   0  0  0  0  0  0  0  0  0  0  0  0
   14.7388  -21.4475   25.3544 C   0  0  0  0  0  0  0  0  0  0  0  0
   15.8577  -20.9265   25.9863 C   0  0  0  0  0  0  0  0  0  0  0  0
   15.7009  -20.0408   27.0483 C   0  0  0  0  0  0  0  0  0  0  0  0
   14.4222  -19.6767   27.4781 C   0  0  0  0  0  0  0  0  0  0  0  0
   20.0068  -20.7775   28.4767 C   0  0  0  0  0  0  0  0  0  0  0  0
  1  3  1  0  0  0  0
  2  3  2  0  0  0  0
  2 12  1  0  0  0  0
  3  4  1  0  0  0  0
  4  6  1  0  0  0  0
  5 22  1  0  0  0  0
  6  7  1  0  0  0  0
  6  8  2  0  0  0  0
  7 12  2  0  0  0  0
  7  9  1  0  0  0  0
  9 10  1  0  0  0  0
  9 22  1  0  0  0  0
 10 11  1  0  0  0  0
 10 14  1  6  0  0  0
 11 13  1  0  0  0  0
 12 13  1  0  0  0  0
 14 15  1  0  0  0  0
 15 19  1  0  0  0  0
 16 17  2  0  0  0  0
 16 21  1  0  0  0  0
 17 18  1  0  0  0  0
 18 19  2  0  0  0  0
 19 20  1  0  0  0  0
 20 21  2  0  0  0  0
M  END
>  <CHROM.1>
-88.84608984,51.33903002,-137.23038592,-93.15635702,18.00616975,-19.97045339
26.23203881,0.10782779,-0.05105204,-0.39732135

>  <Name>
ligand

>  <RI>
0

>  <Rbt.Current_Directory>
/home/itssahil/PROJECTS/Mol_Feturizer/Test_systems_manuscript/rnas/3sd3

>  <Rbt.Executable>
rbdock ($Id: //depot/dev/client3/rdock/2013.1/src/exe/rbdock.cxx#4 $)

>  <Rbt.Library>
libRbt.so (2013.1, Build901 2013/11/27)

>  <Rbt.Parameter_File>
/export/apps/rDock/src/rDock_2013.1_src/data/scripts/dock_solv.prm

>  <Rbt.Receptor>
prm/pocket_docking_7.prm

>  <SCORE>
-14.275

>  <SCORE.INTER>
-13.4943

>  <SCORE.INTER.CONST>
1

>  <SCORE.INTER.POLAR>
0

>  <SCORE.INTER.ROT>
4

>  <SCORE.INTER.SOLV>
6.41781

>  <SCORE.INTER.VDW>
-17.4022

>  <SCORE.INTER.norm>
-0.61338

>  <SCORE.INTRA>
-0.780655

>  <SCORE.INTRA.DIHEDRAL>
0.341248

>  <SCORE.INTRA.DIHEDRAL.0>
2.54655

>  <SCORE.INTRA.POLAR>
0

>  <SCORE.INTRA.POLAR.0>
0

>  <SCORE.INTRA.REPUL>
0

>  <SCORE.INTRA.REPUL.0>
0

>  <SCORE.INTRA.SOLV>
1.93459

>  <SCORE.INTRA.SOLV.lig_0>
-56.4922

>  <SCORE.INTRA.VDW>
-1.91857

>  <SCORE.INTRA.VDW.0>
-0.696801

>  <SCORE.INTRA.norm>
-0.0354843

>  <SCORE.RESTR>
0

>  <SCORE.RESTR.CAVITY>
0

>  <SCORE.RESTR.norm>
0

>  <SCORE.SYSTEM>
0

>  <SCORE.SYSTEM.CONST>
0

>  <SCORE.SYSTEM.DIHEDRAL>
0

>  <SCORE.SYSTEM.SOLV>
0

>  <SCORE.SYSTEM.norm>
0

>  <SCORE.heavy>
22

>  <SCORE.norm>
-0.648864

>  <RMSD>
5.681

$$$$
ligand
 OpenBabel02271912143D
libRbt.so/2013.1/901 2013/11/27
 22 24  0  0  0  0  0  0  0  0999 V2000
   18.3939  -16.2076   24.0352 N   0  0  0  0  0  0  0  0  0  0  0  0
   19.2747  -18.4166   24.3136 N   0  0  0  0  0  0  0  0  0  0  0  0
   18.6657  -17.3525   24.8623 C   0  0  0  0  0  0  0  0  0  0  0  0
   18.3084  -17.3249   26.1403 N   0  0  0  0  0  0  0  0  0  0  0  0
   20.8296  -20.0209   28.8630 O   0  0  0  0  0  0  0  0  0  0  0  0
   18.5548  -18.3855   26.9313 C   0  0  0  0  0  0  0  0  0  0  0  0
   19.2096  -19.5254   26.3870 C   0  0  0  0  0  0  0  0  0  0  0  0
   18.1732  -18.3314   28.2531 O   0  0  0  0  0  0  0  0  0  0  0  0
   19.5190  -20.7428   27.1104 N   0  0  0  0  0  0  0  0  0  0  0  0
   19.3300  -22.0045   26.3829 C   0  0  2  0  0  0  0  0  0  0  0  0
   20.0403  -21.9653   25.0659 C   0  0  0  0  0  0  0  0  0  0  0  0
   19.5478  -19.5065   25.0571 C   0  0  0  0  0  0  0  0  0  0  0  0
   20.1908  -20.6306   24.4898 N   0  0  0  0  0  0  0  0  0  0  0  0
   17.8540  -22.3661   26.1370 C   0  0  0  0  0  0  0  0  0  0  0  0
   17.1402  -21.2319   25.5631 N   0  0  0  0  0  0  0  0  0  0  0  0
   13.2331  -20.1993   26.8933 C   0  0  0  0  0  0  0  0  0  0  0  0
   13.3923  -21.0811   25.8374 C   0  0  0  0  0  0  0  0  0  0  0  0
   14.6829  -21.4278   25.3929 C   0  0  0  0  0  0  0  0  0  0  0  0
   15.7979  -20.8838   26.0123 C   0  0  0  0  0  0  0  0  0  0  0  0
   15.6347  -19.9980   27.0733 C   0  0  0  0  0  0  0  0  0  0  0  0
   14.3536  -19.6568   27.5145 C   0  0  0  0  0  0  0  0  0  0  0  0
   19.9677  -20.7839   28.4602 C   0  0  0  0  0  0  0  0  0  0  0  0
  1  3  1  0  0  0  0
  2  3  2  0  0  0  0
  2 12  1  0  0  0  0
  3  4  1  0  0  0  0
  4  6  1  0  0  0  0
  5 22  1  0  0  0  0
  6  7  1  0  0  0  0
  6  8  2  0  0  0  0
  7 12  2  0  0  0  0
  7  9  1  0  0  0  0
  9 10  1  0  0  0  0
  9 22  1  0  0  0  0
 10 11  1  0  0  0  0
 10 14  1  6  0  0  0
 11 13  1  0  0  0  0
 12 13  1  0  0  0  0
 14 15  1  0  0  0  0
 15 19  1  0  0  0  0
 16 17  2  0  0  0  0
 16 21  1  0  0  0  0
 17 18  1  0  0  0  0
 18 19  2  0  0  0  0
 19 20  1  0  0  0  0
 20 21  2  0  0  0  0
M  END
>  <CHROM.1>
-44.60795710,49.92346584,-138.08236070,-90.15314923,17.94446364,-19.90176910
26.25005500,0.18561254,-0.04626385,-0.35046682

>  <Name>
ligand

>  <RI>
0

>  <Rbt.Current_Directory>
/home/itssahil/PROJECTS/Mol_Feturizer/Test_systems_manuscript/rnas/3sd3

>  <Rbt.Executable>
rbdock ($Id: //depot/dev/client3/rdock/2013.1/src/exe/rbdock.cxx#4 $)

>  <Rbt.Library>
libRbt.so (2013.1, Build901 2013/11/27)

>  <Rbt.Parameter_File>
/export/apps/rDock/src/rDock_2013.1_src/data/scripts/dock_solv.prm

>  <Rbt.Receptor>
prm/pocket_docking_8.prm

>  <SCORE>
-14.2874

>  <SCORE.INTER>
-13.5559

>  <SCORE.INTER.CONST>
1

>  <SCORE.INTER.POLAR>
0

>  <SCORE.INTER.ROT>
4

>  <SCORE.INTER.SOLV>
6.62668

>  <SCORE.INTER.VDW>
-17.5128

>  <SCORE.INTER.norm>
-0.616175

>  <SCORE.INTRA>
-0.731513

>  <SCORE.INTRA.DIHEDRAL>
0.360443

>  <SCORE.INTRA.DIHEDRAL.0>
2.54655

>  <SCORE.INTRA.POLAR>
0

>  <SCORE.INTRA.POLAR.0>
0

>  <SCORE.INTRA.REPUL>
0

>  <SCORE.INTRA.REPUL.0>
0

>  <SCORE.INTRA.SOLV>
2.0932

>  <SCORE.INTRA.SOLV.lig_0>
-56.4922

>  <SCORE.INTRA.VDW>
-1.95834

>  <SCORE.INTRA.VDW.0>
-0.696801

>  <SCORE.INTRA.norm>
-0.0332506

>  <SCORE.RESTR>
0

>  <SCORE.RESTR.CAVITY>
0

>  <SCORE.RESTR.norm>
0

>  <SCORE.SYSTEM>
0

>  <SCORE.SYSTEM.CONST>
0

>  <SCORE.SYSTEM.DIHEDRAL>
0

>  <SCORE.SYSTEM.SOLV>
0

>  <SCORE.SYSTEM.norm>
0

>  <SCORE.heavy>
22

>  <SCORE.norm>
-0.649426

>  <RMSD>
5.681

$$$$
ligand
 OpenBabel02271912143D
libRbt.so/2013.1/901 2013/11/27
 22 24  0  0  0  0  0  0  0  0999 V2000
   18.5684  -16.3363   24.0733 N   0  0  0  0  0  0  0  0  0  0  0  0
   19.4414  -18.5462   24.3688 N   0  0  0  0  0  0  0  0  0  0  0  0
   18.8282  -17.4791   24.9070 C   0  0  0  0  0  0  0  0  0  0  0  0
   18.4561  -17.4468   26.1807 N   0  0  0  0  0  0  0  0  0  0  0  0
   21.0630  -21.5444   28.8625 O   0  0  0  0  0  0  0  0  0  0  0  0
   18.6910  -18.5054   26.9778 C   0  0  0  0  0  0  0  0  0  0  0  0
   19.3498  -19.6483   26.4448 C   0  0  0  0  0  0  0  0  0  0  0  0
   18.2941  -18.4464   28.2949 O   0  0  0  0  0  0  0  0  0  0  0  0
   19.6482  -20.8641   27.1756 N   0  0  0  0  0  0  0  0  0  0  0  0
   19.4651  -22.1277   26.4498 C   0  0  2  0  0  0  0  0  0  0  0  0
   20.1909  -22.0940   25.1411 C   0  0  0  0  0  0  0  0  0  0  0  0
   19.7036  -19.6343   25.1189 C   0  0  0  0  0  0  0  0  0  0  0  0
   20.3508  -20.7614   24.5626 N   0  0  0  0  0  0  0  0  0  0  0  0
   17.9914  -22.4870   26.1878 C   0  0  0  0  0  0  0  0  0  0  0  0
   17.2971  -21.3676   25.5633 N   0  0  0  0  0  0  0  0  0  0  0  0
   13.4038  -20.2154   26.8346 C   0  0  0  0  0  0  0  0  0  0  0  0
   14.5183  -19.7310   27.4985 C   0  0  0  0  0  0  0  0  0  0  0  0
   15.8099  -20.1078   27.0822 C   0  0  0  0  0  0  0  0  0  0  0  0
   15.9670  -20.9675   26.0057 C   0  0  0  0  0  0  0  0  0  0  0  0
   14.8450  -21.4526   25.3403 C   0  0  0  0  0  0  0  0  0  0  0  0
   13.5644  -21.0761   25.7533 C   0  0  0  0  0  0  0  0  0  0  0  0
   20.0810  -20.9018   28.5306 C   0  0  0  0  0  0  0  0  0  0  0  0
  1  3  1  0  0  0  0
  2  3  2  0  0  0  0
  2 12  1  0  0  0  0
  3  4  1  0  0  0  0
  4  6  1  0  0  0  0
  5 22  1  0  0  0  0
  6  7  1  0  0  0  0
  6  8  2  0  0  0  0
  7 12  2  0  0  0  0
  7  9  1  0  0  0  0
  9 10  1  0  0  0  0
  9 22  1  0  0  0  0
 10 11  1  0  0  0  0
 10 14  1  6  0  0  0
 11 13  1  0  0  0  0
 12 13  1  0  0  0  0
 14 15  1  0  0  0  0
 15 19  1  0  0  0  0
 16 17  2  0  0  0  0
 16 21  1  0  0  0  0
 17 18  1  0  0  0  0
 18 19  2  0  0  0  0
 19 20  1  0  0  0  0
 20 21  2  0  0  0  0
M  END
>  <CHROM.1>
-129.84822929,51.70795603,-136.01110367,84.95639561,18.10059942,-20.08493430
26.27794076,0.04560050,-0.03851814,-0.41684705

>  <Name>
ligand

>  <RI>
0

>  <Rbt.Current_Directory>
/home/itssahil/PROJECTS/Mol_Feturizer/Test_systems_manuscript/rnas/3sd3

>  <Rbt.Executable>
rbdock ($Id: //depot/dev/client3/rdock/2013.1/src/exe/rbdock.cxx#4 $)

>  <Rbt.Library>
libRbt.so (2013.1, Build901 2013/11/27)

>  <Rbt.Parameter_File>
/export/apps/rDock/src/rDock_2013.1_src/data/scripts/dock_solv.prm

>  <Rbt.Receptor>
prm/pocket_docking_6.prm

>  <SCORE>
-14.2562

>  <SCORE.INTER>
-13.5991

>  <SCORE.INTER.CONST>
1

>  <SCORE.INTER.POLAR>
0

>  <SCORE.INTER.ROT>
4

>  <SCORE.INTER.SOLV>
6.49146

>  <SCORE.INTER.VDW>
-17.4965

>  <SCORE.INTER.norm>
-0.61814

>  <SCORE.INTRA>
-0.657106

>  <SCORE.INTRA.DIHEDRAL>
0.308961

>  <SCORE.INTRA.DIHEDRAL.0>
2.54655

>  <SCORE.INTRA.POLAR>
0

>  <SCORE.INTRA.POLAR.0>
0

>  <SCORE.INTRA.REPUL>
0

>  <SCORE.INTRA.REPUL.0>
0

>  <SCORE.INTRA.SOLV>
1.94134

>  <SCORE.INTRA.SOLV.lig_0>
-56.4922

>  <SCORE.INTRA.VDW>
-1.78226

>  <SCORE.INTRA.VDW.0>
-0.696801

>  <SCORE.INTRA.norm>
-0.0298685

>  <SCORE.RESTR>
0

>  <SCORE.RESTR.CAVITY>
0

>  <SCORE.RESTR.norm>
0

>  <SCORE.SYSTEM>
0

>  <SCORE.SYSTEM.CONST>
0

>  <SCORE.SYSTEM.DIHEDRAL>
0

>  <SCORE.SYSTEM.SOLV>
0

>  <SCORE.SYSTEM.norm>
0

>  <SCORE.heavy>
22

>  <SCORE.norm>
-0.648008

>  <RMSD>
5.691

$$$$
ligand
 OpenBabel02271912143D
libRbt.so/2013.1/901 2013/11/27
 22 24  0  0  0  0  0  0  0  0999 V2000
   18.6889  -16.3603   24.1585 N   0  0  0  0  0  0  0  0  0  0  0  0
   19.5619  -18.5388   24.6327 N   0  0  0  0  0  0  0  0  0  0  0  0
   18.8413  -17.4828   25.0448 C   0  0  0  0  0  0  0  0  0  0  0  0
   18.2676  -17.4432   26.2411 N   0  0  0  0  0  0  0  0  0  0  0  0
   18.7475  -21.2700   29.6484 O   0  0  0  0  0  0  0  0  0  0  0  0
   18.3992  -18.4827   27.0856 C   0  0  0  0  0  0  0  0  0  0  0  0
   19.1660  -19.6132   26.6874 C   0  0  0  0  0  0  0  0  0  0  0  0
   17.7933  -18.4166   28.3201 O   0  0  0  0  0  0  0  0  0  0  0  0
   19.3751  -20.8089   27.4796 N   0  0  0  0  0  0  0  0  0  0  0  0
   19.3458  -22.0877   26.7580 C   0  0  2  0  0  0  0  0  0  0  0  0
   20.2722  -22.0514   25.5828 C   0  0  0  0  0  0  0  0  0  0  0  0
   19.7288  -19.6077   25.4357 C   0  0  0  0  0  0  0  0  0  0  0  0
   20.4875  -20.7230   25.0124 N   0  0  0  0  0  0  0  0  0  0  0  0
   17.9440  -22.4944   26.2689 C   0  0  0  0  0  0  0  0  0  0  0  0
   17.2776  -21.3636   25.6346 N   0  0  0  0  0  0  0  0  0  0  0  0
   13.3403  -20.2186   26.7696 C   0  0  0  0  0  0  0  0  0  0  0  0
   14.4299  -19.7358   27.4747 C   0  0  0  0  0  0  0  0  0  0  0  0
   15.7359  -20.1101   27.1036 C   0  0  0  0  0  0  0  0  0  0  0  0
   15.9321  -20.9660   26.0304 C   0  0  0  0  0  0  0  0  0  0  0  0
   14.8351  -21.4495   25.3236 C   0  0  0  0  0  0  0  0  0  0  0  0
   13.5402  -21.0754   25.6917 C   0  0  0  0  0  0  0  0  0  0  0  0
   19.5843  -20.8143   28.8871 C   0  0  0  0  0  0  0  0  0  0  0  0
  1  3  1  0  0  0  0
  2  3  2  0  0  0  0
  2 12  1  0  0  0  0
  3  4  1  0  0  0  0
  4  6  1  0  0  0  0
  5 22  1  0  0  0  0
  6  7  1  0  0  0  0
  6  8  2  0  0  0  0
  7 12  2  0  0  0  0
  7  9  1  0  0  0  0
  9 10  1  0  0  0  0
  9 22  1  0  0  0  0
 10 11  1  0  0  0  0
 10 14  1  6  0  0  0
 11 13  1  0  0  0  0
 12 13  1  0  0  0  0
 14 15  1  0  0  0  0
 15 19  1  0  0  0  0
 16 17  2  0  0  0  0
 16 21  1  0  0  0  0
 17 18  1  0  0  0  0
 18 19  2  0  0  0  0
 19 20  1  0  0  0  0
 20 21  2  0  0  0  0
M  END
>  <CHROM.1>
111.41956393,46.13190790,-128.70159151,85.67245327,17.88309787,-20.05333997
26.46620464,0.24834422,-0.02105722,-0.50315845

>  <Name>
ligand

>  <RI>
0

>  <Rbt.Current_Directory>
/home/itssahil/PROJECTS/Mol_Feturizer/Test_systems_manuscript/rnas/3sd3

>  <Rbt.Executable>
rbdock ($Id: //depot/dev/client3/rdock/2013.1/src/exe/rbdock.cxx#4 $)

>  <Rbt.Library>
libRbt.so (2013.1, Build901 2013/11/27)

>  <Rbt.Parameter_File>
/export/apps/rDock/src/rDock_2013.1_src/data/scripts/dock_solv.prm

>  <Rbt.Receptor>
prm/pocket_docking_8.prm

>  <SCORE>
-14.4789

>  <SCORE.INTER>
-13.9987

>  <SCORE.INTER.CONST>
1

>  <SCORE.INTER.POLAR>
0

>  <SCORE.INTER.ROT>
4

>  <SCORE.INTER.SOLV>
6.9711

>  <SCORE.INTER.VDW>
-17.9228

>  <SCORE.INTER.norm>
-0.636305

>  <SCORE.INTRA>
-0.480213

>  <SCORE.INTRA.DIHEDRAL>
0.857805

>  <SCORE.INTRA.DIHEDRAL.0>
2.54655

>  <SCORE.INTRA.POLAR>
0

>  <SCORE.INTRA.POLAR.0>
0

>  <SCORE.INTRA.REPUL>
0

>  <SCORE.INTRA.REPUL.0>
0

>  <SCORE.INTRA.SOLV>
2.3463

>  <SCORE.INTRA.SOLV.lig_0>
-56.4922

>  <SCORE.INTRA.VDW>
-2.08227

>  <SCORE.INTRA.VDW.0>
-0.696801

>  <SCORE.INTRA.norm>
-0.0218279

>  <SCORE.RESTR>
0

>  <SCORE.RESTR.CAVITY>
0

>  <SCORE.RESTR.norm>
0

>  <SCORE.SYSTEM>
0

>  <SCORE.SYSTEM.CONST>
0

>  <SCORE.SYSTEM.DIHEDRAL>
0

>  <SCORE.SYSTEM.SOLV>
0

>  <SCORE.SYSTEM.norm>
0

>  <SCORE.heavy>
22

>  <SCORE.norm>
-0.658133

>  <RMSD>
5.696

$$$$
ligand
 OpenBabel02271912143D
libRbt.so/2013.1/901 2013/11/27
 22 24  0  0  0  0  0  0  0  0999 V2000
   18.5198  -16.2867   24.0262 N   0  0  0  0  0  0  0  0  0  0  0  0
   19.3693  -18.5083   24.3020 N   0  0  0  0  0  0  0  0  0  0  0  0
   18.7819  -17.4337   24.8537 C   0  0  0  0  0  0  0  0  0  0  0  0
   18.4371  -17.3975   26.1349 N   0  0  0  0  0  0  0  0  0  0  0  0
   21.1993  -21.2357   28.7159 O   0  0  0  0  0  0  0  0  0  0  0  0
   18.6747  -18.4599   26.9263 C   0  0  0  0  0  0  0  0  0  0  0  0
   19.3069  -19.6109   26.3788 C   0  0  0  0  0  0  0  0  0  0  0  0
   18.3064  -18.3968   28.2514 O   0  0  0  0  0  0  0  0  0  0  0  0
   19.6045  -20.8312   27.1024 N   0  0  0  0  0  0  0  0  0  0  0  0
   19.3895  -22.0916   26.3799 C   0  0  2  0  0  0  0  0  0  0  0  0
   20.0879  -22.0664   25.0562 C   0  0  0  0  0  0  0  0  0  0  0  0
   19.6329  -19.6004   25.0457 C   0  0  0  0  0  0  0  0  0  0  0  0
   20.2532  -20.7355   24.4753 N   0  0  0  0  0  0  0  0  0  0  0  0
   17.9059  -22.4312   26.1487 C   0  0  0  0  0  0  0  0  0  0  0  0
   17.2116  -21.2991   25.5475 N   0  0  0  0  0  0  0  0  0  0  0  0
   13.2897  -20.2189   26.7939 C   0  0  0  0  0  0  0  0  0  0  0  0
   13.4607  -21.1200   25.7565 C   0  0  0  0  0  0  0  0  0  0  0  0
   14.7562  -21.4825   25.3397 C   0  0  0  0  0  0  0  0  0  0  0  0
   15.8643  -20.9347   25.9681 C   0  0  0  0  0  0  0  0  0  0  0  0
   15.6893  -20.0294   27.0105 C   0  0  0  0  0  0  0  0  0  0  0  0
   14.4033  -19.6725   27.4242 C   0  0  0  0  0  0  0  0  0  0  0  0
   20.0652  -20.8759   28.4479 C   0  0  0  0  0  0  0  0  0  0  0  0
  1  3  1  0  0  0  0
  2  3  2  0  0  0  0
  2 12  1  0  0  0  0
  3  4  1  0  0  0  0
  4  6  1  0  0  0  0
  5 22  1  0  0  0  0
  6  7  1  0  0  0  0
  6  8  2  0  0  0  0
  7 12  2  0  0  0  0
  7  9  1  0  0  0  0
  9 10  1  0  0  0  0
  9 22  1  0  0  0  0
 10 11  1  0  0  0  0
 10 14  1  6  0  0  0
 11 13  1  0  0  0  0
 12 13  1  0  0  0  0
 14 15  1  0  0  0  0
 15 19  1  0  0  0  0
 16 17  2  0  0  0  0
 16 21  1  0  0  0  0
 17 18  1  0  0  0  0
 18 19  2  0  0  0  0
 19 20  1  0  0  0  0
 20 21  2  0  0  0  0
M  END
>  <CHROM.1>
-111.28940679,51.34823316,-139.67637948,-89.86893475,18.04405275,-20.03517857
26.21904286,0.08128701,-0.04464167,-0.39122603

>  <Name>
ligand

>  <RI>
0

>  <Rbt.Current_Directory>
/home/itssahil/PROJECTS/Mol_Feturizer/Test_systems_manuscript/rnas/3sd3

>  <Rbt.Executable>
rbdock ($Id: //depot/dev/client3/rdock/2013.1/src/exe/rbdock.cxx#4 $)

>  <Rbt.Library>
libRbt.so (2013.1, Build901 2013/11/27)

>  <Rbt.Parameter_File>
/export/apps/rDock/src/rDock_2013.1_src/data/scripts/dock_solv.prm

>  <Rbt.Receptor>
prm/pocket_docking_4.prm

>  <SCORE>
-14.1892

>  <SCORE.INTER>
-13.465

>  <SCORE.INTER.CONST>
1

>  <SCORE.INTER.POLAR>
0

>  <SCORE.INTER.ROT>
4

>  <SCORE.INTER.SOLV>
6.35654

>  <SCORE.INTER.VDW>
-17.3622

>  <SCORE.INTER.norm>
-0.612045

>  <SCORE.INTRA>
-0.724248

>  <SCORE.INTRA.DIHEDRAL>
0.262461

>  <SCORE.INTRA.DIHEDRAL.0>
2.54655

>  <SCORE.INTRA.POLAR>
0

>  <SCORE.INTRA.POLAR.0>
0

>  <SCORE.INTRA.REPUL>
0

>  <SCORE.INTRA.REPUL.0>
0

>  <SCORE.INTRA.SOLV>
1.90033

>  <SCORE.INTRA.SOLV.lig_0>
-56.4922

>  <SCORE.INTRA.VDW>
-1.80565

>  <SCORE.INTRA.VDW.0>
-0.696801

>  <SCORE.INTRA.norm>
-0.0329204

>  <SCORE.RESTR>
0

>  <SCORE.RESTR.CAVITY>
0

>  <SCORE.RESTR.norm>
0

>  <SCORE.SYSTEM>
0

>  <SCORE.SYSTEM.CONST>
0

>  <SCORE.SYSTEM.DIHEDRAL>
0

>  <SCORE.SYSTEM.SOLV>
0

>  <SCORE.SYSTEM.norm>
0

>  <SCORE.heavy>
22

>  <SCORE.norm>
-0.644965

>  <RMSD>
5.711

$$$$
ligand
 OpenBabel02271912143D
libRbt.so/2013.1/901 2013/11/27
 22 24  0  0  0  0  0  0  0  0999 V2000
   18.9097  -16.3404   24.3078 N   0  0  0  0  0  0  0  0  0  0  0  0
   19.7231  -18.5452   24.7661 N   0  0  0  0  0  0  0  0  0  0  0  0
   18.9949  -17.4903   25.1675 C   0  0  0  0  0  0  0  0  0  0  0  0
   18.3537  -17.4763   26.3296 N   0  0  0  0  0  0  0  0  0  0  0  0
   18.5126  -21.2053   29.6567 O   0  0  0  0  0  0  0  0  0  0  0  0
   18.4216  -18.5418   27.1489 C   0  0  0  0  0  0  0  0  0  0  0  0
   19.1942  -19.6722   26.7619 C   0  0  0  0  0  0  0  0  0  0  0  0
   17.7465  -18.5019   28.3482 O   0  0  0  0  0  0  0  0  0  0  0  0
   19.3403  -20.8935   27.5288 N   0  0  0  0  0  0  0  0  0  0  0  0
   19.3347  -22.1503   26.7689 C   0  0  2  0  0  0  0  0  0  0  0  0
   20.3278  -22.0946   25.6504 C   0  0  0  0  0  0  0  0  0  0  0  0
   19.8283  -19.6394   25.5452 C   0  0  0  0  0  0  0  0  0  0  0  0
   20.5944  -20.7538   25.1331 N   0  0  0  0  0  0  0  0  0  0  0  0
   17.9579  -22.5204   26.1884 C   0  0  0  0  0  0  0  0  0  0  0  0
   17.3142  -21.3453   25.6141 N   0  0  0  0  0  0  0  0  0  0  0  0
   13.3748  -20.2214   26.7628 C   0  0  0  0  0  0  0  0  0  0  0  0
   13.5633  -21.0820   25.6944 C   0  0  0  0  0  0  0  0  0  0  0  0
   14.8647  -21.4587   25.3097 C   0  0  0  0  0  0  0  0  0  0  0  0
   15.9610  -20.9656   26.0008 C   0  0  0  0  0  0  0  0  0  0  0  0
   15.7684  -20.1009   27.0742 C   0  0  0  0  0  0  0  0  0  0  0  0
   14.4765  -19.7299   27.4560 C   0  0  0  0  0  0  0  0  0  0  0  0
   19.4678  -20.9429   28.9452 C   0  0  0  0  0  0  0  0  0  0  0  0
  1  3  1  0  0  0  0
  2  3  2  0  0  0  0
  2 12  1  0  0  0  0
  3  4  1  0  0  0  0
  4  6  1  0  0  0  0
  5 22  1  0  0  0  0
  6  7  1  0  0  0  0
  6  8  2  0  0  0  0
  7 12  2  0  0  0  0
  7  9  1  0  0  0  0
  9 10  1  0  0  0  0
  9 22  1  0  0  0  0
 10 11  1  0  0  0  0
 10 14  1  6  0  0  0
 11 13  1  0  0  0  0
 12 13  1  0  0  0  0
 14 15  1  0  0  0  0
 15 19  1  0  0  0  0
 16 17  2  0  0  0  0
 16 21  1  0  0  0  0
 17 18  1  0  0  0  0
 18 19  2  0  0  0  0
 19 20  1  0  0  0  0
 20 21  2  0  0  0  0
M  END
>  <CHROM.1>
99.65232831,43.10381445,-127.38250510,-89.72216428,17.91317757,-20.07901554
26.50719983,0.27386765,-0.00886704,-0.45503682

>  <Name>
ligand

>  <RI>
0

>  <Rbt.Current_Directory>
/home/itssahil/PROJECTS/Mol_Feturizer/Test_systems_manuscript/rnas/3sd3

>  <Rbt.Executable>
rbdock ($Id: //depot/dev/client3/rdock/2013.1/src/exe/rbdock.cxx#4 $)

>  <Rbt.Library>
libRbt.so (2013.1, Build901 2013/11/27)

>  <Rbt.Parameter_File>
/export/apps/rDock/src/rDock_2013.1_src/data/scripts/dock_solv.prm

>  <Rbt.Receptor>
prm/pocket_docking_5.prm

>  <SCORE>
-14.5323

>  <SCORE.INTER>
-14.2243

>  <SCORE.INTER.CONST>
1

>  <SCORE.INTER.POLAR>
0

>  <SCORE.INTER.ROT>
4

>  <SCORE.INTER.SOLV>
7.01856

>  <SCORE.INTER.VDW>
-18.0891

>  <SCORE.INTER.norm>
-0.646561

>  <SCORE.INTRA>
-0.307913

>  <SCORE.INTRA.DIHEDRAL>
1.15595

>  <SCORE.INTRA.DIHEDRAL.0>
2.54655

>  <SCORE.INTRA.POLAR>
0

>  <SCORE.INTRA.POLAR.0>
0

>  <SCORE.INTRA.REPUL>
0

>  <SCORE.INTRA.REPUL.0>
0

>  <SCORE.INTRA.SOLV>
2.46418

>  <SCORE.INTRA.SOLV.lig_0>
-56.4922

>  <SCORE.INTRA.VDW>
-2.11798

>  <SCORE.INTRA.VDW.0>
-0.696801

>  <SCORE.INTRA.norm>
-0.013996

>  <SCORE.RESTR>
0

>  <SCORE.RESTR.CAVITY>
0

>  <SCORE.RESTR.norm>
0

>  <SCORE.SYSTEM>
0

>  <SCORE.SYSTEM.CONST>
0

>  <SCORE.SYSTEM.DIHEDRAL>
0

>  <SCORE.SYSTEM.SOLV>
0

>  <SCORE.SYSTEM.norm>
0

>  <SCORE.heavy>
22

>  <SCORE.norm>
-0.660557

>  <RMSD>
5.715

$$$$
ligand
 OpenBabel02271912143D
libRbt.so/2013.1/901 2013/11/27
 22 24  0  0  0  0  0  0  0  0999 V2000
   20.5230  -16.2121   25.2559 N   0  0  0  0  0  0  0  0  0  0  0  0
   18.6269  -17.5909   25.7424 N   0  0  0  0  0  0  0  0  0  0  0  0
   19.9565  -17.4944   25.5778 C   0  0  0  0  0  0  0  0  0  0  0  0
   20.7611  -18.5426   25.7023 N   0  0  0  0  0  0  0  0  0  0  0  0
   18.8970  -22.5500   24.8627 O   0  0  0  0  0  0  0  0  0  0  0  0
   20.2508  -19.7513   26.0020 C   0  0  0  0  0  0  0  0  0  0  0  0
   18.8452  -19.8934   26.1711 C   0  0  0  0  0  0  0  0  0  0  0  0
   21.1074  -20.8219   26.1263 O   0  0  0  0  0  0  0  0  0  0  0  0
   18.1596  -21.1233   26.5153 N   0  0  0  0  0  0  0  0  0  0  0  0
   17.0456  -21.0098   27.4656 C   0  0  2  0  0  0  0  0  0  0  0  0
   16.0767  -19.9599   27.0192 C   0  0  0  0  0  0  0  0  0  0  0  0
   18.0595  -18.7756   26.0423 C   0  0  0  0  0  0  0  0  0  0  0  0
   16.6609  -18.8883   26.2150 N   0  0  0  0  0  0  0  0  0  0  0  0
   17.4863  -20.6941   28.9063 C   0  0  0  0  0  0  0  0  0  0  0  0
   18.3684  -21.7396   29.4102 N   0  0  0  0  0  0  0  0  0  0  0  0
   18.6667  -22.5033   33.5850 C   0  0  0  0  0  0  0  0  0  0  0  0
   19.6976  -22.8772   32.7394 C   0  0  0  0  0  0  0  0  0  0  0  0
   19.6055  -22.6265   31.3567 C   0  0  0  0  0  0  0  0  0  0  0  0
   18.4791  -22.0051   30.8392 C   0  0  0  0  0  0  0  0  0  0  0  0
   17.4447  -21.6303   31.6915 C   0  0  0  0  0  0  0  0  0  0  0  0
   17.5385  -21.8778   33.0635 C   0  0  0  0  0  0  0  0  0  0  0  0
   18.5089  -22.4068   26.0100 C   0  0  0  0  0  0  0  0  0  0  0  0
  1  3  1  0  0  0  0
  2  3  2  0  0  0  0
  2 12  1  0  0  0  0
  3  4  1  0  0  0  0
  4  6  1  0  0  0  0
  5 22  1  0  0  0  0
  6  7  1  0  0  0  0
  6  8  2  0  0  0  0
  7 12  2  0  0  0  0
  7  9  1  0  0  0  0
  9 10  1  0  0  0  0
  9 22  1  0  0  0  0
 10 11  1  0  0  0  0
 10 14  1  1  0  0  0
 11 13  1  0  0  0  0
 12 13  1  0  0  0  0
 14 15  1  0  0  0  0
 15 19  1  0  0  0  0
 16 17  2  0  0  0  0
 16 21  1  0  0  0  0
 17 18  1  0  0  0  0
 18 19  2  0  0  0  0
 19 20  1  0  0  0  0
 20 21  2  0  0  0  0
M  END
>  <CHROM.1>
-36.55489820,-59.70991770,-154.02028467,-157.12385456,18.68207839,-20.48298049
27.86481775,-1.31866181,1.06107819,1.84732395

>  <Name>
ligand

>  <RI>
0

>  <Rbt.Current_Directory>
/home/itssahil/PROJECTS/Mol_Feturizer/Test_systems_manuscript/rnas/3sd3

>  <Rbt.Executable>
rbdock ($Id: //depot/dev/client3/rdock/2013.1/src/exe/rbdock.cxx#4 $)

>  <Rbt.Library>
libRbt.so (2013.1, Build901 2013/11/27)

>  <Rbt.Parameter_File>
/export/apps/rDock/src/rDock_2013.1_src/data/scripts/dock_solv.prm

>  <Rbt.Receptor>
prm/pocket_docking_7.prm

>  <SCORE>
-10.9553

>  <SCORE.INTER>
-10.395

>  <SCORE.INTER.CONST>
1

>  <SCORE.INTER.POLAR>
0

>  <SCORE.INTER.ROT>
4

>  <SCORE.INTER.SOLV>
8.5312

>  <SCORE.INTER.VDW>
-16.0404

>  <SCORE.INTER.norm>
-0.472498

>  <SCORE.INTRA>
-0.56031

>  <SCORE.INTRA.DIHEDRAL>
-0.462093

>  <SCORE.INTRA.DIHEDRAL.0>
2.54655

>  <SCORE.INTRA.POLAR>
0

>  <SCORE.INTRA.POLAR.0>
0

>  <SCORE.INTRA.REPUL>
0

>  <SCORE.INTRA.REPUL.0>
0

>  <SCORE.INTRA.SOLV>
-0.0735326

>  <SCORE.INTRA.SOLV.lig_0>
-56.4922

>  <SCORE.INTRA.VDW>
-0.292497

>  <SCORE.INTRA.VDW.0>
-0.696801

>  <SCORE.INTRA.norm>
-0.0254686

>  <SCORE.RESTR>
0

>  <SCORE.RESTR.CAVITY>
0

>  <SCORE.RESTR.norm>
0

>  <SCORE.SYSTEM>
0

>  <SCORE.SYSTEM.CONST>
0

>  <SCORE.SYSTEM.DIHEDRAL>
0

>  <SCORE.SYSTEM.SOLV>
0

>  <SCORE.SYSTEM.norm>
0

>  <SCORE.heavy>
22

>  <SCORE.norm>
-0.497967

>  <RMSD>
5.740

$$$$
ligand
 OpenBabel02271912143D
libRbt.so/2013.1/901 2013/11/27
 22 24  0  0  0  0  0  0  0  0999 V2000
   20.5256  -16.4950   24.7251 N   0  0  0  0  0  0  0  0  0  0  0  0
   18.7142  -17.9894   25.1925 N   0  0  0  0  0  0  0  0  0  0  0  0
   20.0400  -17.7755   25.1648 C   0  0  0  0  0  0  0  0  0  0  0  0
   20.9130  -18.7064   25.5294 N   0  0  0  0  0  0  0  0  0  0  0  0
   19.5097  -22.9725   25.0688 O   0  0  0  0  0  0  0  0  0  0  0  0
   20.4791  -19.9114   25.9428 C   0  0  0  0  0  0  0  0  0  0  0  0
   19.0817  -20.1777   25.9730 C   0  0  0  0  0  0  0  0  0  0  0  0
   21.4055  -20.8590   26.3162 O   0  0  0  0  0  0  0  0  0  0  0  0
   18.4709  -21.4162   26.4138 N   0  0  0  0  0  0  0  0  0  0  0  0
   17.2410  -21.2953   27.2073 C   0  0  2  0  0  0  0  0  0  0  0  0
   16.2458  -20.4231   26.5077 C   0  0  0  0  0  0  0  0  0  0  0  0
   18.2217  -19.1767   25.5962 C   0  0  0  0  0  0  0  0  0  0  0  0
   16.8282  -19.4129   25.6265 N   0  0  0  0  0  0  0  0  0  0  0  0
   17.4677  -20.7449   28.6269 C   0  0  0  0  0  0  0  0  0  0  0  0
   18.3124  -21.6506   29.3958 N   0  0  0  0  0  0  0  0  0  0  0  0
   18.6583  -21.2653   33.6187 C   0  0  0  0  0  0  0  0  0  0  0  0
   17.8158  -22.2230   33.0797 C   0  0  0  0  0  0  0  0  0  0  0  0
   17.6975  -22.3564   31.6827 C   0  0  0  0  0  0  0  0  0  0  0  0
   18.4248  -21.5257   30.8438 C   0  0  0  0  0  0  0  0  0  0  0  0
   19.2709  -20.5642   31.3885 C   0  0  0  0  0  0  0  0  0  0  0  0
   19.3887  -20.4346   32.7747 C   0  0  0  0  0  0  0  0  0  0  0  0
   18.9938  -22.7115   26.1426 C   0  0  0  0  0  0  0  0  0  0  0  0
  1  3  1  0  0  0  0
  2  3  2  0  0  0  0
  2 12  1  0  0  0  0
  3  4  1  0  0  0  0
  4  6  1  0  0  0  0
  5 22  1  0  0  0  0
  6  7  1  0  0  0  0
  6  8  2  0  0  0  0
  7 12  2  0  0  0  0
  7  9  1  0  0  0  0
  9 10  1  0  0  0  0
  9 22  1  0  0  0  0
 10 11  1  0  0  0  0
 10 14  1  1  0  0  0
 11 13  1  0  0  0  0
 12 13  1  0  0  0  0
 14 15  1  0  0  0  0
 15 19  1  0  0  0  0
 16 17  2  0  0  0  0
 16 21  1  0  0  0  0
 17 18  1  0  0  0  0
 18 19  2  0  0  0  0
 19 20  1  0  0  0  0
 20 21  2  0  0  0  0
M  END
>  <CHROM.1>
-38.04704651,-62.71812079,-165.66257839,99.75867352,18.82544231,-20.47012285
27.70777314,-1.25196006,1.04878364,1.63249267

>  <Name>
ligand

>  <RI>
0

>  <Rbt.Current_Directory>
/home/itssahil/PROJECTS/Mol_Feturizer/Test_systems_manuscript/rnas/3sd3

>  <Rbt.Executable>
rbdock ($Id: //depot/dev/client3/rdock/2013.1/src/exe/rbdock.cxx#4 $)

>  <Rbt.Library>
libRbt.so (2013.1, Build901 2013/11/27)

>  <Rbt.Parameter_File>
/export/apps/rDock/src/rDock_2013.1_src/data/scripts/dock_solv.prm

>  <Rbt.Receptor>
prm/pocket_docking_7.prm

>  <SCORE>
-11.0013

>  <SCORE.INTER>
-9.74315

>  <SCORE.INTER.CONST>
1

>  <SCORE.INTER.POLAR>
0

>  <SCORE.INTER.ROT>
4

>  <SCORE.INTER.SOLV>
8.08085

>  <SCORE.INTER.VDW>
-15.4557

>  <SCORE.INTER.norm>
-0.44287

>  <SCORE.INTRA>
-1.25813

>  <SCORE.INTRA.DIHEDRAL>
-0.752391

>  <SCORE.INTRA.DIHEDRAL.0>
2.54655

>  <SCORE.INTRA.POLAR>
0

>  <SCORE.INTRA.POLAR.0>
0

>  <SCORE.INTRA.REPUL>
0

>  <SCORE.INTRA.REPUL.0>
0

>  <SCORE.INTRA.SOLV>
-0.126456

>  <SCORE.INTRA.SOLV.lig_0>
-56.4922

>  <SCORE.INTRA.VDW>
-0.81871

>  <SCORE.INTRA.VDW.0>
-0.696801

>  <SCORE.INTRA.norm>
-0.0571879

>  <SCORE.RESTR>
0

>  <SCORE.RESTR.CAVITY>
0

>  <SCORE.RESTR.norm>
0

>  <SCORE.SYSTEM>
0

>  <SCORE.SYSTEM.CONST>
0

>  <SCORE.SYSTEM.DIHEDRAL>
0

>  <SCORE.SYSTEM.SOLV>
0

>  <SCORE.SYSTEM.norm>
0

>  <SCORE.heavy>
22

>  <SCORE.norm>
-0.500058

>  <RMSD>
5.754

$$$$
ligand
 OpenBabel02271912143D
libRbt.so/2013.1/901 2013/11/27
 22 24  0  0  0  0  0  0  0  0999 V2000
   18.7442  -16.9261   24.0705 N   0  0  0  0  0  0  0  0  0  0  0  0
   18.8146  -19.2716   24.5466 N   0  0  0  0  0  0  0  0  0  0  0  0
   19.1355  -18.0210   24.9171 C   0  0  0  0  0  0  0  0  0  0  0  0
   19.8008  -17.7653   26.0369 N   0  0  0  0  0  0  0  0  0  0  0  0
   22.4572  -21.0419   27.5452 O   0  0  0  0  0  0  0  0  0  0  0  0
   20.1770  -18.7758   26.8422 C   0  0  0  0  0  0  0  0  0  0  0  0
   19.8651  -20.1146   26.4750 C   0  0  0  0  0  0  0  0  0  0  0  0
   20.8652  -18.4832   27.9982 O   0  0  0  0  0  0  0  0  0  0  0  0
   20.1859  -21.2961   27.2511 N   0  0  0  0  0  0  0  0  0  0  0  0
   19.1622  -22.3482   27.2984 C   0  0  2  0  0  0  0  0  0  0  0  0
   18.7193  -22.7154   25.9166 C   0  0  0  0  0  0  0  0  0  0  0  0
   19.1659  -20.3229   25.3125 C   0  0  0  0  0  0  0  0  0  0  0  0
   18.8353  -21.6432   24.9301 N   0  0  0  0  0  0  0  0  0  0  0  0
   17.9227  -21.9735   28.1307 C   0  0  0  0  0  0  0  0  0  0  0  0
   17.3035  -20.7624   27.6061 N   0  0  0  0  0  0  0  0  0  0  0  0
   13.5362  -20.9054   25.6342 C   0  0  0  0  0  0  0  0  0  0  0  0
   13.5958  -20.6290   26.9898 C   0  0  0  0  0  0  0  0  0  0  0  0
   14.8397  -20.5792   27.6483 C   0  0  0  0  0  0  0  0  0  0  0  0
   16.0085  -20.8094   26.9386 C   0  0  0  0  0  0  0  0  0  0  0  0
   15.9455  -21.0868   25.5763 C   0  0  0  0  0  0  0  0  0  0  0  0
   14.7107  -21.1337   24.9240 C   0  0  0  0  0  0  0  0  0  0  0  0
   21.4011  -21.4815   27.9678 C   0  0  0  0  0  0  0  0  0  0  0  0
  1  3  1  0  0  0  0
  2  3  2  0  0  0  0
  2 12  1  0  0  0  0
  3  4  1  0  0  0  0
  4  6  1  0  0  0  0
  5 22  1  0  0  0  0
  6  7  1  0  0  0  0
  6  8  2  0  0  0  0
  7 12  2  0  0  0  0
  7  9  1  0  0  0  0
  9 10  1  0  0  0  0
  9 22  1  0  0  0  0
 10 11  1  0  0  0  0
 10 14  1  1  0  0  0
 11 13  1  0  0  0  0
 12 13  1  0  0  0  0
 14 15  1  0  0  0  0
 15 19  1  0  0  0  0
 16 17  2  0  0  0  0
 16 21  1  0  0  0  0
 17 18  1  0  0  0  0
 18 19  2  0  0  0  0
 19 20  1  0  0  0  0
 20 21  2  0  0  0  0
M  END
>  <CHROM.1>
-34.68699460,58.16267611,110.39318063,93.83329248,18.38535647,-20.36180599
26.42299264,0.07649406,-0.18232367,-0.55058549

>  <Name>
ligand

>  <RI>
0

>  <Rbt.Current_Directory>
/home/itssahil/PROJECTS/Mol_Feturizer/Test_systems_manuscript/rnas/3sd3

>  <Rbt.Executable>
rbdock ($Id: //depot/dev/client3/rdock/2013.1/src/exe/rbdock.cxx#4 $)

>  <Rbt.Library>
libRbt.so (2013.1, Build901 2013/11/27)

>  <Rbt.Parameter_File>
/export/apps/rDock/src/rDock_2013.1_src/data/scripts/dock_solv.prm

>  <Rbt.Receptor>
prm/pocket_docking_6.prm

>  <SCORE>
-13.4629

>  <SCORE.INTER>
-12.9417

>  <SCORE.INTER.CONST>
1

>  <SCORE.INTER.POLAR>
0

>  <SCORE.INTER.ROT>
4

>  <SCORE.INTER.SOLV>
5.82626

>  <SCORE.INTER.VDW>
-16.8366

>  <SCORE.INTER.norm>
-0.58826

>  <SCORE.INTRA>
-0.521125

>  <SCORE.INTRA.DIHEDRAL>
0.197354

>  <SCORE.INTRA.DIHEDRAL.0>
2.54655

>  <SCORE.INTRA.POLAR>
0

>  <SCORE.INTRA.POLAR.0>
0

>  <SCORE.INTRA.REPUL>
0

>  <SCORE.INTRA.REPUL.0>
0

>  <SCORE.INTRA.SOLV>
2.44488

>  <SCORE.INTRA.SOLV.lig_0>
-56.4922

>  <SCORE.INTRA.VDW>
-1.84224

>  <SCORE.INTRA.VDW.0>
-0.696801

>  <SCORE.INTRA.norm>
-0.0236875

>  <SCORE.RESTR>
0

>  <SCORE.RESTR.CAVITY>
0

>  <SCORE.RESTR.norm>
0

>  <SCORE.SYSTEM>
0

>  <SCORE.SYSTEM.CONST>
0

>  <SCORE.SYSTEM.DIHEDRAL>
0

>  <SCORE.SYSTEM.SOLV>
0

>  <SCORE.SYSTEM.norm>
0

>  <SCORE.heavy>
22

>  <SCORE.norm>
-0.611948

>  <RMSD>
5.773

$$$$
ligand
 OpenBabel02271912143D
libRbt.so/2013.1/901 2013/11/27
 22 24  0  0  0  0  0  0  0  0999 V2000
   18.6272  -17.5963   23.3071 N   0  0  0  0  0  0  0  0  0  0  0  0
   18.7483  -19.8203   24.1858 N   0  0  0  0  0  0  0  0  0  0  0  0
   19.0477  -18.5186   24.3275 C   0  0  0  0  0  0  0  0  0  0  0  0
   19.7178  -18.0585   25.3769 N   0  0  0  0  0  0  0  0  0  0  0  0
   21.4919  -21.9200   28.9838 O   0  0  0  0  0  0  0  0  0  0  0  0
   20.1211  -18.9052   26.3421 C   0  0  0  0  0  0  0  0  0  0  0  0
   19.8325  -20.2930   26.2190 C   0  0  0  0  0  0  0  0  0  0  0  0
   20.8138  -18.4021   27.4204 O   0  0  0  0  0  0  0  0  0  0  0  0
   20.1836  -21.3141   27.1862 N   0  0  0  0  0  0  0  0  0  0  0  0
   19.1815  -22.3597   27.4296 C   0  0  2  0  0  0  0  0  0  0  0  0
   18.7336  -22.9715   26.1391 C   0  0  0  0  0  0  0  0  0  0  0  0
   19.1272  -20.7145   25.1197 C   0  0  0  0  0  0  0  0  0  0  0  0
   18.8194  -22.0871   24.9787 N   0  0  0  0  0  0  0  0  0  0  0  0
   17.9422  -21.8671   28.1986 C   0  0  0  0  0  0  0  0  0  0  0  0
   17.3604  -20.7056   27.5372 N   0  0  0  0  0  0  0  0  0  0  0  0
   13.5088  -20.9041   25.7406 C   0  0  0  0  0  0  0  0  0  0  0  0
   13.6268  -20.6228   27.0914 C   0  0  0  0  0  0  0  0  0  0  0  0
   14.8989  -20.5547   27.6920 C   0  0  0  0  0  0  0  0  0  0  0  0
   16.0368  -20.7716   26.9299 C   0  0  0  0  0  0  0  0  0  0  0  0
   15.9151  -21.0539   25.5726 C   0  0  0  0  0  0  0  0  0  0  0  0
   14.6524  -21.1190   24.9778 C   0  0  0  0  0  0  0  0  0  0  0  0
   21.4086  -21.3491   27.9093 C   0  0  0  0  0  0  0  0  0  0  0  0
  1  3  1  0  0  0  0
  2  3  2  0  0  0  0
  2 12  1  0  0  0  0
  3  4  1  0  0  0  0
  4  6  1  0  0  0  0
  5 22  1  0  0  0  0
  6  7  1  0  0  0  0
  6  8  2  0  0  0  0
  7 12  2  0  0  0  0
  7  9  1  0  0  0  0
  9 10  1  0  0  0  0
  9 22  1  0  0  0  0
 10 11  1  0  0  0  0
 10 14  1  6  0  0  0
 11 13  1  0  0  0  0
 12 13  1  0  0  0  0
 14 15  1  0  0  0  0
 15 19  1  0  0  0  0
 16 17  2  0  0  0  0
 16 21  1  0  0  0  0
 17 18  1  0  0  0  0
 18 19  2  0  0  0  0
 19 20  1  0  0  0  0
 20 21  2  0  0  0  0
M  END
>  <CHROM.1>
155.34438091,53.35056600,114.12679287,85.36904394,18.31264977,-20.54364595
26.34603568,-0.05325652,-0.15954390,-0.78672767

>  <Name>
ligand

>  <RI>
0

>  <Rbt.Current_Directory>
/home/itssahil/PROJECTS/Mol_Feturizer/Test_systems_manuscript/rnas/3sd3

>  <Rbt.Executable>
rbdock ($Id: //depot/dev/client3/rdock/2013.1/src/exe/rbdock.cxx#4 $)

>  <Rbt.Library>
libRbt.so (2013.1, Build901 2013/11/27)

>  <Rbt.Parameter_File>
/export/apps/rDock/src/rDock_2013.1_src/data/scripts/dock_solv.prm

>  <Rbt.Receptor>
prm/pocket_docking_4.prm

>  <SCORE>
-13.5227

>  <SCORE.INTER>
-13.2796

>  <SCORE.INTER.CONST>
1

>  <SCORE.INTER.POLAR>
0

>  <SCORE.INTER.ROT>
4

>  <SCORE.INTER.SOLV>
6.59208

>  <SCORE.INTER.VDW>
-17.3171

>  <SCORE.INTER.norm>
-0.603617

>  <SCORE.INTRA>
-0.243105

>  <SCORE.INTRA.DIHEDRAL>
0.436264

>  <SCORE.INTRA.DIHEDRAL.0>
2.54655

>  <SCORE.INTRA.POLAR>
0

>  <SCORE.INTRA.POLAR.0>
0

>  <SCORE.INTRA.REPUL>
0

>  <SCORE.INTRA.REPUL.0>
0

>  <SCORE.INTRA.SOLV>
2.37323

>  <SCORE.INTRA.SOLV.lig_0>
-56.4922

>  <SCORE.INTRA.VDW>
-1.64785

>  <SCORE.INTRA.VDW.0>
-0.696801

>  <SCORE.INTRA.norm>
-0.0110502

>  <SCORE.RESTR>
0

>  <SCORE.RESTR.CAVITY>
0

>  <SCORE.RESTR.norm>
0

>  <SCORE.SYSTEM>
0

>  <SCORE.SYSTEM.CONST>
0

>  <SCORE.SYSTEM.DIHEDRAL>
0

>  <SCORE.SYSTEM.SOLV>
0

>  <SCORE.SYSTEM.norm>
0

>  <SCORE.heavy>
22

>  <SCORE.norm>
-0.614667

>  <RMSD>
5.782

$$$$
ligand
 OpenBabel02271912143D
libRbt.so/2013.1/901 2013/11/27
 22 24  0  0  0  0  0  0  0  0999 V2000
   18.8940  -17.4774   23.4362 N   0  0  0  0  0  0  0  0  0  0  0  0
   18.8640  -19.7309   24.2448 N   0  0  0  0  0  0  0  0  0  0  0  0
   19.2559  -18.4586   24.4236 C   0  0  0  0  0  0  0  0  0  0  0  0
   19.9649  -18.0802   25.4800 N   0  0  0  0  0  0  0  0  0  0  0  0
   21.5300  -21.2387   29.0659 O   0  0  0  0  0  0  0  0  0  0  0  0
   20.3146  -18.9832   26.4146 C   0  0  0  0  0  0  0  0  0  0  0  0
   19.9275  -20.3426   26.2517 C   0  0  0  0  0  0  0  0  0  0  0  0
   21.0493  -18.5643   27.5010 O   0  0  0  0  0  0  0  0  0  0  0  0
   20.2128  -21.4158   27.1834 N   0  0  0  0  0  0  0  0  0  0  0  0
   19.1410  -22.3952   27.4043 C   0  0  2  0  0  0  0  0  0  0  0  0
   18.6411  -22.9331   26.1000 C   0  0  0  0  0  0  0  0  0  0  0  0
   19.1858  -20.6785   25.1469 C   0  0  0  0  0  0  0  0  0  0  0  0
   18.7804  -22.0208   24.9666 N   0  0  0  0  0  0  0  0  0  0  0  0
   17.9456  -21.8409   28.2003 C   0  0  0  0  0  0  0  0  0  0  0  0
   17.3656  -20.6924   27.5150 N   0  0  0  0  0  0  0  0  0  0  0  0
   13.5090  -20.9177   25.7325 C   0  0  0  0  0  0  0  0  0  0  0  0
   13.6298  -20.6403   27.0838 C   0  0  0  0  0  0  0  0  0  0  0  0
   14.9035  -20.5634   27.6798 C   0  0  0  0  0  0  0  0  0  0  0  0
   16.0403  -20.7677   26.9126 C   0  0  0  0  0  0  0  0  0  0  0  0
   15.9157  -21.0462   25.5547 C   0  0  0  0  0  0  0  0  0  0  0  0
   14.6514  -21.1200   24.9645 C   0  0  0  0  0  0  0  0  0  0  0  0
   21.4377  -21.5598   27.8930 C   0  0  0  0  0  0  0  0  0  0  0  0
  1  3  1  0  0  0  0
  2  3  2  0  0  0  0
  2 12  1  0  0  0  0
  3  4  1  0  0  0  0
  4  6  1  0  0  0  0
  5 22  1  0  0  0  0
  6  7  1  0  0  0  0
  6  8  2  0  0  0  0
  7 12  2  0  0  0  0
  7  9  1  0  0  0  0
  9 10  1  0  0  0  0
  9 22  1  0  0  0  0
 10 11  1  0  0  0  0
 10 14  1  6  0  0  0
 11 13  1  0  0  0  0
 12 13  1  0  0  0  0
 14 15  1  0  0  0  0
 15 19  1  0  0  0  0
 16 17  2  0  0  0  0
 16 21  1  0  0  0  0
 17 18  1  0  0  0  0
 18 19  2  0  0  0  0
 19 20  1  0  0  0  0
 20 21  2  0  0  0  0
M  END
>  <CHROM.1>
101.88949136,58.54686807,111.44439223,83.75907143,18.37637562,-20.51835530
26.36975196,0.00038376,-0.18276436,-0.80447364

>  <Name>
ligand

>  <RI>
0

>  <Rbt.Current_Directory>
/home/itssahil/PROJECTS/Mol_Feturizer/Test_systems_manuscript/rnas/3sd3

>  <Rbt.Executable>
rbdock ($Id: //depot/dev/client3/rdock/2013.1/src/exe/rbdock.cxx#4 $)

>  <Rbt.Library>
libRbt.so (2013.1, Build901 2013/11/27)

>  <Rbt.Parameter_File>
/export/apps/rDock/src/rDock_2013.1_src/data/scripts/dock_solv.prm

>  <Rbt.Receptor>
prm/pocket_docking_7.prm

>  <SCORE>
-13.6182

>  <SCORE.INTER>
-13.0645

>  <SCORE.INTER.CONST>
1

>  <SCORE.INTER.POLAR>
0

>  <SCORE.INTER.ROT>
4

>  <SCORE.INTER.SOLV>
5.93746

>  <SCORE.INTER.VDW>
-16.9555

>  <SCORE.INTER.norm>
-0.593842

>  <SCORE.INTRA>
-0.553676

>  <SCORE.INTRA.DIHEDRAL>
0.213401

>  <SCORE.INTRA.DIHEDRAL.0>
2.54655

>  <SCORE.INTRA.POLAR>
0

>  <SCORE.INTRA.POLAR.0>
0

>  <SCORE.INTRA.REPUL>
0

>  <SCORE.INTRA.REPUL.0>
0

>  <SCORE.INTRA.SOLV>
2.47743

>  <SCORE.INTRA.SOLV.lig_0>
-56.4922

>  <SCORE.INTRA.VDW>
-1.89909

>  <SCORE.INTRA.VDW.0>
-0.696801

>  <SCORE.INTRA.norm>
-0.0251671

>  <SCORE.RESTR>
0

>  <SCORE.RESTR.CAVITY>
0

>  <SCORE.RESTR.norm>
0

>  <SCORE.SYSTEM>
0

>  <SCORE.SYSTEM.CONST>
0

>  <SCORE.SYSTEM.DIHEDRAL>
0

>  <SCORE.SYSTEM.SOLV>
0

>  <SCORE.SYSTEM.norm>
0

>  <SCORE.heavy>
22

>  <SCORE.norm>
-0.619009

>  <RMSD>
5.816

$$$$
ligand
 OpenBabel02271912143D
libRbt.so/2013.1/901 2013/11/27
 22 24  0  0  0  0  0  0  0  0999 V2000
   18.7960  -18.2458   22.6759 N   0  0  0  0  0  0  0  0  0  0  0  0
   18.7360  -20.3039   23.8981 N   0  0  0  0  0  0  0  0  0  0  0  0
   19.2027  -19.0483   23.7981 C   0  0  0  0  0  0  0  0  0  0  0  0
   20.0251  -18.5270   24.7001 N   0  0  0  0  0  0  0  0  0  0  0  0
   22.5720  -21.6739   26.9349 O   0  0  0  0  0  0  0  0  0  0  0  0
   20.4184  -19.2617   25.7568 C   0  0  0  0  0  0  0  0  0  0  0  0
   19.9539  -20.6001   25.8885 C   0  0  0  0  0  0  0  0  0  0  0  0
   21.2712  -18.6968   26.6783 O   0  0  0  0  0  0  0  0  0  0  0  0
   20.2747  -21.4981   26.9802 N   0  0  0  0  0  0  0  0  0  0  0  0
   19.1835  -22.3489   27.4724 C   0  0  2  0  0  0  0  0  0  0  0  0
   18.5380  -23.0859   26.3407 C   0  0  0  0  0  0  0  0  0  0  0  0
   19.0963  -21.0866   24.9338 C   0  0  0  0  0  0  0  0  0  0  0  0
   18.6128  -22.4103   25.0468 N   0  0  0  0  0  0  0  0  0  0  0  0
   18.0960  -21.5812   28.2455 C   0  0  0  0  0  0  0  0  0  0  0  0
   17.5197  -20.5346   27.4103 N   0  0  0  0  0  0  0  0  0  0  0  0
   13.6238  -20.9453   25.7507 C   0  0  0  0  0  0  0  0  0  0  0  0
   13.7751  -20.5240   27.0611 C   0  0  0  0  0  0  0  0  0  0  0  0
   15.0619  -20.3851   27.6162 C   0  0  0  0  0  0  0  0  0  0  0  0
   16.1812  -20.6724   26.8498 C   0  0  0  0  0  0  0  0  0  0  0  0
   16.0261  -21.0955   25.5331 C   0  0  0  0  0  0  0  0  0  0  0  0
   14.7487  -21.2308   24.9832 C   0  0  0  0  0  0  0  0  0  0  0  0
   21.5529  -21.5865   27.5992 C   0  0  0  0  0  0  0  0  0  0  0  0
  1  3  1  0  0  0  0
  2  3  2  0  0  0  0
  2 12  1  0  0  0  0
  3  4  1  0  0  0  0
  4  6  1  0  0  0  0
  5 22  1  0  0  0  0
  6  7  1  0  0  0  0
  6  8  2  0  0  0  0
  7 12  2  0  0  0  0
  7  9  1  0  0  0  0
  9 10  1  0  0  0  0
  9 22  1  0  0  0  0
 10 11  1  0  0  0  0
 10 14  1  6  0  0  0
 11 13  1  0  0  0  0
 12 13  1  0  0  0  0
 14 15  1  0  0  0  0
 15 19  1  0  0  0  0
 16 17  2  0  0  0  0
 16 21  1  0  0  0  0
 17 18  1  0  0  0  0
 18 19  2  0  0  0  0
 19 20  1  0  0  0  0
 20 21  2  0  0  0  0
M  END
>  <CHROM.1>
-47.86154956,57.88185534,106.51452796,81.33856430,18.48102564,-20.69963224
26.02624562,0.05258020,-0.04677243,-0.89193637

>  <Name>
ligand

>  <RI>
0

>  <Rbt.Current_Directory>
/home/itssahil/PROJECTS/Mol_Feturizer/Test_systems_manuscript/rnas/3sd3

>  <Rbt.Executable>
rbdock ($Id: //depot/dev/client3/rdock/2013.1/src/exe/rbdock.cxx#4 $)

>  <Rbt.Library>
libRbt.so (2013.1, Build901 2013/11/27)

>  <Rbt.Parameter_File>
/export/apps/rDock/src/rDock_2013.1_src/data/scripts/dock_solv.prm

>  <Rbt.Receptor>
prm/pocket_docking_4.prm

>  <SCORE>
-13.759

>  <SCORE.INTER>
-13.0793

>  <SCORE.INTER.CONST>
1

>  <SCORE.INTER.POLAR>
0

>  <SCORE.INTER.ROT>
4

>  <SCORE.INTER.SOLV>
6.59323

>  <SCORE.INTER.VDW>
-17.184

>  <SCORE.INTER.norm>
-0.594516

>  <SCORE.INTRA>
-0.679609

>  <SCORE.INTRA.DIHEDRAL>
0.142005

>  <SCORE.INTRA.DIHEDRAL.0>
2.54655

>  <SCORE.INTRA.POLAR>
0

>  <SCORE.INTRA.POLAR.0>
0

>  <SCORE.INTRA.REPUL>
0

>  <SCORE.INTRA.REPUL.0>
0

>  <SCORE.INTRA.SOLV>
2.44

>  <SCORE.INTRA.SOLV.lig_0>
-56.4922

>  <SCORE.INTRA.VDW>
-1.97061

>  <SCORE.INTRA.VDW.0>
-0.696801

>  <SCORE.INTRA.norm>
-0.0308913

>  <SCORE.RESTR>
0

>  <SCORE.RESTR.CAVITY>
0

>  <SCORE.RESTR.norm>
0

>  <SCORE.SYSTEM>
0

>  <SCORE.SYSTEM.CONST>
0

>  <SCORE.SYSTEM.DIHEDRAL>
0

>  <SCORE.SYSTEM.SOLV>
0

>  <SCORE.SYSTEM.norm>
0

>  <SCORE.heavy>
22

>  <SCORE.norm>
-0.625407

>  <RMSD>
5.817

$$$$
ligand
 OpenBabel02271912143D
libRbt.so/2013.1/901 2013/11/27
 22 24  0  0  0  0  0  0  0  0999 V2000
   19.3363  -16.3248   24.6293 N   0  0  0  0  0  0  0  0  0  0  0  0
   20.0037  -18.5680   25.1347 N   0  0  0  0  0  0  0  0  0  0  0  0
   19.2723  -17.4917   25.4677 C   0  0  0  0  0  0  0  0  0  0  0  0
   18.4950  -17.4718   26.5434 N   0  0  0  0  0  0  0  0  0  0  0  0
   18.1353  -21.3757   29.7777 O   0  0  0  0  0  0  0  0  0  0  0  0
   18.4220  -18.5530   27.3415 C   0  0  0  0  0  0  0  0  0  0  0  0
   19.1928  -19.7067   27.0265 C   0  0  0  0  0  0  0  0  0  0  0  0
   17.6075  -18.5064   28.4505 O   0  0  0  0  0  0  0  0  0  0  0  0
   19.1979  -20.9458   27.7786 N   0  0  0  0  0  0  0  0  0  0  0  0
   19.2376  -22.1882   26.9964 C   0  0  2  0  0  0  0  0  0  0  0  0
   20.3613  -22.1534   26.0082 C   0  0  0  0  0  0  0  0  0  0  0  0
   19.9715  -19.6788   25.8967 C   0  0  0  0  0  0  0  0  0  0  0  0
   20.7395  -20.8158   25.5564 N   0  0  0  0  0  0  0  0  0  0  0  0
   17.9290  -22.4928   26.2452 C   0  0  0  0  0  0  0  0  0  0  0  0
   17.3223  -21.2601   25.7578 N   0  0  0  0  0  0  0  0  0  0  0  0
   13.2997  -20.2631   26.7201 C   0  0  0  0  0  0  0  0  0  0  0  0
   13.5660  -21.1047   25.6532 C   0  0  0  0  0  0  0  0  0  0  0  0
   14.8953  -21.4395   25.3300 C   0  0  0  0  0  0  0  0  0  0  0  0
   15.9411  -20.9239   26.0804 C   0  0  0  0  0  0  0  0  0  0  0  0
   15.6703  -20.0784   27.1522 C   0  0  0  0  0  0  0  0  0  0  0  0
   14.3509  -19.7490   27.4728 C   0  0  0  0  0  0  0  0  0  0  0  0
   19.1495  -21.0245   29.1986 C   0  0  0  0  0  0  0  0  0  0  0  0
  1  3  1  0  0  0  0
  2  3  2  0  0  0  0
  2 12  1  0  0  0  0
  3  4  1  0  0  0  0
  4  6  1  0  0  0  0
  5 22  1  0  0  0  0
  6  7  1  0  0  0  0
  6  8  2  0  0  0  0
  7 12  2  0  0  0  0
  7  9  1  0  0  0  0
  9 10  1  0  0  0  0
  9 22  1  0  0  0  0
 10 11  1  0  0  0  0
 10 14  1  6  0  0  0
 11 13  1  0  0  0  0
 12 13  1  0  0  0  0
 14 15  1  0  0  0  0
 15 19  1  0  0  0  0
 16 17  2  0  0  0  0
 16 21  1  0  0  0  0
 17 18  1  0  0  0  0
 18 19  2  0  0  0  0
 19 20  1  0  0  0  0
 20 21  2  0  0  0  0
M  END
>  <CHROM.1>
106.20467025,36.38622527,-125.98077113,-83.61961273,17.91223181,-20.10086840
26.69486616,0.30236409,-0.03258992,-0.41560903

>  <Name>
ligand

>  <RI>
0

>  <Rbt.Current_Directory>
/home/itssahil/PROJECTS/Mol_Feturizer/Test_systems_manuscript/rnas/3sd3

>  <Rbt.Executable>
rbdock ($Id: //depot/dev/client3/rdock/2013.1/src/exe/rbdock.cxx#4 $)

>  <Rbt.Library>
libRbt.so (2013.1, Build901 2013/11/27)

>  <Rbt.Parameter_File>
/export/apps/rDock/src/rDock_2013.1_src/data/scripts/dock_solv.prm

>  <Rbt.Receptor>
prm/pocket_docking_4.prm

>  <SCORE>
-14.5405

>  <SCORE.INTER>
-14.7769

>  <SCORE.INTER.CONST>
1

>  <SCORE.INTER.POLAR>
0

>  <SCORE.INTER.ROT>
4

>  <SCORE.INTER.SOLV>
7.24641

>  <SCORE.INTER.VDW>
-18.5334

>  <SCORE.INTER.norm>
-0.671678

>  <SCORE.INTRA>
0.236463

>  <SCORE.INTRA.DIHEDRAL>
1.96852

>  <SCORE.INTRA.DIHEDRAL.0>
2.54655

>  <SCORE.INTRA.POLAR>
0

>  <SCORE.INTRA.POLAR.0>
0

>  <SCORE.INTRA.REPUL>
0

>  <SCORE.INTRA.REPUL.0>
0

>  <SCORE.INTRA.SOLV>
2.52901

>  <SCORE.INTRA.SOLV.lig_0>
-56.4922

>  <SCORE.INTRA.VDW>
-2.01231

>  <SCORE.INTRA.VDW.0>
-0.696801

>  <SCORE.INTRA.norm>
0.0107483

>  <SCORE.RESTR>
0

>  <SCORE.RESTR.CAVITY>
0

>  <SCORE.RESTR.norm>
0

>  <SCORE.SYSTEM>
0

>  <SCORE.SYSTEM.CONST>
0

>  <SCORE.SYSTEM.DIHEDRAL>
0

>  <SCORE.SYSTEM.SOLV>
0

>  <SCORE.SYSTEM.norm>
0

>  <SCORE.heavy>
22

>  <SCORE.norm>
-0.66093

>  <RMSD>
5.818

$$$$
ligand
 OpenBabel02271912143D
libRbt.so/2013.1/901 2013/11/27
 22 24  0  0  0  0  0  0  0  0999 V2000
   18.0021  -15.9985   23.8651 N   0  0  0  0  0  0  0  0  0  0  0  0
   18.3094  -18.3729   23.8403 N   0  0  0  0  0  0  0  0  0  0  0  0
   18.5426  -17.1975   24.4472 C   0  0  0  0  0  0  0  0  0  0  0  0
   19.2545  -17.1087   25.5639 N   0  0  0  0  0  0  0  0  0  0  0  0
   22.2812  -21.2303   25.9367 O   0  0  0  0  0  0  0  0  0  0  0  0
   19.7699  -18.2187   26.1239 C   0  0  0  0  0  0  0  0  0  0  0  0
   19.5536  -19.4798   25.5015 C   0  0  0  0  0  0  0  0  0  0  0  0
   20.5038  -18.0990   27.2826 O   0  0  0  0  0  0  0  0  0  0  0  0
   20.0270  -20.7559   26.0000 N   0  0  0  0  0  0  0  0  0  0  0  0
   19.1051  -21.8923   25.8747 C   0  0  2  0  0  0  0  0  0  0  0  0
   18.6070  -22.0146   24.4685 C   0  0  0  0  0  0  0  0  0  0  0  0
   18.8011  -19.5171   24.3544 C   0  0  0  0  0  0  0  0  0  0  0  0
   18.5635  -20.7589   23.7219 N   0  0  0  0  0  0  0  0  0  0  0  0
   17.8944  -21.8189   26.8226 C   0  0  0  0  0  0  0  0  0  0  0  0
   17.1703  -20.5687   26.6286 N   0  0  0  0  0  0  0  0  0  0  0  0
   12.9172  -20.4713   26.5730 C   0  0  0  0  0  0  0  0  0  0  0  0
   13.6037  -21.1943   25.6120 C   0  0  0  0  0  0  0  0  0  0  0  0
   15.0115  -21.2314   25.6254 C   0  0  0  0  0  0  0  0  0  0  0  0
   15.7131  -20.5409   26.6020 C   0  0  0  0  0  0  0  0  0  0  0  0
   15.0203  -19.8152   27.5666 C   0  0  0  0  0  0  0  0  0  0  0  0
   13.6235  -19.7812   27.5532 C   0  0  0  0  0  0  0  0  0  0  0  0
   21.2980  -20.9607   26.6061 C   0  0  0  0  0  0  0  0  0  0  0  0
  1  3  1  0  0  0  0
  2  3  2  0  0  0  0
  2 12  1  0  0  0  0
  3  4  1  0  0  0  0
  4  6  1  0  0  0  0
  5 22  1  0  0  0  0
  6  7  1  0  0  0  0
  6  8  2  0  0  0  0
  7 12  2  0  0  0  0
  7  9  1  0  0  0  0
  9 10  1  0  0  0  0
  9 22  1  0  0  0  0
 10 11  1  0  0  0  0
 10 14  1  1  0  0  0
 11 13  1  0  0  0  0
 12 13  1  0  0  0  0
 14 15  1  0  0  0  0
 15 19  1  0  0  0  0
 16 17  2  0  0  0  0
 16 21  1  0  0  0  0
 17 18  1  0  0  0  0
 18 19  2  0  0  0  0
 19 20  1  0  0  0  0
 20 21  2  0  0  0  0
M  END
>  <CHROM.1>
-88.09386032,55.78944095,137.89919772,-62.16558227,18.04575830,-19.86383556
25.74790771,0.18995794,0.08358836,-0.28157041

>  <Name>
ligand

>  <RI>
0

>  <Rbt.Current_Directory>
/home/itssahil/PROJECTS/Mol_Feturizer/Test_systems_manuscript/rnas/3sd3

>  <Rbt.Executable>
rbdock ($Id: //depot/dev/client3/rdock/2013.1/src/exe/rbdock.cxx#4 $)

>  <Rbt.Library>
libRbt.so (2013.1, Build901 2013/11/27)

>  <Rbt.Parameter_File>
/export/apps/rDock/src/rDock_2013.1_src/data/scripts/dock_solv.prm

>  <Rbt.Receptor>
prm/pocket_docking_3.prm

>  <SCORE>
-11.229

>  <SCORE.INTER>
-11.1757

>  <SCORE.INTER.CONST>
1

>  <SCORE.INTER.POLAR>
0

>  <SCORE.INTER.ROT>
4

>  <SCORE.INTER.SOLV>
5.7396

>  <SCORE.INTER.VDW>
-15.6304

>  <SCORE.INTER.norm>
-0.507988

>  <SCORE.INTRA>
-0.274606

>  <SCORE.INTRA.DIHEDRAL>
0.129839

>  <SCORE.INTRA.DIHEDRAL.0>
2.54655

>  <SCORE.INTRA.POLAR>
0

>  <SCORE.INTRA.POLAR.0>
0

>  <SCORE.INTRA.REPUL>
0

>  <SCORE.INTRA.REPUL.0>
0

>  <SCORE.INTRA.SOLV>
1.77654

>  <SCORE.INTRA.SOLV.lig_0>
-56.4922

>  <SCORE.INTRA.VDW>
-1.22779

>  <SCORE.INTRA.VDW.0>
-0.696801

>  <SCORE.INTRA.norm>
-0.0124821

>  <SCORE.RESTR>
0.221305

>  <SCORE.RESTR.CAVITY>
0.221305

>  <SCORE.RESTR.norm>
0.0100593

>  <SCORE.SYSTEM>
0

>  <SCORE.SYSTEM.CONST>
0

>  <SCORE.SYSTEM.DIHEDRAL>
0

>  <SCORE.SYSTEM.SOLV>
0

>  <SCORE.SYSTEM.norm>
0

>  <SCORE.heavy>
22

>  <SCORE.norm>
-0.510411

>  <RMSD>
5.827

$$$$
ligand
 OpenBabel02271912143D
libRbt.so/2013.1/901 2013/11/27
 22 24  0  0  0  0  0  0  0  0999 V2000
   16.9543  -15.3426   22.9830 N   0  0  0  0  0  0  0  0  0  0  0  0
   17.6016  -17.6055   22.5433 N   0  0  0  0  0  0  0  0  0  0  0  0
   17.6388  -16.5471   23.3695 C   0  0  0  0  0  0  0  0  0  0  0  0
   18.2860  -16.5784   24.5280 N   0  0  0  0  0  0  0  0  0  0  0  0
   21.8413  -19.8168   24.4681 O   0  0  0  0  0  0  0  0  0  0  0  0
   18.9336  -17.6954   24.9075 C   0  0  0  0  0  0  0  0  0  0  0  0
   18.9261  -18.8319   24.0515 C   0  0  0  0  0  0  0  0  0  0  0  0
   19.5964  -17.7016   26.1143 O   0  0  0  0  0  0  0  0  0  0  0  0
   19.5586  -20.1044   24.3375 N   0  0  0  0  0  0  0  0  0  0  0  0
   18.8159  -21.3092   23.9455 C   0  0  2  0  0  0  0  0  0  0  0  0
   18.3964  -21.2267   22.5111 C   0  0  0  0  0  0  0  0  0  0  0  0
   18.2326  -18.7503   22.8700 C   0  0  0  0  0  0  0  0  0  0  0  0
   18.2017  -19.8690   22.0062 N   0  0  0  0  0  0  0  0  0  0  0  0
   17.5709  -21.5813   24.8090 C   0  0  0  0  0  0  0  0  0  0  0  0
   16.7115  -20.4046   24.8492 N   0  0  0  0  0  0  0  0  0  0  0  0
   13.1707  -20.3662   27.2079 C   0  0  0  0  0  0  0  0  0  0  0  0
   14.2376  -19.5527   27.5509 C   0  0  0  0  0  0  0  0  0  0  0  0
   15.4121  -19.5599   26.7738 C   0  0  0  0  0  0  0  0  0  0  0  0
   15.5022  -20.3849   25.6630 C   0  0  0  0  0  0  0  0  0  0  0  0
   14.4283  -21.2013   25.3206 C   0  0  0  0  0  0  0  0  0  0  0  0
   13.2629  -21.1914   26.0914 C   0  0  0  0  0  0  0  0  0  0  0  0
   20.8210  -20.2486   24.9781 C   0  0  0  0  0  0  0  0  0  0  0  0
  1  3  1  0  0  0  0
  2  3  2  0  0  0  0
  2 12  1  0  0  0  0
  3  4  1  0  0  0  0
  4  6  1  0  0  0  0
  5 22  1  0  0  0  0
  6  7  1  0  0  0  0
  6  8  2  0  0  0  0
  7 12  2  0  0  0  0
  7  9  1  0  0  0  0
  9 10  1  0  0  0  0
  9 22  1  0  0  0  0
 10 11  1  0  0  0  0
 10 14  1  1  0  0  0
 11 13  1  0  0  0  0
 12 13  1  0  0  0  0
 14 15  1  0  0  0  0
 15 19  1  0  0  0  0
 16 17  2  0  0  0  0
 16 21  1  0  0  0  0
 17 18  1  0  0  0  0
 18 19  2  0  0  0  0
 19 20  1  0  0  0  0
 20 21  2  0  0  0  0
M  END
>  <CHROM.1>
-62.95532681,53.24138897,-176.63794086,112.16863781,17.60116767,-19.33979371
24.59075496,0.37644640,0.36391197,-0.22213424

>  <Name>
ligand

>  <RI>
0

>  <Rbt.Current_Directory>
/home/itssahil/PROJECTS/Mol_Feturizer/Test_systems_manuscript/rnas/3sd3

>  <Rbt.Executable>
rbdock ($Id: //depot/dev/client3/rdock/2013.1/src/exe/rbdock.cxx#4 $)

>  <Rbt.Library>
libRbt.so (2013.1, Build901 2013/11/27)

>  <Rbt.Parameter_File>
/export/apps/rDock/src/rDock_2013.1_src/data/scripts/dock_solv.prm

>  <Rbt.Receptor>
prm/pocket_docking_6.prm

>  <SCORE>
-13.3102

>  <SCORE.INTER>
-12.7393

>  <SCORE.INTER.CONST>
1

>  <SCORE.INTER.POLAR>
0

>  <SCORE.INTER.ROT>
4

>  <SCORE.INTER.SOLV>
8.02137

>  <SCORE.INTER.VDW>
-17.4333

>  <SCORE.INTER.norm>
-0.579058

>  <SCORE.INTRA>
-0.570905

>  <SCORE.INTRA.DIHEDRAL>
-0.744787

>  <SCORE.INTRA.DIHEDRAL.0>
2.54655

>  <SCORE.INTRA.POLAR>
0

>  <SCORE.INTRA.POLAR.0>
0

>  <SCORE.INTRA.REPUL>
0

>  <SCORE.INTRA.REPUL.0>
0

>  <SCORE.INTRA.SOLV>
1.87688

>  <SCORE.INTRA.SOLV.lig_0>
-56.4922

>  <SCORE.INTRA.VDW>
-1.13695

>  <SCORE.INTRA.VDW.0>
-0.696801

>  <SCORE.INTRA.norm>
-0.0259502

>  <SCORE.RESTR>
0

>  <SCORE.RESTR.CAVITY>
0

>  <SCORE.RESTR.norm>
0

>  <SCORE.SYSTEM>
0

>  <SCORE.SYSTEM.CONST>
0

>  <SCORE.SYSTEM.DIHEDRAL>
0

>  <SCORE.SYSTEM.SOLV>
0

>  <SCORE.SYSTEM.norm>
0

>  <SCORE.heavy>
22

>  <SCORE.norm>
-0.605009

>  <RMSD>
5.837

$$$$
ligand
 OpenBabel02271912143D
libRbt.so/2013.1/901 2013/11/27
 22 24  0  0  0  0  0  0  0  0999 V2000
   19.3887  -16.2401   24.6008 N   0  0  0  0  0  0  0  0  0  0  0  0
   20.0237  -18.4985   25.0799 N   0  0  0  0  0  0  0  0  0  0  0  0
   19.3078  -17.4158   25.4255 C   0  0  0  0  0  0  0  0  0  0  0  0
   18.5305  -17.3974   26.5012 N   0  0  0  0  0  0  0  0  0  0  0  0
   18.0912  -21.2465   29.6942 O   0  0  0  0  0  0  0  0  0  0  0  0
   18.4417  -18.4867   27.2865 C   0  0  0  0  0  0  0  0  0  0  0  0
   19.1960  -19.6476   26.9580 C   0  0  0  0  0  0  0  0  0  0  0  0
   17.6276  -18.4415   28.3959 O   0  0  0  0  0  0  0  0  0  0  0  0
   19.1831  -20.8954   27.6955 N   0  0  0  0  0  0  0  0  0  0  0  0
   19.2053  -22.1290   26.8988 C   0  0  2  0  0  0  0  0  0  0  0  0
   20.3296  -22.0986   25.9112 C   0  0  0  0  0  0  0  0  0  0  0  0
   19.9754  -19.6175   25.8288 C   0  0  0  0  0  0  0  0  0  0  0  0
   20.7271  -20.7614   25.4752 N   0  0  0  0  0  0  0  0  0  0  0  0
   17.8926  -22.4059   26.1438 C   0  0  0  0  0  0  0  0  0  0  0  0
   17.2737  -21.1553   25.7219 N   0  0  0  0  0  0  0  0  0  0  0  0
   13.2534  -20.2396   26.7709 C   0  0  0  0  0  0  0  0  0  0  0  0
   14.2979  -19.6998   27.5026 C   0  0  0  0  0  0  0  0  0  0  0  0
   15.6309  -19.9982   27.1600 C   0  0  0  0  0  0  0  0  0  0  0  0
   15.8994  -20.8361   26.0883 C   0  0  0  0  0  0  0  0  0  0  0  0
   14.8476  -21.3769   25.3547 C   0  0  0  0  0  0  0  0  0  0  0  0
   13.5257  -21.0782   25.6946 C   0  0  0  0  0  0  0  0  0  0  0  0
   19.1331  -20.9901   29.1145 C   0  0  0  0  0  0  0  0  0  0  0  0
  1  3  1  0  0  0  0
  2  3  2  0  0  0  0
  2 12  1  0  0  0  0
  3  4  1  0  0  0  0
  4  6  1  0  0  0  0
  5 22  1  0  0  0  0
  6  7  1  0  0  0  0
  6  8  2  0  0  0  0
  7 12  2  0  0  0  0
  7  9  1  0  0  0  0
  9 10  1  0  0  0  0
  9 22  1  0  0  0  0
 10 11  1  0  0  0  0
 10 14  1  6  0  0  0
 11 13  1  0  0  0  0
 12 13  1  0  0  0  0
 14 15  1  0  0  0  0
 15 19  1  0  0  0  0
 16 17  2  0  0  0  0
 16 21  1  0  0  0  0
 17 18  1  0  0  0  0
 18 19  2  0  0  0  0
 19 20  1  0  0  0  0
 20 21  2  0  0  0  0
M  END
>  <CHROM.1>
101.25916101,33.89384249,-125.05063692,98.93289805,17.89843979,-20.03356308
26.65071357,0.32611778,-0.00419423,-0.38614325

>  <Name>
ligand

>  <RI>
0

>  <Rbt.Current_Directory>
/home/itssahil/PROJECTS/Mol_Feturizer/Test_systems_manuscript/rnas/3sd3

>  <Rbt.Executable>
rbdock ($Id: //depot/dev/client3/rdock/2013.1/src/exe/rbdock.cxx#4 $)

>  <Rbt.Library>
libRbt.so (2013.1, Build901 2013/11/27)

>  <Rbt.Parameter_File>
/export/apps/rDock/src/rDock_2013.1_src/data/scripts/dock_solv.prm

>  <Rbt.Receptor>
prm/pocket_docking_4.prm

>  <SCORE>
-14.4846

>  <SCORE.INTER>
-14.9116

>  <SCORE.INTER.CONST>
1

>  <SCORE.INTER.POLAR>
0

>  <SCORE.INTER.ROT>
4

>  <SCORE.INTER.SOLV>
6.94952

>  <SCORE.INTER.VDW>
-18.5243

>  <SCORE.INTER.norm>
-0.677802

>  <SCORE.INTRA>
0.426994

>  <SCORE.INTRA.DIHEDRAL>
2.29946

>  <SCORE.INTRA.DIHEDRAL.0>
2.54655

>  <SCORE.INTRA.POLAR>
0

>  <SCORE.INTRA.POLAR.0>
0

>  <SCORE.INTRA.REPUL>
0

>  <SCORE.INTRA.REPUL.0>
0

>  <SCORE.INTRA.SOLV>
2.56461

>  <SCORE.INTRA.SOLV.lig_0>
-56.4922

>  <SCORE.INTRA.VDW>
-2.00504

>  <SCORE.INTRA.VDW.0>
-0.696801

>  <SCORE.INTRA.norm>
0.0194088

>  <SCORE.RESTR>
0

>  <SCORE.RESTR.CAVITY>
0

>  <SCORE.RESTR.norm>
0

>  <SCORE.SYSTEM>
0

>  <SCORE.SYSTEM.CONST>
0

>  <SCORE.SYSTEM.DIHEDRAL>
0

>  <SCORE.SYSTEM.SOLV>
0

>  <SCORE.SYSTEM.norm>
0

>  <SCORE.heavy>
22

>  <SCORE.norm>
-0.658393

>  <RMSD>
5.838

$$$$
ligand
 OpenBabel02271912143D
libRbt.so/2013.1/901 2013/11/27
 22 24  0  0  0  0  0  0  0  0999 V2000
   18.4993  -20.4849   29.6045 N   0  0  0  0  0  0  0  0  0  0  0  0
   18.5216  -19.7279   27.3330 N   0  0  0  0  0  0  0  0  0  0  0  0
   18.5914  -20.7558   28.1949 C   0  0  0  0  0  0  0  0  0  0  0  0
   18.7426  -22.0099   27.7872 N   0  0  0  0  0  0  0  0  0  0  0  0
   20.8729  -22.0833   23.2886 O   0  0  0  0  0  0  0  0  0  0  0  0
   18.8320  -22.2843   26.4727 C   0  0  0  0  0  0  0  0  0  0  0  0
   18.7746  -21.2189   25.5314 C   0  0  0  0  0  0  0  0  0  0  0  0
   18.9876  -23.5936   26.0764 O   0  0  0  0  0  0  0  0  0  0  0  0
   18.8353  -21.3654   24.0906 N   0  0  0  0  0  0  0  0  0  0  0  0
   17.9440  -20.5021   23.3050 C   0  0  2  0  0  0  0  0  0  0  0  0
   18.1072  -19.0698   23.7080 C   0  0  0  0  0  0  0  0  0  0  0  0
   18.6063  -19.9420   26.0055 C   0  0  0  0  0  0  0  0  0  0  0  0
   18.5366  -18.8668   25.0902 N   0  0  0  0  0  0  0  0  0  0  0  0
   16.4557  -20.8794   23.4155 C   0  0  0  0  0  0  0  0  0  0  0  0
   16.1849  -21.5147   24.6993 N   0  0  0  0  0  0  0  0  0  0  0  0
   13.3761  -19.8413   27.4218 C   0  0  0  0  0  0  0  0  0  0  0  0
   12.9814  -20.8440   26.5521 C   0  0  0  0  0  0  0  0  0  0  0  0
   13.9064  -21.4028   25.6491 C   0  0  0  0  0  0  0  0  0  0  0  0
   15.2159  -20.9471   25.6288 C   0  0  0  0  0  0  0  0  0  0  0  0
   15.6097  -19.9394   26.5042 C   0  0  0  0  0  0  0  0  0  0  0  0
   14.6912  -19.3876   27.4009 C   0  0  0  0  0  0  0  0  0  0  0  0
   19.6772  -22.2899   23.4114 C   0  0  0  0  0  0  0  0  0  0  0  0
  1  3  1  0  0  0  0
  2  3  2  0  0  0  0
  2 12  1  0  0  0  0
  3  4  1  0  0  0  0
  4  6  1  0  0  0  0
  5 22  1  0  0  0  0
  6  7  1  0  0  0  0
  6  8  2  0  0  0  0
  7 12  2  0  0  0  0
  7  9  1  0  0  0  0
  9 10  1  0  0  0  0
  9 22  1  0  0  0  0
 10 11  1  0  0  0  0
 10 14  1  1  0  0  0
 11 13  1  0  0  0  0
 12 13  1  0  0  0  0
 14 15  1  0  0  0  0
 15 19  1  0  0  0  0
 16 17  2  0  0  0  0
 16 21  1  0  0  0  0
 17 18  1  0  0  0  0
 18 19  2  0  0  0  0
 19 20  1  0  0  0  0
 20 21  2  0  0  0  0
M  END
>  <CHROM.1>
-76.17769707,28.10441041,120.94289743,95.37974015,17.48395998,-20.90371721
25.72160650,-2.69325235,0.23082712,-1.62126015

>  <Name>
ligand

>  <RI>
0

>  <Rbt.Current_Directory>
/home/itssahil/PROJECTS/Mol_Feturizer/Test_systems_manuscript/rnas/3sd3

>  <Rbt.Executable>
rbdock ($Id: //depot/dev/client3/rdock/2013.1/src/exe/rbdock.cxx#4 $)

>  <Rbt.Library>
libRbt.so (2013.1, Build901 2013/11/27)

>  <Rbt.Parameter_File>
/export/apps/rDock/src/rDock_2013.1_src/data/scripts/dock_solv.prm

>  <Rbt.Receptor>
prm/pocket_docking_3.prm

>  <SCORE>
-14.2556

>  <SCORE.INTER>
-14.5805

>  <SCORE.INTER.CONST>
1

>  <SCORE.INTER.POLAR>
0

>  <SCORE.INTER.ROT>
4

>  <SCORE.INTER.SOLV>
14.4119

>  <SCORE.INTER.VDW>
-20.7909

>  <SCORE.INTER.norm>
-0.662749

>  <SCORE.INTRA>
0.320414

>  <SCORE.INTRA.DIHEDRAL>
3.14836

>  <SCORE.INTRA.DIHEDRAL.0>
2.54655

>  <SCORE.INTRA.POLAR>
0

>  <SCORE.INTRA.POLAR.0>
0

>  <SCORE.INTRA.REPUL>
0

>  <SCORE.INTRA.REPUL.0>
0

>  <SCORE.INTRA.SOLV>
2.11647

>  <SCORE.INTRA.SOLV.lig_0>
-56.4922

>  <SCORE.INTRA.VDW>
-2.312

>  <SCORE.INTRA.VDW.0>
-0.696801

>  <SCORE.INTRA.norm>
0.0145643

>  <SCORE.RESTR>
0.00445803

>  <SCORE.RESTR.CAVITY>
0.00445803

>  <SCORE.RESTR.norm>
0.000202638

>  <SCORE.SYSTEM>
0

>  <SCORE.SYSTEM.CONST>
0

>  <SCORE.SYSTEM.DIHEDRAL>
0

>  <SCORE.SYSTEM.SOLV>
0

>  <SCORE.SYSTEM.norm>
0

>  <SCORE.heavy>
22

>  <SCORE.norm>
-0.647982

>  <RMSD>
5.848

$$$$
ligand
 OpenBabel02271912143D
libRbt.so/2013.1/901 2013/11/27
 22 24  0  0  0  0  0  0  0  0999 V2000
   19.3087  -16.7988   23.5978 N   0  0  0  0  0  0  0  0  0  0  0  0
   19.6640  -19.1599   23.7764 N   0  0  0  0  0  0  0  0  0  0  0  0
   19.5671  -17.9699   24.3918 C   0  0  0  0  0  0  0  0  0  0  0  0
   19.7023  -17.8417   25.7060 N   0  0  0  0  0  0  0  0  0  0  0  0
   22.3565  -21.3016   27.5772 O   0  0  0  0  0  0  0  0  0  0  0  0
   19.9455  -18.9250   26.4666 C   0  0  0  0  0  0  0  0  0  0  0  0
   20.0670  -20.2002   25.8472 C   0  0  0  0  0  0  0  0  0  0  0  0
   20.0807  -18.7647   27.8273 O   0  0  0  0  0  0  0  0  0  0  0  0
   20.3050  -21.4518   26.5386 N   0  0  0  0  0  0  0  0  0  0  0  0
   19.5698  -22.6238   26.0459 C   0  0  2  0  0  0  0  0  0  0  0  0
   19.7560  -22.7805   24.5690 C   0  0  0  0  0  0  0  0  0  0  0  0
   19.9075  -20.2788   24.4863 C   0  0  0  0  0  0  0  0  0  0  0  0
   20.0139  -21.5356   23.8479 N   0  0  0  0  0  0  0  0  0  0  0  0
   18.0616  -22.5863   26.3519 C   0  0  0  0  0  0  0  0  0  0  0  0
   17.4571  -21.3849   25.7894 N   0  0  0  0  0  0  0  0  0  0  0  0
   13.4721  -20.2677   26.7758 C   0  0  0  0  0  0  0  0  0  0  0  0
   14.5285  -19.8064   27.5432 C   0  0  0  0  0  0  0  0  0  0  0  0
   15.8500  -20.1717   27.2215 C   0  0  0  0  0  0  0  0  0  0  0  0
   16.0950  -20.9971   26.1346 C   0  0  0  0  0  0  0  0  0  0  0  0
   15.0313  -21.4591   25.3651 C   0  0  0  0  0  0  0  0  0  0  0  0
   13.7210  -21.0939   25.6843 C   0  0  0  0  0  0  0  0  0  0  0  0
   21.1768  -21.6013   27.6532 C   0  0  0  0  0  0  0  0  0  0  0  0
  1  3  1  0  0  0  0
  2  3  2  0  0  0  0
  2 12  1  0  0  0  0
  3  4  1  0  0  0  0
  4  6  1  0  0  0  0
  5 22  1  0  0  0  0
  6  7  1  0  0  0  0
  6  8  2  0  0  0  0
  7 12  2  0  0  0  0
  7  9  1  0  0  0  0
  9 10  1  0  0  0  0
  9 22  1  0  0  0  0
 10 11  1  0  0  0  0
 10 14  1  6  0  0  0
 11 13  1  0  0  0  0
 12 13  1  0  0  0  0
 14 15  1  0  0  0  0
 15 19  1  0  0  0  0
 16 17  2  0  0  0  0
 16 21  1  0  0  0  0
 17 18  1  0  0  0  0
 18 19  2  0  0  0  0
 19 20  1  0  0  0  0
 20 21  2  0  0  0  0
M  END
>  <CHROM.1>
-57.83771840,57.37576938,-169.27314560,89.91934398,18.58353709,-20.41687793
25.88894920,0.10029312,0.03499576,-0.37868787

>  <Name>
ligand

>  <RI>
0

>  <Rbt.Current_Directory>
/home/itssahil/PROJECTS/Mol_Feturizer/Test_systems_manuscript/rnas/3sd3

>  <Rbt.Executable>
rbdock ($Id: //depot/dev/client3/rdock/2013.1/src/exe/rbdock.cxx#4 $)

>  <Rbt.Library>
libRbt.so (2013.1, Build901 2013/11/27)

>  <Rbt.Parameter_File>
/export/apps/rDock/src/rDock_2013.1_src/data/scripts/dock_solv.prm

>  <Rbt.Receptor>
prm/pocket_docking_4.prm

>  <SCORE>
-13.1942

>  <SCORE.INTER>
-12.5015

>  <SCORE.INTER.CONST>
1

>  <SCORE.INTER.POLAR>
0

>  <SCORE.INTER.ROT>
4

>  <SCORE.INTER.SOLV>
5.08181

>  <SCORE.INTER.VDW>
-16.2949

>  <SCORE.INTER.norm>
-0.568248

>  <SCORE.INTRA>
-0.69273

>  <SCORE.INTRA.DIHEDRAL>
-0.800983

>  <SCORE.INTRA.DIHEDRAL.0>
2.54655

>  <SCORE.INTRA.POLAR>
0

>  <SCORE.INTRA.POLAR.0>
0

>  <SCORE.INTRA.REPUL>
0

>  <SCORE.INTRA.REPUL.0>
0

>  <SCORE.INTRA.SOLV>
1.84395

>  <SCORE.INTRA.SOLV.lig_0>
-56.4922

>  <SCORE.INTRA.VDW>
-1.21422

>  <SCORE.INTRA.VDW.0>
-0.696801

>  <SCORE.INTRA.norm>
-0.0314877

>  <SCORE.RESTR>
0

>  <SCORE.RESTR.CAVITY>
0

>  <SCORE.RESTR.norm>
0

>  <SCORE.SYSTEM>
0

>  <SCORE.SYSTEM.CONST>
0

>  <SCORE.SYSTEM.DIHEDRAL>
0

>  <SCORE.SYSTEM.SOLV>
0

>  <SCORE.SYSTEM.norm>
0

>  <SCORE.heavy>
22

>  <SCORE.norm>
-0.599736

>  <RMSD>
5.855

$$$$
ligand
 OpenBabel02271912143D
libRbt.so/2013.1/901 2013/11/27
 22 24  0  0  0  0  0  0  0  0999 V2000
   18.8087  -18.1772   22.6292 N   0  0  0  0  0  0  0  0  0  0  0  0
   18.7701  -20.2435   23.8381 N   0  0  0  0  0  0  0  0  0  0  0  0
   19.2083  -18.9765   23.7562 C   0  0  0  0  0  0  0  0  0  0  0  0
   19.9965  -18.4409   24.6802 N   0  0  0  0  0  0  0  0  0  0  0  0
   21.6632  -21.1263   28.7569 O   0  0  0  0  0  0  0  0  0  0  0  0
   20.3826  -19.1724   25.7419 C   0  0  0  0  0  0  0  0  0  0  0  0
   19.9478  -20.5224   25.8551 C   0  0  0  0  0  0  0  0  0  0  0  0
   21.1996  -18.5927   26.6864 O   0  0  0  0  0  0  0  0  0  0  0  0
   20.2647  -21.4191   26.9490 N   0  0  0  0  0  0  0  0  0  0  0  0
   19.1833  -22.2991   27.4106 C   0  0  2  0  0  0  0  0  0  0  0  0
   18.5826  -23.0445   26.2599 C   0  0  0  0  0  0  0  0  0  0  0  0
   19.1250  -21.0237   24.8778 C   0  0  0  0  0  0  0  0  0  0  0  0
   18.6713  -22.3593   24.9720 N   0  0  0  0  0  0  0  0  0  0  0  0
   18.0596  -21.5627   28.1621 C   0  0  0  0  0  0  0  0  0  0  0  0
   17.4713  -20.5315   27.3160 N   0  0  0  0  0  0  0  0  0  0  0  0
   13.4099  -20.7746   26.0719 C   0  0  0  0  0  0  0  0  0  0  0  0
   14.4199  -21.1765   25.2141 C   0  0  0  0  0  0  0  0  0  0  0  0
   15.7663  -21.0995   25.6201 C   0  0  0  0  0  0  0  0  0  0  0  0
   16.0825  -20.6183   26.8815 C   0  0  0  0  0  0  0  0  0  0  0  0
   15.0653  -20.2153   27.7415 C   0  0  0  0  0  0  0  0  0  0  0  0
   13.7299  -20.2943   27.3379 C   0  0  0  0  0  0  0  0  0  0  0  0
   21.5298  -21.4803   27.5975 C   0  0  0  0  0  0  0  0  0  0  0  0
  1  3  1  0  0  0  0
  2  3  2  0  0  0  0
  2 12  1  0  0  0  0
  3  4  1  0  0  0  0
  4  6  1  0  0  0  0
  5 22  1  0  0  0  0
  6  7  1  0  0  0  0
  6  8  2  0  0  0  0
  7 12  2  0  0  0  0
  7  9  1  0  0  0  0
  9 10  1  0  0  0  0
  9 22  1  0  0  0  0
 10 11  1  0  0  0  0
 10 14  1  6  0  0  0
 11 13  1  0  0  0  0
 12 13  1  0  0  0  0
 14 15  1  0  0  0  0
 15 19  1  0  0  0  0
 16 17  2  0  0  0  0
 16 21  1  0  0  0  0
 17 18  1  0  0  0  0
 18 19  2  0  0  0  0
 19 20  1  0  0  0  0
 20 21  2  0  0  0  0
M  END
>  <CHROM.1>
112.41367550,58.29048528,115.15145841,-98.74800978,18.38811007,-20.59659221
26.13853792,0.04446127,-0.07843359,-0.98959983

>  <Name>
ligand

>  <RI>
0

>  <Rbt.Current_Directory>
/home/itssahil/PROJECTS/Mol_Feturizer/Test_systems_manuscript/rnas/3sd3

>  <Rbt.Executable>
rbdock ($Id: //depot/dev/client3/rdock/2013.1/src/exe/rbdock.cxx#4 $)

>  <Rbt.Library>
libRbt.so (2013.1, Build901 2013/11/27)

>  <Rbt.Parameter_File>
/export/apps/rDock/src/rDock_2013.1_src/data/scripts/dock_solv.prm

>  <Rbt.Receptor>
prm/pocket_docking_5.prm

>  <SCORE>
-13.4164

>  <SCORE.INTER>
-12.9265

>  <SCORE.INTER.CONST>
1

>  <SCORE.INTER.POLAR>
0

>  <SCORE.INTER.ROT>
4

>  <SCORE.INTER.SOLV>
6.25386

>  <SCORE.INTER.VDW>
-16.969

>  <SCORE.INTER.norm>
-0.58757

>  <SCORE.INTRA>
-0.489874

>  <SCORE.INTRA.DIHEDRAL>
0.267225

>  <SCORE.INTRA.DIHEDRAL.0>
2.54655

>  <SCORE.INTRA.POLAR>
0

>  <SCORE.INTRA.POLAR.0>
0

>  <SCORE.INTRA.REPUL>
0

>  <SCORE.INTRA.REPUL.0>
0

>  <SCORE.INTRA.SOLV>
2.37005

>  <SCORE.INTRA.SOLV.lig_0>
-56.4922

>  <SCORE.INTRA.VDW>
-1.80851

>  <SCORE.INTRA.VDW.0>
-0.696801

>  <SCORE.INTRA.norm>
-0.022267

>  <SCORE.RESTR>
0

>  <SCORE.RESTR.CAVITY>
0

>  <SCORE.RESTR.norm>
0

>  <SCORE.SYSTEM>
0

>  <SCORE.SYSTEM.CONST>
0

>  <SCORE.SYSTEM.DIHEDRAL>
0

>  <SCORE.SYSTEM.SOLV>
0

>  <SCORE.SYSTEM.norm>
0

>  <SCORE.heavy>
22

>  <SCORE.norm>
-0.609837

>  <RMSD>
5.856

$$$$
ligand
 OpenBabel02271912143D
libRbt.so/2013.1/901 2013/11/27
 22 24  0  0  0  0  0  0  0  0999 V2000
   19.9585  -16.6118   27.3952 N   0  0  0  0  0  0  0  0  0  0  0  0
   20.0328  -18.2442   25.6452 N   0  0  0  0  0  0  0  0  0  0  0  0
   19.6853  -17.9363   26.9056 C   0  0  0  0  0  0  0  0  0  0  0  0
   19.0995  -18.8140   27.7107 N   0  0  0  0  0  0  0  0  0  0  0  0
   18.2030  -23.3782   26.7367 O   0  0  0  0  0  0  0  0  0  0  0  0
   18.8362  -20.0588   27.2721 C   0  0  0  0  0  0  0  0  0  0  0  0
   19.2019  -20.4240   25.9464 C   0  0  0  0  0  0  0  0  0  0  0  0
   18.2270  -20.9496   28.1271 O   0  0  0  0  0  0  0  0  0  0  0  0
   18.9623  -21.7155   25.3334 N   0  0  0  0  0  0  0  0  0  0  0  0
   18.5447  -21.7063   23.9254 C   0  0  2  0  0  0  0  0  0  0  0  0
   19.4869  -20.8855   23.1014 C   0  0  0  0  0  0  0  0  0  0  0  0
   19.7951  -19.4752   25.1518 C   0  0  0  0  0  0  0  0  0  0  0  0
   20.1594  -19.8101   23.8275 N   0  0  0  0  0  0  0  0  0  0  0  0
   17.1132  -21.1852   23.7042 C   0  0  0  0  0  0  0  0  0  0  0  0
   16.8135  -20.1066   24.6379 N   0  0  0  0  0  0  0  0  0  0  0  0
   13.4904  -20.3828   27.2802 C   0  0  0  0  0  0  0  0  0  0  0  0
   14.5720  -19.5845   27.6125 C   0  0  0  0  0  0  0  0  0  0  0  0
   15.6747  -19.4880   26.7418 C   0  0  0  0  0  0  0  0  0  0  0  0
   15.6792  -20.1952   25.5491 C   0  0  0  0  0  0  0  0  0  0  0  0
   14.5905  -20.9966   25.2178 C   0  0  0  0  0  0  0  0  0  0  0  0
   13.4964  -21.0896   26.0818 C   0  0  0  0  0  0  0  0  0  0  0  0
   19.0884  -22.9616   26.0087 C   0  0  0  0  0  0  0  0  0  0  0  0
  1  3  1  0  0  0  0
  2  3  2  0  0  0  0
  2 12  1  0  0  0  0
  3  4  1  0  0  0  0
  4  6  1  0  0  0  0
  5 22  1  0  0  0  0
  6  7  1  0  0  0  0
  6  8  2  0  0  0  0
  7 12  2  0  0  0  0
  7  9  1  0  0  0  0
  9 10  1  0  0  0  0
  9 22  1  0  0  0  0
 10 11  1  0  0  0  0
 10 14  1  1  0  0  0
 11 13  1  0  0  0  0
 12 13  1  0  0  0  0
 14 15  1  0  0  0  0
 15 19  1  0  0  0  0
 16 17  2  0  0  0  0
 16 21  1  0  0  0  0
 17 18  1  0  0  0  0
 18 19  2  0  0  0  0
 19 20  1  0  0  0  0
 20 21  2  0  0  0  0
M  END
>  <CHROM.1>
80.14517714,36.10810149,-122.63612757,154.65341289,17.84949810,-20.31523594
25.90011740,0.13127693,0.26451033,0.67052628

>  <Name>
ligand

>  <RI>
0

>  <Rbt.Current_Directory>
/home/itssahil/PROJECTS/Mol_Feturizer/Test_systems_manuscript/rnas/3sd3

>  <Rbt.Executable>
rbdock ($Id: //depot/dev/client3/rdock/2013.1/src/exe/rbdock.cxx#4 $)

>  <Rbt.Library>
libRbt.so (2013.1, Build901 2013/11/27)

>  <Rbt.Parameter_File>
/export/apps/rDock/src/rDock_2013.1_src/data/scripts/dock_solv.prm

>  <Rbt.Receptor>
prm/pocket_docking_5.prm

>  <SCORE>
-12.6537

>  <SCORE.INTER>
-13.1982

>  <SCORE.INTER.CONST>
1

>  <SCORE.INTER.POLAR>
0

>  <SCORE.INTER.ROT>
4

>  <SCORE.INTER.SOLV>
11.4184

>  <SCORE.INTER.VDW>
-18.8716

>  <SCORE.INTER.norm>
-0.59992

>  <SCORE.INTRA>
0.544537

>  <SCORE.INTRA.DIHEDRAL>
2.0211

>  <SCORE.INTRA.DIHEDRAL.0>
2.54655

>  <SCORE.INTRA.POLAR>
0

>  <SCORE.INTRA.POLAR.0>
0

>  <SCORE.INTRA.REPUL>
0

>  <SCORE.INTRA.REPUL.0>
0

>  <SCORE.INTRA.SOLV>
2.46976

>  <SCORE.INTRA.SOLV.lig_0>
-56.4922

>  <SCORE.INTRA.VDW>
-1.70089

>  <SCORE.INTRA.VDW.0>
-0.696801

>  <SCORE.INTRA.norm>
0.0247517

>  <SCORE.RESTR>
0

>  <SCORE.RESTR.CAVITY>
0

>  <SCORE.RESTR.norm>
0

>  <SCORE.SYSTEM>
0

>  <SCORE.SYSTEM.CONST>
0

>  <SCORE.SYSTEM.DIHEDRAL>
0

>  <SCORE.SYSTEM.SOLV>
0

>  <SCORE.SYSTEM.norm>
0

>  <SCORE.heavy>
22

>  <SCORE.norm>
-0.575168

>  <RMSD>
5.862

$$$$
ligand
 OpenBabel02271912143D
libRbt.so/2013.1/901 2013/11/27
 22 24  0  0  0  0  0  0  0  0999 V2000
   20.2079  -16.2831   26.6712 N   0  0  0  0  0  0  0  0  0  0  0  0
   20.2516  -18.2531   25.3111 N   0  0  0  0  0  0  0  0  0  0  0  0
   19.8666  -17.6635   26.4549 C   0  0  0  0  0  0  0  0  0  0  0  0
   19.1832  -18.3134   27.3888 N   0  0  0  0  0  0  0  0  0  0  0  0
   18.0439  -22.8861   27.3819 O   0  0  0  0  0  0  0  0  0  0  0  0
   18.8550  -19.6057   27.2062 C   0  0  0  0  0  0  0  0  0  0  0  0
   19.2572  -20.2663   26.0119 C   0  0  0  0  0  0  0  0  0  0  0  0
   18.1451  -20.2564   28.1901 O   0  0  0  0  0  0  0  0  0  0  0  0
   18.9577  -21.6428   25.6704 N   0  0  0  0  0  0  0  0  0  0  0  0
   18.6094  -21.9104   24.2689 C   0  0  2  0  0  0  0  0  0  0  0  0
   19.6449  -21.3407   23.3503 C   0  0  0  0  0  0  0  0  0  0  0  0
   19.9524  -19.5452   25.0737 C   0  0  0  0  0  0  0  0  0  0  0  0
   20.3553  -20.1758   23.8742 N   0  0  0  0  0  0  0  0  0  0  0  0
   17.2300  -21.3664   23.8556 C   0  0  0  0  0  0  0  0  0  0  0  0
   16.8697  -20.2154   24.6744 N   0  0  0  0  0  0  0  0  0  0  0  0
   13.4771  -20.3503   27.2383 C   0  0  0  0  0  0  0  0  0  0  0  0
   14.5590  -19.5507   27.5664 C   0  0  0  0  0  0  0  0  0  0  0  0
   15.6847  -19.5008   26.7216 C   0  0  0  0  0  0  0  0  0  0  0  0
   15.7115  -20.2555   25.5586 C   0  0  0  0  0  0  0  0  0  0  0  0
   14.6226  -21.0581   25.2314 C   0  0  0  0  0  0  0  0  0  0  0  0
   13.5057  -21.1048   26.0696 C   0  0  0  0  0  0  0  0  0  0  0  0
   18.9642  -22.7211   26.5988 C   0  0  0  0  0  0  0  0  0  0  0  0
  1  3  1  0  0  0  0
  2  3  2  0  0  0  0
  2 12  1  0  0  0  0
  3  4  1  0  0  0  0
  4  6  1  0  0  0  0
  5 22  1  0  0  0  0
  6  7  1  0  0  0  0
  6  8  2  0  0  0  0
  7 12  2  0  0  0  0
  7  9  1  0  0  0  0
  9 10  1  0  0  0  0
  9 22  1  0  0  0  0
 10 11  1  0  0  0  0
 10 14  1  6  0  0  0
 11 13  1  0  0  0  0
 12 13  1  0  0  0  0
 14 15  1  0  0  0  0
 15 19  1  0  0  0  0
 16 17  2  0  0  0  0
 16 21  1  0  0  0  0
 17 18  1  0  0  0  0
 18 19  2  0  0  0  0
 19 20  1  0  0  0  0
 20 21  2  0  0  0  0
M  END
>  <CHROM.1>
76.94017248,27.12687595,-116.58006569,150.70260089,17.90423474,-20.22807208
25.93008144,0.18972978,0.29622139,0.56237797

>  <Name>
ligand

>  <RI>
0

>  <Rbt.Current_Directory>
/home/itssahil/PROJECTS/Mol_Feturizer/Test_systems_manuscript/rnas/3sd3

>  <Rbt.Executable>
rbdock ($Id: //depot/dev/client3/rdock/2013.1/src/exe/rbdock.cxx#4 $)

>  <Rbt.Library>
libRbt.so (2013.1, Build901 2013/11/27)

>  <Rbt.Parameter_File>
/export/apps/rDock/src/rDock_2013.1_src/data/scripts/dock_solv.prm

>  <Rbt.Receptor>
prm/pocket_docking_8.prm

>  <SCORE>
-12.5345

>  <SCORE.INTER>
-13.7439

>  <SCORE.INTER.CONST>
1

>  <SCORE.INTER.POLAR>
0

>  <SCORE.INTER.ROT>
4

>  <SCORE.INTER.SOLV>
9.48249

>  <SCORE.INTER.VDW>
-18.5901

>  <SCORE.INTER.norm>
-0.624724

>  <SCORE.INTRA>
1.20943

>  <SCORE.INTRA.DIHEDRAL>
3.22805

>  <SCORE.INTRA.DIHEDRAL.0>
2.54655

>  <SCORE.INTRA.POLAR>
0

>  <SCORE.INTRA.POLAR.0>
0

>  <SCORE.INTRA.REPUL>
0

>  <SCORE.INTRA.REPUL.0>
0

>  <SCORE.INTRA.SOLV>
2.58064

>  <SCORE.INTRA.SOLV.lig_0>
-56.4922

>  <SCORE.INTRA.VDW>
-1.69491

>  <SCORE.INTRA.VDW.0>
-0.696801

>  <SCORE.INTRA.norm>
0.054974

>  <SCORE.RESTR>
0

>  <SCORE.RESTR.CAVITY>
0

>  <SCORE.RESTR.norm>
0

>  <SCORE.SYSTEM>
0

>  <SCORE.SYSTEM.CONST>
0

>  <SCORE.SYSTEM.DIHEDRAL>
0

>  <SCORE.SYSTEM.SOLV>
0

>  <SCORE.SYSTEM.norm>
0

>  <SCORE.heavy>
22

>  <SCORE.norm>
-0.56975

>  <RMSD>
5.881

$$$$
ligand
 OpenBabel02271912143D
libRbt.so/2013.1/901 2013/11/27
 22 24  0  0  0  0  0  0  0  0999 V2000
   19.7257  -16.2357   24.9394 N   0  0  0  0  0  0  0  0  0  0  0  0
   20.2450  -18.5279   25.3965 N   0  0  0  0  0  0  0  0  0  0  0  0
   19.5378  -17.4316   25.7161 C   0  0  0  0  0  0  0  0  0  0  0  0
   18.6737  -17.4178   26.7235 N   0  0  0  0  0  0  0  0  0  0  0  0
   17.8263  -21.1384   29.7604 O   0  0  0  0  0  0  0  0  0  0  0  0
   18.4842  -18.5261   27.4631 C   0  0  0  0  0  0  0  0  0  0  0  0
   19.2255  -19.7024   27.1612 C   0  0  0  0  0  0  0  0  0  0  0  0
   17.5815  -18.4853   28.5019 O   0  0  0  0  0  0  0  0  0  0  0  0
   19.1104  -20.9702   27.8544 N   0  0  0  0  0  0  0  0  0  0  0  0
   19.1597  -22.1797   27.0228 C   0  0  2  0  0  0  0  0  0  0  0  0
   20.3636  -22.1595   26.1336 C   0  0  0  0  0  0  0  0  0  0  0  0
   20.0977  -19.6662   26.1022 C   0  0  0  0  0  0  0  0  0  0  0  0
   20.8392  -20.8246   25.7756 N   0  0  0  0  0  0  0  0  0  0  0  0
   17.9070  -22.3884   26.1529 C   0  0  0  0  0  0  0  0  0  0  0  0
   17.3070  -21.1055   25.8073 N   0  0  0  0  0  0  0  0  0  0  0  0
   13.2500  -20.2484   26.7597 C   0  0  0  0  0  0  0  0  0  0  0  0
   13.5481  -21.0741   25.6887 C   0  0  0  0  0  0  0  0  0  0  0  0
   14.8889  -21.3625   25.3688 C   0  0  0  0  0  0  0  0  0  0  0  0
   15.9142  -20.8173   26.1265 C   0  0  0  0  0  0  0  0  0  0  0  0
   15.6115  -19.9879   27.2023 C   0  0  0  0  0  0  0  0  0  0  0  0
   14.2807  -19.7044   27.5198 C   0  0  0  0  0  0  0  0  0  0  0  0
   18.9382  -21.1048   29.2605 C   0  0  0  0  0  0  0  0  0  0  0  0
  1  3  1  0  0  0  0
  2  3  2  0  0  0  0
  2 12  1  0  0  0  0
  3  4  1  0  0  0  0
  4  6  1  0  0  0  0
  5 22  1  0  0  0  0
  6  7  1  0  0  0  0
  6  8  2  0  0  0  0
  7 12  2  0  0  0  0
  7  9  1  0  0  0  0
  9 10  1  0  0  0  0
  9 22  1  0  0  0  0
 10 11  1  0  0  0  0
 10 14  1  6  0  0  0
 11 13  1  0  0  0  0
 12 13  1  0  0  0  0
 14 15  1  0  0  0  0
 15 19  1  0  0  0  0
 16 17  2  0  0  0  0
 16 21  1  0  0  0  0
 17 18  1  0  0  0  0
 18 19  2  0  0  0  0
 19 20  1  0  0  0  0
 20 21  2  0  0  0  0
M  END
>  <CHROM.1>
89.99345887,29.51842585,-123.81762833,-76.31241167,17.92857177,-20.05145390
26.79511950,0.31989261,-0.01440031,-0.31096297

>  <Name>
ligand

>  <RI>
0

>  <Rbt.Current_Directory>
/home/itssahil/PROJECTS/Mol_Feturizer/Test_systems_manuscript/rnas/3sd3

>  <Rbt.Executable>
rbdock ($Id: //depot/dev/client3/rdock/2013.1/src/exe/rbdock.cxx#4 $)

>  <Rbt.Library>
libRbt.so (2013.1, Build901 2013/11/27)

>  <Rbt.Parameter_File>
/export/apps/rDock/src/rDock_2013.1_src/data/scripts/dock_solv.prm

>  <Rbt.Receptor>
prm/pocket_docking_7.prm

>  <SCORE>
-14.5181

>  <SCORE.INTER>
-15.3174

>  <SCORE.INTER.CONST>
1

>  <SCORE.INTER.POLAR>
0

>  <SCORE.INTER.ROT>
4

>  <SCORE.INTER.SOLV>
7.28298

>  <SCORE.INTER.VDW>
-18.9059

>  <SCORE.INTER.norm>
-0.696246

>  <SCORE.INTRA>
0.799362

>  <SCORE.INTRA.DIHEDRAL>
2.89497

>  <SCORE.INTRA.DIHEDRAL.0>
2.54655

>  <SCORE.INTRA.POLAR>
0

>  <SCORE.INTRA.POLAR.0>
0

>  <SCORE.INTRA.REPUL>
0

>  <SCORE.INTRA.REPUL.0>
0

>  <SCORE.INTRA.SOLV>
2.63754

>  <SCORE.INTRA.SOLV.lig_0>
-56.4922

>  <SCORE.INTRA.VDW>
-1.96689

>  <SCORE.INTRA.VDW.0>
-0.696801

>  <SCORE.INTRA.norm>
0.0363346

>  <SCORE.RESTR>
0

>  <SCORE.RESTR.CAVITY>
0

>  <SCORE.RESTR.norm>
0

>  <SCORE.SYSTEM>
0

>  <SCORE.SYSTEM.CONST>
0

>  <SCORE.SYSTEM.DIHEDRAL>
0

>  <SCORE.SYSTEM.SOLV>
0

>  <SCORE.SYSTEM.norm>
0

>  <SCORE.heavy>
22

>  <SCORE.norm>
-0.659912

>  <RMSD>
5.900

$$$$
ligand
 OpenBabel02271912143D
libRbt.so/2013.1/901 2013/11/27
 22 24  0  0  0  0  0  0  0  0999 V2000
   18.2549  -20.1265   22.0090 N   0  0  0  0  0  0  0  0  0  0  0  0
   18.3502  -21.3501   24.0649 N   0  0  0  0  0  0  0  0  0  0  0  0
   18.6953  -20.2521   23.3725 C   0  0  0  0  0  0  0  0  0  0  0  0
   19.4281  -19.2824   23.9060 N   0  0  0  0  0  0  0  0  0  0  0  0
   22.1642  -20.9791   27.5481 O   0  0  0  0  0  0  0  0  0  0  0  0
   19.8509  -19.3813   25.1798 C   0  0  0  0  0  0  0  0  0  0  0  0
   19.5149  -20.5364   25.9395 C   0  0  0  0  0  0  0  0  0  0  0  0
   20.6089  -18.3611   25.7093 O   0  0  0  0  0  0  0  0  0  0  0  0
   19.8805  -20.7690   27.3228 N   0  0  0  0  0  0  0  0  0  0  0  0
   18.8598  -21.3920   28.1755 C   0  0  2  0  0  0  0  0  0  0  0  0
   18.3329  -22.6408   27.5404 C   0  0  0  0  0  0  0  0  0  0  0  0
   18.7458  -21.5044   25.3436 C   0  0  0  0  0  0  0  0  0  0  0  0
   18.3902  -22.6575   26.0801 N   0  0  0  0  0  0  0  0  0  0  0  0
   17.6739  -20.4670   28.5038 C   0  0  0  0  0  0  0  0  0  0  0  0
   17.1083  -19.9099   27.2812 N   0  0  0  0  0  0  0  0  0  0  0  0
   13.1418  -20.8506   26.0634 C   0  0  0  0  0  0  0  0  0  0  0  0
   13.3518  -20.0638   27.1834 C   0  0  0  0  0  0  0  0  0  0  0  0
   14.6622  -19.7479   27.5913 C   0  0  0  0  0  0  0  0  0  0  0  0
   15.7460  -20.2272   26.8711 C   0  0  0  0  0  0  0  0  0  0  0  0
   15.5317  -21.0176   25.7458 C   0  0  0  0  0  0  0  0  0  0  0  0
   14.2309  -21.3283   25.3413 C   0  0  0  0  0  0  0  0  0  0  0  0
   21.1368  -20.4190   27.8920 C   0  0  0  0  0  0  0  0  0  0  0  0
  1  3  1  0  0  0  0
  2  3  2  0  0  0  0
  2 12  1  0  0  0  0
  3  4  1  0  0  0  0
  4  6  1  0  0  0  0
  5 22  1  0  0  0  0
  6  7  1  0  0  0  0
  6  8  2  0  0  0  0
  7 12  2  0  0  0  0
  7  9  1  0  0  0  0
  9 10  1  0  0  0  0
  9 22  1  0  0  0  0
 10 11  1  0  0  0  0
 10 14  1  6  0  0  0
 11 13  1  0  0  0  0
 12 13  1  0  0  0  0
 14 15  1  0  0  0  0
 15 19  1  0  0  0  0
 16 17  2  0  0  0  0
 16 21  1  0  0  0  0
 17 18  1  0  0  0  0
 18 19  2  0  0  0  0
 19 20  1  0  0  0  0
 20 21  2  0  0  0  0
M  END
>  <CHROM.1>
-67.01423740,52.57347720,115.76667256,69.13921786,18.04439183,-20.59525467
26.13917162,0.03701430,-0.04341008,-1.39199272

>  <Name>
ligand

>  <RI>
0

>  <Rbt.Current_Directory>
/home/itssahil/PROJECTS/Mol_Feturizer/Test_systems_manuscript/rnas/3sd3

>  <Rbt.Executable>
rbdock ($Id: //depot/dev/client3/rdock/2013.1/src/exe/rbdock.cxx#4 $)

>  <Rbt.Library>
libRbt.so (2013.1, Build901 2013/11/27)

>  <Rbt.Parameter_File>
/export/apps/rDock/src/rDock_2013.1_src/data/scripts/dock_solv.prm

>  <Rbt.Receptor>
prm/pocket_docking_3.prm

>  <SCORE>
-13.4076

>  <SCORE.INTER>
-12.7459

>  <SCORE.INTER.CONST>
1

>  <SCORE.INTER.POLAR>
0

>  <SCORE.INTER.ROT>
4

>  <SCORE.INTER.SOLV>
8.36747

>  <SCORE.INTER.VDW>
-17.5531

>  <SCORE.INTER.norm>
-0.579361

>  <SCORE.INTRA>
-0.661619

>  <SCORE.INTRA.DIHEDRAL>
0.469374

>  <SCORE.INTRA.DIHEDRAL.0>
2.54655

>  <SCORE.INTRA.POLAR>
0

>  <SCORE.INTRA.POLAR.0>
0

>  <SCORE.INTRA.REPUL>
0

>  <SCORE.INTRA.REPUL.0>
0

>  <SCORE.INTRA.SOLV>
2.23672

>  <SCORE.INTRA.SOLV.lig_0>
-56.4922

>  <SCORE.INTRA.VDW>
-2.01467

>  <SCORE.INTRA.VDW.0>
-0.696801

>  <SCORE.INTRA.norm>
-0.0300736

>  <SCORE.RESTR>
0

>  <SCORE.RESTR.CAVITY>
0

>  <SCORE.RESTR.norm>
0

>  <SCORE.SYSTEM>
0

>  <SCORE.SYSTEM.CONST>
0

>  <SCORE.SYSTEM.DIHEDRAL>
0

>  <SCORE.SYSTEM.SOLV>
0

>  <SCORE.SYSTEM.norm>
0

>  <SCORE.heavy>
22

>  <SCORE.norm>
-0.609434

>  <RMSD>
5.913

$$$$
ligand
 OpenBabel02271912143D
libRbt.so/2013.1/901 2013/11/27
 22 24  0  0  0  0  0  0  0  0999 V2000
   16.4543  -15.0350   21.5297 N   0  0  0  0  0  0  0  0  0  0  0  0
   17.3891  -17.2383   21.4627 N   0  0  0  0  0  0  0  0  0  0  0  0
   17.0191  -16.1767   22.1977 C   0  0  0  0  0  0  0  0  0  0  0  0
   17.1585  -16.1486   23.5174 N   0  0  0  0  0  0  0  0  0  0  0  0
   19.2343  -19.9892   26.1615 O   0  0  0  0  0  0  0  0  0  0  0  0
   17.6858  -17.2062   24.1614 C   0  0  0  0  0  0  0  0  0  0  0  0
   18.1005  -18.3434   23.4135 C   0  0  0  0  0  0  0  0  0  0  0  0
   17.8185  -17.1518   25.5307 O   0  0  0  0  0  0  0  0  0  0  0  0
   18.6624  -19.5576   23.9713 N   0  0  0  0  0  0  0  0  0  0  0  0
   18.2260  -20.8218   23.3645 C   0  0  2  0  0  0  0  0  0  0  0  0
   18.4000  -20.7810   21.8784 C   0  0  0  0  0  0  0  0  0  0  0  0
   17.9240  -18.3252   22.0526 C   0  0  0  0  0  0  0  0  0  0  0  0
   18.3191  -19.4466   21.2878 N   0  0  0  0  0  0  0  0  0  0  0  0
   16.7657  -21.1923   23.6805 C   0  0  0  0  0  0  0  0  0  0  0  0
   16.5998  -21.4392   25.1076 N   0  0  0  0  0  0  0  0  0  0  0  0
   13.2384  -19.9012   27.2139 C   0  0  0  0  0  0  0  0  0  0  0  0
   14.5048  -19.4087   27.4809 C   0  0  0  0  0  0  0  0  0  0  0  0
   15.6215  -19.9128   26.7865 C   0  0  0  0  0  0  0  0  0  0  0  0
   15.4538  -20.9064   25.8340 C   0  0  0  0  0  0  0  0  0  0  0  0
   14.1798  -21.3994   25.5677 C   0  0  0  0  0  0  0  0  0  0  0  0
   13.0726  -20.8966   26.2560 C   0  0  0  0  0  0  0  0  0  0  0  0
   19.5777  -19.5934   25.0603 C   0  0  0  0  0  0  0  0  0  0  0  0
  1  3  1  0  0  0  0
  2  3  2  0  0  0  0
  2 12  1  0  0  0  0
  3  4  1  0  0  0  0
  4  6  1  0  0  0  0
  5 22  1  0  0  0  0
  6  7  1  0  0  0  0
  6  8  2  0  0  0  0
  7 12  2  0  0  0  0
  7  9  1  0  0  0  0
  9 10  1  0  0  0  0
  9 22  1  0  0  0  0
 10 11  1  0  0  0  0
 10 14  1  6  0  0  0
 11 13  1  0  0  0  0
 12 13  1  0  0  0  0
 14 15  1  0  0  0  0
 15 19  1  0  0  0  0
 16 17  2  0  0  0  0
 16 21  1  0  0  0  0
 17 18  1  0  0  0  0
 18 19  2  0  0  0  0
 19 20  1  0  0  0  0
 20 21  2  0  0  0  0
M  END
>  <CHROM.1>
107.95346949,-64.69669708,136.24442836,-111.88835231,16.98268656,-19.10937641
24.21749334,0.90087931,0.63170511,-0.46878285

>  <Name>
ligand

>  <RI>
0

>  <Rbt.Current_Directory>
/home/itssahil/PROJECTS/Mol_Feturizer/Test_systems_manuscript/rnas/3sd3

>  <Rbt.Executable>
rbdock ($Id: //depot/dev/client3/rdock/2013.1/src/exe/rbdock.cxx#4 $)

>  <Rbt.Library>
libRbt.so (2013.1, Build901 2013/11/27)

>  <Rbt.Parameter_File>
/export/apps/rDock/src/rDock_2013.1_src/data/scripts/dock_solv.prm

>  <Rbt.Receptor>
prm/pocket_docking_7.prm

>  <SCORE>
-15.7105

>  <SCORE.INTER>
-14.6472

>  <SCORE.INTER.CONST>
1

>  <SCORE.INTER.POLAR>
0

>  <SCORE.INTER.ROT>
4

>  <SCORE.INTER.SOLV>
9.4164

>  <SCORE.INTER.VDW>
-19.1702

>  <SCORE.INTER.norm>
-0.66578

>  <SCORE.INTRA>
-1.06338

>  <SCORE.INTRA.DIHEDRAL>
0.140937

>  <SCORE.INTRA.DIHEDRAL.0>
2.54655

>  <SCORE.INTRA.POLAR>
0

>  <SCORE.INTRA.POLAR.0>
0

>  <SCORE.INTRA.REPUL>
0

>  <SCORE.INTRA.REPUL.0>
0

>  <SCORE.INTRA.SOLV>
0.576727

>  <SCORE.INTRA.SOLV.lig_0>
-56.4922

>  <SCORE.INTRA.VDW>
-1.42222

>  <SCORE.INTRA.VDW.0>
-0.696801

>  <SCORE.INTRA.norm>
-0.0483356

>  <SCORE.RESTR>
0

>  <SCORE.RESTR.CAVITY>
0

>  <SCORE.RESTR.norm>
0

>  <SCORE.SYSTEM>
0

>  <SCORE.SYSTEM.CONST>
0

>  <SCORE.SYSTEM.DIHEDRAL>
0

>  <SCORE.SYSTEM.SOLV>
0

>  <SCORE.SYSTEM.norm>
0

>  <SCORE.heavy>
22

>  <SCORE.norm>
-0.714116

>  <RMSD>
5.928

$$$$
ligand
 OpenBabel02271912143D
libRbt.so/2013.1/901 2013/11/27
 22 24  0  0  0  0  0  0  0  0999 V2000
   18.8144  -18.4995   22.0895 N   0  0  0  0  0  0  0  0  0  0  0  0
   18.8920  -20.4633   23.4571 N   0  0  0  0  0  0  0  0  0  0  0  0
   19.2122  -19.1685   23.2991 C   0  0  0  0  0  0  0  0  0  0  0  0
   19.8826  -18.4894   24.2217 N   0  0  0  0  0  0  0  0  0  0  0  0
   21.5639  -20.4862   28.4917 O   0  0  0  0  0  0  0  0  0  0  0  0
   20.2649  -19.0973   25.3599 C   0  0  0  0  0  0  0  0  0  0  0  0
   19.9539  -20.4718   25.5559 C   0  0  0  0  0  0  0  0  0  0  0  0
   20.9584  -18.3699   26.3010 O   0  0  0  0  0  0  0  0  0  0  0  0
   20.2811  -21.2481   26.7355 N   0  0  0  0  0  0  0  0  0  0  0  0
   19.2598  -22.1949   27.2021 C   0  0  2  0  0  0  0  0  0  0  0  0
   18.8107  -23.0804   26.0820 C   0  0  0  0  0  0  0  0  0  0  0  0
   19.2493  -21.1243   24.5755 C   0  0  0  0  0  0  0  0  0  0  0  0
   18.9195  -22.4878   24.7504 N   0  0  0  0  0  0  0  0  0  0  0  0
   18.0237  -21.5204   27.8240 C   0  0  0  0  0  0  0  0  0  0  0  0
   17.3946  -20.6234   26.8624 N   0  0  0  0  0  0  0  0  0  0  0  0
   13.1660  -20.5061   26.4078 C   0  0  0  0  0  0  0  0  0  0  0  0
   13.7646  -19.8497   27.4701 C   0  0  0  0  0  0  0  0  0  0  0  0
   15.1638  -19.8838   27.6258 C   0  0  0  0  0  0  0  0  0  0  0  0
   15.9451  -20.5779   26.7144 C   0  0  0  0  0  0  0  0  0  0  0  0
   15.3407  -21.2365   25.6476 C   0  0  0  0  0  0  0  0  0  0  0  0
   13.9525  -21.1998   25.4934 C   0  0  0  0  0  0  0  0  0  0  0  0
   21.5002  -21.1340   27.4603 C   0  0  0  0  0  0  0  0  0  0  0  0
  1  3  1  0  0  0  0
  2  3  2  0  0  0  0
  2 12  1  0  0  0  0
  3  4  1  0  0  0  0
  4  6  1  0  0  0  0
  5 22  1  0  0  0  0
  6  7  1  0  0  0  0
  6  8  2  0  0  0  0
  7 12  2  0  0  0  0
  7  9  1  0  0  0  0
  9 10  1  0  0  0  0
  9 22  1  0  0  0  0
 10 11  1  0  0  0  0
 10 14  1  6  0  0  0
 11 13  1  0  0  0  0
 12 13  1  0  0  0  0
 14 15  1  0  0  0  0
 15 19  1  0  0  0  0
 16 17  2  0  0  0  0
 16 21  1  0  0  0  0
 17 18  1  0  0  0  0
 18 19  2  0  0  0  0
 19 20  1  0  0  0  0
 20 21  2  0  0  0  0
M  END
>  <CHROM.1>
100.02163710,58.51949214,137.39101487,78.67922448,18.34398040,-20.52707418
25.91382639,0.13975763,-0.03486409,-1.10842960

>  <Name>
ligand

>  <RI>
0

>  <Rbt.Current_Directory>
/home/itssahil/PROJECTS/Mol_Feturizer/Test_systems_manuscript/rnas/3sd3

>  <Rbt.Executable>
rbdock ($Id: //depot/dev/client3/rdock/2013.1/src/exe/rbdock.cxx#4 $)

>  <Rbt.Library>
libRbt.so (2013.1, Build901 2013/11/27)

>  <Rbt.Parameter_File>
/export/apps/rDock/src/rDock_2013.1_src/data/scripts/dock_solv.prm

>  <Rbt.Receptor>
prm/pocket_docking_8.prm

>  <SCORE>
-12.9158

>  <SCORE.INTER>
-12.5921

>  <SCORE.INTER.CONST>
1

>  <SCORE.INTER.POLAR>
0

>  <SCORE.INTER.ROT>
4

>  <SCORE.INTER.SOLV>
6.21742

>  <SCORE.INTER.VDW>
-16.7339

>  <SCORE.INTER.norm>
-0.572368

>  <SCORE.INTRA>
-0.32373

>  <SCORE.INTRA.DIHEDRAL>
0.039218

>  <SCORE.INTRA.DIHEDRAL.0>
2.54655

>  <SCORE.INTRA.POLAR>
0

>  <SCORE.INTRA.POLAR.0>
0

>  <SCORE.INTRA.REPUL>
0

>  <SCORE.INTRA.REPUL.0>
0

>  <SCORE.INTRA.SOLV>
2.04713

>  <SCORE.INTRA.SOLV.lig_0>
-56.4922

>  <SCORE.INTRA.VDW>
-1.36691

>  <SCORE.INTRA.VDW.0>
-0.696801

>  <SCORE.INTRA.norm>
-0.014715

>  <SCORE.RESTR>
0

>  <SCORE.RESTR.CAVITY>
0

>  <SCORE.RESTR.norm>
0

>  <SCORE.SYSTEM>
0

>  <SCORE.SYSTEM.CONST>
0

>  <SCORE.SYSTEM.DIHEDRAL>
0

>  <SCORE.SYSTEM.SOLV>
0

>  <SCORE.SYSTEM.norm>
0

>  <SCORE.heavy>
22

>  <SCORE.norm>
-0.587083

>  <RMSD>
5.929

$$$$
ligand
 OpenBabel02271912143D
libRbt.so/2013.1/901 2013/11/27
 22 24  0  0  0  0  0  0  0  0999 V2000
   18.7633  -18.5647   22.0289 N   0  0  0  0  0  0  0  0  0  0  0  0
   18.9319  -20.5023   23.4254 N   0  0  0  0  0  0  0  0  0  0  0  0
   19.1546  -19.1874   23.2649 C   0  0  0  0  0  0  0  0  0  0  0  0
   19.7232  -18.4475   24.2088 N   0  0  0  0  0  0  0  0  0  0  0  0
   21.3258  -20.4040   28.6589 O   0  0  0  0  0  0  0  0  0  0  0  0
   20.0977  -19.0113   25.3720 C   0  0  0  0  0  0  0  0  0  0  0  0
   19.8886  -20.4044   25.5720 C   0  0  0  0  0  0  0  0  0  0  0  0
   20.6845  -18.2212   26.3348 O   0  0  0  0  0  0  0  0  0  0  0  0
   20.2197  -21.1402   26.7762 N   0  0  0  0  0  0  0  0  0  0  0  0
   19.2562  -22.1616   27.2069 C   0  0  2  0  0  0  0  0  0  0  0  0
   18.9340  -23.0915   26.0790 C   0  0  0  0  0  0  0  0  0  0  0  0
   19.2867  -21.1213   24.5683 C   0  0  0  0  0  0  0  0  0  0  0  0
   19.0590  -22.5052   24.7460 N   0  0  0  0  0  0  0  0  0  0  0  0
   17.9415  -21.5830   27.7604 C   0  0  0  0  0  0  0  0  0  0  0  0
   17.3024  -20.7288   26.7670 N   0  0  0  0  0  0  0  0  0  0  0  0
   13.0648  -20.4838   26.4775 C   0  0  0  0  0  0  0  0  0  0  0  0
   13.7233  -19.8510   27.5183 C   0  0  0  0  0  0  0  0  0  0  0  0
   15.1260  -19.9274   27.6194 C   0  0  0  0  0  0  0  0  0  0  0  0
   15.8503  -20.6396   26.6755 C   0  0  0  0  0  0  0  0  0  0  0  0
   15.1857  -21.2744   25.6304 C   0  0  0  0  0  0  0  0  0  0  0  0
   13.7942  -21.1958   25.5304 C   0  0  0  0  0  0  0  0  0  0  0  0
   21.3894  -20.9210   27.5562 C   0  0  0  0  0  0  0  0  0  0  0  0
  1  3  1  0  0  0  0
  2  3  2  0  0  0  0
  2 12  1  0  0  0  0
  3  4  1  0  0  0  0
  4  6  1  0  0  0  0
  5 22  1  0  0  0  0
  6  7  1  0  0  0  0
  6  8  2  0  0  0  0
  7 12  2  0  0  0  0
  7  9  1  0  0  0  0
  9 10  1  0  0  0  0
  9 22  1  0  0  0  0
 10 11  1  0  0  0  0
 10 14  1  6  0  0  0
 11 13  1  0  0  0  0
 12 13  1  0  0  0  0
 14 15  1  0  0  0  0
 15 19  1  0  0  0  0
 16 17  2  0  0  0  0
 16 21  1  0  0  0  0
 17 18  1  0  0  0  0
 18 19  2  0  0  0  0
 19 20  1  0  0  0  0
 20 21  2  0  0  0  0
M  END
>  <CHROM.1>
109.13850944,57.44251878,146.69800084,74.56719976,18.26876335,-20.50911352
25.92187914,0.15189349,-0.04149824,-1.13661559

>  <Name>
ligand

>  <RI>
0

>  <Rbt.Current_Directory>
/home/itssahil/PROJECTS/Mol_Feturizer/Test_systems_manuscript/rnas/3sd3

>  <Rbt.Executable>
rbdock ($Id: //depot/dev/client3/rdock/2013.1/src/exe/rbdock.cxx#4 $)

>  <Rbt.Library>
libRbt.so (2013.1, Build901 2013/11/27)

>  <Rbt.Parameter_File>
/export/apps/rDock/src/rDock_2013.1_src/data/scripts/dock_solv.prm

>  <Rbt.Receptor>
prm/pocket_docking_7.prm

>  <SCORE>
-12.9149

>  <SCORE.INTER>
-12.6053

>  <SCORE.INTER.CONST>
1

>  <SCORE.INTER.POLAR>
0

>  <SCORE.INTER.ROT>
4

>  <SCORE.INTER.SOLV>
6.36504

>  <SCORE.INTER.VDW>
-16.7919

>  <SCORE.INTER.norm>
-0.572969

>  <SCORE.INTRA>
-0.30964

>  <SCORE.INTRA.DIHEDRAL>
-0.202007

>  <SCORE.INTRA.DIHEDRAL.0>
2.54655

>  <SCORE.INTRA.POLAR>
0

>  <SCORE.INTRA.POLAR.0>
0

>  <SCORE.INTRA.REPUL>
0

>  <SCORE.INTRA.REPUL.0>
0

>  <SCORE.INTRA.SOLV>
1.99289

>  <SCORE.INTRA.SOLV.lig_0>
-56.4922

>  <SCORE.INTRA.VDW>
-1.20508

>  <SCORE.INTRA.VDW.0>
-0.696801

>  <SCORE.INTRA.norm>
-0.0140745

>  <SCORE.RESTR>
0

>  <SCORE.RESTR.CAVITY>
0

>  <SCORE.RESTR.norm>
0

>  <SCORE.SYSTEM>
0

>  <SCORE.SYSTEM.CONST>
0

>  <SCORE.SYSTEM.DIHEDRAL>
0

>  <SCORE.SYSTEM.SOLV>
0

>  <SCORE.SYSTEM.norm>
0

>  <SCORE.heavy>
22

>  <SCORE.norm>
-0.587043

>  <RMSD>
5.935

$$$$
ligand
 OpenBabel02271912143D
libRbt.so/2013.1/901 2013/11/27
 22 24  0  0  0  0  0  0  0  0999 V2000
   19.9811  -16.2672   25.0207 N   0  0  0  0  0  0  0  0  0  0  0  0
   20.3930  -18.5831   25.4680 N   0  0  0  0  0  0  0  0  0  0  0  0
   19.7141  -17.4646   25.7716 C   0  0  0  0  0  0  0  0  0  0  0  0
   18.8074  -17.4302   26.7404 N   0  0  0  0  0  0  0  0  0  0  0  0
   17.7046  -21.0041   29.7034 O   0  0  0  0  0  0  0  0  0  0  0  0
   18.5437  -18.5394   27.4554 C   0  0  0  0  0  0  0  0  0  0  0  0
   19.2529  -19.7394   27.1697 C   0  0  0  0  0  0  0  0  0  0  0  0
   17.5980  -18.4770   28.4541 O   0  0  0  0  0  0  0  0  0  0  0  0
   19.0596  -21.0103   27.8395 N   0  0  0  0  0  0  0  0  0  0  0  0
   19.1001  -22.2105   26.9940 C   0  0  2  0  0  0  0  0  0  0  0  0
   20.3421  -22.2253   26.1587 C   0  0  0  0  0  0  0  0  0  0  0  0
   20.1719  -19.7235   26.1506 C   0  0  0  0  0  0  0  0  0  0  0  0
   20.8830  -20.9053   25.8406 N   0  0  0  0  0  0  0  0  0  0  0  0
   17.8802  -22.3604   26.0672 C   0  0  0  0  0  0  0  0  0  0  0  0
   17.2860  -21.0579   25.7920 N   0  0  0  0  0  0  0  0  0  0  0  0
   13.2268  -20.2544   26.7808 C   0  0  0  0  0  0  0  0  0  0  0  0
   14.2447  -19.6898   27.5308 C   0  0  0  0  0  0  0  0  0  0  0  0
   15.5905  -19.9509   27.2082 C   0  0  0  0  0  0  0  0  0  0  0  0
   15.8981  -20.7771   26.1379 C   0  0  0  0  0  0  0  0  0  0  0  0
   14.8728  -21.3431   25.3859 C   0  0  0  0  0  0  0  0  0  0  0  0
   13.5382  -21.0812   25.7060 C   0  0  0  0  0  0  0  0  0  0  0  0
   18.8202  -21.1555   29.2346 C   0  0  0  0  0  0  0  0  0  0  0  0
  1  3  1  0  0  0  0
  2  3  2  0  0  0  0
  2 12  1  0  0  0  0
  3  4  1  0  0  0  0
  4  6  1  0  0  0  0
  5 22  1  0  0  0  0
  6  7  1  0  0  0  0
  6  8  2  0  0  0  0
  7 12  2  0  0  0  0
  7  9  1  0  0  0  0
  9 10  1  0  0  0  0
  9 22  1  0  0  0  0
 10 11  1  0  0  0  0
 10 14  1  6  0  0  0
 11 13  1  0  0  0  0
 12 13  1  0  0  0  0
 14 15  1  0  0  0  0
 15 19  1  0  0  0  0
 16 17  2  0  0  0  0
 16 21  1  0  0  0  0
 17 18  1  0  0  0  0
 18 19  2  0  0  0  0
 19 20  1  0  0  0  0
 20 21  2  0  0  0  0
M  END
>  <CHROM.1>
81.69643540,25.39957320,-120.93754344,106.91979323,17.94547618,-20.05931616
26.80150745,0.32004451,0.00882284,-0.24945819

>  <Name>
ligand

>  <RI>
0

>  <Rbt.Current_Directory>
/home/itssahil/PROJECTS/Mol_Feturizer/Test_systems_manuscript/rnas/3sd3

>  <Rbt.Executable>
rbdock ($Id: //depot/dev/client3/rdock/2013.1/src/exe/rbdock.cxx#4 $)

>  <Rbt.Library>
libRbt.so (2013.1, Build901 2013/11/27)

>  <Rbt.Parameter_File>
/export/apps/rDock/src/rDock_2013.1_src/data/scripts/dock_solv.prm

>  <Rbt.Receptor>
prm/pocket_docking_4.prm

>  <SCORE>
-14.5304

>  <SCORE.INTER>
-15.6586

>  <SCORE.INTER.CONST>
1

>  <SCORE.INTER.POLAR>
0

>  <SCORE.INTER.ROT>
4

>  <SCORE.INTER.SOLV>
6.88895

>  <SCORE.INTER.VDW>
-19.002

>  <SCORE.INTER.norm>
-0.711754

>  <SCORE.INTRA>
1.12819

>  <SCORE.INTRA.DIHEDRAL>
3.46557

>  <SCORE.INTRA.DIHEDRAL.0>
2.54655

>  <SCORE.INTRA.POLAR>
0

>  <SCORE.INTRA.POLAR.0>
0

>  <SCORE.INTRA.REPUL>
0

>  <SCORE.INTRA.REPUL.0>
0

>  <SCORE.INTRA.SOLV>
2.67542

>  <SCORE.INTRA.SOLV.lig_0>
-56.4922

>  <SCORE.INTRA.VDW>
-1.94231

>  <SCORE.INTRA.VDW.0>
-0.696801

>  <SCORE.INTRA.norm>
0.0512812

>  <SCORE.RESTR>
0

>  <SCORE.RESTR.CAVITY>
0

>  <SCORE.RESTR.norm>
0

>  <SCORE.SYSTEM>
0

>  <SCORE.SYSTEM.CONST>
0

>  <SCORE.SYSTEM.DIHEDRAL>
0

>  <SCORE.SYSTEM.SOLV>
0

>  <SCORE.SYSTEM.norm>
0

>  <SCORE.heavy>
22

>  <SCORE.norm>
-0.660472

>  <RMSD>
5.939

$$$$
ligand
 OpenBabel02271912143D
libRbt.so/2013.1/901 2013/11/27
 22 24  0  0  0  0  0  0  0  0999 V2000
   18.9052  -21.1713   29.7138 N   0  0  0  0  0  0  0  0  0  0  0  0
   18.6093  -20.0921   27.5971 N   0  0  0  0  0  0  0  0  0  0  0  0
   18.9480  -21.2002   28.2764 C   0  0  0  0  0  0  0  0  0  0  0  0
   19.3199  -22.3176   27.6641 N   0  0  0  0  0  0  0  0  0  0  0  0
   21.0806  -21.2434   23.1132 O   0  0  0  0  0  0  0  0  0  0  0  0
   19.3675  -22.3649   26.3200 C   0  0  0  0  0  0  0  0  0  0  0  0
   19.0276  -21.2059   25.5680 C   0  0  0  0  0  0  0  0  0  0  0  0
   19.7559  -23.5364   25.7097 O   0  0  0  0  0  0  0  0  0  0  0  0
   19.0123  -21.1166   24.1213 N   0  0  0  0  0  0  0  0  0  0  0  0
   17.9101  -20.3526   23.5226 C   0  0  2  0  0  0  0  0  0  0  0  0
   17.8087  -18.9960   24.1470 C   0  0  0  0  0  0  0  0  0  0  0  0
   18.6391  -20.0801   26.2501 C   0  0  0  0  0  0  0  0  0  0  0  0
   18.2871  -18.9182   25.5259 N   0  0  0  0  0  0  0  0  0  0  0  0
   16.5410  -21.0482   23.6285 C   0  0  0  0  0  0  0  0  0  0  0  0
   16.3122  -21.5185   24.9893 N   0  0  0  0  0  0  0  0  0  0  0  0
   13.2020  -19.8797   27.3857 C   0  0  0  0  0  0  0  0  0  0  0  0
   12.9064  -20.8411   26.4339 C   0  0  0  0  0  0  0  0  0  0  0  0
   13.9314  -21.3882   25.6380 C   0  0  0  0  0  0  0  0  0  0  0  0
   15.2403  -20.9625   25.8060 C   0  0  0  0  0  0  0  0  0  0  0  0
   15.5344  -19.9963   26.7635 C   0  0  0  0  0  0  0  0  0  0  0  0
   14.5166  -19.4560   27.5538 C   0  0  0  0  0  0  0  0  0  0  0  0
   19.9725  -21.7286   23.2679 C   0  0  0  0  0  0  0  0  0  0  0  0
  1  3  1  0  0  0  0
  2  3  2  0  0  0  0
  2 12  1  0  0  0  0
  3  4  1  0  0  0  0
  4  6  1  0  0  0  0
  5 22  1  0  0  0  0
  6  7  1  0  0  0  0
  6  8  2  0  0  0  0
  7 12  2  0  0  0  0
  7  9  1  0  0  0  0
  9 10  1  0  0  0  0
  9 22  1  0  0  0  0
 10 11  1  0  0  0  0
 10 14  1  1  0  0  0
 11 13  1  0  0  0  0
 12 13  1  0  0  0  0
 14 15  1  0  0  0  0
 15 19  1  0  0  0  0
 16 17  2  0  0  0  0
 16 21  1  0  0  0  0
 17 18  1  0  0  0  0
 18 19  2  0  0  0  0
 19 20  1  0  0  0  0
 20 21  2  0  0  0  0
M  END
>  <CHROM.1>
-77.62583945,48.13331558,115.05361391,79.98893294,17.62420621,-20.91478295
25.80061238,-0.30441996,-0.23742343,1.64709931

>  <Name>
ligand

>  <RI>
0

>  <Rbt.Current_Directory>
/home/itssahil/PROJECTS/Mol_Feturizer/Test_systems_manuscript/rnas/3sd3

>  <Rbt.Executable>
rbdock ($Id: //depot/dev/client3/rdock/2013.1/src/exe/rbdock.cxx#4 $)

>  <Rbt.Library>
libRbt.so (2013.1, Build901 2013/11/27)

>  <Rbt.Parameter_File>
/export/apps/rDock/src/rDock_2013.1_src/data/scripts/dock_solv.prm

>  <Rbt.Receptor>
prm/pocket_docking_5.prm

>  <SCORE>
-15.126

>  <SCORE.INTER>
-14.52

>  <SCORE.INTER.CONST>
1

>  <SCORE.INTER.POLAR>
0

>  <SCORE.INTER.ROT>
4

>  <SCORE.INTER.SOLV>
11.7565

>  <SCORE.INTER.VDW>
-19.8655

>  <SCORE.INTER.norm>
-0.660002

>  <SCORE.INTRA>
-0.605958

>  <SCORE.INTRA.DIHEDRAL>
0.764338

>  <SCORE.INTRA.DIHEDRAL.0>
2.54655

>  <SCORE.INTRA.POLAR>
0

>  <SCORE.INTRA.POLAR.0>
0

>  <SCORE.INTRA.REPUL>
0

>  <SCORE.INTRA.REPUL.0>
0

>  <SCORE.INTRA.SOLV>
2.28272

>  <SCORE.INTRA.SOLV.lig_0>
-56.4922

>  <SCORE.INTRA.VDW>
-2.12949

>  <SCORE.INTRA.VDW.0>
-0.696801

>  <SCORE.INTRA.norm>
-0.0275435

>  <SCORE.RESTR>
0

>  <SCORE.RESTR.CAVITY>
0

>  <SCORE.RESTR.norm>
0

>  <SCORE.SYSTEM>
0

>  <SCORE.SYSTEM.CONST>
0

>  <SCORE.SYSTEM.DIHEDRAL>
0

>  <SCORE.SYSTEM.SOLV>
0

>  <SCORE.SYSTEM.norm>
0

>  <SCORE.heavy>
22

>  <SCORE.norm>
-0.687545

>  <RMSD>
5.941

$$$$
ligand
 OpenBabel02271912143D
libRbt.so/2013.1/901 2013/11/27
 22 24  0  0  0  0  0  0  0  0999 V2000
   19.4739  -16.0486   24.7336 N   0  0  0  0  0  0  0  0  0  0  0  0
   19.4911  -18.3464   24.0608 N   0  0  0  0  0  0  0  0  0  0  0  0
   19.7085  -17.4373   25.0254 C   0  0  0  0  0  0  0  0  0  0  0  0
   20.1321  -17.7798   26.2358 N   0  0  0  0  0  0  0  0  0  0  0  0
   22.4959  -21.5809   26.4925 O   0  0  0  0  0  0  0  0  0  0  0  0
   20.3586  -19.0737   26.5286 C   0  0  0  0  0  0  0  0  0  0  0  0
   20.1510  -20.0630   25.5273 C   0  0  0  0  0  0  0  0  0  0  0  0
   20.7967  -19.4022   27.7919 O   0  0  0  0  0  0  0  0  0  0  0  0
   20.3322  -21.4902   25.7047 N   0  0  0  0  0  0  0  0  0  0  0  0
   19.3393  -22.3624   25.0641 C   0  0  2  0  0  0  0  0  0  0  0  0
   19.1880  -22.0146   23.6162 C   0  0  0  0  0  0  0  0  0  0  0  0
   19.7019  -19.6562   24.2959 C   0  0  0  0  0  0  0  0  0  0  0  0
   19.4787  -20.6207   23.2866 N   0  0  0  0  0  0  0  0  0  0  0  0
   17.9518  -22.3197   25.7296 C   0  0  0  0  0  0  0  0  0  0  0  0
   17.3452  -21.0051   25.5594 N   0  0  0  0  0  0  0  0  0  0  0  0
   13.3540  -20.2607   26.8312 C   0  0  0  0  0  0  0  0  0  0  0  0
   14.4117  -19.6496   27.4835 C   0  0  0  0  0  0  0  0  0  0  0  0
   15.7352  -19.8911   27.0669 C   0  0  0  0  0  0  0  0  0  0  0  0
   15.9810  -20.7443   26.0018 C   0  0  0  0  0  0  0  0  0  0  0  0
   14.9159  -21.3568   25.3481 C   0  0  0  0  0  0  0  0  0  0  0  0
   13.6034  -21.1145   25.7613 C   0  0  0  0  0  0  0  0  0  0  0  0
   21.3831  -22.0791   26.4621 C   0  0  0  0  0  0  0  0  0  0  0  0
  1  3  1  0  0  0  0
  2  3  2  0  0  0  0
  2 12  1  0  0  0  0
  3  4  1  0  0  0  0
  4  6  1  0  0  0  0
  5 22  1  0  0  0  0
  6  7  1  0  0  0  0
  6  8  2  0  0  0  0
  7 12  2  0  0  0  0
  7  9  1  0  0  0  0
  9 10  1  0  0  0  0
  9 22  1  0  0  0  0
 10 11  1  0  0  0  0
 10 14  1  1  0  0  0
 11 13  1  0  0  0  0
 12 13  1  0  0  0  0
 14 15  1  0  0  0  0
 15 19  1  0  0  0  0
 16 17  2  0  0  0  0
 16 21  1  0  0  0  0
 17 18  1  0  0  0  0
 18 19  2  0  0  0  0
 19 20  1  0  0  0  0
 20 21  2  0  0  0  0
M  END
>  <CHROM.1>
-35.05592832,66.27937482,174.73621613,112.02543998,18.57710981,-20.21095572
25.66401193,0.10634827,0.09456095,0.00646461

>  <Name>
ligand

>  <RI>
0

>  <Rbt.Current_Directory>
/home/itssahil/PROJECTS/Mol_Feturizer/Test_systems_manuscript/rnas/3sd3

>  <Rbt.Executable>
rbdock ($Id: //depot/dev/client3/rdock/2013.1/src/exe/rbdock.cxx#4 $)

>  <Rbt.Library>
libRbt.so (2013.1, Build901 2013/11/27)

>  <Rbt.Parameter_File>
/export/apps/rDock/src/rDock_2013.1_src/data/scripts/dock_solv.prm

>  <Rbt.Receptor>
prm/pocket_docking_3.prm

>  <SCORE>
-12.33

>  <SCORE.INTER>
-11.9756

>  <SCORE.INTER.CONST>
1

>  <SCORE.INTER.POLAR>
0

>  <SCORE.INTER.ROT>
4

>  <SCORE.INTER.SOLV>
4.97407

>  <SCORE.INTER.VDW>
-15.9084

>  <SCORE.INTER.norm>
-0.544345

>  <SCORE.INTRA>
-0.354417

>  <SCORE.INTRA.DIHEDRAL>
-0.768448

>  <SCORE.INTRA.DIHEDRAL.0>
2.54655

>  <SCORE.INTRA.POLAR>
0

>  <SCORE.INTRA.POLAR.0>
0

>  <SCORE.INTRA.REPUL>
0

>  <SCORE.INTRA.REPUL.0>
0

>  <SCORE.INTRA.SOLV>
1.83786

>  <SCORE.INTRA.SOLV.lig_0>
-56.4922

>  <SCORE.INTRA.VDW>
-0.889125

>  <SCORE.INTRA.VDW.0>
-0.696801

>  <SCORE.INTRA.norm>
-0.0161099

>  <SCORE.RESTR>
0

>  <SCORE.RESTR.CAVITY>
0

>  <SCORE.RESTR.norm>
0

>  <SCORE.SYSTEM>
0

>  <SCORE.SYSTEM.CONST>
0

>  <SCORE.SYSTEM.DIHEDRAL>
0

>  <SCORE.SYSTEM.SOLV>
0

>  <SCORE.SYSTEM.norm>
0

>  <SCORE.heavy>
22

>  <SCORE.norm>
-0.560455

>  <RMSD>
5.947

$$$$
ligand
 OpenBabel02271912143D
libRbt.so/2013.1/901 2013/11/27
 22 24  0  0  0  0  0  0  0  0999 V2000
   16.4154  -15.0310   21.4976 N   0  0  0  0  0  0  0  0  0  0  0  0
   17.3426  -17.2377   21.4391 N   0  0  0  0  0  0  0  0  0  0  0  0
   17.0003  -16.1619   22.1668 C   0  0  0  0  0  0  0  0  0  0  0  0
   17.1849  -16.1102   23.4802 N   0  0  0  0  0  0  0  0  0  0  0  0
   19.2998  -19.6595   26.1638 O   0  0  0  0  0  0  0  0  0  0  0  0
   17.7317  -17.1573   24.1249 C   0  0  0  0  0  0  0  0  0  0  0  0
   18.1182  -18.3090   23.3843 C   0  0  0  0  0  0  0  0  0  0  0  0
   17.9115  -17.0783   25.4876 O   0  0  0  0  0  0  0  0  0  0  0  0
   18.6963  -19.5144   23.9446 N   0  0  0  0  0  0  0  0  0  0  0  0
   18.2366  -20.7882   23.3763 C   0  0  2  0  0  0  0  0  0  0  0  0
   18.3596  -20.7751   21.8846 C   0  0  0  0  0  0  0  0  0  0  0  0
   17.8951  -18.3151   22.0301 C   0  0  0  0  0  0  0  0  0  0  0  0
   18.2614  -19.4513   21.2728 N   0  0  0  0  0  0  0  0  0  0  0  0
   16.7872  -21.1490   23.7489 C   0  0  0  0  0  0  0  0  0  0  0  0
   16.6517  -21.2872   25.1937 N   0  0  0  0  0  0  0  0  0  0  0  0
   13.0906  -20.0667   27.1763 C   0  0  0  0  0  0  0  0  0  0  0  0
   14.3061  -19.5081   27.5342 C   0  0  0  0  0  0  0  0  0  0  0  0
   15.4884  -19.9070   26.8812 C   0  0  0  0  0  0  0  0  0  0  0  0
   15.4366  -20.8631   25.8782 C   0  0  0  0  0  0  0  0  0  0  0  0
   14.2135  -21.4227   25.5206 C   0  0  0  0  0  0  0  0  0  0  0  0
   13.0411  -21.0242   26.1680 C   0  0  0  0  0  0  0  0  0  0  0  0
   19.6483  -19.5329   25.0020 C   0  0  0  0  0  0  0  0  0  0  0  0
  1  3  1  0  0  0  0
  2  3  2  0  0  0  0
  2 12  1  0  0  0  0
  3  4  1  0  0  0  0
  4  6  1  0  0  0  0
  5 22  1  0  0  0  0
  6  7  1  0  0  0  0
  6  8  2  0  0  0  0
  7 12  2  0  0  0  0
  7  9  1  0  0  0  0
  9 10  1  0  0  0  0
  9 22  1  0  0  0  0
 10 11  1  0  0  0  0
 10 14  1  6  0  0  0
 11 13  1  0  0  0  0
 12 13  1  0  0  0  0
 14 15  1  0  0  0  0
 15 19  1  0  0  0  0
 16 17  2  0  0  0  0
 16 21  1  0  0  0  0
 17 18  1  0  0  0  0
 18 19  2  0  0  0  0
 19 20  1  0  0  0  0
 20 21  2  0  0  0  0
M  END
>  <CHROM.1>
93.89628391,-61.14739810,144.06831141,-121.52278514,16.97313755,-19.07986568
24.21013087,0.89618027,0.59148843,-0.48081707

>  <Name>
ligand

>  <RI>
0

>  <Rbt.Current_Directory>
/home/itssahil/PROJECTS/Mol_Feturizer/Test_systems_manuscript/rnas/3sd3

>  <Rbt.Executable>
rbdock ($Id: //depot/dev/client3/rdock/2013.1/src/exe/rbdock.cxx#4 $)

>  <Rbt.Library>
libRbt.so (2013.1, Build901 2013/11/27)

>  <Rbt.Parameter_File>
/export/apps/rDock/src/rDock_2013.1_src/data/scripts/dock_solv.prm

>  <Rbt.Receptor>
prm/pocket_docking_8.prm

>  <SCORE>
-15.7739

>  <SCORE.INTER>
-14.732

>  <SCORE.INTER.CONST>
1

>  <SCORE.INTER.POLAR>
0

>  <SCORE.INTER.ROT>
4

>  <SCORE.INTER.SOLV>
9.29768

>  <SCORE.INTER.VDW>
-19.1872

>  <SCORE.INTER.norm>
-0.669634

>  <SCORE.INTRA>
-1.04189

>  <SCORE.INTRA.DIHEDRAL>
-0.151865

>  <SCORE.INTRA.DIHEDRAL.0>
2.54655

>  <SCORE.INTRA.POLAR>
0

>  <SCORE.INTRA.POLAR.0>
0

>  <SCORE.INTRA.REPUL>
0

>  <SCORE.INTRA.REPUL.0>
0

>  <SCORE.INTRA.SOLV>
0.584934

>  <SCORE.INTRA.SOLV.lig_0>
-56.4922

>  <SCORE.INTRA.VDW>
-1.25843

>  <SCORE.INTRA.VDW.0>
-0.696801

>  <SCORE.INTRA.norm>
-0.0473588

>  <SCORE.RESTR>
0

>  <SCORE.RESTR.CAVITY>
0

>  <SCORE.RESTR.norm>
0

>  <SCORE.SYSTEM>
0

>  <SCORE.SYSTEM.CONST>
0

>  <SCORE.SYSTEM.DIHEDRAL>
0

>  <SCORE.SYSTEM.SOLV>
0

>  <SCORE.SYSTEM.norm>
0

>  <SCORE.heavy>
22

>  <SCORE.norm>
-0.716993

>  <RMSD>
5.957

$$$$
ligand
 OpenBabel02271912143D
libRbt.so/2013.1/901 2013/11/27
 22 24  0  0  0  0  0  0  0  0999 V2000
   19.5110  -16.0491   24.7863 N   0  0  0  0  0  0  0  0  0  0  0  0
   19.4961  -18.3498   24.1233 N   0  0  0  0  0  0  0  0  0  0  0  0
   19.7350  -17.4389   25.0811 C   0  0  0  0  0  0  0  0  0  0  0  0
   20.1704  -17.7808   26.2875 N   0  0  0  0  0  0  0  0  0  0  0  0
   22.4957  -21.5995   26.5386 O   0  0  0  0  0  0  0  0  0  0  0  0
   20.3873  -19.0757   26.5831 C   0  0  0  0  0  0  0  0  0  0  0  0
   20.1569  -20.0670   25.5888 C   0  0  0  0  0  0  0  0  0  0  0  0
   20.8381  -19.4033   27.8421 O   0  0  0  0  0  0  0  0  0  0  0  0
   20.3257  -21.4952   25.7701 N   0  0  0  0  0  0  0  0  0  0  0  0
   19.3158  -22.3598   25.1459 C   0  0  2  0  0  0  0  0  0  0  0  0
   19.1497  -22.0166   23.6985 C   0  0  0  0  0  0  0  0  0  0  0  0
   19.6964  -19.6607   24.3614 C   0  0  0  0  0  0  0  0  0  0  0  0
   19.4505  -20.6271   23.3592 N   0  0  0  0  0  0  0  0  0  0  0  0
   17.9375  -22.3000   25.8286 C   0  0  0  0  0  0  0  0  0  0  0  0
   17.3455  -20.9777   25.6668 N   0  0  0  0  0  0  0  0  0  0  0  0
   13.3038  -20.2438   26.7746 C   0  0  0  0  0  0  0  0  0  0  0  0
   14.3337  -19.6700   27.5010 C   0  0  0  0  0  0  0  0  0  0  0  0
   15.6737  -19.9081   27.1389 C   0  0  0  0  0  0  0  0  0  0  0  0
   15.9637  -20.7208   26.0534 C   0  0  0  0  0  0  0  0  0  0  0  0
   14.9264  -21.2959   25.3252 C   0  0  0  0  0  0  0  0  0  0  0  0
   13.5975  -21.0569   25.6845 C   0  0  0  0  0  0  0  0  0  0  0  0
   21.3800  -22.0917   26.5166 C   0  0  0  0  0  0  0  0  0  0  0  0
  1  3  1  0  0  0  0
  2  3  2  0  0  0  0
  2 12  1  0  0  0  0
  3  4  1  0  0  0  0
  4  6  1  0  0  0  0
  5 22  1  0  0  0  0
  6  7  1  0  0  0  0
  6  8  2  0  0  0  0
  7 12  2  0  0  0  0
  7  9  1  0  0  0  0
  9 10  1  0  0  0  0
  9 22  1  0  0  0  0
 10 11  1  0  0  0  0
 10 14  1  1  0  0  0
 11 13  1  0  0  0  0
 12 13  1  0  0  0  0
 14 15  1  0  0  0  0
 15 19  1  0  0  0  0
 16 17  2  0  0  0  0
 16 21  1  0  0  0  0
 17 18  1  0  0  0  0
 18 19  2  0  0  0  0
 19 20  1  0  0  0  0
 20 21  2  0  0  0  0
M  END
>  <CHROM.1>
-34.51429662,65.96589888,171.04515279,111.23977034,18.57179942,-20.20663131
25.71330318,0.10319913,0.07932788,-0.00409907

>  <Name>
ligand

>  <RI>
0

>  <Rbt.Current_Directory>
/home/itssahil/PROJECTS/Mol_Feturizer/Test_systems_manuscript/rnas/3sd3

>  <Rbt.Executable>
rbdock ($Id: //depot/dev/client3/rdock/2013.1/src/exe/rbdock.cxx#4 $)

>  <Rbt.Library>
libRbt.so (2013.1, Build901 2013/11/27)

>  <Rbt.Parameter_File>
/export/apps/rDock/src/rDock_2013.1_src/data/scripts/dock_solv.prm

>  <Rbt.Receptor>
prm/pocket_docking_3.prm

>  <SCORE>
-12.3271

>  <SCORE.INTER>
-11.9995

>  <SCORE.INTER.CONST>
1

>  <SCORE.INTER.POLAR>
0

>  <SCORE.INTER.ROT>
4

>  <SCORE.INTER.SOLV>
5.03487

>  <SCORE.INTER.VDW>
-15.9446

>  <SCORE.INTER.norm>
-0.545431

>  <SCORE.INTRA>
-0.32765

>  <SCORE.INTRA.DIHEDRAL>
-0.74034

>  <SCORE.INTRA.DIHEDRAL.0>
2.54655

>  <SCORE.INTRA.POLAR>
0

>  <SCORE.INTRA.POLAR.0>
0

>  <SCORE.INTRA.REPUL>
0

>  <SCORE.INTRA.REPUL.0>
0

>  <SCORE.INTRA.SOLV>
1.84383

>  <SCORE.INTRA.SOLV.lig_0>
-56.4922

>  <SCORE.INTRA.VDW>
-0.879395

>  <SCORE.INTRA.VDW.0>
-0.696801

>  <SCORE.INTRA.norm>
-0.0148932

>  <SCORE.RESTR>
0

>  <SCORE.RESTR.CAVITY>
0

>  <SCORE.RESTR.norm>
0

>  <SCORE.SYSTEM>
0

>  <SCORE.SYSTEM.CONST>
0

>  <SCORE.SYSTEM.DIHEDRAL>
0

>  <SCORE.SYSTEM.SOLV>
0

>  <SCORE.SYSTEM.norm>
0

>  <SCORE.heavy>
22

>  <SCORE.norm>
-0.560324

>  <RMSD>
5.964

$$$$
ligand
 OpenBabel02271912143D
libRbt.so/2013.1/901 2013/11/27
 22 24  0  0  0  0  0  0  0  0999 V2000
   16.4611  -15.0627   21.5335 N   0  0  0  0  0  0  0  0  0  0  0  0
   17.3816  -17.2722   21.4757 N   0  0  0  0  0  0  0  0  0  0  0  0
   17.0376  -16.1972   22.2038 C   0  0  0  0  0  0  0  0  0  0  0  0
   17.2130  -16.1496   23.5186 N   0  0  0  0  0  0  0  0  0  0  0  0
   20.8536  -19.5438   24.8302 O   0  0  0  0  0  0  0  0  0  0  0  0
   17.7519  -17.2002   24.1644 C   0  0  0  0  0  0  0  0  0  0  0  0
   18.1398  -18.3512   23.4234 C   0  0  0  0  0  0  0  0  0  0  0  0
   17.9222  -17.1254   25.5286 O   0  0  0  0  0  0  0  0  0  0  0  0
   18.7100  -19.5600   23.9846 N   0  0  0  0  0  0  0  0  0  0  0  0
   18.2502  -20.8308   23.4097 C   0  0  2  0  0  0  0  0  0  0  0  0
   18.3839  -20.8141   21.9189 C   0  0  0  0  0  0  0  0  0  0  0  0
   17.9263  -18.3530   22.0677 C   0  0  0  0  0  0  0  0  0  0  0  0
   18.2942  -19.4884   21.3100 N   0  0  0  0  0  0  0  0  0  0  0  0
   16.7971  -21.1878   23.7710 C   0  0  0  0  0  0  0  0  0  0  0  0
   16.6451  -21.3045   25.2161 N   0  0  0  0  0  0  0  0  0  0  0  0
   13.0668  -20.0424   27.1407 C   0  0  0  0  0  0  0  0  0  0  0  0
   14.2843  -19.5088   27.5285 C   0  0  0  0  0  0  0  0  0  0  0  0
   15.4724  -19.9216   26.8948 C   0  0  0  0  0  0  0  0  0  0  0  0
   15.4241  -20.8663   25.8809 C   0  0  0  0  0  0  0  0  0  0  0  0
   14.1989  -21.4007   25.4932 C   0  0  0  0  0  0  0  0  0  0  0  0
   13.0209  -20.9884   26.1215 C   0  0  0  0  0  0  0  0  0  0  0  0
   19.6544  -19.5844   25.0487 C   0  0  0  0  0  0  0  0  0  0  0  0
  1  3  1  0  0  0  0
  2  3  2  0  0  0  0
  2 12  1  0  0  0  0
  3  4  1  0  0  0  0
  4  6  1  0  0  0  0
  5 22  1  0  0  0  0
  6  7  1  0  0  0  0
  6  8  2  0  0  0  0
  7 12  2  0  0  0  0
  7  9  1  0  0  0  0
  9 10  1  0  0  0  0
  9 22  1  0  0  0  0
 10 11  1  0  0  0  0
 10 14  1  6  0  0  0
 11 13  1  0  0  0  0
 12 13  1  0  0  0  0
 14 15  1  0  0  0  0
 15 19  1  0  0  0  0
 16 17  2  0  0  0  0
 16 21  1  0  0  0  0
 17 18  1  0  0  0  0
 18 19  2  0  0  0  0
 19 20  1  0  0  0  0
 20 21  2  0  0  0  0
M  END
>  <CHROM.1>
-89.75738895,-60.07386590,143.79453433,-123.23551060,17.06901976,-19.09801508
24.15793142,0.81508359,0.48797334,-0.49799498

>  <Name>
ligand

>  <RI>
0

>  <Rbt.Current_Directory>
/home/itssahil/PROJECTS/Mol_Feturizer/Test_systems_manuscript/rnas/3sd3

>  <Rbt.Executable>
rbdock ($Id: //depot/dev/client3/rdock/2013.1/src/exe/rbdock.cxx#4 $)

>  <Rbt.Library>
libRbt.so (2013.1, Build901 2013/11/27)

>  <Rbt.Parameter_File>
/export/apps/rDock/src/rDock_2013.1_src/data/scripts/dock_solv.prm

>  <Rbt.Receptor>
prm/pocket_docking_6.prm

>  <SCORE>
-15.8111

>  <SCORE.INTER>
-14.6358

>  <SCORE.INTER.CONST>
1

>  <SCORE.INTER.POLAR>
0

>  <SCORE.INTER.ROT>
4

>  <SCORE.INTER.SOLV>
9.14668

>  <SCORE.INTER.VDW>
-19.0727

>  <SCORE.INTER.norm>
-0.665262

>  <SCORE.INTRA>
-1.17533

>  <SCORE.INTRA.DIHEDRAL>
-0.0914458

>  <SCORE.INTRA.DIHEDRAL.0>
2.54655

>  <SCORE.INTRA.POLAR>
0

>  <SCORE.INTRA.POLAR.0>
0

>  <SCORE.INTRA.REPUL>
0

>  <SCORE.INTRA.REPUL.0>
0

>  <SCORE.INTRA.SOLV>
-0.269284

>  <SCORE.INTRA.SOLV.lig_0>
-56.4922

>  <SCORE.INTRA.VDW>
-0.994963

>  <SCORE.INTRA.VDW.0>
-0.696801

>  <SCORE.INTRA.norm>
-0.053424

>  <SCORE.RESTR>
0

>  <SCORE.RESTR.CAVITY>
0

>  <SCORE.RESTR.norm>
0

>  <SCORE.SYSTEM>
0

>  <SCORE.SYSTEM.CONST>
0

>  <SCORE.SYSTEM.DIHEDRAL>
0

>  <SCORE.SYSTEM.SOLV>
0

>  <SCORE.SYSTEM.norm>
0

>  <SCORE.heavy>
22

>  <SCORE.norm>
-0.718686

>  <RMSD>
5.981

$$$$
ligand
 OpenBabel02271912143D
libRbt.so/2013.1/901 2013/11/27
 22 24  0  0  0  0  0  0  0  0999 V2000
   20.2122  -16.2307   25.2999 N   0  0  0  0  0  0  0  0  0  0  0  0
   20.5168  -18.5994   25.4717 N   0  0  0  0  0  0  0  0  0  0  0  0
   19.8977  -17.4926   25.9143 C   0  0  0  0  0  0  0  0  0  0  0  0
   19.0076  -17.5273   26.8983 N   0  0  0  0  0  0  0  0  0  0  0  0
   19.8003  -21.7534   29.7056 O   0  0  0  0  0  0  0  0  0  0  0  0
   18.7002  -18.6978   27.4871 C   0  0  0  0  0  0  0  0  0  0  0  0
   19.3458  -19.8889   27.0525 C   0  0  0  0  0  0  0  0  0  0  0  0
   17.7730  -18.7063   28.5048 O   0  0  0  0  0  0  0  0  0  0  0  0
   19.1002  -21.2179   27.5764 N   0  0  0  0  0  0  0  0  0  0  0  0
   19.0701  -22.3135   26.5989 C   0  0  2  0  0  0  0  0  0  0  0  0
   20.2978  -22.2905   25.7430 C   0  0  0  0  0  0  0  0  0  0  0  0
   20.2500  -19.7991   26.0239 C   0  0  0  0  0  0  0  0  0  0  0  0
   20.8981  -20.9695   25.5671 N   0  0  0  0  0  0  0  0  0  0  0  0
   17.8312  -22.2985   25.6852 C   0  0  0  0  0  0  0  0  0  0  0  0
   17.2513  -20.9620   25.6347 N   0  0  0  0  0  0  0  0  0  0  0  0
   13.2469  -20.2479   26.8820 C   0  0  0  0  0  0  0  0  0  0  0  0
   13.4991  -21.1199   25.8363 C   0  0  0  0  0  0  0  0  0  0  0  0
   14.8224  -21.3614   25.4191 C   0  0  0  0  0  0  0  0  0  0  0  0
   15.8763  -20.7233   26.0555 C   0  0  0  0  0  0  0  0  0  0  0  0
   15.6197  -19.8476   27.1063 C   0  0  0  0  0  0  0  0  0  0  0  0
   14.3064  -19.6108   27.5204 C   0  0  0  0  0  0  0  0  0  0  0  0
   18.8739  -21.5112   28.9503 C   0  0  0  0  0  0  0  0  0  0  0  0
  1  3  1  0  0  0  0
  2  3  2  0  0  0  0
  2 12  1  0  0  0  0
  3  4  1  0  0  0  0
  4  6  1  0  0  0  0
  5 22  1  0  0  0  0
  6  7  1  0  0  0  0
  6  8  2  0  0  0  0
  7 12  2  0  0  0  0
  7  9  1  0  0  0  0
  9 10  1  0  0  0  0
  9 22  1  0  0  0  0
 10 11  1  0  0  0  0
 10 14  1  6  0  0  0
 11 13  1  0  0  0  0
 12 13  1  0  0  0  0
 14 15  1  0  0  0  0
 15 19  1  0  0  0  0
 16 17  2  0  0  0  0
 16 21  1  0  0  0  0
 17 18  1  0  0  0  0
 18 19  2  0  0  0  0
 19 20  1  0  0  0  0
 20 21  2  0  0  0  0
M  END
>  <CHROM.1>
-88.75080626,22.07604657,-120.64296662,-60.24959882,18.11573833,-20.15644729
26.72249443,0.24080124,-0.03648943,-0.20842895

>  <Name>
ligand

>  <RI>
0

>  <Rbt.Current_Directory>
/home/itssahil/PROJECTS/Mol_Feturizer/Test_systems_manuscript/rnas/3sd3

>  <Rbt.Executable>
rbdock ($Id: //depot/dev/client3/rdock/2013.1/src/exe/rbdock.cxx#4 $)

>  <Rbt.Library>
libRbt.so (2013.1, Build901 2013/11/27)

>  <Rbt.Parameter_File>
/export/apps/rDock/src/rDock_2013.1_src/data/scripts/dock_solv.prm

>  <Rbt.Receptor>
prm/pocket_docking_4.prm

>  <SCORE>
-13.9114

>  <SCORE.INTER>
-15.3618

>  <SCORE.INTER.CONST>
1

>  <SCORE.INTER.POLAR>
0

>  <SCORE.INTER.ROT>
4

>  <SCORE.INTER.SOLV>
6.00341

>  <SCORE.INTER.VDW>
-18.509

>  <SCORE.INTER.norm>
-0.698266

>  <SCORE.INTRA>
1.45046

>  <SCORE.INTRA.DIHEDRAL>
3.94935

>  <SCORE.INTRA.DIHEDRAL.0>
2.54655

>  <SCORE.INTRA.POLAR>
0

>  <SCORE.INTRA.POLAR.0>
0

>  <SCORE.INTRA.REPUL>
0

>  <SCORE.INTRA.REPUL.0>
0

>  <SCORE.INTRA.SOLV>
2.07054

>  <SCORE.INTRA.SOLV.lig_0>
-56.4922

>  <SCORE.INTRA.VDW>
-1.55948

>  <SCORE.INTRA.VDW.0>
-0.696801

>  <SCORE.INTRA.norm>
0.0659301

>  <SCORE.RESTR>
0

>  <SCORE.RESTR.CAVITY>
0

>  <SCORE.RESTR.norm>
0

>  <SCORE.SYSTEM>
0

>  <SCORE.SYSTEM.CONST>
0

>  <SCORE.SYSTEM.DIHEDRAL>
0

>  <SCORE.SYSTEM.SOLV>
0

>  <SCORE.SYSTEM.norm>
0

>  <SCORE.heavy>
22

>  <SCORE.norm>
-0.632336

>  <RMSD>
5.988

$$$$
ligand
 OpenBabel02271912143D
libRbt.so/2013.1/901 2013/11/27
 22 24  0  0  0  0  0  0  0  0999 V2000
   17.9983  -14.6950   23.1911 N   0  0  0  0  0  0  0  0  0  0  0  0
   18.3183  -16.9744   22.5317 N   0  0  0  0  0  0  0  0  0  0  0  0
   18.1895  -16.0806   23.5260 C   0  0  0  0  0  0  0  0  0  0  0  0
   18.2335  -16.4356   24.8043 N   0  0  0  0  0  0  0  0  0  0  0  0
   19.0385  -21.4199   26.2022 O   0  0  0  0  0  0  0  0  0  0  0  0
   18.4127  -17.7268   25.1387 C   0  0  0  0  0  0  0  0  0  0  0  0
   18.5654  -18.6995   24.1115 C   0  0  0  0  0  0  0  0  0  0  0  0
   18.4536  -18.0684   26.4718 O   0  0  0  0  0  0  0  0  0  0  0  0
   18.7427  -20.1228   24.3207 N   0  0  0  0  0  0  0  0  0  0  0  0
   18.0330  -21.0156   23.3953 C   0  0  2  0  0  0  0  0  0  0  0  0
   18.3208  -20.6399   21.9753 C   0  0  0  0  0  0  0  0  0  0  0  0
   18.5010  -18.2808   22.8061 C   0  0  0  0  0  0  0  0  0  0  0  0
   18.6402  -19.2290   21.7668 N   0  0  0  0  0  0  0  0  0  0  0  0
   16.5075  -21.0390   23.6002 C   0  0  0  0  0  0  0  0  0  0  0  0
   16.1757  -21.6274   24.8920 N   0  0  0  0  0  0  0  0  0  0  0  0
   13.2835  -19.8306   27.4430 C   0  0  0  0  0  0  0  0  0  0  0  0
   14.6101  -19.4412   27.5214 C   0  0  0  0  0  0  0  0  0  0  0  0
   15.5722  -20.0314   26.6792 C   0  0  0  0  0  0  0  0  0  0  0  0
   15.1915  -21.0064   25.7698 C   0  0  0  0  0  0  0  0  0  0  0  0
   13.8574  -21.3956   25.6931 C   0  0  0  0  0  0  0  0  0  0  0  0
   12.9037  -20.8075   26.5280 C   0  0  0  0  0  0  0  0  0  0  0  0
   19.5328  -20.6904   25.3591 C   0  0  0  0  0  0  0  0  0  0  0  0
  1  3  1  0  0  0  0
  2  3  2  0  0  0  0
  2 12  1  0  0  0  0
  3  4  1  0  0  0  0
  4  6  1  0  0  0  0
  5 22  1  0  0  0  0
  6  7  1  0  0  0  0
  6  8  2  0  0  0  0
  7 12  2  0  0  0  0
  7  9  1  0  0  0  0
  9 10  1  0  0  0  0
  9 22  1  0  0  0  0
 10 11  1  0  0  0  0
 10 14  1  1  0  0  0
 11 13  1  0  0  0  0
 12 13  1  0  0  0  0
 14 15  1  0  0  0  0
 15 19  1  0  0  0  0
 16 17  2  0  0  0  0
 16 21  1  0  0  0  0
 17 18  1  0  0  0  0
 18 19  2  0  0  0  0
 19 20  1  0  0  0  0
 20 21  2  0  0  0  0
M  END
>  <CHROM.1>
119.25065633,-66.31035161,134.48027281,-87.85722322,17.24362446,-19.33013572
24.68604397,0.56011224,0.67774106,0.03926490

>  <Name>
ligand

>  <RI>
0

>  <Rbt.Current_Directory>
/home/itssahil/PROJECTS/Mol_Feturizer/Test_systems_manuscript/rnas/3sd3

>  <Rbt.Executable>
rbdock ($Id: //depot/dev/client3/rdock/2013.1/src/exe/rbdock.cxx#4 $)

>  <Rbt.Library>
libRbt.so (2013.1, Build901 2013/11/27)

>  <Rbt.Parameter_File>
/export/apps/rDock/src/rDock_2013.1_src/data/scripts/dock_solv.prm

>  <Rbt.Receptor>
prm/pocket_docking_5.prm

>  <SCORE>
-14.6183

>  <SCORE.INTER>
-13.4959

>  <SCORE.INTER.CONST>
1

>  <SCORE.INTER.POLAR>
0

>  <SCORE.INTER.ROT>
4

>  <SCORE.INTER.SOLV>
8.97581

>  <SCORE.INTER.VDW>
-18.2559

>  <SCORE.INTER.norm>
-0.613449

>  <SCORE.INTRA>
-1.12241

>  <SCORE.INTRA.DIHEDRAL>
0.256779

>  <SCORE.INTRA.DIHEDRAL.0>
2.54655

>  <SCORE.INTRA.POLAR>
0

>  <SCORE.INTRA.POLAR.0>
0

>  <SCORE.INTRA.REPUL>
0

>  <SCORE.INTRA.REPUL.0>
0

>  <SCORE.INTRA.SOLV>
0.565056

>  <SCORE.INTRA.SOLV.lig_0>
-56.4922

>  <SCORE.INTRA.VDW>
-1.53332

>  <SCORE.INTRA.VDW.0>
-0.696801

>  <SCORE.INTRA.norm>
-0.0510184

>  <SCORE.RESTR>
0

>  <SCORE.RESTR.CAVITY>
0

>  <SCORE.RESTR.norm>
0

>  <SCORE.SYSTEM>
0

>  <SCORE.SYSTEM.CONST>
0

>  <SCORE.SYSTEM.DIHEDRAL>
0

>  <SCORE.SYSTEM.SOLV>
0

>  <SCORE.SYSTEM.norm>
0

>  <SCORE.heavy>
22

>  <SCORE.norm>
-0.664468

>  <RMSD>
5.990

$$$$
ligand
 OpenBabel02271912143D
libRbt.so/2013.1/901 2013/11/27
 22 24  0  0  0  0  0  0  0  0999 V2000
   19.0302  -20.7301   29.7545 N   0  0  0  0  0  0  0  0  0  0  0  0
   18.8804  -19.9313   27.5023 N   0  0  0  0  0  0  0  0  0  0  0  0
   19.0329  -20.9727   28.3368 C   0  0  0  0  0  0  0  0  0  0  0  0
   19.1859  -22.2149   27.8949 N   0  0  0  0  0  0  0  0  0  0  0  0
   21.0418  -22.3907   23.5816 O   0  0  0  0  0  0  0  0  0  0  0  0
   19.1925  -22.4629   26.5721 C   0  0  0  0  0  0  0  0  0  0  0  0
   19.0460  -21.3822   25.6583 C   0  0  0  0  0  0  0  0  0  0  0  0
   19.3520  -23.7604   26.1402 O   0  0  0  0  0  0  0  0  0  0  0  0
   19.0124  -21.5007   24.2140 N   0  0  0  0  0  0  0  0  0  0  0  0
   18.0495  -20.6459   23.5076 C   0  0  2  0  0  0  0  0  0  0  0  0
   18.2055  -19.2176   23.9273 C   0  0  0  0  0  0  0  0  0  0  0  0
   18.8799  -20.1189   26.1681 C   0  0  0  0  0  0  0  0  0  0  0  0
   18.7227  -19.0292   25.2813 N   0  0  0  0  0  0  0  0  0  0  0  0
   16.5816  -21.0624   23.7105 C   0  0  0  0  0  0  0  0  0  0  0  0
   16.3581  -21.4882   25.0867 N   0  0  0  0  0  0  0  0  0  0  0  0
   13.0931  -19.9588   27.3454 C   0  0  0  0  0  0  0  0  0  0  0  0
   14.3824  -19.5373   27.6236 C   0  0  0  0  0  0  0  0  0  0  0  0
   15.4675  -20.0389   26.8790 C   0  0  0  0  0  0  0  0  0  0  0  0
   15.2454  -20.9589   25.8656 C   0  0  0  0  0  0  0  0  0  0  0  0
   13.9484  -21.3806   25.5883 C   0  0  0  0  0  0  0  0  0  0  0  0
   12.8727  -20.8803   26.3265 C   0  0  0  0  0  0  0  0  0  0  0  0
   19.8281  -22.3912   23.4614 C   0  0  0  0  0  0  0  0  0  0  0  0
  1  3  1  0  0  0  0
  2  3  2  0  0  0  0
  2 12  1  0  0  0  0
  3  4  1  0  0  0  0
  4  6  1  0  0  0  0
  5 22  1  0  0  0  0
  6  7  1  0  0  0  0
  6  8  2  0  0  0  0
  7 12  2  0  0  0  0
  7  9  1  0  0  0  0
  9 10  1  0  0  0  0
  9 22  1  0  0  0  0
 10 11  1  0  0  0  0
 10 14  1  1  0  0  0
 11 13  1  0  0  0  0
 12 13  1  0  0  0  0
 14 15  1  0  0  0  0
 15 19  1  0  0  0  0
 16 17  2  0  0  0  0
 16 21  1  0  0  0  0
 17 18  1  0  0  0  0
 18 19  2  0  0  0  0
 19 20  1  0  0  0  0
 20 21  2  0  0  0  0
M  END
>  <CHROM.1>
-54.08761049,39.10444134,130.36009845,-106.47885698,17.64970893,-21.04800494
25.87308822,-0.29332172,-0.23924727,1.49630871

>  <Name>
ligand

>  <RI>
0

>  <Rbt.Current_Directory>
/home/itssahil/PROJECTS/Mol_Feturizer/Test_systems_manuscript/rnas/3sd3

>  <Rbt.Executable>
rbdock ($Id: //depot/dev/client3/rdock/2013.1/src/exe/rbdock.cxx#4 $)

>  <Rbt.Library>
libRbt.so (2013.1, Build901 2013/11/27)

>  <Rbt.Parameter_File>
/export/apps/rDock/src/rDock_2013.1_src/data/scripts/dock_solv.prm

>  <Rbt.Receptor>
prm/pocket_docking_4.prm

>  <SCORE>
-15.3

>  <SCORE.INTER>
-15.2724

>  <SCORE.INTER.CONST>
1

>  <SCORE.INTER.POLAR>
0

>  <SCORE.INTER.ROT>
4

>  <SCORE.INTER.SOLV>
12.2165

>  <SCORE.INTER.VDW>
-20.5204

>  <SCORE.INTER.norm>
-0.694201

>  <SCORE.INTRA>
-0.0275962

>  <SCORE.INTRA.DIHEDRAL>
1.58161

>  <SCORE.INTRA.DIHEDRAL.0>
2.54655

>  <SCORE.INTRA.POLAR>
0

>  <SCORE.INTRA.POLAR.0>
0

>  <SCORE.INTRA.REPUL>
0

>  <SCORE.INTRA.REPUL.0>
0

>  <SCORE.INTRA.SOLV>
2.08993

>  <SCORE.INTRA.SOLV.lig_0>
-56.4922

>  <SCORE.INTRA.VDW>
-1.86337

>  <SCORE.INTRA.VDW.0>
-0.696801

>  <SCORE.INTRA.norm>
-0.00125437

>  <SCORE.RESTR>
0

>  <SCORE.RESTR.CAVITY>
0

>  <SCORE.RESTR.norm>
0

>  <SCORE.SYSTEM>
0

>  <SCORE.SYSTEM.CONST>
0

>  <SCORE.SYSTEM.DIHEDRAL>
0

>  <SCORE.SYSTEM.SOLV>
0

>  <SCORE.SYSTEM.norm>
0

>  <SCORE.heavy>
22

>  <SCORE.norm>
-0.695455

>  <RMSD>
6.001

$$$$
ligand
 OpenBabel02271912143D
libRbt.so/2013.1/901 2013/11/27
 22 24  0  0  0  0  0  0  0  0999 V2000
   19.5862  -20.8579   29.2371 N   0  0  0  0  0  0  0  0  0  0  0  0
   19.0353  -19.8781   27.1230 N   0  0  0  0  0  0  0  0  0  0  0  0
   19.4513  -20.9557   27.8084 C   0  0  0  0  0  0  0  0  0  0  0  0
   19.7411  -22.1044   27.2099 N   0  0  0  0  0  0  0  0  0  0  0  0
   20.2509  -21.1627   21.7425 O   0  0  0  0  0  0  0  0  0  0  0  0
   19.6225  -22.2162   25.8740 C   0  0  0  0  0  0  0  0  0  0  0  0
   19.1965  -21.0912   25.1142 C   0  0  0  0  0  0  0  0  0  0  0  0
   19.9286  -23.4190   25.2781 O   0  0  0  0  0  0  0  0  0  0  0  0
   19.0033  -21.0708   23.6777 N   0  0  0  0  0  0  0  0  0  0  0  0
   17.8383  -20.3258   23.1828 C   0  0  2  0  0  0  0  0  0  0  0  0
   17.8194  -18.9402   23.7484 C   0  0  0  0  0  0  0  0  0  0  0  0
   18.8990  -19.9306   25.7836 C   0  0  0  0  0  0  0  0  0  0  0  0
   18.4643  -18.8012   25.0526 N   0  0  0  0  0  0  0  0  0  0  0  0
   16.4903  -21.0028   23.4899 C   0  0  0  0  0  0  0  0  0  0  0  0
   16.4127  -21.3680   24.8990 N   0  0  0  0  0  0  0  0  0  0  0  0
   13.2700  -19.9228   27.3761 C   0  0  0  0  0  0  0  0  0  0  0  0
   13.0055  -20.8857   26.4167 C   0  0  0  0  0  0  0  0  0  0  0  0
   14.0415  -21.3690   25.5941 C   0  0  0  0  0  0  0  0  0  0  0  0
   15.3299  -20.8786   25.7434 C   0  0  0  0  0  0  0  0  0  0  0  0
   15.5927  -19.9111   26.7086 C   0  0  0  0  0  0  0  0  0  0  0  0
   14.5642  -19.4342   27.5253 C   0  0  0  0  0  0  0  0  0  0  0  0
   19.8488  -21.7318   22.7434 C   0  0  0  0  0  0  0  0  0  0  0  0
  1  3  1  0  0  0  0
  2  3  2  0  0  0  0
  2 12  1  0  0  0  0
  3  4  1  0  0  0  0
  4  6  1  0  0  0  0
  5 22  1  0  0  0  0
  6  7  1  0  0  0  0
  6  8  2  0  0  0  0
  7 12  2  0  0  0  0
  7  9  1  0  0  0  0
  9 10  1  0  0  0  0
  9 22  1  0  0  0  0
 10 11  1  0  0  0  0
 10 14  1  1  0  0  0
 11 13  1  0  0  0  0
 12 13  1  0  0  0  0
 14 15  1  0  0  0  0
 15 19  1  0  0  0  0
 16 17  2  0  0  0  0
 16 21  1  0  0  0  0
 17 18  1  0  0  0  0
 18 19  2  0  0  0  0
 19 20  1  0  0  0  0
 20 21  2  0  0  0  0
M  END
>  <CHROM.1>
-133.20863851,49.89621987,123.07686035,71.96653469,17.73189815,-20.81512329
25.43470906,-0.41948681,-0.20194137,1.57278365

>  <Name>
ligand

>  <RI>
0

>  <Rbt.Current_Directory>
/home/itssahil/PROJECTS/Mol_Feturizer/Test_systems_manuscript/rnas/3sd3

>  <Rbt.Executable>
rbdock ($Id: //depot/dev/client3/rdock/2013.1/src/exe/rbdock.cxx#4 $)

>  <Rbt.Library>
libRbt.so (2013.1, Build901 2013/11/27)

>  <Rbt.Parameter_File>
/export/apps/rDock/src/rDock_2013.1_src/data/scripts/dock_solv.prm

>  <Rbt.Receptor>
prm/pocket_docking_5.prm

>  <SCORE>
-14.9814

>  <SCORE.INTER>
-14.6474

>  <SCORE.INTER.CONST>
1

>  <SCORE.INTER.POLAR>
0

>  <SCORE.INTER.ROT>
4

>  <SCORE.INTER.SOLV>
9.47628

>  <SCORE.INTER.VDW>
-19.1903

>  <SCORE.INTER.norm>
-0.665789

>  <SCORE.INTRA>
-0.334056

>  <SCORE.INTRA.DIHEDRAL>
0.608057

>  <SCORE.INTRA.DIHEDRAL.0>
2.54655

>  <SCORE.INTRA.POLAR>
0

>  <SCORE.INTRA.POLAR.0>
0

>  <SCORE.INTRA.REPUL>
0

>  <SCORE.INTRA.REPUL.0>
0

>  <SCORE.INTRA.SOLV>
2.09279

>  <SCORE.INTRA.SOLV.lig_0>
-56.4922

>  <SCORE.INTRA.VDW>
-1.68448

>  <SCORE.INTRA.VDW.0>
-0.696801

>  <SCORE.INTRA.norm>
-0.0151844

>  <SCORE.RESTR>
0

>  <SCORE.RESTR.CAVITY>
0

>  <SCORE.RESTR.norm>
0

>  <SCORE.SYSTEM>
0

>  <SCORE.SYSTEM.CONST>
0

>  <SCORE.SYSTEM.DIHEDRAL>
0

>  <SCORE.SYSTEM.SOLV>
0

>  <SCORE.SYSTEM.norm>
0

>  <SCORE.heavy>
22

>  <SCORE.norm>
-0.680973

>  <RMSD>
6.033

$$$$
ligand
 OpenBabel02271912143D
libRbt.so/2013.1/901 2013/11/27
 22 24  0  0  0  0  0  0  0  0999 V2000
   20.4371  -16.3131   25.5740 N   0  0  0  0  0  0  0  0  0  0  0  0
   20.6261  -18.6758   25.9127 N   0  0  0  0  0  0  0  0  0  0  0  0
   19.9834  -17.5299   26.1921 C   0  0  0  0  0  0  0  0  0  0  0  0
   18.9458  -17.4860   27.0187 N   0  0  0  0  0  0  0  0  0  0  0  0
   18.6721  -22.3345   29.8520 O   0  0  0  0  0  0  0  0  0  0  0  0
   18.5064  -18.6133   27.6082 C   0  0  0  0  0  0  0  0  0  0  0  0
   19.1711  -19.8435   27.3452 C   0  0  0  0  0  0  0  0  0  0  0  0
   17.4277  -18.5403   28.4606 O   0  0  0  0  0  0  0  0  0  0  0  0
   18.7974  -21.1342   27.8889 N   0  0  0  0  0  0  0  0  0  0  0  0
   18.8864  -22.2814   26.9762 C   0  0  2  0  0  0  0  0  0  0  0  0
   20.2360  -22.3388   26.3314 C   0  0  0  0  0  0  0  0  0  0  0  0
   20.2316  -19.8353   26.4742 C   0  0  0  0  0  0  0  0  0  0  0  0
   20.9030  -21.0462   26.1888 N   0  0  0  0  0  0  0  0  0  0  0  0
   17.8121  -22.2843   25.8736 C   0  0  0  0  0  0  0  0  0  0  0  0
   17.2063  -20.9642   25.7489 N   0  0  0  0  0  0  0  0  0  0  0  0
   13.1383  -20.2995   26.8029 C   0  0  0  0  0  0  0  0  0  0  0  0
   13.4485  -21.1180   25.7299 C   0  0  0  0  0  0  0  0  0  0  0  0
   14.7930  -21.3429   25.3763 C   0  0  0  0  0  0  0  0  0  0  0  0
   15.8098  -20.7421   26.1030 C   0  0  0  0  0  0  0  0  0  0  0  0
   15.4949  -19.9201   27.1810 C   0  0  0  0  0  0  0  0  0  0  0  0
   14.1605  -19.6998   27.5318 C   0  0  0  0  0  0  0  0  0  0  0  0
   18.3426  -21.3444   29.2207 C   0  0  0  0  0  0  0  0  0  0  0  0
  1  3  1  0  0  0  0
  2  3  2  0  0  0  0
  2 12  1  0  0  0  0
  3  4  1  0  0  0  0
  4  6  1  0  0  0  0
  5 22  1  0  0  0  0
  6  7  1  0  0  0  0
  6  8  2  0  0  0  0
  7 12  2  0  0  0  0
  7  9  1  0  0  0  0
  9 10  1  0  0  0  0
  9 22  1  0  0  0  0
 10 11  1  0  0  0  0
 10 14  1  6  0  0  0
 11 13  1  0  0  0  0
 12 13  1  0  0  0  0
 14 15  1  0  0  0  0
 15 19  1  0  0  0  0
 16 17  2  0  0  0  0
 16 21  1  0  0  0  0
 17 18  1  0  0  0  0
 18 19  2  0  0  0  0
 19 20  1  0  0  0  0
 20 21  2  0  0  0  0
M  END
>  <CHROM.1>
-141.81329171,16.72305369,-113.02740541,-65.56228823,17.95960803,-20.18323806
26.92920637,0.29389349,-0.07153756,-0.25108048

>  <Name>
ligand

>  <RI>
0

>  <Rbt.Current_Directory>
/home/itssahil/PROJECTS/Mol_Feturizer/Test_systems_manuscript/rnas/3sd3

>  <Rbt.Executable>
rbdock ($Id: //depot/dev/client3/rdock/2013.1/src/exe/rbdock.cxx#4 $)

>  <Rbt.Library>
libRbt.so (2013.1, Build901 2013/11/27)

>  <Rbt.Parameter_File>
/export/apps/rDock/src/rDock_2013.1_src/data/scripts/dock_solv.prm

>  <Rbt.Receptor>
prm/pocket_docking_7.prm

>  <SCORE>
-14.8031

>  <SCORE.INTER>
-16.7981

>  <SCORE.INTER.CONST>
1

>  <SCORE.INTER.POLAR>
0

>  <SCORE.INTER.ROT>
4

>  <SCORE.INTER.SOLV>
7.2453

>  <SCORE.INTER.VDW>
-19.8805

>  <SCORE.INTER.norm>
-0.76355

>  <SCORE.INTRA>
1.99496

>  <SCORE.INTRA.DIHEDRAL>
4.47854

>  <SCORE.INTRA.DIHEDRAL.0>
2.54655

>  <SCORE.INTRA.POLAR>
0

>  <SCORE.INTRA.POLAR.0>
0

>  <SCORE.INTRA.REPUL>
0

>  <SCORE.INTRA.REPUL.0>
0

>  <SCORE.INTRA.SOLV>
2.12402

>  <SCORE.INTRA.SOLV.lig_0>
-56.4922

>  <SCORE.INTRA.VDW>
-1.30632

>  <SCORE.INTRA.VDW.0>
-0.696801

>  <SCORE.INTRA.norm>
0.0906799

>  <SCORE.RESTR>
0

>  <SCORE.RESTR.CAVITY>
0

>  <SCORE.RESTR.norm>
0

>  <SCORE.SYSTEM>
0

>  <SCORE.SYSTEM.CONST>
0

>  <SCORE.SYSTEM.DIHEDRAL>
0

>  <SCORE.SYSTEM.SOLV>
0

>  <SCORE.SYSTEM.norm>
0

>  <SCORE.heavy>
22

>  <SCORE.norm>
-0.67287

>  <RMSD>
6.073

$$$$
ligand
 OpenBabel02271912143D
libRbt.so/2013.1/901 2013/11/27
 22 24  0  0  0  0  0  0  0  0999 V2000
   20.6012  -16.3787   26.0338 N   0  0  0  0  0  0  0  0  0  0  0  0
   20.1404  -18.1777   24.5224 N   0  0  0  0  0  0  0  0  0  0  0  0
   20.0967  -17.7010   25.7774 C   0  0  0  0  0  0  0  0  0  0  0  0
   19.6040  -18.4105   26.7852 N   0  0  0  0  0  0  0  0  0  0  0  0
   18.0439  -22.9112   26.5724 O   0  0  0  0  0  0  0  0  0  0  0  0
   19.1280  -19.6502   26.5665 C   0  0  0  0  0  0  0  0  0  0  0  0
   19.1699  -20.1924   25.2517 C   0  0  0  0  0  0  0  0  0  0  0  0
   18.6217  -20.3646   27.6290 O   0  0  0  0  0  0  0  0  0  0  0  0
   18.6759  -21.4990   24.8647 N   0  0  0  0  0  0  0  0  0  0  0  0
   17.9775  -21.5811   23.5753 C   0  0  2  0  0  0  0  0  0  0  0  0
   18.8069  -20.9748   22.4868 C   0  0  0  0  0  0  0  0  0  0  0  0
   19.6793  -19.4126   24.2437 C   0  0  0  0  0  0  0  0  0  0  0  0
   19.7233  -19.9246   22.9267 N   0  0  0  0  0  0  0  0  0  0  0  0
   16.5929  -20.9083   23.5736 C   0  0  0  0  0  0  0  0  0  0  0  0
   15.6671  -21.6451   24.4252 N   0  0  0  0  0  0  0  0  0  0  0  0
   13.6225  -19.7004   27.6094 C   0  0  0  0  0  0  0  0  0  0  0  0
   12.9360  -20.5668   26.7753 C   0  0  0  0  0  0  0  0  0  0  0  0
   13.6071  -21.2144   25.7200 C   0  0  0  0  0  0  0  0  0  0  0  0
   14.9587  -20.9832   25.5137 C   0  0  0  0  0  0  0  0  0  0  0  0
   15.6460  -20.1121   26.3537 C   0  0  0  0  0  0  0  0  0  0  0  0
   14.9792  -19.4720   27.4016 C   0  0  0  0  0  0  0  0  0  0  0  0
   18.8106  -22.6755   25.6537 C   0  0  0  0  0  0  0  0  0  0  0  0
  1  3  1  0  0  0  0
  2  3  2  0  0  0  0
  2 12  1  0  0  0  0
  3  4  1  0  0  0  0
  4  6  1  0  0  0  0
  5 22  1  0  0  0  0
  6  7  1  0  0  0  0
  6  8  2  0  0  0  0
  7 12  2  0  0  0  0
  7  9  1  0  0  0  0
  9 10  1  0  0  0  0
  9 22  1  0  0  0  0
 10 11  1  0  0  0  0
 10 14  1  1  0  0  0
 11 13  1  0  0  0  0
 12 13  1  0  0  0  0
 14 15  1  0  0  0  0
 15 19  1  0  0  0  0
 16 17  2  0  0  0  0
 16 21  1  0  0  0  0
 17 18  1  0  0  0  0
 18 19  2  0  0  0  0
 19 20  1  0  0  0  0
 20 21  2  0  0  0  0
M  END
>  <CHROM.1>
81.42061626,-67.78547106,124.48396688,135.69056889,17.68694787,-20.23849773
25.45002896,0.09923064,0.39277296,0.74781381

>  <Name>
ligand

>  <RI>
0

>  <Rbt.Current_Directory>
/home/itssahil/PROJECTS/Mol_Feturizer/Test_systems_manuscript/rnas/3sd3

>  <Rbt.Executable>
rbdock ($Id: //depot/dev/client3/rdock/2013.1/src/exe/rbdock.cxx#4 $)

>  <Rbt.Library>
libRbt.so (2013.1, Build901 2013/11/27)

>  <Rbt.Parameter_File>
/export/apps/rDock/src/rDock_2013.1_src/data/scripts/dock_solv.prm

>  <Rbt.Receptor>
prm/pocket_docking_4.prm

>  <SCORE>
-15.4041

>  <SCORE.INTER>
-14.2023

>  <SCORE.INTER.CONST>
1

>  <SCORE.INTER.POLAR>
0

>  <SCORE.INTER.ROT>
4

>  <SCORE.INTER.SOLV>
10.8496

>  <SCORE.INTER.VDW>
-19.3514

>  <SCORE.INTER.norm>
-0.64556

>  <SCORE.INTRA>
-1.2018

>  <SCORE.INTRA.DIHEDRAL>
0.450447

>  <SCORE.INTRA.DIHEDRAL.0>
2.54655

>  <SCORE.INTRA.POLAR>
0

>  <SCORE.INTRA.POLAR.0>
0

>  <SCORE.INTRA.REPUL>
0

>  <SCORE.INTRA.REPUL.0>
0

>  <SCORE.INTRA.SOLV>
0.645837

>  <SCORE.INTRA.SOLV.lig_0>
-56.4922

>  <SCORE.INTRA.VDW>
-1.74994

>  <SCORE.INTRA.VDW.0>
-0.696801

>  <SCORE.INTRA.norm>
-0.0546274

>  <SCORE.RESTR>
0

>  <SCORE.RESTR.CAVITY>
0

>  <SCORE.RESTR.norm>
0

>  <SCORE.SYSTEM>
0

>  <SCORE.SYSTEM.CONST>
0

>  <SCORE.SYSTEM.DIHEDRAL>
0

>  <SCORE.SYSTEM.SOLV>
0

>  <SCORE.SYSTEM.norm>
0

>  <SCORE.heavy>
22

>  <SCORE.norm>
-0.700187

>  <RMSD>
6.075

$$$$
ligand
 OpenBabel02271912143D
libRbt.so/2013.1/901 2013/11/27
 22 24  0  0  0  0  0  0  0  0999 V2000
   19.7436  -21.2473   29.1639 N   0  0  0  0  0  0  0  0  0  0  0  0
   19.0863  -20.1054   27.1646 N   0  0  0  0  0  0  0  0  0  0  0  0
   19.5760  -21.2182   27.7356 C   0  0  0  0  0  0  0  0  0  0  0  0
   19.9092  -22.2884   27.0247 N   0  0  0  0  0  0  0  0  0  0  0  0
   19.6221  -22.5466   22.0517 O   0  0  0  0  0  0  0  0  0  0  0  0
   19.7611  -22.2810   25.6871 C   0  0  0  0  0  0  0  0  0  0  0  0
   19.2570  -21.1147   25.0468 C   0  0  0  0  0  0  0  0  0  0  0  0
   20.1135  -23.4044   24.9734 O   0  0  0  0  0  0  0  0  0  0  0  0
   19.0248  -20.9706   23.6233 N   0  0  0  0  0  0  0  0  0  0  0  0
   17.8099  -20.2470   23.2265 C   0  0  2  0  0  0  0  0  0  0  0  0
   17.7339  -18.9234   23.9213 C   0  0  0  0  0  0  0  0  0  0  0  0
   18.9173  -20.0398   25.8295 C   0  0  0  0  0  0  0  0  0  0  0  0
   18.4052  -18.8723   25.2185 N   0  0  0  0  0  0  0  0  0  0  0  0
   16.5077  -21.0220   23.4970 C   0  0  0  0  0  0  0  0  0  0  0  0
   16.4188  -21.3942   24.9036 N   0  0  0  0  0  0  0  0  0  0  0  0
   13.2829  -19.9069   27.3644 C   0  0  0  0  0  0  0  0  0  0  0  0
   14.5723  -19.4279   27.5245 C   0  0  0  0  0  0  0  0  0  0  0  0
   15.6147  -19.9154   26.7126 C   0  0  0  0  0  0  0  0  0  0  0  0
   15.3505  -20.8789   25.7511 C   0  0  0  0  0  0  0  0  0  0  0  0
   14.0536  -21.3582   25.5923 C   0  0  0  0  0  0  0  0  0  0  0  0
   13.0202  -20.8720   26.3972 C   0  0  0  0  0  0  0  0  0  0  0  0
   19.8785  -21.4943   22.6125 C   0  0  0  0  0  0  0  0  0  0  0  0
  1  3  1  0  0  0  0
  2  3  2  0  0  0  0
  2 12  1  0  0  0  0
  3  4  1  0  0  0  0
  4  6  1  0  0  0  0
  5 22  1  0  0  0  0
  6  7  1  0  0  0  0
  6  8  2  0  0  0  0
  7 12  2  0  0  0  0
  7  9  1  0  0  0  0
  9 10  1  0  0  0  0
  9 22  1  0  0  0  0
 10 11  1  0  0  0  0
 10 14  1  1  0  0  0
 11 13  1  0  0  0  0
 12 13  1  0  0  0  0
 14 15  1  0  0  0  0
 15 19  1  0  0  0  0
 16 17  2  0  0  0  0
 16 21  1  0  0  0  0
 17 18  1  0  0  0  0
 18 19  2  0  0  0  0
 19 20  1  0  0  0  0
 20 21  2  0  0  0  0
M  END
>  <CHROM.1>
98.70092311,56.13709609,116.96207170,-107.16918114,17.73881473,-20.93112348
25.42191805,-0.37875056,-0.25001064,1.49881466

>  <Name>
ligand

>  <RI>
0

>  <Rbt.Current_Directory>
/home/itssahil/PROJECTS/Mol_Feturizer/Test_systems_manuscript/rnas/3sd3

>  <Rbt.Executable>
rbdock ($Id: //depot/dev/client3/rdock/2013.1/src/exe/rbdock.cxx#4 $)

>  <Rbt.Library>
libRbt.so (2013.1, Build901 2013/11/27)

>  <Rbt.Parameter_File>
/export/apps/rDock/src/rDock_2013.1_src/data/scripts/dock_solv.prm

>  <Rbt.Receptor>
prm/pocket_docking_4.prm

>  <SCORE>
-15.6051

>  <SCORE.INTER>
-15.078

>  <SCORE.INTER.CONST>
1

>  <SCORE.INTER.POLAR>
0

>  <SCORE.INTER.ROT>
4

>  <SCORE.INTER.SOLV>
10.3454

>  <SCORE.INTER.VDW>
-19.7671

>  <SCORE.INTER.norm>
-0.685362

>  <SCORE.INTRA>
-0.527139

>  <SCORE.INTRA.DIHEDRAL>
0.304343

>  <SCORE.INTRA.DIHEDRAL.0>
2.54655

>  <SCORE.INTRA.POLAR>
0

>  <SCORE.INTRA.POLAR.0>
0

>  <SCORE.INTRA.REPUL>
0

>  <SCORE.INTRA.REPUL.0>
0

>  <SCORE.INTRA.SOLV>
2.39824

>  <SCORE.INTRA.SOLV.lig_0>
-56.4922

>  <SCORE.INTRA.VDW>
-1.87843

>  <SCORE.INTRA.VDW.0>
-0.696801

>  <SCORE.INTRA.norm>
-0.0239609

>  <SCORE.RESTR>
0

>  <SCORE.RESTR.CAVITY>
0

>  <SCORE.RESTR.norm>
0

>  <SCORE.SYSTEM>
0

>  <SCORE.SYSTEM.CONST>
0

>  <SCORE.SYSTEM.DIHEDRAL>
0

>  <SCORE.SYSTEM.SOLV>
0

>  <SCORE.SYSTEM.norm>
0

>  <SCORE.heavy>
22

>  <SCORE.norm>
-0.709323

>  <RMSD>
6.093

$$$$
ligand
 OpenBabel02271912143D
libRbt.so/2013.1/901 2013/11/27
 22 24  0  0  0  0  0  0  0  0999 V2000
   20.3932  -23.4664   22.9987 N   0  0  0  0  0  0  0  0  0  0  0  0
   20.6284  -21.8335   24.7341 N   0  0  0  0  0  0  0  0  0  0  0  0
   19.9362  -22.2813   23.6736 C   0  0  0  0  0  0  0  0  0  0  0  0
   18.8470  -21.6656   23.2305 N   0  0  0  0  0  0  0  0  0  0  0  0
   17.0123  -17.4966   25.1120 O   0  0  0  0  0  0  0  0  0  0  0  0
   18.4036  -20.5546   23.8472 C   0  0  0  0  0  0  0  0  0  0  0  0
   19.1191  -20.0444   24.9663 C   0  0  0  0  0  0  0  0  0  0  0  0
   17.2710  -19.9358   23.3680 O   0  0  0  0  0  0  0  0  0  0  0  0
   18.7489  -18.8754   25.7393 N   0  0  0  0  0  0  0  0  0  0  0  0
   18.9292  -18.9664   27.1940 C   0  0  2  0  0  0  0  0  0  0  0  0
   20.3184  -19.4140   27.5261 C   0  0  0  0  0  0  0  0  0  0  0  0
   20.2325  -20.7255   25.3905 C   0  0  0  0  0  0  0  0  0  0  0  0
   20.9555  -20.2445   26.5060 N   0  0  0  0  0  0  0  0  0  0  0  0
   17.9283  -19.9082   27.8874 C   0  0  0  0  0  0  0  0  0  0  0  0
   16.5923  -19.3249   27.8825 N   0  0  0  0  0  0  0  0  0  0  0  0
   13.4174  -21.0841   25.6628 C   0  0  0  0  0  0  0  0  0  0  0  0
   14.7248  -21.2266   25.2290 C   0  0  0  0  0  0  0  0  0  0  0  0
   15.7804  -20.6476   25.9597 C   0  0  0  0  0  0  0  0  0  0  0  0
   15.5107  -19.9310   27.1159 C   0  0  0  0  0  0  0  0  0  0  0  0
   14.1958  -19.7896   27.5494 C   0  0  0  0  0  0  0  0  0  0  0  0
   13.1499  -20.3666   26.8245 C   0  0  0  0  0  0  0  0  0  0  0  0
   18.2161  -17.6792   25.1825 C   0  0  0  0  0  0  0  0  0  0  0  0
  1  3  1  0  0  0  0
  2  3  2  0  0  0  0
  2 12  1  0  0  0  0
  3  4  1  0  0  0  0
  4  6  1  0  0  0  0
  5 22  1  0  0  0  0
  6  7  1  0  0  0  0
  6  8  2  0  0  0  0
  7 12  2  0  0  0  0
  7  9  1  0  0  0  0
  9 10  1  0  0  0  0
  9 22  1  0  0  0  0
 10 11  1  0  0  0  0
 10 14  1  6  0  0  0
 11 13  1  0  0  0  0
 12 13  1  0  0  0  0
 14 15  1  0  0  0  0
 15 19  1  0  0  0  0
 16 17  2  0  0  0  0
 16 21  1  0  0  0  0
 17 18  1  0  0  0  0
 18 19  2  0  0  0  0
 19 20  1  0  0  0  0
 20 21  2  0  0  0  0
M  END
>  <CHROM.1>
94.00573027,-70.78655068,113.46393039,-29.09210044,17.81810037,-20.20281560
25.59301367,0.42582801,-0.06660020,-2.29445151

>  <Name>
ligand

>  <RI>
0

>  <Rbt.Current_Directory>
/home/itssahil/PROJECTS/Mol_Feturizer/Test_systems_manuscript/rnas/3sd3

>  <Rbt.Executable>
rbdock ($Id: //depot/dev/client3/rdock/2013.1/src/exe/rbdock.cxx#4 $)

>  <Rbt.Library>
libRbt.so (2013.1, Build901 2013/11/27)

>  <Rbt.Parameter_File>
/export/apps/rDock/src/rDock_2013.1_src/data/scripts/dock_solv.prm

>  <Rbt.Receptor>
prm/pocket_docking_3.prm

>  <SCORE>
-10.9328

>  <SCORE.INTER>
-9.67718

>  <SCORE.INTER.CONST>
1

>  <SCORE.INTER.POLAR>
0

>  <SCORE.INTER.ROT>
4

>  <SCORE.INTER.SOLV>
15.0096

>  <SCORE.INTER.VDW>
-17.7213

>  <SCORE.INTER.norm>
-0.439872

>  <SCORE.INTRA>
-1.25635

>  <SCORE.INTRA.DIHEDRAL>
0.618989

>  <SCORE.INTRA.DIHEDRAL.0>
2.54655

>  <SCORE.INTRA.POLAR>
0

>  <SCORE.INTRA.POLAR.0>
0

>  <SCORE.INTRA.REPUL>
0

>  <SCORE.INTRA.REPUL.0>
0

>  <SCORE.INTRA.SOLV>
0.784072

>  <SCORE.INTRA.SOLV.lig_0>
-56.4922

>  <SCORE.INTRA.VDW>
-1.95788

>  <SCORE.INTRA.VDW.0>
-0.696801

>  <SCORE.INTRA.norm>
-0.0571066

>  <SCORE.RESTR>
0.000749933

>  <SCORE.RESTR.CAVITY>
0.000749933

>  <SCORE.RESTR.norm>
3.40879e-05

>  <SCORE.SYSTEM>
0

>  <SCORE.SYSTEM.CONST>
0

>  <SCORE.SYSTEM.DIHEDRAL>
0

>  <SCORE.SYSTEM.SOLV>
0

>  <SCORE.SYSTEM.norm>
0

>  <SCORE.heavy>
22

>  <SCORE.norm>
-0.496944

>  <RMSD>
6.107

$$$$
ligand
 OpenBabel02271912143D
libRbt.so/2013.1/901 2013/11/27
 22 24  0  0  0  0  0  0  0  0999 V2000
   19.0701  -21.6668   30.6437 N   0  0  0  0  0  0  0  0  0  0  0  0
   19.5604  -20.4112   28.6648 N   0  0  0  0  0  0  0  0  0  0  0  0
   19.1133  -21.5543   29.2104 C   0  0  0  0  0  0  0  0  0  0  0  0
   18.7117  -22.5801   28.4700 N   0  0  0  0  0  0  0  0  0  0  0  0
   20.4420  -22.9453   24.4110 O   0  0  0  0  0  0  0  0  0  0  0  0
   18.7453  -22.4953   27.1273 C   0  0  0  0  0  0  0  0  0  0  0  0
   19.2249  -21.3041   26.5146 C   0  0  0  0  0  0  0  0  0  0  0  0
   18.3223  -23.5734   26.3827 O   0  0  0  0  0  0  0  0  0  0  0  0
   19.2975  -21.0630   25.0871 N   0  0  0  0  0  0  0  0  0  0  0  0
   18.9333  -19.7158   24.6297 C   0  0  2  0  0  0  0  0  0  0  0  0
   19.6955  -18.6764   25.3909 C   0  0  0  0  0  0  0  0  0  0  0  0
   19.6176  -20.2693   27.3261 C   0  0  0  0  0  0  0  0  0  0  0  0
   20.0891  -19.0714   26.7420 N   0  0  0  0  0  0  0  0  0  0  0  0
   17.4296  -19.4058   24.7417 C   0  0  0  0  0  0  0  0  0  0  0  0
   16.9428  -19.7194   26.0796 N   0  0  0  0  0  0  0  0  0  0  0  0
   12.8674  -20.7556   26.7263 C   0  0  0  0  0  0  0  0  0  0  0  0
   13.4730  -19.8029   27.5281 C   0  0  0  0  0  0  0  0  0  0  0  0
   14.8214  -19.4546   27.3187 C   0  0  0  0  0  0  0  0  0  0  0  0
   15.5461  -20.0682   26.3082 C   0  0  0  0  0  0  0  0  0  0  0  0
   14.9346  -21.0253   25.5038 C   0  0  0  0  0  0  0  0  0  0  0  0
   13.5961  -21.3681   25.7115 C   0  0  0  0  0  0  0  0  0  0  0  0
   19.6756  -22.0408   24.1250 C   0  0  0  0  0  0  0  0  0  0  0  0
  1  3  1  0  0  0  0
  2  3  2  0  0  0  0
  2 12  1  0  0  0  0
  3  4  1  0  0  0  0
  4  6  1  0  0  0  0
  5 22  1  0  0  0  0
  6  7  1  0  0  0  0
  6  8  2  0  0  0  0
  7 12  2  0  0  0  0
  7  9  1  0  0  0  0
  9 10  1  0  0  0  0
  9 22  1  0  0  0  0
 10 11  1  0  0  0  0
 10 14  1  1  0  0  0
 11 13  1  0  0  0  0
 12 13  1  0  0  0  0
 14 15  1  0  0  0  0
 15 19  1  0  0  0  0
 16 17  2  0  0  0  0
 16 21  1  0  0  0  0
 17 18  1  0  0  0  0
 18 19  2  0  0  0  0
 19 20  1  0  0  0  0
 20 21  2  0  0  0  0
M  END
>  <CHROM.1>
-29.30200871,50.79315833,-153.57774799,-131.18853726,17.85642625,-20.90225486
26.54062620,0.03034455,-0.17681891,1.76510141

>  <Name>
ligand

>  <RI>
0

>  <Rbt.Current_Directory>
/home/itssahil/PROJECTS/Mol_Feturizer/Test_systems_manuscript/rnas/3sd3

>  <Rbt.Executable>
rbdock ($Id: //depot/dev/client3/rdock/2013.1/src/exe/rbdock.cxx#4 $)

>  <Rbt.Library>
libRbt.so (2013.1, Build901 2013/11/27)

>  <Rbt.Parameter_File>
/export/apps/rDock/src/rDock_2013.1_src/data/scripts/dock_solv.prm

>  <Rbt.Receptor>
prm/pocket_docking_5.prm

>  <SCORE>
-14.7378

>  <SCORE.INTER>
-14.5124

>  <SCORE.INTER.CONST>
1

>  <SCORE.INTER.POLAR>
0

>  <SCORE.INTER.ROT>
4

>  <SCORE.INTER.SOLV>
10.2721

>  <SCORE.INTER.VDW>
-19.3657

>  <SCORE.INTER.norm>
-0.659656

>  <SCORE.INTRA>
-0.225351

>  <SCORE.INTRA.DIHEDRAL>
-0.16485

>  <SCORE.INTRA.DIHEDRAL.0>
2.54655

>  <SCORE.INTRA.POLAR>
0

>  <SCORE.INTRA.POLAR.0>
0

>  <SCORE.INTRA.REPUL>
0

>  <SCORE.INTRA.REPUL.0>
0

>  <SCORE.INTRA.SOLV>
2.04724

>  <SCORE.INTRA.SOLV.lig_0>
-56.4922

>  <SCORE.INTRA.VDW>
-1.16654

>  <SCORE.INTRA.VDW.0>
-0.696801

>  <SCORE.INTRA.norm>
-0.0102432

>  <SCORE.RESTR>
0

>  <SCORE.RESTR.CAVITY>
0

>  <SCORE.RESTR.norm>
0

>  <SCORE.SYSTEM>
0

>  <SCORE.SYSTEM.CONST>
0

>  <SCORE.SYSTEM.DIHEDRAL>
0

>  <SCORE.SYSTEM.SOLV>
0

>  <SCORE.SYSTEM.norm>
0

>  <SCORE.heavy>
22

>  <SCORE.norm>
-0.669899

>  <RMSD>
6.124

$$$$
ligand
 OpenBabel02271912143D
libRbt.so/2013.1/901 2013/11/27
 22 24  0  0  0  0  0  0  0  0999 V2000
   19.8704  -22.0664   22.5748 N   0  0  0  0  0  0  0  0  0  0  0  0
   19.1267  -22.5721   24.7939 N   0  0  0  0  0  0  0  0  0  0  0  0
   19.9858  -21.9116   24.0001 C   0  0  0  0  0  0  0  0  0  0  0  0
   20.9350  -21.1231   24.4890 N   0  0  0  0  0  0  0  0  0  0  0  0
   21.5087  -20.6047   29.7530 O   0  0  0  0  0  0  0  0  0  0  0  0
   21.0604  -20.9657   25.8196 C   0  0  0  0  0  0  0  0  0  0  0  0
   20.1757  -21.6600   26.6914 C   0  0  0  0  0  0  0  0  0  0  0  0
   22.0528  -20.1415   26.3006 O   0  0  0  0  0  0  0  0  0  0  0  0
   20.1783  -21.5704   28.1381 N   0  0  0  0  0  0  0  0  0  0  0  0
   18.8656  -21.5355   28.7958 C   0  0  2  0  0  0  0  0  0  0  0  0
   18.0112  -22.6721   28.3282 C   0  0  0  0  0  0  0  0  0  0  0  0
   19.2050  -22.4538   26.1337 C   0  0  0  0  0  0  0  0  0  0  0  0
   18.3074  -23.1468   26.9779 N   0  0  0  0  0  0  0  0  0  0  0  0
   18.0968  -20.2193   28.5813 C   0  0  0  0  0  0  0  0  0  0  0  0
   17.7368  -20.0623   27.1775 N   0  0  0  0  0  0  0  0  0  0  0  0
   13.8192  -20.9677   25.7867 C   0  0  0  0  0  0  0  0  0  0  0  0
   13.9868  -20.2426   26.9544 C   0  0  0  0  0  0  0  0  0  0  0  0
   15.2808  -19.9387   27.4198 C   0  0  0  0  0  0  0  0  0  0  0  0
   16.3909  -20.3679   26.7083 C   0  0  0  0  0  0  0  0  0  0  0  0
   16.2194  -21.0964   25.5349 C   0  0  0  0  0  0  0  0  0  0  0  0
   14.9348  -21.3952   25.0735 C   0  0  0  0  0  0  0  0  0  0  0  0
   21.3537  -21.4976   28.9369 C   0  0  0  0  0  0  0  0  0  0  0  0
  1  3  1  0  0  0  0
  2  3  2  0  0  0  0
  2 12  1  0  0  0  0
  3  4  1  0  0  0  0
  4  6  1  0  0  0  0
  5 22  1  0  0  0  0
  6  7  1  0  0  0  0
  6  8  2  0  0  0  0
  7 12  2  0  0  0  0
  7  9  1  0  0  0  0
  9 10  1  0  0  0  0
  9 22  1  0  0  0  0
 10 11  1  0  0  0  0
 10 14  1  6  0  0  0
 11 13  1  0  0  0  0
 12 13  1  0  0  0  0
 14 15  1  0  0  0  0
 15 19  1  0  0  0  0
 16 17  2  0  0  0  0
 16 21  1  0  0  0  0
 17 18  1  0  0  0  0
 18 19  2  0  0  0  0
 19 20  1  0  0  0  0
 20 21  2  0  0  0  0
M  END
>  <CHROM.1>
126.58909241,65.93849631,100.51668232,44.57072292,18.64425270,-21.28155734
26.64168424,-0.09518097,0.08714569,-1.74291868

>  <Name>
ligand

>  <RI>
0

>  <Rbt.Current_Directory>
/home/itssahil/PROJECTS/Mol_Feturizer/Test_systems_manuscript/rnas/3sd3

>  <Rbt.Executable>
rbdock ($Id: //depot/dev/client3/rdock/2013.1/src/exe/rbdock.cxx#4 $)

>  <Rbt.Library>
libRbt.so (2013.1, Build901 2013/11/27)

>  <Rbt.Parameter_File>
/export/apps/rDock/src/rDock_2013.1_src/data/scripts/dock_solv.prm

>  <Rbt.Receptor>
prm/pocket_docking_4.prm

>  <SCORE>
-14.7186

>  <SCORE.INTER>
-14.3913

>  <SCORE.INTER.CONST>
1

>  <SCORE.INTER.POLAR>
0

>  <SCORE.INTER.ROT>
4

>  <SCORE.INTER.SOLV>
9.62632

>  <SCORE.INTER.VDW>
-19.0696

>  <SCORE.INTER.norm>
-0.654149

>  <SCORE.INTRA>
-0.327302

>  <SCORE.INTRA.DIHEDRAL>
0.144741

>  <SCORE.INTRA.DIHEDRAL.0>
2.54655

>  <SCORE.INTRA.POLAR>
0

>  <SCORE.INTRA.POLAR.0>
0

>  <SCORE.INTRA.REPUL>
0

>  <SCORE.INTRA.REPUL.0>
0

>  <SCORE.INTRA.SOLV>
2.32441

>  <SCORE.INTRA.SOLV.lig_0>
-56.4922

>  <SCORE.INTRA.VDW>
-1.56188

>  <SCORE.INTRA.VDW.0>
-0.696801

>  <SCORE.INTRA.norm>
-0.0148773

>  <SCORE.RESTR>
0

>  <SCORE.RESTR.CAVITY>
0

>  <SCORE.RESTR.norm>
0

>  <SCORE.SYSTEM>
0

>  <SCORE.SYSTEM.CONST>
0

>  <SCORE.SYSTEM.DIHEDRAL>
0

>  <SCORE.SYSTEM.SOLV>
0

>  <SCORE.SYSTEM.norm>
0

>  <SCORE.heavy>
22

>  <SCORE.norm>
-0.669026

>  <RMSD>
6.127

$$$$
ligand
 OpenBabel02271912143D
libRbt.so/2013.1/901 2013/11/27
 22 24  0  0  0  0  0  0  0  0999 V2000
   19.8831  -22.1413   22.5098 N   0  0  0  0  0  0  0  0  0  0  0  0
   19.1215  -22.6026   24.7324 N   0  0  0  0  0  0  0  0  0  0  0  0
   20.0056  -21.9820   23.9340 C   0  0  0  0  0  0  0  0  0  0  0  0
   20.9859  -21.2288   24.4173 N   0  0  0  0  0  0  0  0  0  0  0  0
   21.7918  -20.5513   29.3643 O   0  0  0  0  0  0  0  0  0  0  0  0
   21.1184  -21.0680   25.7469 C   0  0  0  0  0  0  0  0  0  0  0  0
   20.2074  -21.7207   26.6235 C   0  0  0  0  0  0  0  0  0  0  0  0
   22.1432  -20.2809   26.2221 O   0  0  0  0  0  0  0  0  0  0  0  0
   20.2146  -21.6220   28.0696 N   0  0  0  0  0  0  0  0  0  0  0  0
   18.9048  -21.5306   28.7277 C   0  0  2  0  0  0  0  0  0  0  0  0
   18.0055  -22.6352   28.2678 C   0  0  0  0  0  0  0  0  0  0  0  0
   19.2054  -22.4789   26.0715 C   0  0  0  0  0  0  0  0  0  0  0  0
   18.2815  -23.1301   26.9206 N   0  0  0  0  0  0  0  0  0  0  0  0
   18.1889  -20.1862   28.5050 C   0  0  0  0  0  0  0  0  0  0  0  0
   17.7827  -20.0496   27.1117 N   0  0  0  0  0  0  0  0  0  0  0  0
   13.8321  -21.0083   25.8567 C   0  0  0  0  0  0  0  0  0  0  0  0
   14.0341  -20.3498   27.0580 C   0  0  0  0  0  0  0  0  0  0  0  0
   15.3392  -20.0287   27.4788 C   0  0  0  0  0  0  0  0  0  0  0  0
   16.4257  -20.3741   26.6895 C   0  0  0  0  0  0  0  0  0  0  0  0
   16.2195  -21.0357   25.4825 C   0  0  0  0  0  0  0  0  0  0  0  0
   14.9239  -21.3516   25.0656 C   0  0  0  0  0  0  0  0  0  0  0  0
   21.3925  -21.5910   28.8674 C   0  0  0  0  0  0  0  0  0  0  0  0
  1  3  1  0  0  0  0
  2  3  2  0  0  0  0
  2 12  1  0  0  0  0
  3  4  1  0  0  0  0
  4  6  1  0  0  0  0
  5 22  1  0  0  0  0
  6  7  1  0  0  0  0
  6  8  2  0  0  0  0
  7 12  2  0  0  0  0
  7  9  1  0  0  0  0
  9 10  1  0  0  0  0
  9 22  1  0  0  0  0
 10 11  1  0  0  0  0
 10 14  1  6  0  0  0
 11 13  1  0  0  0  0
 12 13  1  0  0  0  0
 14 15  1  0  0  0  0
 15 19  1  0  0  0  0
 16 17  2  0  0  0  0
 16 21  1  0  0  0  0
 17 18  1  0  0  0  0
 18 19  2  0  0  0  0
 19 20  1  0  0  0  0
 20 21  2  0  0  0  0
M  END
>  <CHROM.1>
104.23731469,68.40747648,97.17550345,40.02742106,18.68849307,-21.31482795
26.57954532,-0.05179447,0.08398456,-1.76008581

>  <Name>
ligand

>  <RI>
0

>  <Rbt.Current_Directory>
/home/itssahil/PROJECTS/Mol_Feturizer/Test_systems_manuscript/rnas/3sd3

>  <Rbt.Executable>
rbdock ($Id: //depot/dev/client3/rdock/2013.1/src/exe/rbdock.cxx#4 $)

>  <Rbt.Library>
libRbt.so (2013.1, Build901 2013/11/27)

>  <Rbt.Parameter_File>
/export/apps/rDock/src/rDock_2013.1_src/data/scripts/dock_solv.prm

>  <Rbt.Receptor>
prm/pocket_docking_4.prm

>  <SCORE>
-14.7978

>  <SCORE.INTER>
-14.5465

>  <SCORE.INTER.CONST>
1

>  <SCORE.INTER.POLAR>
0

>  <SCORE.INTER.ROT>
4

>  <SCORE.INTER.SOLV>
9.82345

>  <SCORE.INTER.VDW>
-19.2388

>  <SCORE.INTER.norm>
-0.661204

>  <SCORE.INTRA>
-0.251322

>  <SCORE.INTRA.DIHEDRAL>
0.146784

>  <SCORE.INTRA.DIHEDRAL.0>
2.54655

>  <SCORE.INTRA.POLAR>
0

>  <SCORE.INTRA.POLAR.0>
0

>  <SCORE.INTRA.REPUL>
0

>  <SCORE.INTRA.REPUL.0>
0

>  <SCORE.INTRA.SOLV>
2.38206

>  <SCORE.INTRA.SOLV.lig_0>
-56.4922

>  <SCORE.INTRA.VDW>
-1.51574

>  <SCORE.INTRA.VDW.0>
-0.696801

>  <SCORE.INTRA.norm>
-0.0114237

>  <SCORE.RESTR>
0

>  <SCORE.RESTR.CAVITY>
0

>  <SCORE.RESTR.norm>
0

>  <SCORE.SYSTEM>
0

>  <SCORE.SYSTEM.CONST>
0

>  <SCORE.SYSTEM.DIHEDRAL>
0

>  <SCORE.SYSTEM.SOLV>
0

>  <SCORE.SYSTEM.norm>
0

>  <SCORE.heavy>
22

>  <SCORE.norm>
-0.672628

>  <RMSD>
6.128

$$$$
ligand
 OpenBabel02271912143D
libRbt.so/2013.1/901 2013/11/27
 22 24  0  0  0  0  0  0  0  0999 V2000
   20.6432  -16.2447   25.5977 N   0  0  0  0  0  0  0  0  0  0  0  0
   20.0886  -18.0625   24.1413 N   0  0  0  0  0  0  0  0  0  0  0  0
   20.1582  -17.5834   25.3942 C   0  0  0  0  0  0  0  0  0  0  0  0
   19.7944  -18.3051   26.4472 N   0  0  0  0  0  0  0  0  0  0  0  0
   18.2666  -22.9457   26.2895 O   0  0  0  0  0  0  0  0  0  0  0  0
   19.3389  -19.5602   26.2783 C   0  0  0  0  0  0  0  0  0  0  0  0
   19.2635  -20.1050   24.9661 C   0  0  0  0  0  0  0  0  0  0  0  0
   18.9674  -20.2870   27.3870 O   0  0  0  0  0  0  0  0  0  0  0  0
   18.7749  -21.4281   24.6315 N   0  0  0  0  0  0  0  0  0  0  0  0
   17.9512  -21.5367   23.4205 C   0  0  2  0  0  0  0  0  0  0  0  0
   18.6448  -20.9076   22.2528 C   0  0  0  0  0  0  0  0  0  0  0  0
   19.6416  -19.3125   23.9113 C   0  0  0  0  0  0  0  0  0  0  0  0
   19.5670  -19.8271   22.5966 N   0  0  0  0  0  0  0  0  0  0  0  0
   16.5527  -20.9088   23.5607 C   0  0  0  0  0  0  0  0  0  0  0  0
   15.7458  -21.6679   24.5082 N   0  0  0  0  0  0  0  0  0  0  0  0
   13.5683  -19.6953   27.5853 C   0  0  0  0  0  0  0  0  0  0  0  0
   12.9235  -20.5908   26.7486 C   0  0  0  0  0  0  0  0  0  0  0  0
   13.6388  -21.2478   25.7287 C   0  0  0  0  0  0  0  0  0  0  0  0
   14.9920  -20.9966   25.5599 C   0  0  0  0  0  0  0  0  0  0  0  0
   15.6372  -20.0962   26.4024 C   0  0  0  0  0  0  0  0  0  0  0  0
   14.9266  -19.4468   27.4151 C   0  0  0  0  0  0  0  0  0  0  0  0
   19.0276  -22.5970   25.4026 C   0  0  0  0  0  0  0  0  0  0  0  0
  1  3  1  0  0  0  0
  2  3  2  0  0  0  0
  2 12  1  0  0  0  0
  3  4  1  0  0  0  0
  4  6  1  0  0  0  0
  5 22  1  0  0  0  0
  6  7  1  0  0  0  0
  6  8  2  0  0  0  0
  7 12  2  0  0  0  0
  7  9  1  0  0  0  0
  9 10  1  0  0  0  0
  9 22  1  0  0  0  0
 10 11  1  0  0  0  0
 10 14  1  1  0  0  0
 11 13  1  0  0  0  0
 12 13  1  0  0  0  0
 14 15  1  0  0  0  0
 15 19  1  0  0  0  0
 16 17  2  0  0  0  0
 16 21  1  0  0  0  0
 17 18  1  0  0  0  0
 18 19  2  0  0  0  0
 19 20  1  0  0  0  0
 20 21  2  0  0  0  0
M  END
>  <CHROM.1>
90.87713786,-67.46865341,132.57298044,127.71851884,17.73835506,-20.18782399
25.26119360,0.08681260,0.42765714,0.70006876

>  <Name>
ligand

>  <RI>
0

>  <Rbt.Current_Directory>
/home/itssahil/PROJECTS/Mol_Feturizer/Test_systems_manuscript/rnas/3sd3

>  <Rbt.Executable>
rbdock ($Id: //depot/dev/client3/rdock/2013.1/src/exe/rbdock.cxx#4 $)

>  <Rbt.Library>
libRbt.so (2013.1, Build901 2013/11/27)

>  <Rbt.Parameter_File>
/export/apps/rDock/src/rDock_2013.1_src/data/scripts/dock_solv.prm

>  <Rbt.Receptor>
prm/pocket_docking_6.prm

>  <SCORE>
-15.4921

>  <SCORE.INTER>
-14.3682

>  <SCORE.INTER.CONST>
1

>  <SCORE.INTER.POLAR>
0

>  <SCORE.INTER.ROT>
4

>  <SCORE.INTER.SOLV>
10.194

>  <SCORE.INTER.VDW>
-19.2434

>  <SCORE.INTER.norm>
-0.6531

>  <SCORE.INTRA>
-1.12388

>  <SCORE.INTRA.DIHEDRAL>
0.322807

>  <SCORE.INTRA.DIHEDRAL.0>
2.54655

>  <SCORE.INTRA.POLAR>
0

>  <SCORE.INTRA.POLAR.0>
0

>  <SCORE.INTRA.REPUL>
0

>  <SCORE.INTRA.REPUL.0>
0

>  <SCORE.INTRA.SOLV>
0.553212

>  <SCORE.INTRA.SOLV.lig_0>
-56.4922

>  <SCORE.INTRA.VDW>
-1.56188

>  <SCORE.INTRA.VDW.0>
-0.696801

>  <SCORE.INTRA.norm>
-0.0510852

>  <SCORE.RESTR>
0

>  <SCORE.RESTR.CAVITY>
0

>  <SCORE.RESTR.norm>
0

>  <SCORE.SYSTEM>
0

>  <SCORE.SYSTEM.CONST>
0

>  <SCORE.SYSTEM.DIHEDRAL>
0

>  <SCORE.SYSTEM.SOLV>
0

>  <SCORE.SYSTEM.norm>
0

>  <SCORE.heavy>
22

>  <SCORE.norm>
-0.704185

>  <RMSD>
6.128

$$$$
ligand
 OpenBabel02271912143D
libRbt.so/2013.1/901 2013/11/27
 22 24  0  0  0  0  0  0  0  0999 V2000
   18.5208  -21.5958   31.4754 N   0  0  0  0  0  0  0  0  0  0  0  0
   19.2437  -20.1520   29.7075 N   0  0  0  0  0  0  0  0  0  0  0  0
   18.7086  -21.3279   30.0748 C   0  0  0  0  0  0  0  0  0  0  0  0
   18.3491  -22.2476   29.1879 N   0  0  0  0  0  0  0  0  0  0  0  0
   20.7396  -21.9760   25.1913 O   0  0  0  0  0  0  0  0  0  0  0  0
   18.5175  -22.0169   27.8727 C   0  0  0  0  0  0  0  0  0  0  0  0
   19.0931  -20.7871   27.4477 C   0  0  0  0  0  0  0  0  0  0  0  0
   18.1354  -22.9871   26.9736 O   0  0  0  0  0  0  0  0  0  0  0  0
   19.3137  -20.3934   26.0702 N   0  0  0  0  0  0  0  0  0  0  0  0
   19.0397  -18.9895   25.7369 C   0  0  2  0  0  0  0  0  0  0  0  0
   19.7562  -18.0742   26.6799 C   0  0  0  0  0  0  0  0  0  0  0  0
   19.4370  -19.8659   28.4051 C   0  0  0  0  0  0  0  0  0  0  0  0
   20.0019  -18.6322   28.0083 N   0  0  0  0  0  0  0  0  0  0  0  0
   17.5430  -18.6295   25.7412 C   0  0  0  0  0  0  0  0  0  0  0  0
   16.8726  -19.2509   26.8768 N   0  0  0  0  0  0  0  0  0  0  0  0
   13.0284  -21.0199   26.4367 C   0  0  0  0  0  0  0  0  0  0  0  0
   13.2355  -20.0505   27.4035 C   0  0  0  0  0  0  0  0  0  0  0  0
   14.5054  -19.4603   27.5538 C   0  0  0  0  0  0  0  0  0  0  0  0
   15.5522  -19.8516   26.7330 C   0  0  0  0  0  0  0  0  0  0  0  0
   15.3409  -20.8261   25.7620 C   0  0  0  0  0  0  0  0  0  0  0  0
   14.0799  -21.4091   25.6129 C   0  0  0  0  0  0  0  0  0  0  0  0
   19.7531  -21.2745   25.0428 C   0  0  0  0  0  0  0  0  0  0  0  0
  1  3  1  0  0  0  0
  2  3  2  0  0  0  0
  2 12  1  0  0  0  0
  3  4  1  0  0  0  0
  4  6  1  0  0  0  0
  5 22  1  0  0  0  0
  6  7  1  0  0  0  0
  6  8  2  0  0  0  0
  7 12  2  0  0  0  0
  7  9  1  0  0  0  0
  9 10  1  0  0  0  0
  9 22  1  0  0  0  0
 10 11  1  0  0  0  0
 10 14  1  1  0  0  0
 11 13  1  0  0  0  0
 12 13  1  0  0  0  0
 14 15  1  0  0  0  0
 15 19  1  0  0  0  0
 16 17  2  0  0  0  0
 16 21  1  0  0  0  0
 17 18  1  0  0  0  0
 18 19  2  0  0  0  0
 19 20  1  0  0  0  0
 20 21  2  0  0  0  0
M  END
>  <CHROM.1>
-51.27676249,41.70243480,-138.76908410,-125.24244782,17.79530510,-20.51217778
27.25711655,0.20732489,0.03084109,1.86941375

>  <Name>
ligand

>  <RI>
0

>  <Rbt.Current_Directory>
/home/itssahil/PROJECTS/Mol_Feturizer/Test_systems_manuscript/rnas/3sd3

>  <Rbt.Executable>
rbdock ($Id: //depot/dev/client3/rdock/2013.1/src/exe/rbdock.cxx#4 $)

>  <Rbt.Library>
libRbt.so (2013.1, Build901 2013/11/27)

>  <Rbt.Parameter_File>
/export/apps/rDock/src/rDock_2013.1_src/data/scripts/dock_solv.prm

>  <Rbt.Receptor>
prm/pocket_docking_5.prm

>  <SCORE>
-14.581

>  <SCORE.INTER>
-14.6719

>  <SCORE.INTER.CONST>
1

>  <SCORE.INTER.POLAR>
0

>  <SCORE.INTER.ROT>
4

>  <SCORE.INTER.SOLV>
10.4147

>  <SCORE.INTER.VDW>
-19.5195

>  <SCORE.INTER.norm>
-0.666904

>  <SCORE.INTRA>
0.0909

>  <SCORE.INTRA.DIHEDRAL>
1.09613

>  <SCORE.INTRA.DIHEDRAL.0>
2.54655

>  <SCORE.INTRA.POLAR>
0

>  <SCORE.INTRA.POLAR.0>
0

>  <SCORE.INTRA.REPUL>
0

>  <SCORE.INTRA.REPUL.0>
0

>  <SCORE.INTRA.SOLV>
2.0526

>  <SCORE.INTRA.SOLV.lig_0>
-56.4922

>  <SCORE.INTRA.VDW>
-1.48346

>  <SCORE.INTRA.VDW.0>
-0.696801

>  <SCORE.INTRA.norm>
0.00413182

>  <SCORE.RESTR>
0

>  <SCORE.RESTR.CAVITY>
0

>  <SCORE.RESTR.norm>
0

>  <SCORE.SYSTEM>
0

>  <SCORE.SYSTEM.CONST>
0

>  <SCORE.SYSTEM.DIHEDRAL>
0

>  <SCORE.SYSTEM.SOLV>
0

>  <SCORE.SYSTEM.norm>
0

>  <SCORE.heavy>
22

>  <SCORE.norm>
-0.662773

>  <RMSD>
6.135

$$$$
ligand
 OpenBabel02271912143D
libRbt.so/2013.1/901 2013/11/27
 22 24  0  0  0  0  0  0  0  0999 V2000
   20.6033  -16.2731   25.7788 N   0  0  0  0  0  0  0  0  0  0  0  0
   20.0677  -18.0456   24.2609 N   0  0  0  0  0  0  0  0  0  0  0  0
   20.1236  -17.6058   25.5288 C   0  0  0  0  0  0  0  0  0  0  0  0
   19.7513  -18.3609   26.5550 N   0  0  0  0  0  0  0  0  0  0  0  0
   20.1429  -22.9839   25.6175 O   0  0  0  0  0  0  0  0  0  0  0  0
   19.3007  -19.6111   26.3424 C   0  0  0  0  0  0  0  0  0  0  0  0
   19.2396  -20.1148   25.0131 C   0  0  0  0  0  0  0  0  0  0  0  0
   18.9201  -20.3730   27.4241 O   0  0  0  0  0  0  0  0  0  0  0  0
   18.7577  -21.4278   24.6326 N   0  0  0  0  0  0  0  0  0  0  0  0
   17.9463  -21.5003   23.4106 C   0  0  2  0  0  0  0  0  0  0  0  0
   18.6498  -20.8335   22.2701 C   0  0  0  0  0  0  0  0  0  0  0  0
   19.6261  -19.2888   23.9874 C   0  0  0  0  0  0  0  0  0  0  0  0
   19.5658  -19.7621   22.6567 N   0  0  0  0  0  0  0  0  0  0  0  0
   16.5449  -20.8802   23.5564 C   0  0  0  0  0  0  0  0  0  0  0  0
   15.7413  -21.6520   24.4965 N   0  0  0  0  0  0  0  0  0  0  0  0
   13.5346  -19.7164   27.5764 C   0  0  0  0  0  0  0  0  0  0  0  0
   12.9036  -20.6211   26.7392 C   0  0  0  0  0  0  0  0  0  0  0  0
   13.6285  -21.2659   25.7184 C   0  0  0  0  0  0  0  0  0  0  0  0
   14.9776  -20.9935   25.5491 C   0  0  0  0  0  0  0  0  0  0  0  0
   15.6091  -20.0839   26.3922 C   0  0  0  0  0  0  0  0  0  0  0  0
   14.8889  -19.4466   27.4059 C   0  0  0  0  0  0  0  0  0  0  0  0
   19.0058  -22.6197   25.3692 C   0  0  0  0  0  0  0  0  0  0  0  0
  1  3  1  0  0  0  0
  2  3  2  0  0  0  0
  2 12  1  0  0  0  0
  3  4  1  0  0  0  0
  4  6  1  0  0  0  0
  5 22  1  0  0  0  0
  6  7  1  0  0  0  0
  6  8  2  0  0  0  0
  7 12  2  0  0  0  0
  7  9  1  0  0  0  0
  9 10  1  0  0  0  0
  9 22  1  0  0  0  0
 10 11  1  0  0  0  0
 10 14  1  1  0  0  0
 11 13  1  0  0  0  0
 12 13  1  0  0  0  0
 14 15  1  0  0  0  0
 15 19  1  0  0  0  0
 16 17  2  0  0  0  0
 16 21  1  0  0  0  0
 17 18  1  0  0  0  0
 18 19  2  0  0  0  0
 19 20  1  0  0  0  0
 20 21  2  0  0  0  0
M  END
>  <CHROM.1>
-56.88387402,-66.09447227,132.95975222,128.24772452,17.82076349,-20.19315609
25.25776826,0.06311286,0.35274813,0.63748828

>  <Name>
ligand

>  <RI>
0

>  <Rbt.Current_Directory>
/home/itssahil/PROJECTS/Mol_Feturizer/Test_systems_manuscript/rnas/3sd3

>  <Rbt.Executable>
rbdock ($Id: //depot/dev/client3/rdock/2013.1/src/exe/rbdock.cxx#4 $)

>  <Rbt.Library>
libRbt.so (2013.1, Build901 2013/11/27)

>  <Rbt.Parameter_File>
/export/apps/rDock/src/rDock_2013.1_src/data/scripts/dock_solv.prm

>  <Rbt.Receptor>
prm/pocket_docking_6.prm

>  <SCORE>
-15.016

>  <SCORE.INTER>
-13.7282

>  <SCORE.INTER.CONST>
1

>  <SCORE.INTER.POLAR>
0

>  <SCORE.INTER.ROT>
4

>  <SCORE.INTER.SOLV>
10.7073

>  <SCORE.INTER.VDW>
-18.9879

>  <SCORE.INTER.norm>
-0.624011

>  <SCORE.INTRA>
-1.28773

>  <SCORE.INTRA.DIHEDRAL>
0.27458

>  <SCORE.INTRA.DIHEDRAL.0>
2.54655

>  <SCORE.INTRA.POLAR>
0

>  <SCORE.INTRA.POLAR.0>
0

>  <SCORE.INTRA.REPUL>
0

>  <SCORE.INTRA.REPUL.0>
0

>  <SCORE.INTRA.SOLV>
-0.165994

>  <SCORE.INTRA.SOLV.lig_0>
-56.4922

>  <SCORE.INTRA.VDW>
-1.34202

>  <SCORE.INTRA.VDW.0>
-0.696801

>  <SCORE.INTRA.norm>
-0.0585333

>  <SCORE.RESTR>
0

>  <SCORE.RESTR.CAVITY>
0

>  <SCORE.RESTR.norm>
0

>  <SCORE.SYSTEM>
0

>  <SCORE.SYSTEM.CONST>
0

>  <SCORE.SYSTEM.DIHEDRAL>
0

>  <SCORE.SYSTEM.SOLV>
0

>  <SCORE.SYSTEM.norm>
0

>  <SCORE.heavy>
22

>  <SCORE.norm>
-0.682545

>  <RMSD>
6.141

$$$$
ligand
 OpenBabel02271912143D
libRbt.so/2013.1/901 2013/11/27
 22 24  0  0  0  0  0  0  0  0999 V2000
   20.7520  -16.2735   25.8740 N   0  0  0  0  0  0  0  0  0  0  0  0
   20.7692  -18.6589   26.0795 N   0  0  0  0  0  0  0  0  0  0  0  0
   20.1844  -17.4902   26.3898 C   0  0  0  0  0  0  0  0  0  0  0  0
   19.1022  -17.4238   27.1556 N   0  0  0  0  0  0  0  0  0  0  0  0
   18.7152  -22.0329   29.8984 O   0  0  0  0  0  0  0  0  0  0  0  0
   18.5564  -18.5506   27.6490 C   0  0  0  0  0  0  0  0  0  0  0  0
   19.1567  -19.8058   27.3513 C   0  0  0  0  0  0  0  0  0  0  0  0
   17.4336  -18.4539   28.4399 O   0  0  0  0  0  0  0  0  0  0  0  0
   18.6688  -21.0973   27.7930 N   0  0  0  0  0  0  0  0  0  0  0  0
   18.7413  -22.1943   26.8192 C   0  0  2  0  0  0  0  0  0  0  0  0
   20.1221  -22.3055   26.2520 C   0  0  0  0  0  0  0  0  0  0  0  0
   20.2678  -19.8193   26.5457 C   0  0  0  0  0  0  0  0  0  0  0  0
   20.8774  -21.0544   26.2272 N   0  0  0  0  0  0  0  0  0  0  0  0
   17.7397  -22.0627   25.6577 C   0  0  0  0  0  0  0  0  0  0  0  0
   17.1003  -20.7529   25.6820 N   0  0  0  0  0  0  0  0  0  0  0  0
   13.0429  -20.3306   26.8907 C   0  0  0  0  0  0  0  0  0  0  0  0
   14.0338  -19.6089   27.5348 C   0  0  0  0  0  0  0  0  0  0  0  0
   15.3787  -19.7434   27.1389 C   0  0  0  0  0  0  0  0  0  0  0  0
   15.7128  -20.6020   26.1026 C   0  0  0  0  0  0  0  0  0  0  0  0
   14.7147  -21.3259   25.4570 C   0  0  0  0  0  0  0  0  0  0  0  0
   13.3807  -21.1897   25.8496 C   0  0  0  0  0  0  0  0  0  0  0  0
   18.1196  -21.3516   29.0808 C   0  0  0  0  0  0  0  0  0  0  0  0
  1  3  1  0  0  0  0
  2  3  2  0  0  0  0
  2 12  1  0  0  0  0
  3  4  1  0  0  0  0
  4  6  1  0  0  0  0
  5 22  1  0  0  0  0
  6  7  1  0  0  0  0
  6  8  2  0  0  0  0
  7 12  2  0  0  0  0
  7  9  1  0  0  0  0
  9 10  1  0  0  0  0
  9 22  1  0  0  0  0
 10 11  1  0  0  0  0
 10 14  1  6  0  0  0
 11 13  1  0  0  0  0
 12 13  1  0  0  0  0
 14 15  1  0  0  0  0
 15 19  1  0  0  0  0
 16 17  2  0  0  0  0
 16 21  1  0  0  0  0
 17 18  1  0  0  0  0
 18 19  2  0  0  0  0
 19 20  1  0  0  0  0
 20 21  2  0  0  0  0
M  END
>  <CHROM.1>
-110.31143232,9.46852997,-106.66388668,123.96834905,17.94040747,-20.10913810
26.94898382,0.30666415,-0.05427725,-0.14045782

>  <Name>
ligand

>  <RI>
0

>  <Rbt.Current_Directory>
/home/itssahil/PROJECTS/Mol_Feturizer/Test_systems_manuscript/rnas/3sd3

>  <Rbt.Executable>
rbdock ($Id: //depot/dev/client3/rdock/2013.1/src/exe/rbdock.cxx#4 $)

>  <Rbt.Library>
libRbt.so (2013.1, Build901 2013/11/27)

>  <Rbt.Parameter_File>
/export/apps/rDock/src/rDock_2013.1_src/data/scripts/dock_solv.prm

>  <Rbt.Receptor>
prm/pocket_docking_7.prm

>  <SCORE>
-14.755

>  <SCORE.INTER>
-16.8042

>  <SCORE.INTER.CONST>
1

>  <SCORE.INTER.POLAR>
0

>  <SCORE.INTER.ROT>
4

>  <SCORE.INTER.SOLV>
6.93506

>  <SCORE.INTER.VDW>
-19.7812

>  <SCORE.INTER.norm>
-0.763828

>  <SCORE.INTRA>
2.04919

>  <SCORE.INTRA.DIHEDRAL>
5.04688

>  <SCORE.INTRA.DIHEDRAL.0>
2.54655

>  <SCORE.INTRA.POLAR>
0

>  <SCORE.INTRA.POLAR.0>
0

>  <SCORE.INTRA.REPUL>
0

>  <SCORE.INTRA.REPUL.0>
0

>  <SCORE.INTRA.SOLV>
1.97844

>  <SCORE.INTRA.SOLV.lig_0>
-56.4922

>  <SCORE.INTRA.VDW>
-1.46347

>  <SCORE.INTRA.VDW.0>
-0.696801

>  <SCORE.INTRA.norm>
0.093145

>  <SCORE.RESTR>
0

>  <SCORE.RESTR.CAVITY>
0

>  <SCORE.RESTR.norm>
0

>  <SCORE.SYSTEM>
0

>  <SCORE.SYSTEM.CONST>
0

>  <SCORE.SYSTEM.DIHEDRAL>
0

>  <SCORE.SYSTEM.SOLV>
0

>  <SCORE.SYSTEM.norm>
0

>  <SCORE.heavy>
22

>  <SCORE.norm>
-0.670683

>  <RMSD>
6.141

$$$$
ligand
 OpenBabel02271912143D
libRbt.so/2013.1/901 2013/11/27
 22 24  0  0  0  0  0  0  0  0999 V2000
   21.6790  -17.0757   27.0825 N   0  0  0  0  0  0  0  0  0  0  0  0
   21.2860  -19.3282   26.3722 N   0  0  0  0  0  0  0  0  0  0  0  0
   20.8905  -18.2782   27.1106 C   0  0  0  0  0  0  0  0  0  0  0  0
   19.7978  -18.3161   27.8632 N   0  0  0  0  0  0  0  0  0  0  0  0
   18.5412  -22.3728   29.3053 O   0  0  0  0  0  0  0  0  0  0  0  0
   19.0469  -19.4322   27.9041 C   0  0  0  0  0  0  0  0  0  0  0  0
   19.4425  -20.5683   27.1445 C   0  0  0  0  0  0  0  0  0  0  0  0
   17.9179  -19.4449   28.6921 O   0  0  0  0  0  0  0  0  0  0  0  0
   18.7237  -21.8251   27.0744 N   0  0  0  0  0  0  0  0  0  0  0  0
   18.6601  -22.4722   25.7575 C   0  0  2  0  0  0  0  0  0  0  0  0
   20.0293  -22.6013   25.1668 C   0  0  0  0  0  0  0  0  0  0  0  0
   20.5746  -20.4724   26.3745 C   0  0  0  0  0  0  0  0  0  0  0  0
   20.9838  -21.5841   25.6029 N   0  0  0  0  0  0  0  0  0  0  0  0
   17.7541  -21.7432   24.7489 C   0  0  0  0  0  0  0  0  0  0  0  0
   17.2178  -20.5213   25.3359 N   0  0  0  0  0  0  0  0  0  0  0  0
   13.2751  -20.3773   26.9282 C   0  0  0  0  0  0  0  0  0  0  0  0
   13.5493  -21.1825   25.8354 C   0  0  0  0  0  0  0  0  0  0  0  0
   14.8525  -21.2354   25.3041 C   0  0  0  0  0  0  0  0  0  0  0  0
   15.8642  -20.4782   25.8749 C   0  0  0  0  0  0  0  0  0  0  0  0
   15.5856  -19.6700   26.9733 C   0  0  0  0  0  0  0  0  0  0  0  0
   14.2926  -19.6203   27.5005 C   0  0  0  0  0  0  0  0  0  0  0  0
   18.0758  -22.4434   28.1802 C   0  0  0  0  0  0  0  0  0  0  0  0
  1  3  1  0  0  0  0
  2  3  2  0  0  0  0
  2 12  1  0  0  0  0
  3  4  1  0  0  0  0
  4  6  1  0  0  0  0
  5 22  1  0  0  0  0
  6  7  1  0  0  0  0
  6  8  2  0  0  0  0
  7 12  2  0  0  0  0
  7  9  1  0  0  0  0
  9 10  1  0  0  0  0
  9 22  1  0  0  0  0
 10 11  1  0  0  0  0
 10 14  1  6  0  0  0
 11 13  1  0  0  0  0
 12 13  1  0  0  0  0
 14 15  1  0  0  0  0
 15 19  1  0  0  0  0
 16 17  2  0  0  0  0
 16 21  1  0  0  0  0
 17 18  1  0  0  0  0
 18 19  2  0  0  0  0
 19 20  1  0  0  0  0
 20 21  2  0  0  0  0
M  END
>  <CHROM.1>
-35.20427288,2.90169713,-99.89925417,-33.16312385,18.18569109,-20.52660178
26.77005984,0.21396904,0.02672894,0.46523400

>  <Name>
ligand

>  <RI>
0

>  <Rbt.Current_Directory>
/home/itssahil/PROJECTS/Mol_Feturizer/Test_systems_manuscript/rnas/3sd3

>  <Rbt.Executable>
rbdock ($Id: //depot/dev/client3/rdock/2013.1/src/exe/rbdock.cxx#4 $)

>  <Rbt.Library>
libRbt.so (2013.1, Build901 2013/11/27)

>  <Rbt.Parameter_File>
/export/apps/rDock/src/rDock_2013.1_src/data/scripts/dock_solv.prm

>  <Rbt.Receptor>
prm/pocket_docking_8.prm

>  <SCORE>
-14.6186

>  <SCORE.INTER>
-16.574

>  <SCORE.INTER.CONST>
1

>  <SCORE.INTER.POLAR>
0

>  <SCORE.INTER.ROT>
4

>  <SCORE.INTER.SOLV>
6.62487

>  <SCORE.INTER.VDW>
-19.5243

>  <SCORE.INTER.norm>
-0.753365

>  <SCORE.INTRA>
1.95547

>  <SCORE.INTRA.DIHEDRAL>
5.1349

>  <SCORE.INTRA.DIHEDRAL.0>
2.54655

>  <SCORE.INTRA.POLAR>
0

>  <SCORE.INTRA.POLAR.0>
0

>  <SCORE.INTRA.REPUL>
0

>  <SCORE.INTRA.REPUL.0>
0

>  <SCORE.INTRA.SOLV>
1.99615

>  <SCORE.INTRA.SOLV.lig_0>
-56.4922

>  <SCORE.INTRA.VDW>
-1.61005

>  <SCORE.INTRA.VDW.0>
-0.696801

>  <SCORE.INTRA.norm>
0.0888852

>  <SCORE.RESTR>
0

>  <SCORE.RESTR.CAVITY>
0

>  <SCORE.RESTR.norm>
0

>  <SCORE.SYSTEM>
0

>  <SCORE.SYSTEM.CONST>
0

>  <SCORE.SYSTEM.DIHEDRAL>
0

>  <SCORE.SYSTEM.SOLV>
0

>  <SCORE.SYSTEM.norm>
0

>  <SCORE.heavy>
22

>  <SCORE.norm>
-0.66448

>  <RMSD>
6.147

$$$$
ligand
 OpenBabel02271912143D
libRbt.so/2013.1/901 2013/11/27
 22 24  0  0  0  0  0  0  0  0999 V2000
   21.4321  -16.5114   26.4462 N   0  0  0  0  0  0  0  0  0  0  0  0
   21.0615  -18.8579   26.1472 N   0  0  0  0  0  0  0  0  0  0  0  0
   20.6358  -17.6904   26.6572 C   0  0  0  0  0  0  0  0  0  0  0  0
   19.5067  -17.5917   27.3478 N   0  0  0  0  0  0  0  0  0  0  0  0
   18.0986  -21.2303   29.4475 O   0  0  0  0  0  0  0  0  0  0  0  0
   18.7479  -18.6832   27.5573 C   0  0  0  0  0  0  0  0  0  0  0  0
   19.1741  -19.9393   27.0425 C   0  0  0  0  0  0  0  0  0  0  0  0
   17.5809  -18.5532   28.2762 O   0  0  0  0  0  0  0  0  0  0  0  0
   18.4521  -21.1896   27.1707 N   0  0  0  0  0  0  0  0  0  0  0  0
   18.4505  -22.0701   25.9953 C   0  0  2  0  0  0  0  0  0  0  0  0
   19.8468  -22.3020   25.5083 C   0  0  0  0  0  0  0  0  0  0  0  0
   20.3438  -19.9841   26.3260 C   0  0  0  0  0  0  0  0  0  0  0  0
   20.7844  -21.2183   25.7956 N   0  0  0  0  0  0  0  0  0  0  0  0
   17.6006  -21.5439   24.8246 C   0  0  0  0  0  0  0  0  0  0  0  0
   16.9203  -20.3111   25.2024 N   0  0  0  0  0  0  0  0  0  0  0  0
   13.0672  -20.4162   27.0034 C   0  0  0  0  0  0  0  0  0  0  0  0
   14.0494  -19.5893   27.5222 C   0  0  0  0  0  0  0  0  0  0  0  0
   15.3266  -19.5491   26.9302 C   0  0  0  0  0  0  0  0  0  0  0  0
   15.6030  -20.3407   25.8258 C   0  0  0  0  0  0  0  0  0  0  0  0
   14.6137  -21.1706   25.3065 C   0  0  0  0  0  0  0  0  0  0  0  0
   13.3464  -21.2077   25.8938 C   0  0  0  0  0  0  0  0  0  0  0  0
   17.7460  -21.5941   28.3381 C   0  0  0  0  0  0  0  0  0  0  0  0
  1  3  1  0  0  0  0
  2  3  2  0  0  0  0
  2 12  1  0  0  0  0
  3  4  1  0  0  0  0
  4  6  1  0  0  0  0
  5 22  1  0  0  0  0
  6  7  1  0  0  0  0
  6  8  2  0  0  0  0
  7 12  2  0  0  0  0
  7  9  1  0  0  0  0
  9 10  1  0  0  0  0
  9 22  1  0  0  0  0
 10 11  1  0  0  0  0
 10 14  1  6  0  0  0
 11 13  1  0  0  0  0
 12 13  1  0  0  0  0
 14 15  1  0  0  0  0
 15 19  1  0  0  0  0
 16 17  2  0  0  0  0
 16 21  1  0  0  0  0
 17 18  1  0  0  0  0
 18 19  2  0  0  0  0
 19 20  1  0  0  0  0
 20 21  2  0  0  0  0
M  END
>  <CHROM.1>
-29.63925126,-3.56612332,-89.04653971,134.80557349,17.92609280,-20.07593555
26.69812265,0.28373594,0.10307763,0.40384377

>  <Name>
ligand

>  <RI>
0

>  <Rbt.Current_Directory>
/home/itssahil/PROJECTS/Mol_Feturizer/Test_systems_manuscript/rnas/3sd3

>  <Rbt.Executable>
rbdock ($Id: //depot/dev/client3/rdock/2013.1/src/exe/rbdock.cxx#4 $)

>  <Rbt.Library>
libRbt.so (2013.1, Build901 2013/11/27)

>  <Rbt.Parameter_File>
/export/apps/rDock/src/rDock_2013.1_src/data/scripts/dock_solv.prm

>  <Rbt.Receptor>
prm/pocket_docking_5.prm

>  <SCORE>
-14.6242

>  <SCORE.INTER>
-16.1676

>  <SCORE.INTER.CONST>
1

>  <SCORE.INTER.POLAR>
0

>  <SCORE.INTER.ROT>
4

>  <SCORE.INTER.SOLV>
6.21266

>  <SCORE.INTER.VDW>
-19.116

>  <SCORE.INTER.norm>
-0.734891

>  <SCORE.INTRA>
1.5434

>  <SCORE.INTRA.DIHEDRAL>
4.79873

>  <SCORE.INTRA.DIHEDRAL.0>
2.54655

>  <SCORE.INTRA.POLAR>
0

>  <SCORE.INTRA.POLAR.0>
0

>  <SCORE.INTRA.REPUL>
0

>  <SCORE.INTRA.REPUL.0>
0

>  <SCORE.INTRA.SOLV>
1.95393

>  <SCORE.INTRA.SOLV.lig_0>
-56.4922

>  <SCORE.INTRA.VDW>
-1.83294

>  <SCORE.INTRA.VDW.0>
-0.696801

>  <SCORE.INTRA.norm>
0.0701544

>  <SCORE.RESTR>
0

>  <SCORE.RESTR.CAVITY>
0

>  <SCORE.RESTR.norm>
0

>  <SCORE.SYSTEM>
0

>  <SCORE.SYSTEM.CONST>
0

>  <SCORE.SYSTEM.DIHEDRAL>
0

>  <SCORE.SYSTEM.SOLV>
0

>  <SCORE.SYSTEM.norm>
0

>  <SCORE.heavy>
22

>  <SCORE.norm>
-0.664736

>  <RMSD>
6.150

$$$$
ligand
 OpenBabel02271912143D
libRbt.so/2013.1/901 2013/11/27
 22 24  0  0  0  0  0  0  0  0999 V2000
   19.9153  -22.1598   22.5047 N   0  0  0  0  0  0  0  0  0  0  0  0
   19.1592  -22.6088   24.7317 N   0  0  0  0  0  0  0  0  0  0  0  0
   20.0377  -21.9878   23.9274 C   0  0  0  0  0  0  0  0  0  0  0  0
   21.0123  -21.2229   24.4037 N   0  0  0  0  0  0  0  0  0  0  0  0
   21.8221  -20.4967   29.3362 O   0  0  0  0  0  0  0  0  0  0  0  0
   21.1446  -21.0501   25.7318 C   0  0  0  0  0  0  0  0  0  0  0  0
   20.2395  -21.7029   26.6145 C   0  0  0  0  0  0  0  0  0  0  0  0
   22.1635  -20.2510   26.1996 O   0  0  0  0  0  0  0  0  0  0  0  0
   20.2471  -21.5922   28.0597 N   0  0  0  0  0  0  0  0  0  0  0  0
   18.9371  -21.5058   28.7182 C   0  0  2  0  0  0  0  0  0  0  0  0
   18.0462  -22.6212   28.2681 C   0  0  0  0  0  0  0  0  0  0  0  0
   19.2431  -22.4735   26.0695 C   0  0  0  0  0  0  0  0  0  0  0  0
   18.3251  -23.1250   26.9248 N   0  0  0  0  0  0  0  0  0  0  0  0
   18.2103  -20.1690   28.4851 C   0  0  0  0  0  0  0  0  0  0  0  0
   17.7762  -20.0600   27.0977 N   0  0  0  0  0  0  0  0  0  0  0  0
   13.7792  -20.9646   25.9545 C   0  0  0  0  0  0  0  0  0  0  0  0
   14.0235  -20.3040   27.1467 C   0  0  0  0  0  0  0  0  0  0  0  0
   15.3441  -20.0007   27.5306 C   0  0  0  0  0  0  0  0  0  0  0  0
   16.4036  -20.3659   26.7139 C   0  0  0  0  0  0  0  0  0  0  0  0
   16.1549  -21.0296   25.5161 C   0  0  0  0  0  0  0  0  0  0  0  0
   14.8439  -21.3277   25.1358 C   0  0  0  0  0  0  0  0  0  0  0  0
   21.4253  -21.5453   28.8562 C   0  0  0  0  0  0  0  0  0  0  0  0
  1  3  1  0  0  0  0
  2  3  2  0  0  0  0
  2 12  1  0  0  0  0
  3  4  1  0  0  0  0
  4  6  1  0  0  0  0
  5 22  1  0  0  0  0
  6  7  1  0  0  0  0
  6  8  2  0  0  0  0
  7 12  2  0  0  0  0
  7  9  1  0  0  0  0
  9 10  1  0  0  0  0
  9 22  1  0  0  0  0
 10 11  1  0  0  0  0
 10 14  1  6  0  0  0
 11 13  1  0  0  0  0
 12 13  1  0  0  0  0
 14 15  1  0  0  0  0
 15 19  1  0  0  0  0
 16 17  2  0  0  0  0
 16 21  1  0  0  0  0
 17 18  1  0  0  0  0
 18 19  2  0  0  0  0
 19 20  1  0  0  0  0
 20 21  2  0  0  0  0
M  END
>  <CHROM.1>
103.70055155,69.65011234,98.74444195,38.69869356,18.70124707,-21.29724041
26.58672926,-0.02494751,0.08271837,-1.77075408

>  <Name>
ligand

>  <RI>
0

>  <Rbt.Current_Directory>
/home/itssahil/PROJECTS/Mol_Feturizer/Test_systems_manuscript/rnas/3sd3

>  <Rbt.Executable>
rbdock ($Id: //depot/dev/client3/rdock/2013.1/src/exe/rbdock.cxx#4 $)

>  <Rbt.Library>
libRbt.so (2013.1, Build901 2013/11/27)

>  <Rbt.Parameter_File>
/export/apps/rDock/src/rDock_2013.1_src/data/scripts/dock_solv.prm

>  <Rbt.Receptor>
prm/pocket_docking_5.prm

>  <SCORE>
-14.7667

>  <SCORE.INTER>
-14.6683

>  <SCORE.INTER.CONST>
1

>  <SCORE.INTER.POLAR>
0

>  <SCORE.INTER.ROT>
4

>  <SCORE.INTER.SOLV>
9.75268

>  <SCORE.INTER.VDW>
-19.2964

>  <SCORE.INTER.norm>
-0.666741

>  <SCORE.INTRA>
-0.0983728

>  <SCORE.INTRA.DIHEDRAL>
0.269805

>  <SCORE.INTRA.DIHEDRAL.0>
2.54655

>  <SCORE.INTRA.POLAR>
0

>  <SCORE.INTRA.POLAR.0>
0

>  <SCORE.INTRA.REPUL>
0

>  <SCORE.INTRA.REPUL.0>
0

>  <SCORE.INTRA.SOLV>
2.33513

>  <SCORE.INTRA.SOLV.lig_0>
-56.4922

>  <SCORE.INTRA.VDW>
-1.40084

>  <SCORE.INTRA.VDW.0>
-0.696801

>  <SCORE.INTRA.norm>
-0.00447149

>  <SCORE.RESTR>
0

>  <SCORE.RESTR.CAVITY>
0

>  <SCORE.RESTR.norm>
0

>  <SCORE.SYSTEM>
0

>  <SCORE.SYSTEM.CONST>
0

>  <SCORE.SYSTEM.DIHEDRAL>
0

>  <SCORE.SYSTEM.SOLV>
0

>  <SCORE.SYSTEM.norm>
0

>  <SCORE.heavy>
22

>  <SCORE.norm>
-0.671213

>  <RMSD>
6.151

$$$$
ligand
 OpenBabel02271912143D
libRbt.so/2013.1/901 2013/11/27
 22 24  0  0  0  0  0  0  0  0999 V2000
   18.0870  -22.4395   31.4868 N   0  0  0  0  0  0  0  0  0  0  0  0
   18.9206  -20.6767   30.0973 N   0  0  0  0  0  0  0  0  0  0  0  0
   18.4291  -21.9234   30.1886 C   0  0  0  0  0  0  0  0  0  0  0  0
   18.2501  -22.6915   29.1210 N   0  0  0  0  0  0  0  0  0  0  0  0
   19.4343  -21.3975   24.4994 O   0  0  0  0  0  0  0  0  0  0  0  0
   18.5649  -22.2278   27.8974 C   0  0  0  0  0  0  0  0  0  0  0  0
   19.0999  -20.9161   27.7642 C   0  0  0  0  0  0  0  0  0  0  0  0
   18.3688  -23.0445   26.8066 O   0  0  0  0  0  0  0  0  0  0  0  0
   19.4625  -20.2787   26.5138 N   0  0  0  0  0  0  0  0  0  0  0  0
   19.1327  -18.8534   26.3839 C   0  0  2  0  0  0  0  0  0  0  0  0
   19.6583  -18.0819   27.5540 C   0  0  0  0  0  0  0  0  0  0  0  0
   19.2545  -20.1596   28.8988 C   0  0  0  0  0  0  0  0  0  0  0  0
   19.7750  -18.8495   28.7923 N   0  0  0  0  0  0  0  0  0  0  0  0
   17.6254  -18.5735   26.2450 C   0  0  0  0  0  0  0  0  0  0  0  0
   16.8681  -19.3756   27.1979 N   0  0  0  0  0  0  0  0  0  0  0  0
   13.0445  -20.9531   26.2013 C   0  0  0  0  0  0  0  0  0  0  0  0
   14.1651  -21.3636   25.4989 C   0  0  0  0  0  0  0  0  0  0  0  0
   15.4338  -20.8461   25.8245 C   0  0  0  0  0  0  0  0  0  0  0  0
   15.5620  -19.9213   26.8497 C   0  0  0  0  0  0  0  0  0  0  0  0
   14.4340  -19.5107   27.5539 C   0  0  0  0  0  0  0  0  0  0  0  0
   13.1763  -20.0268   27.2311 C   0  0  0  0  0  0  0  0  0  0  0  0
   20.0889  -20.9452   25.4238 C   0  0  0  0  0  0  0  0  0  0  0  0
  1  3  1  0  0  0  0
  2  3  2  0  0  0  0
  2 12  1  0  0  0  0
  3  4  1  0  0  0  0
  4  6  1  0  0  0  0
  5 22  1  0  0  0  0
  6  7  1  0  0  0  0
  6  8  2  0  0  0  0
  7 12  2  0  0  0  0
  7  9  1  0  0  0  0
  9 10  1  0  0  0  0
  9 22  1  0  0  0  0
 10 11  1  0  0  0  0
 10 14  1  1  0  0  0
 11 13  1  0  0  0  0
 12 13  1  0  0  0  0
 14 15  1  0  0  0  0
 15 19  1  0  0  0  0
 16 17  2  0  0  0  0
 16 21  1  0  0  0  0
 17 18  1  0  0  0  0
 18 19  2  0  0  0  0
 19 20  1  0  0  0  0
 20 21  2  0  0  0  0
M  END
>  <CHROM.1>
95.18698283,43.98906290,-144.12884892,63.35882570,17.69708138,-20.60822549
27.43912691,0.37015222,0.09853286,1.98139578

>  <Name>
ligand

>  <RI>
0

>  <Rbt.Current_Directory>
/home/itssahil/PROJECTS/Mol_Feturizer/Test_systems_manuscript/rnas/3sd3

>  <Rbt.Executable>
rbdock ($Id: //depot/dev/client3/rdock/2013.1/src/exe/rbdock.cxx#4 $)

>  <Rbt.Library>
libRbt.so (2013.1, Build901 2013/11/27)

>  <Rbt.Parameter_File>
/export/apps/rDock/src/rDock_2013.1_src/data/scripts/dock_solv.prm

>  <Rbt.Receptor>
prm/pocket_docking_6.prm

>  <SCORE>
-15.9813

>  <SCORE.INTER>
-15.832

>  <SCORE.INTER.CONST>
1

>  <SCORE.INTER.POLAR>
0

>  <SCORE.INTER.ROT>
4

>  <SCORE.INTER.SOLV>
14.2008

>  <SCORE.INTER.VDW>
-21.5549

>  <SCORE.INTER.norm>
-0.719635

>  <SCORE.INTRA>
-0.149288

>  <SCORE.INTRA.DIHEDRAL>
0.688852

>  <SCORE.INTRA.DIHEDRAL.0>
2.54655

>  <SCORE.INTRA.POLAR>
0

>  <SCORE.INTRA.POLAR.0>
0

>  <SCORE.INTRA.REPUL>
0

>  <SCORE.INTRA.REPUL.0>
0

>  <SCORE.INTRA.SOLV>
2.22669

>  <SCORE.INTRA.SOLV.lig_0>
-56.4922

>  <SCORE.INTRA.VDW>
-1.60706

>  <SCORE.INTRA.VDW.0>
-0.696801

>  <SCORE.INTRA.norm>
-0.00678582

>  <SCORE.RESTR>
0

>  <SCORE.RESTR.CAVITY>
0

>  <SCORE.RESTR.norm>
0

>  <SCORE.SYSTEM>
0

>  <SCORE.SYSTEM.CONST>
0

>  <SCORE.SYSTEM.DIHEDRAL>
0

>  <SCORE.SYSTEM.SOLV>
0

>  <SCORE.SYSTEM.norm>
0

>  <SCORE.heavy>
22

>  <SCORE.norm>
-0.726421

>  <RMSD>
6.164

$$$$
ligand
 OpenBabel02271912143D
libRbt.so/2013.1/901 2013/11/27
 22 24  0  0  0  0  0  0  0  0999 V2000
   19.8950  -22.1670   22.5091 N   0  0  0  0  0  0  0  0  0  0  0  0
   19.1504  -22.6191   24.7393 N   0  0  0  0  0  0  0  0  0  0  0  0
   20.0267  -21.9996   23.9316 C   0  0  0  0  0  0  0  0  0  0  0  0
   21.0074  -21.2403   24.4041 N   0  0  0  0  0  0  0  0  0  0  0  0
   22.4525  -22.1761   28.5134 O   0  0  0  0  0  0  0  0  0  0  0  0
   21.1485  -21.0718   25.7318 C   0  0  0  0  0  0  0  0  0  0  0  0
   20.2460  -21.7232   26.6181 C   0  0  0  0  0  0  0  0  0  0  0  0
   22.1736  -20.2784   26.1957 O   0  0  0  0  0  0  0  0  0  0  0  0
   20.2627  -21.6166   28.0637 N   0  0  0  0  0  0  0  0  0  0  0  0
   18.9572  -21.5265   28.7302 C   0  0  2  0  0  0  0  0  0  0  0  0
   18.0588  -22.6369   28.2825 C   0  0  0  0  0  0  0  0  0  0  0  0
   19.2430  -22.4880   26.0771 C   0  0  0  0  0  0  0  0  0  0  0  0
   18.3274  -23.1380   26.9360 N   0  0  0  0  0  0  0  0  0  0  0  0
   18.2347  -20.1860   28.5053 C   0  0  0  0  0  0  0  0  0  0  0  0
   17.8496  -20.0429   27.1066 N   0  0  0  0  0  0  0  0  0  0  0  0
   13.9104  -20.9700   25.7933 C   0  0  0  0  0  0  0  0  0  0  0  0
   14.0977  -20.2658   26.9709 C   0  0  0  0  0  0  0  0  0  0  0  0
   15.3990  -19.9549   27.4107 C   0  0  0  0  0  0  0  0  0  0  0  0
   16.4964  -20.3562   26.6642 C   0  0  0  0  0  0  0  0  0  0  0  0
   16.3051  -21.0636   25.4810 C   0  0  0  0  0  0  0  0  0  0  0  0
   15.0133  -21.3694   25.0450 C   0  0  0  0  0  0  0  0  0  0  0  0
   21.4459  -21.5770   28.8531 C   0  0  0  0  0  0  0  0  0  0  0  0
  1  3  1  0  0  0  0
  2  3  2  0  0  0  0
  2 12  1  0  0  0  0
  3  4  1  0  0  0  0
  4  6  1  0  0  0  0
  5 22  1  0  0  0  0
  6  7  1  0  0  0  0
  6  8  2  0  0  0  0
  7 12  2  0  0  0  0
  7  9  1  0  0  0  0
  9 10  1  0  0  0  0
  9 22  1  0  0  0  0
 10 11  1  0  0  0  0
 10 14  1  6  0  0  0
 11 13  1  0  0  0  0
 12 13  1  0  0  0  0
 14 15  1  0  0  0  0
 15 19  1  0  0  0  0
 16 17  2  0  0  0  0
 16 21  1  0  0  0  0
 17 18  1  0  0  0  0
 18 19  2  0  0  0  0
 19 20  1  0  0  0  0
 20 21  2  0  0  0  0
M  END
>  <CHROM.1>
-32.23397315,66.91561406,98.06785287,42.77332109,18.77056648,-21.39999184
26.51968387,-0.03220104,0.13982243,-1.68764556

>  <Name>
ligand

>  <RI>
0

>  <Rbt.Current_Directory>
/home/itssahil/PROJECTS/Mol_Feturizer/Test_systems_manuscript/rnas/3sd3

>  <Rbt.Executable>
rbdock ($Id: //depot/dev/client3/rdock/2013.1/src/exe/rbdock.cxx#4 $)

>  <Rbt.Library>
libRbt.so (2013.1, Build901 2013/11/27)

>  <Rbt.Parameter_File>
/export/apps/rDock/src/rDock_2013.1_src/data/scripts/dock_solv.prm

>  <Rbt.Receptor>
prm/pocket_docking_7.prm

>  <SCORE>
-15.1814

>  <SCORE.INTER>
-14.753

>  <SCORE.INTER.CONST>
1

>  <SCORE.INTER.POLAR>
0

>  <SCORE.INTER.ROT>
4

>  <SCORE.INTER.SOLV>
10.2884

>  <SCORE.INTER.VDW>
-19.5315

>  <SCORE.INTER.norm>
-0.670591

>  <SCORE.INTRA>
-0.428376

>  <SCORE.INTRA.DIHEDRAL>
0.0837287

>  <SCORE.INTRA.DIHEDRAL.0>
2.54655

>  <SCORE.INTRA.POLAR>
0

>  <SCORE.INTRA.POLAR.0>
0

>  <SCORE.INTRA.REPUL>
0

>  <SCORE.INTRA.REPUL.0>
0

>  <SCORE.INTRA.SOLV>
2.35344

>  <SCORE.INTRA.SOLV.lig_0>
-56.4922

>  <SCORE.INTRA.VDW>
-1.64696

>  <SCORE.INTRA.VDW.0>
-0.696801

>  <SCORE.INTRA.norm>
-0.0194716

>  <SCORE.RESTR>
0

>  <SCORE.RESTR.CAVITY>
0

>  <SCORE.RESTR.norm>
0

>  <SCORE.SYSTEM>
0

>  <SCORE.SYSTEM.CONST>
0

>  <SCORE.SYSTEM.DIHEDRAL>
0

>  <SCORE.SYSTEM.SOLV>
0

>  <SCORE.SYSTEM.norm>
0

>  <SCORE.heavy>
22

>  <SCORE.norm>
-0.690062

>  <RMSD>
6.165

$$$$
ligand
 OpenBabel02271912143D
libRbt.so/2013.1/901 2013/11/27
 22 24  0  0  0  0  0  0  0  0999 V2000
   21.5030  -16.4761   26.6009 N   0  0  0  0  0  0  0  0  0  0  0  0
   21.1124  -18.8128   26.2546 N   0  0  0  0  0  0  0  0  0  0  0  0
   20.6916  -17.6502   26.7792 C   0  0  0  0  0  0  0  0  0  0  0  0
   19.5536  -17.5517   27.4554 N   0  0  0  0  0  0  0  0  0  0  0  0
   18.0866  -21.2249   29.4700 O   0  0  0  0  0  0  0  0  0  0  0  0
   18.7806  -18.6386   27.6343 C   0  0  0  0  0  0  0  0  0  0  0  0
   19.2012  -19.8898   27.1032 C   0  0  0  0  0  0  0  0  0  0  0  0
   17.6047  -18.5090   28.3387 O   0  0  0  0  0  0  0  0  0  0  0  0
   18.4644  -21.1345   27.1986 N   0  0  0  0  0  0  0  0  0  0  0  0
   18.4707  -21.9938   26.0076 C   0  0  2  0  0  0  0  0  0  0  0  0
   19.8714  -22.2319   25.5366 C   0  0  0  0  0  0  0  0  0  0  0  0
   20.3806  -19.9344   26.4028 C   0  0  0  0  0  0  0  0  0  0  0  0
   20.8160  -21.1635   25.8567 N   0  0  0  0  0  0  0  0  0  0  0  0
   17.6434  -21.4378   24.8346 C   0  0  0  0  0  0  0  0  0  0  0  0
   16.9464  -20.2213   25.2339 N   0  0  0  0  0  0  0  0  0  0  0  0
   13.0734  -20.4071   26.9852 C   0  0  0  0  0  0  0  0  0  0  0  0
   14.0504  -19.6070   27.5535 C   0  0  0  0  0  0  0  0  0  0  0  0
   15.3341  -19.5403   26.9782 C   0  0  0  0  0  0  0  0  0  0  0  0
   15.6222  -20.2789   25.8405 C   0  0  0  0  0  0  0  0  0  0  0  0
   14.6382  -21.0820   25.2715 C   0  0  0  0  0  0  0  0  0  0  0  0
   13.3644  -21.1454   25.8423 C   0  0  0  0  0  0  0  0  0  0  0  0
   17.7373  -21.5521   28.3483 C   0  0  0  0  0  0  0  0  0  0  0  0
  1  3  1  0  0  0  0
  2  3  2  0  0  0  0
  2 12  1  0  0  0  0
  3  4  1  0  0  0  0
  4  6  1  0  0  0  0
  5 22  1  0  0  0  0
  6  7  1  0  0  0  0
  6  8  2  0  0  0  0
  7 12  2  0  0  0  0
  7  9  1  0  0  0  0
  9 10  1  0  0  0  0
  9 22  1  0  0  0  0
 10 11  1  0  0  0  0
 10 14  1  6  0  0  0
 11 13  1  0  0  0  0
 12 13  1  0  0  0  0
 14 15  1  0  0  0  0
 15 19  1  0  0  0  0
 16 17  2  0  0  0  0
 16 21  1  0  0  0  0
 17 18  1  0  0  0  0
 18 19  2  0  0  0  0
 19 20  1  0  0  0  0
 20 21  2  0  0  0  0
M  END
>  <CHROM.1>
-30.51100061,-4.85305676,-88.33334633,133.33336839,17.95139413,-20.02752051
26.74269339,0.28924054,0.09573009,0.43482069

>  <Name>
ligand

>  <RI>
0

>  <Rbt.Current_Directory>
/home/itssahil/PROJECTS/Mol_Feturizer/Test_systems_manuscript/rnas/3sd3

>  <Rbt.Executable>
rbdock ($Id: //depot/dev/client3/rdock/2013.1/src/exe/rbdock.cxx#4 $)

>  <Rbt.Library>
libRbt.so (2013.1, Build901 2013/11/27)

>  <Rbt.Parameter_File>
/export/apps/rDock/src/rDock_2013.1_src/data/scripts/dock_solv.prm

>  <Rbt.Receptor>
prm/pocket_docking_8.prm

>  <SCORE>
-14.547

>  <SCORE.INTER>
-15.9935

>  <SCORE.INTER.CONST>
1

>  <SCORE.INTER.POLAR>
0

>  <SCORE.INTER.ROT>
4

>  <SCORE.INTER.SOLV>
6.10118

>  <SCORE.INTER.VDW>
-18.9627

>  <SCORE.INTER.norm>
-0.726975

>  <SCORE.INTRA>
1.44646

>  <SCORE.INTRA.DIHEDRAL>
4.73958

>  <SCORE.INTRA.DIHEDRAL.0>
2.54655

>  <SCORE.INTRA.POLAR>
0

>  <SCORE.INTRA.POLAR.0>
0

>  <SCORE.INTRA.REPUL>
0

>  <SCORE.INTRA.REPUL.0>
0

>  <SCORE.INTRA.SOLV>
1.90904

>  <SCORE.INTRA.SOLV.lig_0>
-56.4922

>  <SCORE.INTRA.VDW>
-1.87785

>  <SCORE.INTRA.VDW.0>
-0.696801

>  <SCORE.INTRA.norm>
0.065748

>  <SCORE.RESTR>
0

>  <SCORE.RESTR.CAVITY>
0

>  <SCORE.RESTR.norm>
0

>  <SCORE.SYSTEM>
0

>  <SCORE.SYSTEM.CONST>
0

>  <SCORE.SYSTEM.DIHEDRAL>
0

>  <SCORE.SYSTEM.SOLV>
0

>  <SCORE.SYSTEM.norm>
0

>  <SCORE.heavy>
22

>  <SCORE.norm>
-0.661227

>  <RMSD>
6.169

$$$$
ligand
 OpenBabel02271912143D
libRbt.so/2013.1/901 2013/11/27
 22 24  0  0  0  0  0  0  0  0999 V2000
   19.9037  -22.0535   22.5374 N   0  0  0  0  0  0  0  0  0  0  0  0
   19.1489  -22.5391   24.7572 N   0  0  0  0  0  0  0  0  0  0  0  0
   20.0099  -21.8833   23.9616 C   0  0  0  0  0  0  0  0  0  0  0  0
   20.9529  -21.0857   24.4478 N   0  0  0  0  0  0  0  0  0  0  0  0
   21.7605  -20.3369   29.3022 O   0  0  0  0  0  0  0  0  0  0  0  0
   21.0697  -20.9139   25.7775 C   0  0  0  0  0  0  0  0  0  0  0  0
   20.1828  -21.6028   26.6512 C   0  0  0  0  0  0  0  0  0  0  0  0
   22.0558  -20.0806   26.2557 O   0  0  0  0  0  0  0  0  0  0  0  0
   20.1764  -21.4980   28.0969 N   0  0  0  0  0  0  0  0  0  0  0  0
   18.8597  -21.4619   28.7465 C   0  0  2  0  0  0  0  0  0  0  0  0
   18.0129  -22.6069   28.2857 C   0  0  0  0  0  0  0  0  0  0  0  0
   19.2187  -22.4065   26.0962 C   0  0  0  0  0  0  0  0  0  0  0  0
   18.3190  -23.0944   26.9423 N   0  0  0  0  0  0  0  0  0  0  0  0
   18.0867  -20.1512   28.5136 C   0  0  0  0  0  0  0  0  0  0  0  0
   17.6486  -20.0574   27.1264 N   0  0  0  0  0  0  0  0  0  0  0  0
   13.6318  -20.9126   26.0150 C   0  0  0  0  0  0  0  0  0  0  0  0
   13.8893  -20.1659   27.1524 C   0  0  0  0  0  0  0  0  0  0  0  0
   15.2165  -19.8785   27.5253 C   0  0  0  0  0  0  0  0  0  0  0  0
   16.2693  -20.3456   26.7531 C   0  0  0  0  0  0  0  0  0  0  0  0
   16.0073  -21.0957   25.6104 C   0  0  0  0  0  0  0  0  0  0  0  0
   14.6898  -21.3781   25.2406 C   0  0  0  0  0  0  0  0  0  0  0  0
   21.3467  -21.4120   28.9018 C   0  0  0  0  0  0  0  0  0  0  0  0
  1  3  1  0  0  0  0
  2  3  2  0  0  0  0
  2 12  1  0  0  0  0
  3  4  1  0  0  0  0
  4  6  1  0  0  0  0
  5 22  1  0  0  0  0
  6  7  1  0  0  0  0
  6  8  2  0  0  0  0
  7 12  2  0  0  0  0
  7  9  1  0  0  0  0
  9 10  1  0  0  0  0
  9 22  1  0  0  0  0
 10 11  1  0  0  0  0
 10 14  1  6  0  0  0
 11 13  1  0  0  0  0
 12 13  1  0  0  0  0
 14 15  1  0  0  0  0
 15 19  1  0  0  0  0
 16 17  2  0  0  0  0
 16 21  1  0  0  0  0
 17 18  1  0  0  0  0
 18 19  2  0  0  0  0
 19 20  1  0  0  0  0
 20 21  2  0  0  0  0
M  END
>  <CHROM.1>
97.89671427,70.13245268,101.88971913,42.64748626,18.62097469,-21.22224934
26.62080736,-0.01565614,0.06938733,-1.77552183

>  <Name>
ligand

>  <RI>
0

>  <Rbt.Current_Directory>
/home/itssahil/PROJECTS/Mol_Feturizer/Test_systems_manuscript/rnas/3sd3

>  <Rbt.Executable>
rbdock ($Id: //depot/dev/client3/rdock/2013.1/src/exe/rbdock.cxx#4 $)

>  <Rbt.Library>
libRbt.so (2013.1, Build901 2013/11/27)

>  <Rbt.Parameter_File>
/export/apps/rDock/src/rDock_2013.1_src/data/scripts/dock_solv.prm

>  <Rbt.Receptor>
prm/pocket_docking_5.prm

>  <SCORE>
-14.822

>  <SCORE.INTER>
-14.7625

>  <SCORE.INTER.CONST>
1

>  <SCORE.INTER.POLAR>
0

>  <SCORE.INTER.ROT>
4

>  <SCORE.INTER.SOLV>
9.2916

>  <SCORE.INTER.VDW>
-19.2056

>  <SCORE.INTER.norm>
-0.671024

>  <SCORE.INTRA>
-0.0594885

>  <SCORE.INTRA.DIHEDRAL>
0.382856

>  <SCORE.INTRA.DIHEDRAL.0>
2.54655

>  <SCORE.INTRA.POLAR>
0

>  <SCORE.INTRA.POLAR.0>
0

>  <SCORE.INTRA.REPUL>
0

>  <SCORE.INTRA.REPUL.0>
0

>  <SCORE.INTRA.SOLV>
2.32197

>  <SCORE.INTRA.SOLV.lig_0>
-56.4922

>  <SCORE.INTRA.VDW>
-1.4119

>  <SCORE.INTRA.VDW.0>
-0.696801

>  <SCORE.INTRA.norm>
-0.00270402

>  <SCORE.RESTR>
0

>  <SCORE.RESTR.CAVITY>
0

>  <SCORE.RESTR.norm>
0

>  <SCORE.SYSTEM>
0

>  <SCORE.SYSTEM.CONST>
0

>  <SCORE.SYSTEM.DIHEDRAL>
0

>  <SCORE.SYSTEM.SOLV>
0

>  <SCORE.SYSTEM.norm>
0

>  <SCORE.heavy>
22

>  <SCORE.norm>
-0.673728

>  <RMSD>
6.170

$$$$
ligand
 OpenBabel02271912143D
libRbt.so/2013.1/901 2013/11/27
 22 24  0  0  0  0  0  0  0  0999 V2000
   19.8545  -22.1562   22.5454 N   0  0  0  0  0  0  0  0  0  0  0  0
   19.1195  -22.5932   24.7819 N   0  0  0  0  0  0  0  0  0  0  0  0
   19.9811  -21.9647   23.9653 C   0  0  0  0  0  0  0  0  0  0  0  0
   20.9431  -21.1751   24.4268 N   0  0  0  0  0  0  0  0  0  0  0  0
   21.7275  -22.3574   29.6025 O   0  0  0  0  0  0  0  0  0  0  0  0
   21.0792  -20.9837   25.7520 C   0  0  0  0  0  0  0  0  0  0  0  0
   20.1920  -21.6435   26.6475 C   0  0  0  0  0  0  0  0  0  0  0  0
   22.0846  -20.1592   26.2044 O   0  0  0  0  0  0  0  0  0  0  0  0
   20.2052  -21.5153   28.0913 N   0  0  0  0  0  0  0  0  0  0  0  0
   18.8975  -21.4468   28.7561 C   0  0  2  0  0  0  0  0  0  0  0  0
   18.0263  -22.5849   28.3245 C   0  0  0  0  0  0  0  0  0  0  0  0
   19.2081  -22.4401   26.1175 C   0  0  0  0  0  0  0  0  0  0  0  0
   18.3078  -23.0992   26.9857 N   0  0  0  0  0  0  0  0  0  0  0  0
   18.1431  -20.1274   28.5112 C   0  0  0  0  0  0  0  0  0  0  0  0
   17.7616  -20.0112   27.1091 N   0  0  0  0  0  0  0  0  0  0  0  0
   13.8344  -20.9924   25.7993 C   0  0  0  0  0  0  0  0  0  0  0  0
   14.0112  -20.2445   26.9512 C   0  0  0  0  0  0  0  0  0  0  0  0
   15.3085  -19.9154   27.3897 C   0  0  0  0  0  0  0  0  0  0  0  0
   16.4125  -20.3427   26.6676 C   0  0  0  0  0  0  0  0  0  0  0  0
   16.2316  -21.0941   25.5102 C   0  0  0  0  0  0  0  0  0  0  0  0
   14.9439  -21.4179   25.0754 C   0  0  0  0  0  0  0  0  0  0  0  0
   21.3866  -21.4356   28.8805 C   0  0  0  0  0  0  0  0  0  0  0  0
  1  3  1  0  0  0  0
  2  3  2  0  0  0  0
  2 12  1  0  0  0  0
  3  4  1  0  0  0  0
  4  6  1  0  0  0  0
  5 22  1  0  0  0  0
  6  7  1  0  0  0  0
  6  8  2  0  0  0  0
  7 12  2  0  0  0  0
  7  9  1  0  0  0  0
  9 10  1  0  0  0  0
  9 22  1  0  0  0  0
 10 11  1  0  0  0  0
 10 14  1  6  0  0  0
 11 13  1  0  0  0  0
 12 13  1  0  0  0  0
 14 15  1  0  0  0  0
 15 19  1  0  0  0  0
 16 17  2  0  0  0  0
 16 21  1  0  0  0  0
 17 18  1  0  0  0  0
 18 19  2  0  0  0  0
 19 20  1  0  0  0  0
 20 21  2  0  0  0  0
M  END
>  <CHROM.1>
-109.25224463,66.62407846,99.07256987,44.03510182,18.67169776,-21.36530288
26.59976467,-0.08960417,0.13821207,-1.65599397

>  <Name>
ligand

>  <RI>
0

>  <Rbt.Current_Directory>
/home/itssahil/PROJECTS/Mol_Feturizer/Test_systems_manuscript/rnas/3sd3

>  <Rbt.Executable>
rbdock ($Id: //depot/dev/client3/rdock/2013.1/src/exe/rbdock.cxx#4 $)

>  <Rbt.Library>
libRbt.so (2013.1, Build901 2013/11/27)

>  <Rbt.Parameter_File>
/export/apps/rDock/src/rDock_2013.1_src/data/scripts/dock_solv.prm

>  <Rbt.Receptor>
prm/pocket_docking_8.prm

>  <SCORE>
-15.1747

>  <SCORE.INTER>
-14.7453

>  <SCORE.INTER.CONST>
1

>  <SCORE.INTER.POLAR>
0

>  <SCORE.INTER.ROT>
4

>  <SCORE.INTER.SOLV>
10.5245

>  <SCORE.INTER.VDW>
-19.6051

>  <SCORE.INTER.norm>
-0.670243

>  <SCORE.INTRA>
-0.429354

>  <SCORE.INTRA.DIHEDRAL>
0.141645

>  <SCORE.INTRA.DIHEDRAL.0>
2.54655

>  <SCORE.INTRA.POLAR>
0

>  <SCORE.INTRA.POLAR.0>
0

>  <SCORE.INTRA.REPUL>
0

>  <SCORE.INTRA.REPUL.0>
0

>  <SCORE.INTRA.SOLV>
2.13242

>  <SCORE.INTRA.SOLV.lig_0>
-56.4922

>  <SCORE.INTRA.VDW>
-1.56638

>  <SCORE.INTRA.VDW.0>
-0.696801

>  <SCORE.INTRA.norm>
-0.0195161

>  <SCORE.RESTR>
0

>  <SCORE.RESTR.CAVITY>
0

>  <SCORE.RESTR.norm>
0

>  <SCORE.SYSTEM>
0

>  <SCORE.SYSTEM.CONST>
0

>  <SCORE.SYSTEM.DIHEDRAL>
0

>  <SCORE.SYSTEM.SOLV>
0

>  <SCORE.SYSTEM.norm>
0

>  <SCORE.heavy>
22

>  <SCORE.norm>
-0.689759

>  <RMSD>
6.174

$$$$
ligand
 OpenBabel02271912143D
libRbt.so/2013.1/901 2013/11/27
 22 24  0  0  0  0  0  0  0  0999 V2000
   19.9470  -20.7594   29.8393 N   0  0  0  0  0  0  0  0  0  0  0  0
   19.9158  -19.9373   27.5907 N   0  0  0  0  0  0  0  0  0  0  0  0
   19.7914  -20.9812   28.4267 C   0  0  0  0  0  0  0  0  0  0  0  0
   19.5304  -22.2075   27.9908 N   0  0  0  0  0  0  0  0  0  0  0  0
   20.8023  -23.1908   23.8578 O   0  0  0  0  0  0  0  0  0  0  0  0
   19.3823  -22.4362   26.6729 C   0  0  0  0  0  0  0  0  0  0  0  0
   19.5198  -21.3562   25.7569 C   0  0  0  0  0  0  0  0  0  0  0  0
   19.1111  -23.7172   26.2472 O   0  0  0  0  0  0  0  0  0  0  0  0
   19.3661  -21.4486   24.3185 N   0  0  0  0  0  0  0  0  0  0  0  0
   18.6710  -20.3350   23.6599 C   0  0  2  0  0  0  0  0  0  0  0  0
   19.2813  -19.0260   24.0534 C   0  0  0  0  0  0  0  0  0  0  0  0
   19.7789  -20.1063   26.2610 C   0  0  0  0  0  0  0  0  0  0  0  0
   19.9106  -19.0146   25.3725 N   0  0  0  0  0  0  0  0  0  0  0  0
   17.1607  -20.2833   23.9532 C   0  0  0  0  0  0  0  0  0  0  0  0
   16.9218  -20.2419   25.3907 N   0  0  0  0  0  0  0  0  0  0  0  0
   12.9667  -20.4556   26.9441 C   0  0  0  0  0  0  0  0  0  0  0  0
   13.9024  -19.6332   27.5488 C   0  0  0  0  0  0  0  0  0  0  0  0
   15.2130  -19.5571   27.0390 C   0  0  0  0  0  0  0  0  0  0  0  0
   15.5690  -20.3089   25.9296 C   0  0  0  0  0  0  0  0  0  0  0  0
   14.6264  -21.1345   25.3239 C   0  0  0  0  0  0  0  0  0  0  0  0
   13.3260  -21.2072   25.8297 C   0  0  0  0  0  0  0  0  0  0  0  0
   19.8239  -22.5407   23.5296 C   0  0  0  0  0  0  0  0  0  0  0  0
  1  3  1  0  0  0  0
  2  3  2  0  0  0  0
  2 12  1  0  0  0  0
  3  4  1  0  0  0  0
  4  6  1  0  0  0  0
  5 22  1  0  0  0  0
  6  7  1  0  0  0  0
  6  8  2  0  0  0  0
  7 12  2  0  0  0  0
  7  9  1  0  0  0  0
  9 10  1  0  0  0  0
  9 22  1  0  0  0  0
 10 11  1  0  0  0  0
 10 14  1  1  0  0  0
 11 13  1  0  0  0  0
 12 13  1  0  0  0  0
 14 15  1  0  0  0  0
 15 19  1  0  0  0  0
 16 17  2  0  0  0  0
 16 21  1  0  0  0  0
 17 18  1  0  0  0  0
 18 19  2  0  0  0  0
 19 20  1  0  0  0  0
 20 21  2  0  0  0  0
M  END
>  <CHROM.1>
-30.06833110,55.57751033,-174.49781748,-142.35663538,18.06250963,-20.95310419
25.93292741,-0.13924273,-0.21166152,1.48209050

>  <Name>
ligand

>  <RI>
0

>  <Rbt.Current_Directory>
/home/itssahil/PROJECTS/Mol_Feturizer/Test_systems_manuscript/rnas/3sd3

>  <Rbt.Executable>
rbdock ($Id: //depot/dev/client3/rdock/2013.1/src/exe/rbdock.cxx#4 $)

>  <Rbt.Library>
libRbt.so (2013.1, Build901 2013/11/27)

>  <Rbt.Parameter_File>
/export/apps/rDock/src/rDock_2013.1_src/data/scripts/dock_solv.prm

>  <Rbt.Receptor>
prm/pocket_docking_4.prm

>  <SCORE>
-14.6948

>  <SCORE.INTER>
-14.449

>  <SCORE.INTER.CONST>
1

>  <SCORE.INTER.POLAR>
0

>  <SCORE.INTER.ROT>
4

>  <SCORE.INTER.SOLV>
8.71254

>  <SCORE.INTER.VDW>
-18.8035

>  <SCORE.INTER.norm>
-0.656772

>  <SCORE.INTRA>
-0.245815

>  <SCORE.INTRA.DIHEDRAL>
-0.850001

>  <SCORE.INTRA.DIHEDRAL.0>
2.54655

>  <SCORE.INTRA.POLAR>
0

>  <SCORE.INTRA.POLAR.0>
0

>  <SCORE.INTRA.REPUL>
0

>  <SCORE.INTRA.REPUL.0>
0

>  <SCORE.INTRA.SOLV>
1.98875

>  <SCORE.INTRA.SOLV.lig_0>
-56.4922

>  <SCORE.INTRA.VDW>
-0.815188

>  <SCORE.INTRA.VDW.0>
-0.696801

>  <SCORE.INTRA.norm>
-0.0111734

>  <SCORE.RESTR>
0

>  <SCORE.RESTR.CAVITY>
0

>  <SCORE.RESTR.norm>
0

>  <SCORE.SYSTEM>
0

>  <SCORE.SYSTEM.CONST>
0

>  <SCORE.SYSTEM.DIHEDRAL>
0

>  <SCORE.SYSTEM.SOLV>
0

>  <SCORE.SYSTEM.norm>
0

>  <SCORE.heavy>
22

>  <SCORE.norm>
-0.667945

>  <RMSD>
6.178

$$$$
ligand
 OpenBabel02271912143D
libRbt.so/2013.1/901 2013/11/27
 22 24  0  0  0  0  0  0  0  0999 V2000
   19.0982  -21.5056   31.5937 N   0  0  0  0  0  0  0  0  0  0  0  0
   19.7909  -20.3056   29.6410 N   0  0  0  0  0  0  0  0  0  0  0  0
   19.1725  -21.3776   30.1630 C   0  0  0  0  0  0  0  0  0  0  0  0
   18.6296  -22.3196   29.4017 N   0  0  0  0  0  0  0  0  0  0  0  0
   18.7847  -22.4436   24.5309 O   0  0  0  0  0  0  0  0  0  0  0  0
   18.6893  -22.2191   28.0610 C   0  0  0  0  0  0  0  0  0  0  0  0
   19.3478  -21.1032   27.4730 C   0  0  0  0  0  0  0  0  0  0  0  0
   18.1175  -23.2095   27.2943 O   0  0  0  0  0  0  0  0  0  0  0  0
   19.4702  -20.8526   26.0505 N   0  0  0  0  0  0  0  0  0  0  0  0
   19.3161  -19.4588   25.6141 C   0  0  2  0  0  0  0  0  0  0  0  0
   20.2172  -18.5577   26.3992 C   0  0  0  0  0  0  0  0  0  0  0  0
   19.8824  -20.1522   28.3055 C   0  0  0  0  0  0  0  0  0  0  0  0
   20.5336  -19.0289   27.7461 N   0  0  0  0  0  0  0  0  0  0  0  0
   17.8746  -18.9293   25.7199 C   0  0  0  0  0  0  0  0  0  0  0  0
   16.9375  -19.8820   25.1375 N   0  0  0  0  0  0  0  0  0  0  0  0
   13.1764  -20.6287   26.9808 C   0  0  0  0  0  0  0  0  0  0  0  0
   13.5414  -21.3342   25.8465 C   0  0  0  0  0  0  0  0  0  0  0  0
   14.7854  -21.0925   25.2321 C   0  0  0  0  0  0  0  0  0  0  0  0
   15.6470  -20.1444   25.7625 C   0  0  0  0  0  0  0  0  0  0  0  0
   15.2774  -19.4369   26.9027 C   0  0  0  0  0  0  0  0  0  0  0  0
   14.0438  -19.6795   27.5123 C   0  0  0  0  0  0  0  0  0  0  0  0
   19.7077  -21.8603   25.0743 C   0  0  0  0  0  0  0  0  0  0  0  0
  1  3  1  0  0  0  0
  2  3  2  0  0  0  0
  2 12  1  0  0  0  0
  3  4  1  0  0  0  0
  4  6  1  0  0  0  0
  5 22  1  0  0  0  0
  6  7  1  0  0  0  0
  6  8  2  0  0  0  0
  7 12  2  0  0  0  0
  7  9  1  0  0  0  0
  9 10  1  0  0  0  0
  9 22  1  0  0  0  0
 10 11  1  0  0  0  0
 10 14  1  1  0  0  0
 11 13  1  0  0  0  0
 12 13  1  0  0  0  0
 14 15  1  0  0  0  0
 15 19  1  0  0  0  0
 16 17  2  0  0  0  0
 16 21  1  0  0  0  0
 17 18  1  0  0  0  0
 18 19  2  0  0  0  0
 19 20  1  0  0  0  0
 20 21  2  0  0  0  0
M  END
>  <CHROM.1>
89.83279424,-47.81465151,140.15339483,-177.32260292,17.92423027,-20.73782637
27.09167833,0.48625884,0.05100676,1.79202922

>  <Name>
ligand

>  <RI>
0

>  <Rbt.Current_Directory>
/home/itssahil/PROJECTS/Mol_Feturizer/Test_systems_manuscript/rnas/3sd3

>  <Rbt.Executable>
rbdock ($Id: //depot/dev/client3/rdock/2013.1/src/exe/rbdock.cxx#4 $)

>  <Rbt.Library>
libRbt.so (2013.1, Build901 2013/11/27)

>  <Rbt.Parameter_File>
/export/apps/rDock/src/rDock_2013.1_src/data/scripts/dock_solv.prm

>  <Rbt.Receptor>
prm/pocket_docking_5.prm

>  <SCORE>
-14.1659

>  <SCORE.INTER>
-14.0168

>  <SCORE.INTER.CONST>
1

>  <SCORE.INTER.POLAR>
0

>  <SCORE.INTER.ROT>
4

>  <SCORE.INTER.SOLV>
8.44852

>  <SCORE.INTER.VDW>
-18.4274

>  <SCORE.INTER.norm>
-0.637128

>  <SCORE.INTRA>
-0.149131

>  <SCORE.INTRA.DIHEDRAL>
0.48311

>  <SCORE.INTRA.DIHEDRAL.0>
2.54655

>  <SCORE.INTRA.POLAR>
0

>  <SCORE.INTRA.POLAR.0>
0

>  <SCORE.INTRA.REPUL>
0

>  <SCORE.INTRA.REPUL.0>
0

>  <SCORE.INTRA.SOLV>
0.905758

>  <SCORE.INTRA.SOLV.lig_0>
-56.4922

>  <SCORE.INTRA.VDW>
-0.843565

>  <SCORE.INTRA.VDW.0>
-0.696801

>  <SCORE.INTRA.norm>
-0.00677866

>  <SCORE.RESTR>
0

>  <SCORE.RESTR.CAVITY>
0

>  <SCORE.RESTR.norm>
0

>  <SCORE.SYSTEM>
0

>  <SCORE.SYSTEM.CONST>
0

>  <SCORE.SYSTEM.DIHEDRAL>
0

>  <SCORE.SYSTEM.SOLV>
0

>  <SCORE.SYSTEM.norm>
0

>  <SCORE.heavy>
22

>  <SCORE.norm>
-0.643906

>  <RMSD>
6.186

$$$$
ligand
 OpenBabel02271912143D
libRbt.so/2013.1/901 2013/11/27
 22 24  0  0  0  0  0  0  0  0999 V2000
   20.5508  -24.4760   20.7402 N   0  0  0  0  0  0  0  0  0  0  0  0
   21.1785  -23.4095   22.7900 N   0  0  0  0  0  0  0  0  0  0  0  0
   20.3210  -23.4871   21.7590 C   0  0  0  0  0  0  0  0  0  0  0  0
   19.2715  -22.6816   21.6517 N   0  0  0  0  0  0  0  0  0  0  0  0
   19.7847  -18.6311   23.7560 O   0  0  0  0  0  0  0  0  0  0  0  0
   19.0395  -21.7489   22.5937 C   0  0  0  0  0  0  0  0  0  0  0  0
   19.9342  -21.6297   23.6936 C   0  0  0  0  0  0  0  0  0  0  0  0
   17.9434  -20.9267   22.4589 O   0  0  0  0  0  0  0  0  0  0  0  0
   19.7992  -20.6906   24.7895 N   0  0  0  0  0  0  0  0  0  0  0  0
   20.1312  -21.1931   26.1290 C   0  0  2  0  0  0  0  0  0  0  0  0
   21.4844  -21.8330   26.1316 C   0  0  0  0  0  0  0  0  0  0  0  0
   20.9975  -22.4946   23.7624 C   0  0  0  0  0  0  0  0  0  0  0  0
   21.8957  -22.4031   24.8502 N   0  0  0  0  0  0  0  0  0  0  0  0
   19.1086  -22.1990   26.6876 C   0  0  0  0  0  0  0  0  0  0  0  0
   17.9869  -21.4982   27.3006 N   0  0  0  0  0  0  0  0  0  0  0  0
   14.3692  -20.8142   25.1685 C   0  0  0  0  0  0  0  0  0  0  0  0
   15.4647  -21.3523   24.5145 C   0  0  0  0  0  0  0  0  0  0  0  0
   16.6649  -21.5821   25.2147 C   0  0  0  0  0  0  0  0  0  0  0  0
   16.7514  -21.2672   26.5623 C   0  0  0  0  0  0  0  0  0  0  0  0
   15.6486  -20.7266   27.2170 C   0  0  0  0  0  0  0  0  0  0  0  0
   14.4579  -20.5013   26.5213 C   0  0  0  0  0  0  0  0  0  0  0  0
   19.3560  -19.3461   24.6461 C   0  0  0  0  0  0  0  0  0  0  0  0
  1  3  1  0  0  0  0
  2  3  2  0  0  0  0
  2 12  1  0  0  0  0
  3  4  1  0  0  0  0
  4  6  1  0  0  0  0
  5 22  1  0  0  0  0
  6  7  1  0  0  0  0
  6  8  2  0  0  0  0
  7 12  2  0  0  0  0
  7  9  1  0  0  0  0
  9 10  1  0  0  0  0
  9 22  1  0  0  0  0
 10 11  1  0  0  0  0
 10 14  1  6  0  0  0
 11 13  1  0  0  0  0
 12 13  1  0  0  0  0
 14 15  1  0  0  0  0
 15 19  1  0  0  0  0
 16 17  2  0  0  0  0
 16 21  1  0  0  0  0
 17 18  1  0  0  0  0
 18 19  2  0  0  0  0
 19 20  1  0  0  0  0
 20 21  2  0  0  0  0
M  END
>  <CHROM.1>
-45.18904201,-83.54764533,96.83773183,-6.91217024,18.82471982,-21.56426001
24.45896959,0.69154956,0.13863006,-1.92179153

>  <Name>
ligand

>  <RI>
0

>  <Rbt.Current_Directory>
/home/itssahil/PROJECTS/Mol_Feturizer/Test_systems_manuscript/rnas/3sd3

>  <Rbt.Executable>
rbdock ($Id: //depot/dev/client3/rdock/2013.1/src/exe/rbdock.cxx#4 $)

>  <Rbt.Library>
libRbt.so (2013.1, Build901 2013/11/27)

>  <Rbt.Parameter_File>
/export/apps/rDock/src/rDock_2013.1_src/data/scripts/dock_solv.prm

>  <Rbt.Receptor>
prm/pocket_docking_7.prm

>  <SCORE>
-11.6403

>  <SCORE.INTER>
-10.9125

>  <SCORE.INTER.CONST>
1

>  <SCORE.INTER.POLAR>
0

>  <SCORE.INTER.ROT>
4

>  <SCORE.INTER.SOLV>
13.4111

>  <SCORE.INTER.VDW>
-18.012

>  <SCORE.INTER.norm>
-0.496024

>  <SCORE.INTRA>
-0.727812

>  <SCORE.INTRA.DIHEDRAL>
1.59806

>  <SCORE.INTRA.DIHEDRAL.0>
2.54655

>  <SCORE.INTRA.POLAR>
0

>  <SCORE.INTRA.POLAR.0>
0

>  <SCORE.INTRA.REPUL>
0

>  <SCORE.INTRA.REPUL.0>
0

>  <SCORE.INTRA.SOLV>
-0.0624554

>  <SCORE.INTRA.SOLV.lig_0>
-56.4922

>  <SCORE.INTRA.VDW>
-1.49561

>  <SCORE.INTRA.VDW.0>
-0.696801

>  <SCORE.INTRA.norm>
-0.0330824

>  <SCORE.RESTR>
0

>  <SCORE.RESTR.CAVITY>
0

>  <SCORE.RESTR.norm>
0

>  <SCORE.SYSTEM>
0

>  <SCORE.SYSTEM.CONST>
0

>  <SCORE.SYSTEM.DIHEDRAL>
0

>  <SCORE.SYSTEM.SOLV>
0

>  <SCORE.SYSTEM.norm>
0

>  <SCORE.heavy>
22

>  <SCORE.norm>
-0.529106

>  <RMSD>
6.196

$$$$
ligand
 OpenBabel02271912143D
libRbt.so/2013.1/901 2013/11/27
 22 24  0  0  0  0  0  0  0  0999 V2000
   20.4969  -20.4013   29.1266 N   0  0  0  0  0  0  0  0  0  0  0  0
   20.1000  -19.5377   26.9290 N   0  0  0  0  0  0  0  0  0  0  0  0
   20.1818  -20.6066   27.7383 C   0  0  0  0  0  0  0  0  0  0  0  0
   19.9818  -21.8426   27.2978 N   0  0  0  0  0  0  0  0  0  0  0  0
   19.0108  -22.4856   21.9415 O   0  0  0  0  0  0  0  0  0  0  0  0
   19.6871  -22.0561   26.0021 C   0  0  0  0  0  0  0  0  0  0  0  0
   19.6045  -20.9483   25.1130 C   0  0  0  0  0  0  0  0  0  0  0  0
   19.4834  -23.3477   25.5711 O   0  0  0  0  0  0  0  0  0  0  0  0
   19.2760  -21.0240   23.7033 N   0  0  0  0  0  0  0  0  0  0  0  0
   18.4015  -19.9687   23.1756 C   0  0  2  0  0  0  0  0  0  0  0  0
   18.9331  -18.6158   23.5328 C   0  0  0  0  0  0  0  0  0  0  0  0
   19.8092  -19.6904   25.6223 C   0  0  0  0  0  0  0  0  0  0  0  0
   19.7233  -18.5722   24.7616 N   0  0  0  0  0  0  0  0  0  0  0  0
   16.9434  -20.0692   23.6587 C   0  0  0  0  0  0  0  0  0  0  0  0
   16.8939  -20.1721   25.1120 N   0  0  0  0  0  0  0  0  0  0  0  0
   13.1687  -20.4434   27.1493 C   0  0  0  0  0  0  0  0  0  0  0  0
   14.1391  -19.5639   27.5992 C   0  0  0  0  0  0  0  0  0  0  0  0
   15.3739  -19.4685   26.9287 C   0  0  0  0  0  0  0  0  0  0  0  0
   15.6204  -20.2585   25.8161 C   0  0  0  0  0  0  0  0  0  0  0  0
   14.6431  -21.1414   25.3663 C   0  0  0  0  0  0  0  0  0  0  0  0
   13.4178  -21.2332   26.0313 C   0  0  0  0  0  0  0  0  0  0  0  0
   19.7278  -22.0496   22.8265 C   0  0  0  0  0  0  0  0  0  0  0  0
  1  3  1  0  0  0  0
  2  3  2  0  0  0  0
  2 12  1  0  0  0  0
  3  4  1  0  0  0  0
  4  6  1  0  0  0  0
  5 22  1  0  0  0  0
  6  7  1  0  0  0  0
  6  8  2  0  0  0  0
  7 12  2  0  0  0  0
  7  9  1  0  0  0  0
  9 10  1  0  0  0  0
  9 22  1  0  0  0  0
 10 11  1  0  0  0  0
 10 14  1  1  0  0  0
 11 13  1  0  0  0  0
 12 13  1  0  0  0  0
 14 15  1  0  0  0  0
 15 19  1  0  0  0  0
 16 17  2  0  0  0  0
 16 21  1  0  0  0  0
 17 18  1  0  0  0  0
 18 19  2  0  0  0  0
 19 20  1  0  0  0  0
 20 21  2  0  0  0  0
M  END
>  <CHROM.1>
143.18262081,51.78830308,179.03911084,-133.03579050,18.04770917,-20.65209392
25.42639212,-0.27401070,-0.09291676,1.42068192

>  <Name>
ligand

>  <RI>
0

>  <Rbt.Current_Directory>
/home/itssahil/PROJECTS/Mol_Feturizer/Test_systems_manuscript/rnas/3sd3

>  <Rbt.Executable>
rbdock ($Id: //depot/dev/client3/rdock/2013.1/src/exe/rbdock.cxx#4 $)

>  <Rbt.Library>
libRbt.so (2013.1, Build901 2013/11/27)

>  <Rbt.Parameter_File>
/export/apps/rDock/src/rDock_2013.1_src/data/scripts/dock_solv.prm

>  <Rbt.Receptor>
prm/pocket_docking_3.prm

>  <SCORE>
-13.0447

>  <SCORE.INTER>
-13.1858

>  <SCORE.INTER.CONST>
1

>  <SCORE.INTER.POLAR>
0

>  <SCORE.INTER.ROT>
4

>  <SCORE.INTER.SOLV>
7.17588

>  <SCORE.INTER.VDW>
-17.4492

>  <SCORE.INTER.norm>
-0.599355

>  <SCORE.INTRA>
0.00272421

>  <SCORE.INTRA.DIHEDRAL>
-0.656264

>  <SCORE.INTRA.DIHEDRAL.0>
2.54655

>  <SCORE.INTRA.POLAR>
0

>  <SCORE.INTRA.POLAR.0>
0

>  <SCORE.INTRA.REPUL>
0

>  <SCORE.INTRA.REPUL.0>
0

>  <SCORE.INTRA.SOLV>
1.97412

>  <SCORE.INTRA.SOLV.lig_0>
-56.4922

>  <SCORE.INTRA.VDW>
-0.656203

>  <SCORE.INTRA.VDW.0>
-0.696801

>  <SCORE.INTRA.norm>
0.000123828

>  <SCORE.RESTR>
0.138434

>  <SCORE.RESTR.CAVITY>
0.138434

>  <SCORE.RESTR.norm>
0.00629245

>  <SCORE.SYSTEM>
0

>  <SCORE.SYSTEM.CONST>
0

>  <SCORE.SYSTEM.DIHEDRAL>
0

>  <SCORE.SYSTEM.SOLV>
0

>  <SCORE.SYSTEM.norm>
0

>  <SCORE.heavy>
22

>  <SCORE.norm>
-0.592939

>  <RMSD>
6.197

$$$$
ligand
 OpenBabel02271912143D
libRbt.so/2013.1/901 2013/11/27
 22 24  0  0  0  0  0  0  0  0999 V2000
   19.6632  -21.6341   31.0606 N   0  0  0  0  0  0  0  0  0  0  0  0
   20.1926  -20.5398   28.9978 N   0  0  0  0  0  0  0  0  0  0  0  0
   19.5705  -21.5499   29.6277 C   0  0  0  0  0  0  0  0  0  0  0  0
   18.8753  -22.4701   28.9707 N   0  0  0  0  0  0  0  0  0  0  0  0
   20.2003  -23.1534   24.6665 O   0  0  0  0  0  0  0  0  0  0  0  0
   18.7774  -22.4099   27.6298 C   0  0  0  0  0  0  0  0  0  0  0  0
   19.4340  -21.3607   26.9281 C   0  0  0  0  0  0  0  0  0  0  0  0
   18.0496  -23.3764   26.9727 O   0  0  0  0  0  0  0  0  0  0  0  0
   19.3985  -21.1575   25.4933 N   0  0  0  0  0  0  0  0  0  0  0  0
   19.2881  -19.7683   25.0298 C   0  0  2  0  0  0  0  0  0  0  0  0
   20.3382  -18.9142   25.6688 C   0  0  0  0  0  0  0  0  0  0  0  0
   20.1304  -20.4289   27.6564 C   0  0  0  0  0  0  0  0  0  0  0  0
   20.7838  -19.3711   26.9837 N   0  0  0  0  0  0  0  0  0  0  0  0
   17.9101  -19.1332   25.2893 C   0  0  0  0  0  0  0  0  0  0  0  0
   16.8465  -20.0181   24.8301 N   0  0  0  0  0  0  0  0  0  0  0  0
   13.2863  -20.4952   27.1101 C   0  0  0  0  0  0  0  0  0  0  0  0
   13.4600  -21.2183   25.9420 C   0  0  0  0  0  0  0  0  0  0  0  0
   14.6366  -21.0657   25.1832 C   0  0  0  0  0  0  0  0  0  0  0  0
   15.6236  -20.1879   25.6051 C   0  0  0  0  0  0  0  0  0  0  0  0
   15.4462  -19.4626   26.7796 C   0  0  0  0  0  0  0  0  0  0  0  0
   14.2792  -19.6168   27.5324 C   0  0  0  0  0  0  0  0  0  0  0  0
   19.4452  -22.2053   24.5317 C   0  0  0  0  0  0  0  0  0  0  0  0
  1  3  1  0  0  0  0
  2  3  2  0  0  0  0
  2 12  1  0  0  0  0
  3  4  1  0  0  0  0
  4  6  1  0  0  0  0
  5 22  1  0  0  0  0
  6  7  1  0  0  0  0
  6  8  2  0  0  0  0
  7 12  2  0  0  0  0
  7  9  1  0  0  0  0
  9 10  1  0  0  0  0
  9 22  1  0  0  0  0
 10 11  1  0  0  0  0
 10 14  1  1  0  0  0
 11 13  1  0  0  0  0
 12 13  1  0  0  0  0
 14 15  1  0  0  0  0
 15 19  1  0  0  0  0
 16 17  2  0  0  0  0
 16 21  1  0  0  0  0
 17 18  1  0  0  0  0
 18 19  2  0  0  0  0
 19 20  1  0  0  0  0
 20 21  2  0  0  0  0
M  END
>  <CHROM.1>
-41.79359461,-49.08007179,139.70461238,-177.82879908,18.09898596,-20.93166140
26.72517237,0.30694432,-0.10020607,1.76841970

>  <Name>
ligand

>  <RI>
0

>  <Rbt.Current_Directory>
/home/itssahil/PROJECTS/Mol_Feturizer/Test_systems_manuscript/rnas/3sd3

>  <Rbt.Executable>
rbdock ($Id: //depot/dev/client3/rdock/2013.1/src/exe/rbdock.cxx#4 $)

>  <Rbt.Library>
libRbt.so (2013.1, Build901 2013/11/27)

>  <Rbt.Parameter_File>
/export/apps/rDock/src/rDock_2013.1_src/data/scripts/dock_solv.prm

>  <Rbt.Receptor>
prm/pocket_docking_5.prm

>  <SCORE>
-14.4235

>  <SCORE.INTER>
-14.0502

>  <SCORE.INTER.CONST>
1

>  <SCORE.INTER.POLAR>
0

>  <SCORE.INTER.ROT>
4

>  <SCORE.INTER.SOLV>
8.82651

>  <SCORE.INTER.VDW>
-18.5756

>  <SCORE.INTER.norm>
-0.638644

>  <SCORE.INTRA>
-0.37335

>  <SCORE.INTRA.DIHEDRAL>
0.400689

>  <SCORE.INTRA.DIHEDRAL.0>
2.54655

>  <SCORE.INTRA.POLAR>
0

>  <SCORE.INTRA.POLAR.0>
0

>  <SCORE.INTRA.REPUL>
0

>  <SCORE.INTRA.REPUL.0>
0

>  <SCORE.INTRA.SOLV>
0.152918

>  <SCORE.INTRA.SOLV.lig_0>
-56.4922

>  <SCORE.INTRA.VDW>
-0.650153

>  <SCORE.INTRA.VDW.0>
-0.696801

>  <SCORE.INTRA.norm>
-0.0169704

>  <SCORE.RESTR>
0

>  <SCORE.RESTR.CAVITY>
0

>  <SCORE.RESTR.norm>
0

>  <SCORE.SYSTEM>
0

>  <SCORE.SYSTEM.CONST>
0

>  <SCORE.SYSTEM.DIHEDRAL>
0

>  <SCORE.SYSTEM.SOLV>
0

>  <SCORE.SYSTEM.norm>
0

>  <SCORE.heavy>
22

>  <SCORE.norm>
-0.655614

>  <RMSD>
6.199

$$$$
ligand
 OpenBabel02271912143D
libRbt.so/2013.1/901 2013/11/27
 22 24  0  0  0  0  0  0  0  0999 V2000
   19.9081  -22.0677   22.5765 N   0  0  0  0  0  0  0  0  0  0  0  0
   19.1583  -22.5428   24.8003 N   0  0  0  0  0  0  0  0  0  0  0  0
   20.0174  -21.8908   23.9997 C   0  0  0  0  0  0  0  0  0  0  0  0
   20.9615  -21.0909   24.4801 N   0  0  0  0  0  0  0  0  0  0  0  0
   22.3257  -22.1199   28.7330 O   0  0  0  0  0  0  0  0  0  0  0  0
   21.0812  -20.9128   25.8086 C   0  0  0  0  0  0  0  0  0  0  0  0
   20.1963  -21.5975   26.6875 C   0  0  0  0  0  0  0  0  0  0  0  0
   22.0684  -20.0772   26.2807 O   0  0  0  0  0  0  0  0  0  0  0  0
   20.1931  -21.4860   28.1328 N   0  0  0  0  0  0  0  0  0  0  0  0
   18.8778  -21.4468   28.7850 C   0  0  2  0  0  0  0  0  0  0  0  0
   18.0300  -22.5940   28.3315 C   0  0  0  0  0  0  0  0  0  0  0  0
   19.2310  -22.4039   26.1385 C   0  0  0  0  0  0  0  0  0  0  0  0
   18.3332  -23.0879   26.9898 N   0  0  0  0  0  0  0  0  0  0  0  0
   18.1042  -20.1373   28.5477 C   0  0  0  0  0  0  0  0  0  0  0  0
   17.7020  -20.0289   27.1507 N   0  0  0  0  0  0  0  0  0  0  0  0
   13.7173  -20.9244   25.9583 C   0  0  0  0  0  0  0  0  0  0  0  0
   14.7830  -21.3668   25.1927 C   0  0  0  0  0  0  0  0  0  0  0  0
   16.1044  -21.0746   25.5823 C   0  0  0  0  0  0  0  0  0  0  0  0
   16.3401  -20.3403   26.7347 C   0  0  0  0  0  0  0  0  0  0  0  0
   15.2670  -19.8972   27.5023 C   0  0  0  0  0  0  0  0  0  0  0  0
   13.9567  -20.1898   27.1155 C   0  0  0  0  0  0  0  0  0  0  0  0
   21.3651  -21.3961   28.9347 C   0  0  0  0  0  0  0  0  0  0  0  0
  1  3  1  0  0  0  0
  2  3  2  0  0  0  0
  2 12  1  0  0  0  0
  3  4  1  0  0  0  0
  4  6  1  0  0  0  0
  5 22  1  0  0  0  0
  6  7  1  0  0  0  0
  6  8  2  0  0  0  0
  7 12  2  0  0  0  0
  7  9  1  0  0  0  0
  9 10  1  0  0  0  0
  9 22  1  0  0  0  0
 10 11  1  0  0  0  0
 10 14  1  6  0  0  0
 11 13  1  0  0  0  0
 12 13  1  0  0  0  0
 14 15  1  0  0  0  0
 15 19  1  0  0  0  0
 16 17  2  0  0  0  0
 16 21  1  0  0  0  0
 17 18  1  0  0  0  0
 18 19  2  0  0  0  0
 19 20  1  0  0  0  0
 20 21  2  0  0  0  0
M  END
>  <CHROM.1>
-44.31464821,68.22192824,100.88269779,-137.24386841,18.68219935,-21.31674569
26.60614965,-0.02094670,0.12455360,-1.68222106

>  <Name>
ligand

>  <RI>
0

>  <Rbt.Current_Directory>
/home/itssahil/PROJECTS/Mol_Feturizer/Test_systems_manuscript/rnas/3sd3

>  <Rbt.Executable>
rbdock ($Id: //depot/dev/client3/rdock/2013.1/src/exe/rbdock.cxx#4 $)

>  <Rbt.Library>
libRbt.so (2013.1, Build901 2013/11/27)

>  <Rbt.Parameter_File>
/export/apps/rDock/src/rDock_2013.1_src/data/scripts/dock_solv.prm

>  <Rbt.Receptor>
prm/pocket_docking_4.prm

>  <SCORE>
-15.203

>  <SCORE.INTER>
-14.9514

>  <SCORE.INTER.CONST>
1

>  <SCORE.INTER.POLAR>
0

>  <SCORE.INTER.ROT>
4

>  <SCORE.INTER.SOLV>
9.7623

>  <SCORE.INTER.VDW>
-19.4884

>  <SCORE.INTER.norm>
-0.679609

>  <SCORE.INTRA>
-0.251576

>  <SCORE.INTRA.DIHEDRAL>
0.239438

>  <SCORE.INTRA.DIHEDRAL.0>
2.54655

>  <SCORE.INTRA.POLAR>
0

>  <SCORE.INTRA.POLAR.0>
0

>  <SCORE.INTRA.REPUL>
0

>  <SCORE.INTRA.REPUL.0>
0

>  <SCORE.INTRA.SOLV>
2.23797

>  <SCORE.INTRA.SOLV.lig_0>
-56.4922

>  <SCORE.INTRA.VDW>
-1.49028

>  <SCORE.INTRA.VDW.0>
-0.696801

>  <SCORE.INTRA.norm>
-0.0114353

>  <SCORE.RESTR>
0

>  <SCORE.RESTR.CAVITY>
0

>  <SCORE.RESTR.norm>
0

>  <SCORE.SYSTEM>
0

>  <SCORE.SYSTEM.CONST>
0

>  <SCORE.SYSTEM.DIHEDRAL>
0

>  <SCORE.SYSTEM.SOLV>
0

>  <SCORE.SYSTEM.norm>
0

>  <SCORE.heavy>
22

>  <SCORE.norm>
-0.691044

>  <RMSD>
6.202

$$$$
ligand
 OpenBabel02271912143D
libRbt.so/2013.1/901 2013/11/27
 22 24  0  0  0  0  0  0  0  0999 V2000
   20.4989  -15.9437   25.2152 N   0  0  0  0  0  0  0  0  0  0  0  0
   19.9067  -17.7833   23.8016 N   0  0  0  0  0  0  0  0  0  0  0  0
   20.1099  -17.3179   25.0452 C   0  0  0  0  0  0  0  0  0  0  0  0
   19.9633  -18.0848   26.1186 N   0  0  0  0  0  0  0  0  0  0  0  0
   20.3252  -23.1146   24.6189 O   0  0  0  0  0  0  0  0  0  0  0  0
   19.6009  -19.3735   25.9809 C   0  0  0  0  0  0  0  0  0  0  0  0
   19.3894  -19.9041   24.6777 C   0  0  0  0  0  0  0  0  0  0  0  0
   19.4551  -20.1470   27.1105 O   0  0  0  0  0  0  0  0  0  0  0  0
   18.9770  -21.2612   24.3789 N   0  0  0  0  0  0  0  0  0  0  0  0
   18.0035  -21.4269   23.2919 C   0  0  2  0  0  0  0  0  0  0  0  0
   18.4672  -20.7206   22.0564 C   0  0  0  0  0  0  0  0  0  0  0  0
   19.5436  -19.0654   23.6024 C   0  0  0  0  0  0  0  0  0  0  0  0
   19.3299  -19.5656   22.2975 N   0  0  0  0  0  0  0  0  0  0  0  0
   16.5889  -20.9310   23.6423 C   0  0  0  0  0  0  0  0  0  0  0  0
   16.0702  -21.6474   24.8011 N   0  0  0  0  0  0  0  0  0  0  0  0
   13.3411  -19.7852   27.4817 C   0  0  0  0  0  0  0  0  0  0  0  0
   12.8829  -20.7211   26.5698 C   0  0  0  0  0  0  0  0  0  0  0  0
   13.7812  -21.3419   25.6803 C   0  0  0  0  0  0  0  0  0  0  0  0
   15.1281  -21.0144   25.7158 C   0  0  0  0  0  0  0  0  0  0  0  0
   15.5857  -20.0735   26.6336 C   0  0  0  0  0  0  0  0  0  0  0  0
   14.6935  -19.4601   27.5168 C   0  0  0  0  0  0  0  0  0  0  0  0
   19.4380  -22.4132   25.0754 C   0  0  0  0  0  0  0  0  0  0  0  0
  1  3  1  0  0  0  0
  2  3  2  0  0  0  0
  2 12  1  0  0  0  0
  3  4  1  0  0  0  0
  4  6  1  0  0  0  0
  5 22  1  0  0  0  0
  6  7  1  0  0  0  0
  6  8  2  0  0  0  0
  7 12  2  0  0  0  0
  7  9  1  0  0  0  0
  9 10  1  0  0  0  0
  9 22  1  0  0  0  0
 10 11  1  0  0  0  0
 10 14  1  1  0  0  0
 11 13  1  0  0  0  0
 12 13  1  0  0  0  0
 14 15  1  0  0  0  0
 15 19  1  0  0  0  0
 16 17  2  0  0  0  0
 16 21  1  0  0  0  0
 17 18  1  0  0  0  0
 18 19  2  0  0  0  0
 19 20  1  0  0  0  0
 20 21  2  0  0  0  0
M  END
>  <CHROM.1>
-99.46083462,-59.23332786,150.15605153,104.04413338,17.89855730,-20.08380292
25.01944506,0.08105429,0.41370569,0.51084180

>  <Name>
ligand

>  <RI>
0

>  <Rbt.Current_Directory>
/home/itssahil/PROJECTS/Mol_Feturizer/Test_systems_manuscript/rnas/3sd3

>  <Rbt.Executable>
rbdock ($Id: //depot/dev/client3/rdock/2013.1/src/exe/rbdock.cxx#4 $)

>  <Rbt.Library>
libRbt.so (2013.1, Build901 2013/11/27)

>  <Rbt.Parameter_File>
/export/apps/rDock/src/rDock_2013.1_src/data/scripts/dock_solv.prm

>  <Rbt.Receptor>
prm/pocket_docking_4.prm

>  <SCORE>
-14.9896

>  <SCORE.INTER>
-13.5647

>  <SCORE.INTER.CONST>
1

>  <SCORE.INTER.POLAR>
0

>  <SCORE.INTER.ROT>
4

>  <SCORE.INTER.SOLV>
9.51071

>  <SCORE.INTER.VDW>
-18.48

>  <SCORE.INTER.norm>
-0.616577

>  <SCORE.INTRA>
-1.42496

>  <SCORE.INTRA.DIHEDRAL>
-0.287537

>  <SCORE.INTRA.DIHEDRAL.0>
2.54655

>  <SCORE.INTRA.POLAR>
0

>  <SCORE.INTRA.POLAR.0>
0

>  <SCORE.INTRA.REPUL>
0

>  <SCORE.INTRA.REPUL.0>
0

>  <SCORE.INTRA.SOLV>
-0.263056

>  <SCORE.INTRA.SOLV.lig_0>
-56.4922

>  <SCORE.INTRA.VDW>
-1.14966

>  <SCORE.INTRA.VDW.0>
-0.696801

>  <SCORE.INTRA.norm>
-0.0647708

>  <SCORE.RESTR>
0

>  <SCORE.RESTR.CAVITY>
0

>  <SCORE.RESTR.norm>
0

>  <SCORE.SYSTEM>
0

>  <SCORE.SYSTEM.CONST>
0

>  <SCORE.SYSTEM.DIHEDRAL>
0

>  <SCORE.SYSTEM.SOLV>
0

>  <SCORE.SYSTEM.norm>
0

>  <SCORE.heavy>
22

>  <SCORE.norm>
-0.681348

>  <RMSD>
6.217

$$$$
ligand
 OpenBabel02271912143D
libRbt.so/2013.1/901 2013/11/27
 22 24  0  0  0  0  0  0  0  0999 V2000
   20.6260  -23.1958   24.0436 N   0  0  0  0  0  0  0  0  0  0  0  0
   20.5484  -21.2168   25.3892 N   0  0  0  0  0  0  0  0  0  0  0  0
   19.9797  -21.9719   24.4350 C   0  0  0  0  0  0  0  0  0  0  0  0
   18.8433  -21.6245   23.8437 N   0  0  0  0  0  0  0  0  0  0  0  0
   17.8976  -17.2861   23.7036 O   0  0  0  0  0  0  0  0  0  0  0  0
   18.2234  -20.4827   24.1947 C   0  0  0  0  0  0  0  0  0  0  0  0
   18.8037  -19.6516   25.1932 C   0  0  0  0  0  0  0  0  0  0  0  0
   17.0454  -20.1460   23.5666 O   0  0  0  0  0  0  0  0  0  0  0  0
   18.2401  -18.4102   25.6858 N   0  0  0  0  0  0  0  0  0  0  0  0
   18.3532  -18.1655   27.1296 C   0  0  2  0  0  0  0  0  0  0  0  0
   19.7700  -18.3313   27.5831 C   0  0  0  0  0  0  0  0  0  0  0  0
   19.9738  -20.0628   25.7807 C   0  0  0  0  0  0  0  0  0  0  0  0
   20.5657  -19.2596   26.7822 N   0  0  0  0  0  0  0  0  0  0  0  0
   17.4513  -19.0718   27.9869 C   0  0  0  0  0  0  0  0  0  0  0  0
   16.0524  -18.6924   27.8314 N   0  0  0  0  0  0  0  0  0  0  0  0
   13.3230  -21.2399   25.7914 C   0  0  0  0  0  0  0  0  0  0  0  0
   12.9035  -20.5268   26.9018 C   0  0  0  0  0  0  0  0  0  0  0  0
   13.8017  -19.6811   27.5810 C   0  0  0  0  0  0  0  0  0  0  0  0
   15.1105  -19.5628   27.1386 C   0  0  0  0  0  0  0  0  0  0  0  0
   15.5292  -20.2807   26.0222 C   0  0  0  0  0  0  0  0  0  0  0  0
   14.6362  -21.1177   25.3481 C   0  0  0  0  0  0  0  0  0  0  0  0
   17.5829  -17.4465   24.8710 C   0  0  0  0  0  0  0  0  0  0  0  0
  1  3  1  0  0  0  0
  2  3  2  0  0  0  0
  2 12  1  0  0  0  0
  3  4  1  0  0  0  0
  4  6  1  0  0  0  0
  5 22  1  0  0  0  0
  6  7  1  0  0  0  0
  6  8  2  0  0  0  0
  7 12  2  0  0  0  0
  7  9  1  0  0  0  0
  9 10  1  0  0  0  0
  9 22  1  0  0  0  0
 10 11  1  0  0  0  0
 10 14  1  1  0  0  0
 11 13  1  0  0  0  0
 12 13  1  0  0  0  0
 14 15  1  0  0  0  0
 15 19  1  0  0  0  0
 16 17  2  0  0  0  0
 16 21  1  0  0  0  0
 17 18  1  0  0  0  0
 18 19  2  0  0  0  0
 19 20  1  0  0  0  0
 20 21  2  0  0  0  0
M  END
>  <CHROM.1>
-30.89550146,-71.16284090,110.80463756,142.75876061,17.59656356,-19.83306399
25.72510838,0.26778307,-0.16614854,-2.50767734

>  <Name>
ligand

>  <RI>
0

>  <Rbt.Current_Directory>
/home/itssahil/PROJECTS/Mol_Feturizer/Test_systems_manuscript/rnas/3sd3

>  <Rbt.Executable>
rbdock ($Id: //depot/dev/client3/rdock/2013.1/src/exe/rbdock.cxx#4 $)

>  <Rbt.Library>
libRbt.so (2013.1, Build901 2013/11/27)

>  <Rbt.Parameter_File>
/export/apps/rDock/src/rDock_2013.1_src/data/scripts/dock_solv.prm

>  <Rbt.Receptor>
prm/pocket_docking_8.prm

>  <SCORE>
-12.8147

>  <SCORE.INTER>
-11.5077

>  <SCORE.INTER.CONST>
1

>  <SCORE.INTER.POLAR>
0

>  <SCORE.INTER.ROT>
4

>  <SCORE.INTER.SOLV>
16.6614

>  <SCORE.INTER.VDW>
-19.4923

>  <SCORE.INTER.norm>
-0.523078

>  <SCORE.INTRA>
-1.30698

>  <SCORE.INTRA.DIHEDRAL>
0.611354

>  <SCORE.INTRA.DIHEDRAL.0>
2.54655

>  <SCORE.INTRA.POLAR>
0

>  <SCORE.INTRA.POLAR.0>
0

>  <SCORE.INTRA.REPUL>
0

>  <SCORE.INTRA.REPUL.0>
0

>  <SCORE.INTRA.SOLV>
0.164742

>  <SCORE.INTRA.SOLV.lig_0>
-56.4922

>  <SCORE.INTRA.VDW>
-1.69503

>  <SCORE.INTRA.VDW.0>
-0.696801

>  <SCORE.INTRA.norm>
-0.0594082

>  <SCORE.RESTR>
0

>  <SCORE.RESTR.CAVITY>
0

>  <SCORE.RESTR.norm>
0

>  <SCORE.SYSTEM>
0

>  <SCORE.SYSTEM.CONST>
0

>  <SCORE.SYSTEM.DIHEDRAL>
0

>  <SCORE.SYSTEM.SOLV>
0

>  <SCORE.SYSTEM.norm>
0

>  <SCORE.heavy>
22

>  <SCORE.norm>
-0.582486

>  <RMSD>
6.217

$$$$
ligand
 OpenBabel02271912143D
libRbt.so/2013.1/901 2013/11/27
 22 24  0  0  0  0  0  0  0  0999 V2000
   17.9443  -22.3300   31.6491 N   0  0  0  0  0  0  0  0  0  0  0  0
   18.7819  -20.5643   30.2658 N   0  0  0  0  0  0  0  0  0  0  0  0
   18.3261  -21.8244   30.3579 C   0  0  0  0  0  0  0  0  0  0  0  0
   18.2177  -22.6151   29.2973 N   0  0  0  0  0  0  0  0  0  0  0  0
   20.8884  -21.8228   25.8788 O   0  0  0  0  0  0  0  0  0  0  0  0
   18.5708  -22.1615   28.0804 C   0  0  0  0  0  0  0  0  0  0  0  0
   19.0698  -20.8357   27.9471 C   0  0  0  0  0  0  0  0  0  0  0  0
   18.4478  -23.0017   26.9967 O   0  0  0  0  0  0  0  0  0  0  0  0
   19.4663  -20.2075   26.7025 N   0  0  0  0  0  0  0  0  0  0  0  0
   19.0982  -18.7958   26.5334 C   0  0  2  0  0  0  0  0  0  0  0  0
   19.5480  -17.9889   27.7112 C   0  0  0  0  0  0  0  0  0  0  0  0
   19.1513  -20.0563   29.0738 C   0  0  0  0  0  0  0  0  0  0  0  0
   19.6348  -18.7322   28.9667 N   0  0  0  0  0  0  0  0  0  0  0  0
   17.5903  -18.5664   26.3250 C   0  0  0  0  0  0  0  0  0  0  0  0
   16.8181  -19.3638   27.2700 N   0  0  0  0  0  0  0  0  0  0  0  0
   13.0263  -20.9764   26.2102 C   0  0  0  0  0  0  0  0  0  0  0  0
   14.1584  -21.3565   25.5092 C   0  0  0  0  0  0  0  0  0  0  0  0
   15.4167  -20.8271   25.8556 C   0  0  0  0  0  0  0  0  0  0  0  0
   15.5230  -19.9214   26.9001 C   0  0  0  0  0  0  0  0  0  0  0  0
   14.3834  -19.5414   27.6029 C   0  0  0  0  0  0  0  0  0  0  0  0
   13.1361  -20.0691   27.2594 C   0  0  0  0  0  0  0  0  0  0  0  0
   20.1600  -20.8713   25.6522 C   0  0  0  0  0  0  0  0  0  0  0  0
  1  3  1  0  0  0  0
  2  3  2  0  0  0  0
  2 12  1  0  0  0  0
  3  4  1  0  0  0  0
  4  6  1  0  0  0  0
  5 22  1  0  0  0  0
  6  7  1  0  0  0  0
  6  8  2  0  0  0  0
  7 12  2  0  0  0  0
  7  9  1  0  0  0  0
  9 10  1  0  0  0  0
  9 22  1  0  0  0  0
 10 11  1  0  0  0  0
 10 14  1  1  0  0  0
 11 13  1  0  0  0  0
 12 13  1  0  0  0  0
 14 15  1  0  0  0  0
 15 19  1  0  0  0  0
 16 17  2  0  0  0  0
 16 21  1  0  0  0  0
 17 18  1  0  0  0  0
 18 19  2  0  0  0  0
 19 20  1  0  0  0  0
 20 21  2  0  0  0  0
M  END
>  <CHROM.1>
-27.34464206,44.71443713,-146.23119134,61.42779403,17.73553627,-20.58280156
27.63640316,0.30607725,0.08076588,2.04935657

>  <Name>
ligand

>  <RI>
0

>  <Rbt.Current_Directory>
/home/itssahil/PROJECTS/Mol_Feturizer/Test_systems_manuscript/rnas/3sd3

>  <Rbt.Executable>
rbdock ($Id: //depot/dev/client3/rdock/2013.1/src/exe/rbdock.cxx#4 $)

>  <Rbt.Library>
libRbt.so (2013.1, Build901 2013/11/27)

>  <Rbt.Parameter_File>
/export/apps/rDock/src/rDock_2013.1_src/data/scripts/dock_solv.prm

>  <Rbt.Receptor>
prm/pocket_docking_6.prm

>  <SCORE>
-16.0208

>  <SCORE.INTER>
-15.9201

>  <SCORE.INTER.CONST>
1

>  <SCORE.INTER.POLAR>
0

>  <SCORE.INTER.ROT>
4

>  <SCORE.INTER.SOLV>
14.949

>  <SCORE.INTER.VDW>
-21.8631

>  <SCORE.INTER.norm>
-0.723642

>  <SCORE.INTRA>
-0.10065

>  <SCORE.INTRA.DIHEDRAL>
0.552369

>  <SCORE.INTRA.DIHEDRAL.0>
2.54655

>  <SCORE.INTRA.POLAR>
0

>  <SCORE.INTRA.POLAR.0>
0

>  <SCORE.INTRA.REPUL>
0

>  <SCORE.INTRA.REPUL.0>
0

>  <SCORE.INTRA.SOLV>
2.10638

>  <SCORE.INTRA.SOLV.lig_0>
-56.4922

>  <SCORE.INTRA.VDW>
-1.43002

>  <SCORE.INTRA.VDW.0>
-0.696801

>  <SCORE.INTRA.norm>
-0.00457498

>  <SCORE.RESTR>
0

>  <SCORE.RESTR.CAVITY>
0

>  <SCORE.RESTR.norm>
0

>  <SCORE.SYSTEM>
0

>  <SCORE.SYSTEM.CONST>
0

>  <SCORE.SYSTEM.DIHEDRAL>
0

>  <SCORE.SYSTEM.SOLV>
0

>  <SCORE.SYSTEM.norm>
0

>  <SCORE.heavy>
22

>  <SCORE.norm>
-0.728217

>  <RMSD>
6.218

$$$$
ligand
 OpenBabel02271912143D
libRbt.so/2013.1/901 2013/11/27
 22 24  0  0  0  0  0  0  0  0999 V2000
   20.5749  -20.0302   28.5766 N   0  0  0  0  0  0  0  0  0  0  0  0
   19.8270  -19.4969   26.3655 N   0  0  0  0  0  0  0  0  0  0  0  0
   20.2098  -20.4362   27.2460 C   0  0  0  0  0  0  0  0  0  0  0  0
   20.2616  -21.7236   26.9269 N   0  0  0  0  0  0  0  0  0  0  0  0
   20.9248  -22.6225   22.5591 O   0  0  0  0  0  0  0  0  0  0  0  0
   19.9251  -22.1239   25.6869 C   0  0  0  0  0  0  0  0  0  0  0  0
   19.5268  -21.1549   24.7242 C   0  0  0  0  0  0  0  0  0  0  0  0
   19.9867  -23.4652   25.3821 O   0  0  0  0  0  0  0  0  0  0  0  0
   19.1176  -21.4402   23.3632 N   0  0  0  0  0  0  0  0  0  0  0  0
   17.9896  -20.6590   22.8396 C   0  0  2  0  0  0  0  0  0  0  0  0
   18.2271  -19.1941   23.0347 C   0  0  0  0  0  0  0  0  0  0  0  0
   19.4798  -19.8384   25.1092 C   0  0  0  0  0  0  0  0  0  0  0  0
   19.0780  -18.8572   24.1742 N   0  0  0  0  0  0  0  0  0  0  0  0
   16.6331  -21.0270   23.4674 C   0  0  0  0  0  0  0  0  0  0  0  0
   16.6994  -20.9252   24.9201 N   0  0  0  0  0  0  0  0  0  0  0  0
   13.2208  -20.1432   27.2415 C   0  0  0  0  0  0  0  0  0  0  0  0
   13.1611  -21.0420   26.1898 C   0  0  0  0  0  0  0  0  0  0  0  0
   14.3092  -21.3061   25.4180 C   0  0  0  0  0  0  0  0  0  0  0  0
   15.5027  -20.6634   25.7102 C   0  0  0  0  0  0  0  0  0  0  0  0
   15.5596  -19.7607   26.7680 C   0  0  0  0  0  0  0  0  0  0  0  0
   14.4201  -19.5015   27.5340 C   0  0  0  0  0  0  0  0  0  0  0  0
   19.7218  -22.4244   22.5318 C   0  0  0  0  0  0  0  0  0  0  0  0
  1  3  1  0  0  0  0
  2  3  2  0  0  0  0
  2 12  1  0  0  0  0
  3  4  1  0  0  0  0
  4  6  1  0  0  0  0
  5 22  1  0  0  0  0
  6  7  1  0  0  0  0
  6  8  2  0  0  0  0
  7 12  2  0  0  0  0
  7  9  1  0  0  0  0
  9 10  1  0  0  0  0
  9 22  1  0  0  0  0
 10 11  1  0  0  0  0
 10 14  1  1  0  0  0
 11 13  1  0  0  0  0
 12 13  1  0  0  0  0
 14 15  1  0  0  0  0
 15 19  1  0  0  0  0
 16 17  2  0  0  0  0
 16 21  1  0  0  0  0
 17 18  1  0  0  0  0
 18 19  2  0  0  0  0
 19 20  1  0  0  0  0
 20 21  2  0  0  0  0
M  END
>  <CHROM.1>
-37.47150379,54.75956776,153.95427633,42.49656149,18.05528391,-20.85645509
25.19059593,-0.35277726,-0.12325550,1.31805777

>  <Name>
ligand

>  <RI>
0

>  <Rbt.Current_Directory>
/home/itssahil/PROJECTS/Mol_Feturizer/Test_systems_manuscript/rnas/3sd3

>  <Rbt.Executable>
rbdock ($Id: //depot/dev/client3/rdock/2013.1/src/exe/rbdock.cxx#4 $)

>  <Rbt.Library>
libRbt.so (2013.1, Build901 2013/11/27)

>  <Rbt.Parameter_File>
/export/apps/rDock/src/rDock_2013.1_src/data/scripts/dock_solv.prm

>  <Rbt.Receptor>
prm/pocket_docking_7.prm

>  <SCORE>
-15.2511

>  <SCORE.INTER>
-15.0717

>  <SCORE.INTER.CONST>
1

>  <SCORE.INTER.POLAR>
0

>  <SCORE.INTER.ROT>
4

>  <SCORE.INTER.SOLV>
7.82491

>  <SCORE.INTER.VDW>
-18.9228

>  <SCORE.INTER.norm>
-0.685077

>  <SCORE.INTRA>
-0.179411

>  <SCORE.INTRA.DIHEDRAL>
-0.370117

>  <SCORE.INTRA.DIHEDRAL.0>
2.54655

>  <SCORE.INTRA.POLAR>
0

>  <SCORE.INTRA.POLAR.0>
0

>  <SCORE.INTRA.REPUL>
0

>  <SCORE.INTRA.REPUL.0>
0

>  <SCORE.INTRA.SOLV>
1.96943

>  <SCORE.INTRA.SOLV.lig_0>
-56.4922

>  <SCORE.INTRA.VDW>
-0.979069

>  <SCORE.INTRA.VDW.0>
-0.696801

>  <SCORE.INTRA.norm>
-0.00815502

>  <SCORE.RESTR>
0

>  <SCORE.RESTR.CAVITY>
0

>  <SCORE.RESTR.norm>
0

>  <SCORE.SYSTEM>
0

>  <SCORE.SYSTEM.CONST>
0

>  <SCORE.SYSTEM.DIHEDRAL>
0

>  <SCORE.SYSTEM.SOLV>
0

>  <SCORE.SYSTEM.norm>
0

>  <SCORE.heavy>
22

>  <SCORE.norm>
-0.693232

>  <RMSD>
6.219

$$$$
ligand
 OpenBabel02271912143D
libRbt.so/2013.1/901 2013/11/27
 22 24  0  0  0  0  0  0  0  0999 V2000
   20.5191  -20.9800   28.6373 N   0  0  0  0  0  0  0  0  0  0  0  0
   19.6557  -19.9529   26.6542 N   0  0  0  0  0  0  0  0  0  0  0  0
   20.1722  -21.0442   27.2429 C   0  0  0  0  0  0  0  0  0  0  0  0
   20.3719  -22.1764   26.5795 N   0  0  0  0  0  0  0  0  0  0  0  0
   19.4218  -22.7530   21.6891 O   0  0  0  0  0  0  0  0  0  0  0  0
   20.0549  -22.2567   25.2741 C   0  0  0  0  0  0  0  0  0  0  0  0
   19.5173  -21.1163   24.6146 C   0  0  0  0  0  0  0  0  0  0  0  0
   20.2713  -23.4429   24.6096 O   0  0  0  0  0  0  0  0  0  0  0  0
   19.1111  -21.0625   23.2241 N   0  0  0  0  0  0  0  0  0  0  0  0
   17.8835  -20.3130   22.9275 C   0  0  2  0  0  0  0  0  0  0  0  0
   17.9461  -18.9414   23.5237 C   0  0  0  0  0  0  0  0  0  0  0  0
   19.3205  -19.9740   25.3494 C   0  0  0  0  0  0  0  0  0  0  0  0
   18.7787  -18.8300   24.7198 N   0  0  0  0  0  0  0  0  0  0  0  0
   16.5983  -21.0052   23.4160 C   0  0  0  0  0  0  0  0  0  0  0  0
   16.6379  -21.1926   24.8611 N   0  0  0  0  0  0  0  0  0  0  0  0
   13.3408  -20.0567   27.2983 C   0  0  0  0  0  0  0  0  0  0  0  0
   14.5896  -19.5028   27.5246 C   0  0  0  0  0  0  0  0  0  0  0  0
   15.6849  -19.8738   26.7208 C   0  0  0  0  0  0  0  0  0  0  0  0
   15.5138  -20.7976   25.7010 C   0  0  0  0  0  0  0  0  0  0  0  0
   14.2575  -21.3524   25.4758 C   0  0  0  0  0  0  0  0  0  0  0  0
   13.1713  -20.9816   26.2728 C   0  0  0  0  0  0  0  0  0  0  0  0
   19.8089  -21.6957   22.1578 C   0  0  0  0  0  0  0  0  0  0  0  0
  1  3  1  0  0  0  0
  2  3  2  0  0  0  0
  2 12  1  0  0  0  0
  3  4  1  0  0  0  0
  4  6  1  0  0  0  0
  5 22  1  0  0  0  0
  6  7  1  0  0  0  0
  6  8  2  0  0  0  0
  7 12  2  0  0  0  0
  7  9  1  0  0  0  0
  9 10  1  0  0  0  0
  9 22  1  0  0  0  0
 10 11  1  0  0  0  0
 10 14  1  1  0  0  0
 11 13  1  0  0  0  0
 12 13  1  0  0  0  0
 14 15  1  0  0  0  0
 15 19  1  0  0  0  0
 16 17  2  0  0  0  0
 16 21  1  0  0  0  0
 17 18  1  0  0  0  0
 18 19  2  0  0  0  0
 19 20  1  0  0  0  0
 20 21  2  0  0  0  0
M  END
>  <CHROM.1>
100.84142822,59.88951906,130.79625902,-121.41937309,17.96200611,-20.92203166
25.11783192,-0.39663065,-0.19004036,1.40990418

>  <Name>
ligand

>  <RI>
0

>  <Rbt.Current_Directory>
/home/itssahil/PROJECTS/Mol_Feturizer/Test_systems_manuscript/rnas/3sd3

>  <Rbt.Executable>
rbdock ($Id: //depot/dev/client3/rdock/2013.1/src/exe/rbdock.cxx#4 $)

>  <Rbt.Library>
libRbt.so (2013.1, Build901 2013/11/27)

>  <Rbt.Parameter_File>
/export/apps/rDock/src/rDock_2013.1_src/data/scripts/dock_solv.prm

>  <Rbt.Receptor>
prm/pocket_docking_7.prm

>  <SCORE>
-15.3309

>  <SCORE.INTER>
-15.1444

>  <SCORE.INTER.CONST>
1

>  <SCORE.INTER.POLAR>
0

>  <SCORE.INTER.ROT>
4

>  <SCORE.INTER.SOLV>
9.59541

>  <SCORE.INTER.VDW>
-19.5614

>  <SCORE.INTER.norm>
-0.688382

>  <SCORE.INTRA>
-0.186529

>  <SCORE.INTRA.DIHEDRAL>
0.172105

>  <SCORE.INTRA.DIHEDRAL.0>
2.54655

>  <SCORE.INTRA.POLAR>
0

>  <SCORE.INTRA.POLAR.0>
0

>  <SCORE.INTRA.REPUL>
0

>  <SCORE.INTRA.REPUL.0>
0

>  <SCORE.INTRA.SOLV>
2.06993

>  <SCORE.INTRA.SOLV.lig_0>
-56.4922

>  <SCORE.INTRA.VDW>
-1.30755

>  <SCORE.INTRA.VDW.0>
-0.696801

>  <SCORE.INTRA.norm>
-0.00847857

>  <SCORE.RESTR>
0

>  <SCORE.RESTR.CAVITY>
0

>  <SCORE.RESTR.norm>
0

>  <SCORE.SYSTEM>
0

>  <SCORE.SYSTEM.CONST>
0

>  <SCORE.SYSTEM.DIHEDRAL>
0

>  <SCORE.SYSTEM.SOLV>
0

>  <SCORE.SYSTEM.norm>
0

>  <SCORE.heavy>
22

>  <SCORE.norm>
-0.69686

>  <RMSD>
6.222

$$$$
ligand
 OpenBabel02271912143D
libRbt.so/2013.1/901 2013/11/27
 22 24  0  0  0  0  0  0  0  0999 V2000
   20.5084  -21.4981   31.5853 N   0  0  0  0  0  0  0  0  0  0  0  0
   20.9498  -20.6891   29.3755 N   0  0  0  0  0  0  0  0  0  0  0  0
   20.1963  -21.4546   30.1820 C   0  0  0  0  0  0  0  0  0  0  0  0
   19.1759  -22.1701   29.7252 N   0  0  0  0  0  0  0  0  0  0  0  0
   19.0397  -23.4323   25.6221 O   0  0  0  0  0  0  0  0  0  0  0  0
   18.8681  -22.1439   28.4153 C   0  0  0  0  0  0  0  0  0  0  0  0
   19.6525  -21.3539   27.5293 C   0  0  0  0  0  0  0  0  0  0  0  0
   17.8043  -22.8946   27.9676 O   0  0  0  0  0  0  0  0  0  0  0  0
   19.4264  -21.2124   26.1046 N   0  0  0  0  0  0  0  0  0  0  0  0
   19.6172  -19.8702   25.5399 C   0  0  2  0  0  0  0  0  0  0  0  0
   20.9527  -19.3187   25.9305 C   0  0  0  0  0  0  0  0  0  0  0  0
   20.6895  -20.6245   28.0551 C   0  0  0  0  0  0  0  0  0  0  0  0
   21.4782  -19.8240   27.1973 N   0  0  0  0  0  0  0  0  0  0  0  0
   18.5281  -18.8622   25.9492 C   0  0  0  0  0  0  0  0  0  0  0  0
   17.3297  -19.0503   25.1409 N   0  0  0  0  0  0  0  0  0  0  0  0
   13.8441  -20.8811   26.7534 C   0  0  0  0  0  0  0  0  0  0  0  0
   14.4573  -19.8435   27.4354 C   0  0  0  0  0  0  0  0  0  0  0  0
   15.6107  -19.2326   26.9066 C   0  0  0  0  0  0  0  0  0  0  0  0
   16.1358  -19.6718   25.7007 C   0  0  0  0  0  0  0  0  0  0  0  0
   15.5173  -20.7147   25.0175 C   0  0  0  0  0  0  0  0  0  0  0  0
   14.3718  -21.3183   25.5425 C   0  0  0  0  0  0  0  0  0  0  0  0
   19.0217  -22.2724   25.2458 C   0  0  0  0  0  0  0  0  0  0  0  0
  1  3  1  0  0  0  0
  2  3  2  0  0  0  0
  2 12  1  0  0  0  0
  3  4  1  0  0  0  0
  4  6  1  0  0  0  0
  5 22  1  0  0  0  0
  6  7  1  0  0  0  0
  6  8  2  0  0  0  0
  7 12  2  0  0  0  0
  7  9  1  0  0  0  0
  9 10  1  0  0  0  0
  9 22  1  0  0  0  0
 10 11  1  0  0  0  0
 10 14  1  1  0  0  0
 11 13  1  0  0  0  0
 12 13  1  0  0  0  0
 14 15  1  0  0  0  0
 15 19  1  0  0  0  0
 16 17  2  0  0  0  0
 16 21  1  0  0  0  0
 17 18  1  0  0  0  0
 18 19  2  0  0  0  0
 19 20  1  0  0  0  0
 20 21  2  0  0  0  0
M  END
>  <CHROM.1>
-11.72938719,-79.72129646,106.06742519,49.99283928,18.41871521,-20.87584550
27.13184995,0.54945383,0.09295787,1.99323054

>  <Name>
ligand

>  <RI>
0

>  <Rbt.Current_Directory>
/home/itssahil/PROJECTS/Mol_Feturizer/Test_systems_manuscript/rnas/3sd3

>  <Rbt.Executable>
rbdock ($Id: //depot/dev/client3/rdock/2013.1/src/exe/rbdock.cxx#4 $)

>  <Rbt.Library>
libRbt.so (2013.1, Build901 2013/11/27)

>  <Rbt.Parameter_File>
/export/apps/rDock/src/rDock_2013.1_src/data/scripts/dock_solv.prm

>  <Rbt.Receptor>
prm/pocket_docking_5.prm

>  <SCORE>
-12.9431

>  <SCORE.INTER>
-12.3353

>  <SCORE.INTER.CONST>
1

>  <SCORE.INTER.POLAR>
0

>  <SCORE.INTER.ROT>
4

>  <SCORE.INTER.SOLV>
7.08108

>  <SCORE.INTER.VDW>
-16.8505

>  <SCORE.INTER.norm>
-0.560695

>  <SCORE.INTRA>
-0.60784

>  <SCORE.INTRA.DIHEDRAL>
1.36942

>  <SCORE.INTRA.DIHEDRAL.0>
2.54655

>  <SCORE.INTRA.POLAR>
0

>  <SCORE.INTRA.POLAR.0>
0

>  <SCORE.INTRA.REPUL>
0

>  <SCORE.INTRA.REPUL.0>
0

>  <SCORE.INTRA.SOLV>
-0.195556

>  <SCORE.INTRA.SOLV.lig_0>
-56.4922

>  <SCORE.INTRA.VDW>
-1.19477

>  <SCORE.INTRA.VDW.0>
-0.696801

>  <SCORE.INTRA.norm>
-0.0276291

>  <SCORE.RESTR>
0

>  <SCORE.RESTR.CAVITY>
0

>  <SCORE.RESTR.norm>
0

>  <SCORE.SYSTEM>
0

>  <SCORE.SYSTEM.CONST>
0

>  <SCORE.SYSTEM.DIHEDRAL>
0

>  <SCORE.SYSTEM.SOLV>
0

>  <SCORE.SYSTEM.norm>
0

>  <SCORE.heavy>
22

>  <SCORE.norm>
-0.588324

>  <RMSD>
6.225

$$$$
ligand
 OpenBabel02271912143D
libRbt.so/2013.1/901 2013/11/27
 22 24  0  0  0  0  0  0  0  0999 V2000
   20.7414  -19.7793   28.2995 N   0  0  0  0  0  0  0  0  0  0  0  0
   19.9203  -19.3673   26.0884 N   0  0  0  0  0  0  0  0  0  0  0  0
   20.3415  -20.2564   27.0029 C   0  0  0  0  0  0  0  0  0  0  0  0
   20.4001  -21.5576   26.7476 N   0  0  0  0  0  0  0  0  0  0  0  0
   20.0049  -22.2926   21.2383 O   0  0  0  0  0  0  0  0  0  0  0  0
   20.0314  -22.0242   25.5403 C   0  0  0  0  0  0  0  0  0  0  0  0
   19.5918  -21.1097   24.5428 C   0  0  0  0  0  0  0  0  0  0  0  0
   20.1009  -23.3783   25.3017 O   0  0  0  0  0  0  0  0  0  0  0  0
   19.1454  -21.4683   23.2112 N   0  0  0  0  0  0  0  0  0  0  0  0
   17.9922  -20.7274   22.6839 C   0  0  2  0  0  0  0  0  0  0  0  0
   18.2167  -19.2519   22.7975 C   0  0  0  0  0  0  0  0  0  0  0  0
   19.5397  -19.7760   24.8623 C   0  0  0  0  0  0  0  0  0  0  0  0
   19.0973  -18.8480   23.8919 N   0  0  0  0  0  0  0  0  0  0  0  0
   16.6600  -21.0783   23.3709 C   0  0  0  0  0  0  0  0  0  0  0  0
   16.7746  -20.9204   24.8156 N   0  0  0  0  0  0  0  0  0  0  0  0
   13.3375  -20.1346   27.1968 C   0  0  0  0  0  0  0  0  0  0  0  0
   14.5278  -19.4801   27.4656 C   0  0  0  0  0  0  0  0  0  0  0  0
   15.6690  -19.7350   26.6806 C   0  0  0  0  0  0  0  0  0  0  0  0
   15.6019  -20.6450   25.6365 C   0  0  0  0  0  0  0  0  0  0  0  0
   14.4041  -21.3012   25.3687 C   0  0  0  0  0  0  0  0  0  0  0  0
   13.2723  -21.0456   26.1471 C   0  0  0  0  0  0  0  0  0  0  0  0
   19.7366  -22.4865   22.4121 C   0  0  0  0  0  0  0  0  0  0  0  0
  1  3  1  0  0  0  0
  2  3  2  0  0  0  0
  2 12  1  0  0  0  0
  3  4  1  0  0  0  0
  4  6  1  0  0  0  0
  5 22  1  0  0  0  0
  6  7  1  0  0  0  0
  6  8  2  0  0  0  0
  7 12  2  0  0  0  0
  7  9  1  0  0  0  0
  9 10  1  0  0  0  0
  9 22  1  0  0  0  0
 10 11  1  0  0  0  0
 10 14  1  1  0  0  0
 11 13  1  0  0  0  0
 12 13  1  0  0  0  0
 14 15  1  0  0  0  0
 15 19  1  0  0  0  0
 16 17  2  0  0  0  0
 16 21  1  0  0  0  0
 17 18  1  0  0  0  0
 18 19  2  0  0  0  0
 19 20  1  0  0  0  0
 20 21  2  0  0  0  0
M  END
>  <CHROM.1>
-133.34364341,53.95419984,154.42941773,-139.23508475,18.07900643,-20.80019461
24.97480697,-0.43253607,-0.07717081,1.30101091

>  <Name>
ligand

>  <RI>
0

>  <Rbt.Current_Directory>
/home/itssahil/PROJECTS/Mol_Feturizer/Test_systems_manuscript/rnas/3sd3

>  <Rbt.Executable>
rbdock ($Id: //depot/dev/client3/rdock/2013.1/src/exe/rbdock.cxx#4 $)

>  <Rbt.Library>
libRbt.so (2013.1, Build901 2013/11/27)

>  <Rbt.Parameter_File>
/export/apps/rDock/src/rDock_2013.1_src/data/scripts/dock_solv.prm

>  <Rbt.Receptor>
prm/pocket_docking_7.prm

>  <SCORE>
-15.0828

>  <SCORE.INTER>
-15.1147

>  <SCORE.INTER.CONST>
1

>  <SCORE.INTER.POLAR>
0

>  <SCORE.INTER.ROT>
4

>  <SCORE.INTER.SOLV>
8.06719

>  <SCORE.INTER.VDW>
-19.0322

>  <SCORE.INTER.norm>
-0.687031

>  <SCORE.INTRA>
0.0318506

>  <SCORE.INTRA.DIHEDRAL>
-0.344169

>  <SCORE.INTRA.DIHEDRAL.0>
2.54655

>  <SCORE.INTRA.POLAR>
0

>  <SCORE.INTRA.POLAR.0>
0

>  <SCORE.INTRA.REPUL>
0

>  <SCORE.INTRA.REPUL.0>
0

>  <SCORE.INTRA.SOLV>
1.80015

>  <SCORE.INTRA.SOLV.lig_0>
-56.4922

>  <SCORE.INTRA.VDW>
-0.69614

>  <SCORE.INTRA.VDW.0>
-0.696801

>  <SCORE.INTRA.norm>
0.00144775

>  <SCORE.RESTR>
0

>  <SCORE.RESTR.CAVITY>
0

>  <SCORE.RESTR.norm>
0

>  <SCORE.SYSTEM>
0

>  <SCORE.SYSTEM.CONST>
0

>  <SCORE.SYSTEM.DIHEDRAL>
0

>  <SCORE.SYSTEM.SOLV>
0

>  <SCORE.SYSTEM.norm>
0

>  <SCORE.heavy>
22

>  <SCORE.norm>
-0.685584

>  <RMSD>
6.236

$$$$
ligand
 OpenBabel02271912143D
libRbt.so/2013.1/901 2013/11/27
 22 24  0  0  0  0  0  0  0  0999 V2000
   20.6671  -19.8839   28.3389 N   0  0  0  0  0  0  0  0  0  0  0  0
   19.8313  -19.4033   26.1472 N   0  0  0  0  0  0  0  0  0  0  0  0
   20.2605  -20.3202   27.0301 C   0  0  0  0  0  0  0  0  0  0  0  0
   20.3209  -21.6123   26.7327 N   0  0  0  0  0  0  0  0  0  0  0  0
   20.8350  -22.6112   22.3912 O   0  0  0  0  0  0  0  0  0  0  0  0
   19.9461  -22.0408   25.5133 C   0  0  0  0  0  0  0  0  0  0  0  0
   19.4980  -21.0961   24.5484 C   0  0  0  0  0  0  0  0  0  0  0  0
   20.0177  -23.3865   25.2309 O   0  0  0  0  0  0  0  0  0  0  0  0
   19.0444  -21.4129   23.2086 N   0  0  0  0  0  0  0  0  0  0  0  0
   17.8860  -20.6587   22.7124 C   0  0  2  0  0  0  0  0  0  0  0  0
   18.1073  -19.1870   22.8721 C   0  0  0  0  0  0  0  0  0  0  0  0
   19.4443  -19.7735   24.9109 C   0  0  0  0  0  0  0  0  0  0  0  0
   18.9935  -18.8160   23.9735 N   0  0  0  0  0  0  0  0  0  0  0  0
   16.5590  -21.0353   23.3959 C   0  0  0  0  0  0  0  0  0  0  0  0
   16.6689  -20.8826   24.8414 N   0  0  0  0  0  0  0  0  0  0  0  0
   13.2418  -20.1521   27.2544 C   0  0  0  0  0  0  0  0  0  0  0  0
   13.1590  -21.0276   26.1847 C   0  0  0  0  0  0  0  0  0  0  0  0
   14.2900  -21.2745   25.3826 C   0  0  0  0  0  0  0  0  0  0  0  0
   15.4898  -20.6383   25.6629 C   0  0  0  0  0  0  0  0  0  0  0  0
   15.5699  -19.7590   26.7387 C   0  0  0  0  0  0  0  0  0  0  0  0
   14.4475  -19.5168   27.5348 C   0  0  0  0  0  0  0  0  0  0  0  0
   19.6334  -22.4033   22.3737 C   0  0  0  0  0  0  0  0  0  0  0  0
  1  3  1  0  0  0  0
  2  3  2  0  0  0  0
  2 12  1  0  0  0  0
  3  4  1  0  0  0  0
  4  6  1  0  0  0  0
  5 22  1  0  0  0  0
  6  7  1  0  0  0  0
  6  8  2  0  0  0  0
  7 12  2  0  0  0  0
  7  9  1  0  0  0  0
  9 10  1  0  0  0  0
  9 22  1  0  0  0  0
 10 11  1  0  0  0  0
 10 14  1  1  0  0  0
 11 13  1  0  0  0  0
 12 13  1  0  0  0  0
 14 15  1  0  0  0  0
 15 19  1  0  0  0  0
 16 17  2  0  0  0  0
 16 21  1  0  0  0  0
 17 18  1  0  0  0  0
 18 19  2  0  0  0  0
 19 20  1  0  0  0  0
 20 21  2  0  0  0  0
M  END
>  <CHROM.1>
-35.15985207,55.76560996,154.77171351,38.64157099,18.03359012,-20.81300008
25.06058590,-0.37561623,-0.09976179,1.29644963

>  <Name>
ligand

>  <RI>
0

>  <Rbt.Current_Directory>
/home/itssahil/PROJECTS/Mol_Feturizer/Test_systems_manuscript/rnas/3sd3

>  <Rbt.Executable>
rbdock ($Id: //depot/dev/client3/rdock/2013.1/src/exe/rbdock.cxx#4 $)

>  <Rbt.Library>
libRbt.so (2013.1, Build901 2013/11/27)

>  <Rbt.Parameter_File>
/export/apps/rDock/src/rDock_2013.1_src/data/scripts/dock_solv.prm

>  <Rbt.Receptor>
prm/pocket_docking_5.prm

>  <SCORE>
-15.2638

>  <SCORE.INTER>
-15.1187

>  <SCORE.INTER.CONST>
1

>  <SCORE.INTER.POLAR>
0

>  <SCORE.INTER.ROT>
4

>  <SCORE.INTER.SOLV>
7.889

>  <SCORE.INTER.VDW>
-18.9754

>  <SCORE.INTER.norm>
-0.687212

>  <SCORE.INTRA>
-0.145092

>  <SCORE.INTRA.DIHEDRAL>
-0.428682

>  <SCORE.INTRA.DIHEDRAL.0>
2.54655

>  <SCORE.INTRA.POLAR>
0

>  <SCORE.INTRA.POLAR.0>
0

>  <SCORE.INTRA.REPUL>
0

>  <SCORE.INTRA.REPUL.0>
0

>  <SCORE.INTRA.SOLV>
1.96629

>  <SCORE.INTRA.SOLV.lig_0>
-56.4922

>  <SCORE.INTRA.VDW>
-0.913894

>  <SCORE.INTRA.VDW.0>
-0.696801

>  <SCORE.INTRA.norm>
-0.00659511

>  <SCORE.RESTR>
0

>  <SCORE.RESTR.CAVITY>
0

>  <SCORE.RESTR.norm>
0

>  <SCORE.SYSTEM>
0

>  <SCORE.SYSTEM.CONST>
0

>  <SCORE.SYSTEM.DIHEDRAL>
0

>  <SCORE.SYSTEM.SOLV>
0

>  <SCORE.SYSTEM.norm>
0

>  <SCORE.heavy>
22

>  <SCORE.norm>
-0.693807

>  <RMSD>
6.237

$$$$
ligand
 OpenBabel02271912143D
libRbt.so/2013.1/901 2013/11/27
 22 24  0  0  0  0  0  0  0  0999 V2000
   20.5714  -19.9988   28.5734 N   0  0  0  0  0  0  0  0  0  0  0  0
   19.8035  -19.4764   26.3665 N   0  0  0  0  0  0  0  0  0  0  0  0
   20.1944  -20.4113   27.2481 C   0  0  0  0  0  0  0  0  0  0  0  0
   20.2437  -21.7002   26.9348 N   0  0  0  0  0  0  0  0  0  0  0  0
   20.8517  -22.6878   22.6343 O   0  0  0  0  0  0  0  0  0  0  0  0
   19.8961  -22.1067   25.6998 C   0  0  0  0  0  0  0  0  0  0  0  0
   19.4889  -21.1424   24.7361 C   0  0  0  0  0  0  0  0  0  0  0  0
   19.9553  -23.4494   25.4010 O   0  0  0  0  0  0  0  0  0  0  0  0
   19.0676  -21.4344   23.3802 N   0  0  0  0  0  0  0  0  0  0  0  0
   17.9346  -20.6560   22.8630 C   0  0  2  0  0  0  0  0  0  0  0  0
   18.1735  -19.1901   23.0488 C   0  0  0  0  0  0  0  0  0  0  0  0
   19.4450  -19.8241   25.1151 C   0  0  0  0  0  0  0  0  0  0  0  0
   19.0346  -18.8475   24.1790 N   0  0  0  0  0  0  0  0  0  0  0  0
   16.5839  -21.0212   23.5048 C   0  0  0  0  0  0  0  0  0  0  0  0
   16.6425  -20.8454   24.9507 N   0  0  0  0  0  0  0  0  0  0  0  0
   13.1255  -20.1285   27.2350 C   0  0  0  0  0  0  0  0  0  0  0  0
   13.0912  -21.0205   26.1764 C   0  0  0  0  0  0  0  0  0  0  0  0
   14.2521  -21.2630   25.4169 C   0  0  0  0  0  0  0  0  0  0  0  0
   15.4328  -20.6059   25.7280 C   0  0  0  0  0  0  0  0  0  0  0  0
   15.4643  -19.7101   26.7927 C   0  0  0  0  0  0  0  0  0  0  0  0
   14.3122  -19.4722   27.5465 C   0  0  0  0  0  0  0  0  0  0  0  0
   19.6644  -22.4225   22.5482 C   0  0  0  0  0  0  0  0  0  0  0  0
  1  3  1  0  0  0  0
  2  3  2  0  0  0  0
  2 12  1  0  0  0  0
  3  4  1  0  0  0  0
  4  6  1  0  0  0  0
  5 22  1  0  0  0  0
  6  7  1  0  0  0  0
  6  8  2  0  0  0  0
  7 12  2  0  0  0  0
  7  9  1  0  0  0  0
  9 10  1  0  0  0  0
  9 22  1  0  0  0  0
 10 11  1  0  0  0  0
 10 14  1  1  0  0  0
 11 13  1  0  0  0  0
 12 13  1  0  0  0  0
 14 15  1  0  0  0  0
 15 19  1  0  0  0  0
 16 17  2  0  0  0  0
 16 21  1  0  0  0  0
 17 18  1  0  0  0  0
 18 19  2  0  0  0  0
 19 20  1  0  0  0  0
 20 21  2  0  0  0  0
M  END
>  <CHROM.1>
-32.10266838,57.70967665,155.62092791,38.61370207,18.00472579,-20.83849054
25.20562058,-0.34201267,-0.12537970,1.30447637

>  <Name>
ligand

>  <RI>
0

>  <Rbt.Current_Directory>
/home/itssahil/PROJECTS/Mol_Feturizer/Test_systems_manuscript/rnas/3sd3

>  <Rbt.Executable>
rbdock ($Id: //depot/dev/client3/rdock/2013.1/src/exe/rbdock.cxx#4 $)

>  <Rbt.Library>
libRbt.so (2013.1, Build901 2013/11/27)

>  <Rbt.Parameter_File>
/export/apps/rDock/src/rDock_2013.1_src/data/scripts/dock_solv.prm

>  <Rbt.Receptor>
prm/pocket_docking_5.prm

>  <SCORE>
-15.3114

>  <SCORE.INTER>
-15.1799

>  <SCORE.INTER.CONST>
1

>  <SCORE.INTER.POLAR>
0

>  <SCORE.INTER.ROT>
4

>  <SCORE.INTER.SOLV>
8.07225

>  <SCORE.INTER.VDW>
-19.0774

>  <SCORE.INTER.norm>
-0.689996

>  <SCORE.INTRA>
-0.131488

>  <SCORE.INTRA.DIHEDRAL>
-0.497797

>  <SCORE.INTRA.DIHEDRAL.0>
2.54655

>  <SCORE.INTRA.POLAR>
0

>  <SCORE.INTRA.POLAR.0>
0

>  <SCORE.INTRA.REPUL>
0

>  <SCORE.INTRA.REPUL.0>
0

>  <SCORE.INTRA.SOLV>
1.9519

>  <SCORE.INTRA.SOLV.lig_0>
-56.4922

>  <SCORE.INTRA.VDW>
-0.858537

>  <SCORE.INTRA.VDW.0>
-0.696801

>  <SCORE.INTRA.norm>
-0.00597672

>  <SCORE.RESTR>
0

>  <SCORE.RESTR.CAVITY>
0

>  <SCORE.RESTR.norm>
0

>  <SCORE.SYSTEM>
0

>  <SCORE.SYSTEM.CONST>
0

>  <SCORE.SYSTEM.DIHEDRAL>
0

>  <SCORE.SYSTEM.SOLV>
0

>  <SCORE.SYSTEM.norm>
0

>  <SCORE.heavy>
22

>  <SCORE.norm>
-0.695973

>  <RMSD>
6.242

$$$$
ligand
 OpenBabel02271912143D
libRbt.so/2013.1/901 2013/11/27
 22 24  0  0  0  0  0  0  0  0999 V2000
   20.6751  -16.1172   25.4513 N   0  0  0  0  0  0  0  0  0  0  0  0
   20.0159  -17.8634   23.9517 N   0  0  0  0  0  0  0  0  0  0  0  0
   20.2372  -17.4668   25.2157 C   0  0  0  0  0  0  0  0  0  0  0  0
   20.0650  -18.2795   26.2510 N   0  0  0  0  0  0  0  0  0  0  0  0
   20.3700  -23.1383   24.6159 O   0  0  0  0  0  0  0  0  0  0  0  0
   19.6568  -19.5464   26.0518 C   0  0  0  0  0  0  0  0  0  0  0  0
   19.4248  -20.0048   24.7249 C   0  0  0  0  0  0  0  0  0  0  0  0
   19.4851  -20.3684   27.1428 O   0  0  0  0  0  0  0  0  0  0  0  0
   18.9641  -21.3303   24.3616 N   0  0  0  0  0  0  0  0  0  0  0  0
   17.9837  -21.4081   23.2708 C   0  0  2  0  0  0  0  0  0  0  0  0
   18.4707  -20.6592   22.0698 C   0  0  0  0  0  0  0  0  0  0  0  0
   19.6072  -19.1206   23.6913 C   0  0  0  0  0  0  0  0  0  0  0  0
   19.3741  -19.5487   22.3642 N   0  0  0  0  0  0  0  0  0  0  0  0
   16.5882  -20.8801   23.6493 C   0  0  0  0  0  0  0  0  0  0  0  0
   16.0585  -21.6136   24.7924 N   0  0  0  0  0  0  0  0  0  0  0  0
   13.2852  -19.8112   27.4684 C   0  0  0  0  0  0  0  0  0  0  0  0
   14.6222  -19.4541   27.5160 C   0  0  0  0  0  0  0  0  0  0  0  0
   15.5452  -20.0462   26.6324 C   0  0  0  0  0  0  0  0  0  0  0  0
   15.1153  -20.9910   25.7129 C   0  0  0  0  0  0  0  0  0  0  0  0
   13.7708  -21.3478   25.6673 C   0  0  0  0  0  0  0  0  0  0  0  0
   12.8560  -20.7577   26.5433 C   0  0  0  0  0  0  0  0  0  0  0  0
   19.3847  -22.5305   24.9997 C   0  0  0  0  0  0  0  0  0  0  0  0
  1  3  1  0  0  0  0
  2  3  2  0  0  0  0
  2 12  1  0  0  0  0
  3  4  1  0  0  0  0
  4  6  1  0  0  0  0
  5 22  1  0  0  0  0
  6  7  1  0  0  0  0
  6  8  2  0  0  0  0
  7 12  2  0  0  0  0
  7  9  1  0  0  0  0
  9 10  1  0  0  0  0
  9 22  1  0  0  0  0
 10 11  1  0  0  0  0
 10 14  1  1  0  0  0
 11 13  1  0  0  0  0
 12 13  1  0  0  0  0
 14 15  1  0  0  0  0
 15 19  1  0  0  0  0
 16 17  2  0  0  0  0
 16 21  1  0  0  0  0
 17 18  1  0  0  0  0
 18 19  2  0  0  0  0
 19 20  1  0  0  0  0
 20 21  2  0  0  0  0
M  END
>  <CHROM.1>
-88.78857851,-57.96739081,151.90068534,-74.43125673,17.92156299,-20.13930253
25.05751896,0.05277072,0.38272147,0.55960480

>  <Name>
ligand

>  <RI>
0

>  <Rbt.Current_Directory>
/home/itssahil/PROJECTS/Mol_Feturizer/Test_systems_manuscript/rnas/3sd3

>  <Rbt.Executable>
rbdock ($Id: //depot/dev/client3/rdock/2013.1/src/exe/rbdock.cxx#4 $)

>  <Rbt.Library>
libRbt.so (2013.1, Build901 2013/11/27)

>  <Rbt.Parameter_File>
/export/apps/rDock/src/rDock_2013.1_src/data/scripts/dock_solv.prm

>  <Rbt.Receptor>
prm/pocket_docking_6.prm

>  <SCORE>
-14.9499

>  <SCORE.INTER>
-13.5383

>  <SCORE.INTER.CONST>
1

>  <SCORE.INTER.POLAR>
0

>  <SCORE.INTER.ROT>
4

>  <SCORE.INTER.SOLV>
9.62297

>  <SCORE.INTER.VDW>
-18.4998

>  <SCORE.INTER.norm>
-0.615376

>  <SCORE.INTRA>
-1.41166

>  <SCORE.INTRA.DIHEDRAL>
-0.325788

>  <SCORE.INTRA.DIHEDRAL.0>
2.54655

>  <SCORE.INTRA.POLAR>
0

>  <SCORE.INTRA.POLAR.0>
0

>  <SCORE.INTRA.REPUL>
0

>  <SCORE.INTRA.REPUL.0>
0

>  <SCORE.INTRA.SOLV>
-0.23712

>  <SCORE.INTRA.SOLV.lig_0>
-56.4922

>  <SCORE.INTRA.VDW>
-1.1302

>  <SCORE.INTRA.VDW.0>
-0.696801

>  <SCORE.INTRA.norm>
-0.0641662

>  <SCORE.RESTR>
0

>  <SCORE.RESTR.CAVITY>
0

>  <SCORE.RESTR.norm>
0

>  <SCORE.SYSTEM>
0

>  <SCORE.SYSTEM.CONST>
0

>  <SCORE.SYSTEM.DIHEDRAL>
0

>  <SCORE.SYSTEM.SOLV>
0

>  <SCORE.SYSTEM.norm>
0

>  <SCORE.heavy>
22

>  <SCORE.norm>
-0.679543

>  <RMSD>
6.245

$$$$
ligand
 OpenBabel02271912143D
libRbt.so/2013.1/901 2013/11/27
 22 24  0  0  0  0  0  0  0  0999 V2000
   20.4276  -15.8462   25.0455 N   0  0  0  0  0  0  0  0  0  0  0  0
   19.8119  -17.7023   23.6639 N   0  0  0  0  0  0  0  0  0  0  0  0
   20.0632  -17.2295   24.8958 C   0  0  0  0  0  0  0  0  0  0  0  0
   19.9861  -17.9973   25.9758 N   0  0  0  0  0  0  0  0  0  0  0  0
   20.3284  -23.0722   24.4292 O   0  0  0  0  0  0  0  0  0  0  0  0
   19.6478  -19.2945   25.8569 C   0  0  0  0  0  0  0  0  0  0  0  0
   19.3869  -19.8326   24.5659 C   0  0  0  0  0  0  0  0  0  0  0  0
   19.5742  -20.0686   26.9931 O   0  0  0  0  0  0  0  0  0  0  0  0
   18.9926  -21.1997   24.2886 N   0  0  0  0  0  0  0  0  0  0  0  0
   17.9725  -21.3905   23.2495 C   0  0  2  0  0  0  0  0  0  0  0  0
   18.3601  -20.6762   21.9925 C   0  0  0  0  0  0  0  0  0  0  0  0
   19.4698  -18.9929   23.4835 C   0  0  0  0  0  0  0  0  0  0  0  0
   19.2059  -19.5009   22.1909 N   0  0  0  0  0  0  0  0  0  0  0  0
   16.5650  -20.9270   23.6665 C   0  0  0  0  0  0  0  0  0  0  0  0
   16.1516  -21.5948   24.8946 N   0  0  0  0  0  0  0  0  0  0  0  0
   13.2193  -19.8657   27.4467 C   0  0  0  0  0  0  0  0  0  0  0  0
   12.8484  -20.8258   26.5203 C   0  0  0  0  0  0  0  0  0  0  0  0
   13.8143  -21.4028   25.6732 C   0  0  0  0  0  0  0  0  0  0  0  0
   15.1403  -21.0077   25.7650 C   0  0  0  0  0  0  0  0  0  0  0  0
   15.5100  -20.0427   26.6973 C   0  0  0  0  0  0  0  0  0  0  0  0
   14.5509  -19.4729   27.5384 C   0  0  0  0  0  0  0  0  0  0  0  0
   19.5132  -22.3391   24.9635 C   0  0  0  0  0  0  0  0  0  0  0  0
  1  3  1  0  0  0  0
  2  3  2  0  0  0  0
  2 12  1  0  0  0  0
  3  4  1  0  0  0  0
  4  6  1  0  0  0  0
  5 22  1  0  0  0  0
  6  7  1  0  0  0  0
  6  8  2  0  0  0  0
  7 12  2  0  0  0  0
  7  9  1  0  0  0  0
  9 10  1  0  0  0  0
  9 22  1  0  0  0  0
 10 11  1  0  0  0  0
 10 14  1  1  0  0  0
 11 13  1  0  0  0  0
 12 13  1  0  0  0  0
 14 15  1  0  0  0  0
 15 19  1  0  0  0  0
 16 17  2  0  0  0  0
 16 21  1  0  0  0  0
 17 18  1  0  0  0  0
 18 19  2  0  0  0  0
 19 20  1  0  0  0  0
 20 21  2  0  0  0  0
M  END
>  <CHROM.1>
-104.45962613,-55.85879106,156.64725150,96.49981613,17.87628656,-20.04453551
24.94772086,0.09362169,0.43363616,0.48512204

>  <Name>
ligand

>  <RI>
0

>  <Rbt.Current_Directory>
/home/itssahil/PROJECTS/Mol_Feturizer/Test_systems_manuscript/rnas/3sd3

>  <Rbt.Executable>
rbdock ($Id: //depot/dev/client3/rdock/2013.1/src/exe/rbdock.cxx#4 $)

>  <Rbt.Library>
libRbt.so (2013.1, Build901 2013/11/27)

>  <Rbt.Parameter_File>
/export/apps/rDock/src/rDock_2013.1_src/data/scripts/dock_solv.prm

>  <Rbt.Receptor>
prm/pocket_docking_6.prm

>  <SCORE>
-14.9213

>  <SCORE.INTER>
-13.5527

>  <SCORE.INTER.CONST>
1

>  <SCORE.INTER.POLAR>
0

>  <SCORE.INTER.ROT>
4

>  <SCORE.INTER.SOLV>
9.17317

>  <SCORE.INTER.VDW>
-18.3595

>  <SCORE.INTER.norm>
-0.616033

>  <SCORE.INTRA>
-1.3686

>  <SCORE.INTRA.DIHEDRAL>
-0.428301

>  <SCORE.INTRA.DIHEDRAL.0>
2.54655

>  <SCORE.INTRA.POLAR>
0

>  <SCORE.INTRA.POLAR.0>
0

>  <SCORE.INTRA.REPUL>
0

>  <SCORE.INTRA.REPUL.0>
0

>  <SCORE.INTRA.SOLV>
-0.211405

>  <SCORE.INTRA.SOLV.lig_0>
-56.4922

>  <SCORE.INTRA.VDW>
-1.04875

>  <SCORE.INTRA.VDW.0>
-0.696801

>  <SCORE.INTRA.norm>
-0.0622091

>  <SCORE.RESTR>
0

>  <SCORE.RESTR.CAVITY>
0

>  <SCORE.RESTR.norm>
0

>  <SCORE.SYSTEM>
0

>  <SCORE.SYSTEM.CONST>
0

>  <SCORE.SYSTEM.DIHEDRAL>
0

>  <SCORE.SYSTEM.SOLV>
0

>  <SCORE.SYSTEM.norm>
0

>  <SCORE.heavy>
22

>  <SCORE.norm>
-0.678242

>  <RMSD>
6.245

$$$$
ligand
 OpenBabel02271912143D
libRbt.so/2013.1/901 2013/11/27
 22 24  0  0  0  0  0  0  0  0999 V2000
   20.6393  -19.8955   28.4809 N   0  0  0  0  0  0  0  0  0  0  0  0
   19.8606  -19.4227   26.2667 N   0  0  0  0  0  0  0  0  0  0  0  0
   20.2556  -20.3377   27.1672 C   0  0  0  0  0  0  0  0  0  0  0  0
   20.3027  -21.6333   26.8829 N   0  0  0  0  0  0  0  0  0  0  0  0
   19.4964  -22.4981   21.3152 O   0  0  0  0  0  0  0  0  0  0  0  0
   19.9488  -22.0674   25.6592 C   0  0  0  0  0  0  0  0  0  0  0  0
   19.5371  -21.1250   24.6760 C   0  0  0  0  0  0  0  0  0  0  0  0
   20.0059  -23.4166   25.3906 O   0  0  0  0  0  0  0  0  0  0  0  0
   19.1089  -21.4474   23.3292 N   0  0  0  0  0  0  0  0  0  0  0  0
   17.9737  -20.6802   22.8002 C   0  0  2  0  0  0  0  0  0  0  0  0
   18.2141  -19.2106   22.9516 C   0  0  0  0  0  0  0  0  0  0  0  0
   19.4957  -19.7984   25.0253 C   0  0  0  0  0  0  0  0  0  0  0  0
   19.0810  -18.8430   24.0694 N   0  0  0  0  0  0  0  0  0  0  0  0
   16.6261  -21.0301   23.4568 C   0  0  0  0  0  0  0  0  0  0  0  0
   16.6914  -20.8197   24.8978 N   0  0  0  0  0  0  0  0  0  0  0  0
   13.1694  -20.2092   27.2052 C   0  0  0  0  0  0  0  0  0  0  0  0
   13.1546  -21.1006   26.1456 C   0  0  0  0  0  0  0  0  0  0  0  0
   14.3173  -21.3080   25.3785 C   0  0  0  0  0  0  0  0  0  0  0  0
   15.4801  -20.6168   25.6831 C   0  0  0  0  0  0  0  0  0  0  0  0
   15.4920  -19.7217   26.7487 C   0  0  0  0  0  0  0  0  0  0  0  0
   14.3382  -19.5187   27.5101 C   0  0  0  0  0  0  0  0  0  0  0  0
   19.7011  -22.4543   22.5167 C   0  0  0  0  0  0  0  0  0  0  0  0
  1  3  1  0  0  0  0
  2  3  2  0  0  0  0
  2 12  1  0  0  0  0
  3  4  1  0  0  0  0
  4  6  1  0  0  0  0
  5 22  1  0  0  0  0
  6  7  1  0  0  0  0
  6  8  2  0  0  0  0
  7 12  2  0  0  0  0
  7  9  1  0  0  0  0
  9 10  1  0  0  0  0
  9 22  1  0  0  0  0
 10 11  1  0  0  0  0
 10 14  1  1  0  0  0
 11 13  1  0  0  0  0
 12 13  1  0  0  0  0
 14 15  1  0  0  0  0
 15 19  1  0  0  0  0
 16 17  2  0  0  0  0
 16 21  1  0  0  0  0
 17 18  1  0  0  0  0
 18 19  2  0  0  0  0
 19 20  1  0  0  0  0
 20 21  2  0  0  0  0
M  END
>  <CHROM.1>
-164.53495321,57.79589977,158.18331141,37.00785936,17.97601781,-20.82359425
25.07880796,-0.39636743,-0.08538302,1.29823700

>  <Name>
ligand

>  <RI>
0

>  <Rbt.Current_Directory>
/home/itssahil/PROJECTS/Mol_Feturizer/Test_systems_manuscript/rnas/3sd3

>  <Rbt.Executable>
rbdock ($Id: //depot/dev/client3/rdock/2013.1/src/exe/rbdock.cxx#4 $)

>  <Rbt.Library>
libRbt.so (2013.1, Build901 2013/11/27)

>  <Rbt.Parameter_File>
/export/apps/rDock/src/rDock_2013.1_src/data/scripts/dock_solv.prm

>  <Rbt.Receptor>
prm/pocket_docking_5.prm

>  <SCORE>
-15.1245

>  <SCORE.INTER>
-15.3572

>  <SCORE.INTER.CONST>
1

>  <SCORE.INTER.POLAR>
0

>  <SCORE.INTER.ROT>
4

>  <SCORE.INTER.SOLV>
8.76944

>  <SCORE.INTER.VDW>
-19.428

>  <SCORE.INTER.norm>
-0.698056

>  <SCORE.INTRA>
0.232758

>  <SCORE.INTRA.DIHEDRAL>
-0.567121

>  <SCORE.INTRA.DIHEDRAL.0>
2.54655

>  <SCORE.INTRA.POLAR>
0

>  <SCORE.INTRA.POLAR.0>
0

>  <SCORE.INTRA.REPUL>
0

>  <SCORE.INTRA.REPUL.0>
0

>  <SCORE.INTRA.SOLV>
1.79394

>  <SCORE.INTRA.SOLV.lig_0>
-56.4922

>  <SCORE.INTRA.VDW>
-0.380653

>  <SCORE.INTRA.VDW.0>
-0.696801

>  <SCORE.INTRA.norm>
0.0105799

>  <SCORE.RESTR>
0

>  <SCORE.RESTR.CAVITY>
0

>  <SCORE.RESTR.norm>
0

>  <SCORE.SYSTEM>
0

>  <SCORE.SYSTEM.CONST>
0

>  <SCORE.SYSTEM.DIHEDRAL>
0

>  <SCORE.SYSTEM.SOLV>
0

>  <SCORE.SYSTEM.norm>
0

>  <SCORE.heavy>
22

>  <SCORE.norm>
-0.687476

>  <RMSD>
6.254

$$$$
ligand
 OpenBabel02271912143D
libRbt.so/2013.1/901 2013/11/27
 22 24  0  0  0  0  0  0  0  0999 V2000
   20.7507  -19.7843   28.3216 N   0  0  0  0  0  0  0  0  0  0  0  0
   19.9346  -19.3634   26.1104 N   0  0  0  0  0  0  0  0  0  0  0  0
   20.3401  -20.2576   27.0269 C   0  0  0  0  0  0  0  0  0  0  0  0
   20.3738  -21.5605   26.7755 N   0  0  0  0  0  0  0  0  0  0  0  0
   20.0611  -22.2731   21.3031 O   0  0  0  0  0  0  0  0  0  0  0  0
   19.9947  -22.0235   25.5700 C   0  0  0  0  0  0  0  0  0  0  0  0
   19.5712  -21.1038   24.5704 C   0  0  0  0  0  0  0  0  0  0  0  0
   20.0383  -23.3794   25.3354 O   0  0  0  0  0  0  0  0  0  0  0  0
   19.1163  -21.4579   23.2404 N   0  0  0  0  0  0  0  0  0  0  0  0
   17.9765  -20.6968   22.7124 C   0  0  2  0  0  0  0  0  0  0  0  0
   18.2291  -19.2255   22.8213 C   0  0  0  0  0  0  0  0  0  0  0  0
   19.5447  -19.7685   24.8859 C   0  0  0  0  0  0  0  0  0  0  0  0
   19.1187  -18.8351   23.9133 N   0  0  0  0  0  0  0  0  0  0  0  0
   16.6389  -21.0204   23.4022 C   0  0  0  0  0  0  0  0  0  0  0  0
   16.7343  -20.7808   24.8369 N   0  0  0  0  0  0  0  0  0  0  0  0
   13.2597  -20.1498   27.2097 C   0  0  0  0  0  0  0  0  0  0  0  0
   13.2168  -21.0329   26.1439 C   0  0  0  0  0  0  0  0  0  0  0  0
   14.3637  -21.2470   25.3552 C   0  0  0  0  0  0  0  0  0  0  0  0
   15.5391  -20.5708   25.6446 C   0  0  0  0  0  0  0  0  0  0  0  0
   15.5793  -19.6840   26.7165 C   0  0  0  0  0  0  0  0  0  0  0  0
   14.4411  -19.4744   27.4994 C   0  0  0  0  0  0  0  0  0  0  0  0
   19.6871  -22.4894   22.4436 C   0  0  0  0  0  0  0  0  0  0  0  0
  1  3  1  0  0  0  0
  2  3  2  0  0  0  0
  2 12  1  0  0  0  0
  3  4  1  0  0  0  0
  4  6  1  0  0  0  0
  5 22  1  0  0  0  0
  6  7  1  0  0  0  0
  6  8  2  0  0  0  0
  7 12  2  0  0  0  0
  7  9  1  0  0  0  0
  9 10  1  0  0  0  0
  9 22  1  0  0  0  0
 10 11  1  0  0  0  0
 10 14  1  1  0  0  0
 11 13  1  0  0  0  0
 12 13  1  0  0  0  0
 14 15  1  0  0  0  0
 15 19  1  0  0  0  0
 16 17  2  0  0  0  0
 16 21  1  0  0  0  0
 17 18  1  0  0  0  0
 18 19  2  0  0  0  0
 19 20  1  0  0  0  0
 20 21  2  0  0  0  0
M  END
>  <CHROM.1>
-127.10627809,57.46724023,159.13608109,35.10284964,18.05346927,-20.77819212
24.99994841,-0.41822476,-0.08092443,1.30593386

>  <Name>
ligand

>  <RI>
0

>  <Rbt.Current_Directory>
/home/itssahil/PROJECTS/Mol_Feturizer/Test_systems_manuscript/rnas/3sd3

>  <Rbt.Executable>
rbdock ($Id: //depot/dev/client3/rdock/2013.1/src/exe/rbdock.cxx#4 $)

>  <Rbt.Library>
libRbt.so (2013.1, Build901 2013/11/27)

>  <Rbt.Parameter_File>
/export/apps/rDock/src/rDock_2013.1_src/data/scripts/dock_solv.prm

>  <Rbt.Receptor>
prm/pocket_docking_4.prm

>  <SCORE>
-15.2139

>  <SCORE.INTER>
-15.1803

>  <SCORE.INTER.CONST>
1

>  <SCORE.INTER.POLAR>
0

>  <SCORE.INTER.ROT>
4

>  <SCORE.INTER.SOLV>
8.00028

>  <SCORE.INTER.VDW>
-19.0536

>  <SCORE.INTER.norm>
-0.690013

>  <SCORE.INTRA>
-0.033569

>  <SCORE.INTRA.DIHEDRAL>
-0.577685

>  <SCORE.INTRA.DIHEDRAL.0>
2.54655

>  <SCORE.INTRA.POLAR>
0

>  <SCORE.INTRA.POLAR.0>
0

>  <SCORE.INTRA.REPUL>
0

>  <SCORE.INTRA.REPUL.0>
0

>  <SCORE.INTRA.SOLV>
1.74645

>  <SCORE.INTRA.SOLV.lig_0>
-56.4922

>  <SCORE.INTRA.VDW>
-0.61795

>  <SCORE.INTRA.VDW.0>
-0.696801

>  <SCORE.INTRA.norm>
-0.00152587

>  <SCORE.RESTR>
0

>  <SCORE.RESTR.CAVITY>
0

>  <SCORE.RESTR.norm>
0

>  <SCORE.SYSTEM>
0

>  <SCORE.SYSTEM.CONST>
0

>  <SCORE.SYSTEM.DIHEDRAL>
0

>  <SCORE.SYSTEM.SOLV>
0

>  <SCORE.SYSTEM.norm>
0

>  <SCORE.heavy>
22

>  <SCORE.norm>
-0.691539

>  <RMSD>
6.257

$$$$
ligand
 OpenBabel02271912143D
libRbt.so/2013.1/901 2013/11/27
 22 24  0  0  0  0  0  0  0  0999 V2000
   20.6987  -19.8858   28.3583 N   0  0  0  0  0  0  0  0  0  0  0  0
   19.8551  -19.4039   26.1699 N   0  0  0  0  0  0  0  0  0  0  0  0
   20.2801  -20.3222   27.0533 C   0  0  0  0  0  0  0  0  0  0  0  0
   20.3258  -21.6159   26.7598 N   0  0  0  0  0  0  0  0  0  0  0  0
   20.6241  -22.1981   21.7734 O   0  0  0  0  0  0  0  0  0  0  0  0
   19.9396  -22.0445   25.5440 C   0  0  0  0  0  0  0  0  0  0  0  0
   19.4954  -21.0984   24.5786 C   0  0  0  0  0  0  0  0  0  0  0  0
   19.9959  -23.3917   25.2656 O   0  0  0  0  0  0  0  0  0  0  0  0
   19.0308  -21.4150   23.2425 N   0  0  0  0  0  0  0  0  0  0  0  0
   17.8772  -20.6507   22.7506 C   0  0  2  0  0  0  0  0  0  0  0  0
   18.1143  -19.1808   22.9041 C   0  0  0  0  0  0  0  0  0  0  0  0
   19.4572  -19.7742   24.9371 C   0  0  0  0  0  0  0  0  0  0  0  0
   19.0107  -18.8152   23.9992 N   0  0  0  0  0  0  0  0  0  0  0  0
   16.5505  -21.0116   23.4429 C   0  0  0  0  0  0  0  0  0  0  0  0
   16.6505  -20.7943   24.8809 N   0  0  0  0  0  0  0  0  0  0  0  0
   13.1561  -20.2384   27.2436 C   0  0  0  0  0  0  0  0  0  0  0  0
   14.3061  -19.5231   27.5329 C   0  0  0  0  0  0  0  0  0  0  0  0
   15.4658  -19.7018   26.7541 C   0  0  0  0  0  0  0  0  0  0  0  0
   15.4578  -20.5975   25.6956 C   0  0  0  0  0  0  0  0  0  0  0  0
   14.3005  -21.3148   25.4072 C   0  0  0  0  0  0  0  0  0  0  0  0
   13.1501  -21.1348   26.1795 C   0  0  0  0  0  0  0  0  0  0  0  0
   19.6049  -22.4139   22.4075 C   0  0  0  0  0  0  0  0  0  0  0  0
  1  3  1  0  0  0  0
  2  3  2  0  0  0  0
  2 12  1  0  0  0  0
  3  4  1  0  0  0  0
  4  6  1  0  0  0  0
  5 22  1  0  0  0  0
  6  7  1  0  0  0  0
  6  8  2  0  0  0  0
  7 12  2  0  0  0  0
  7  9  1  0  0  0  0
  9 10  1  0  0  0  0
  9 22  1  0  0  0  0
 10 11  1  0  0  0  0
 10 14  1  1  0  0  0
 11 13  1  0  0  0  0
 12 13  1  0  0  0  0
 14 15  1  0  0  0  0
 15 19  1  0  0  0  0
 16 17  2  0  0  0  0
 16 21  1  0  0  0  0
 17 18  1  0  0  0  0
 18 19  2  0  0  0  0
 19 20  1  0  0  0  0
 20 21  2  0  0  0  0
M  END
>  <CHROM.1>
-80.21735737,58.47366608,158.04427092,-142.77329440,18.00720739,-20.79161440
25.05059314,-0.38960243,-0.08201581,1.32634688

>  <Name>
ligand

>  <RI>
0

>  <Rbt.Current_Directory>
/home/itssahil/PROJECTS/Mol_Feturizer/Test_systems_manuscript/rnas/3sd3

>  <Rbt.Executable>
rbdock ($Id: //depot/dev/client3/rdock/2013.1/src/exe/rbdock.cxx#4 $)

>  <Rbt.Library>
libRbt.so (2013.1, Build901 2013/11/27)

>  <Rbt.Parameter_File>
/export/apps/rDock/src/rDock_2013.1_src/data/scripts/dock_solv.prm

>  <Rbt.Receptor>
prm/pocket_docking_5.prm

>  <SCORE>
-15.0551

>  <SCORE.INTER>
-14.9234

>  <SCORE.INTER.CONST>
1

>  <SCORE.INTER.POLAR>
0

>  <SCORE.INTER.ROT>
4

>  <SCORE.INTER.SOLV>
7.78014

>  <SCORE.INTER.VDW>
-18.809

>  <SCORE.INTER.norm>
-0.678336

>  <SCORE.INTRA>
-0.131659

>  <SCORE.INTRA.DIHEDRAL>
-0.525346

>  <SCORE.INTRA.DIHEDRAL.0>
2.54655

>  <SCORE.INTRA.POLAR>
0

>  <SCORE.INTRA.POLAR.0>
0

>  <SCORE.INTRA.REPUL>
0

>  <SCORE.INTRA.REPUL.0>
0

>  <SCORE.INTRA.SOLV>
1.75079

>  <SCORE.INTRA.SOLV.lig_0>
-56.4922

>  <SCORE.INTRA.VDW>
-0.74438

>  <SCORE.INTRA.VDW.0>
-0.696801

>  <SCORE.INTRA.norm>
-0.00598449

>  <SCORE.RESTR>
0

>  <SCORE.RESTR.CAVITY>
0

>  <SCORE.RESTR.norm>
0

>  <SCORE.SYSTEM>
0

>  <SCORE.SYSTEM.CONST>
0

>  <SCORE.SYSTEM.DIHEDRAL>
0

>  <SCORE.SYSTEM.SOLV>
0

>  <SCORE.SYSTEM.norm>
0

>  <SCORE.heavy>
22

>  <SCORE.norm>
-0.684321

>  <RMSD>
6.260

$$$$
ligand
 OpenBabel02271912143D
libRbt.so/2013.1/901 2013/11/27
 22 24  0  0  0  0  0  0  0  0999 V2000
   20.6643  -19.9768   28.4380 N   0  0  0  0  0  0  0  0  0  0  0  0
   19.7952  -19.4479   26.2706 N   0  0  0  0  0  0  0  0  0  0  0  0
   20.2549  -20.3814   27.1199 C   0  0  0  0  0  0  0  0  0  0  0  0
   20.3429  -21.6618   26.7813 N   0  0  0  0  0  0  0  0  0  0  0  0
   20.8226  -22.5783   22.4693 O   0  0  0  0  0  0  0  0  0  0  0  0
   19.9659  -22.0607   25.5525 C   0  0  0  0  0  0  0  0  0  0  0  0
   19.4858  -21.0971   24.6222 C   0  0  0  0  0  0  0  0  0  0  0  0
   20.0665  -23.3947   25.2270 O   0  0  0  0  0  0  0  0  0  0  0  0
   19.0261  -21.3826   23.2775 N   0  0  0  0  0  0  0  0  0  0  0  0
   17.8452  -20.6412   22.8163 C   0  0  2  0  0  0  0  0  0  0  0  0
   18.0332  -19.1703   23.0203 C   0  0  0  0  0  0  0  0  0  0  0  0
   19.4044  -19.7882   25.0269 C   0  0  0  0  0  0  0  0  0  0  0  0
   18.9216  -18.8129   24.1245 N   0  0  0  0  0  0  0  0  0  0  0  0
   16.5346  -21.0707   23.5000 C   0  0  0  0  0  0  0  0  0  0  0  0
   16.6201  -20.8653   24.9407 N   0  0  0  0  0  0  0  0  0  0  0  0
   13.1197  -20.1256   27.2431 C   0  0  0  0  0  0  0  0  0  0  0  0
   14.2974  -19.4627   27.5450 C   0  0  0  0  0  0  0  0  0  0  0  0
   15.4594  -19.7023   26.7862 C   0  0  0  0  0  0  0  0  0  0  0  0
   15.4256  -20.6057   25.7348 C   0  0  0  0  0  0  0  0  0  0  0  0
   14.2404  -21.2703   25.4336 C   0  0  0  0  0  0  0  0  0  0  0  0
   13.0880  -21.0298   26.1861 C   0  0  0  0  0  0  0  0  0  0  0  0
   19.6299  -22.3318   22.4061 C   0  0  0  0  0  0  0  0  0  0  0  0
  1  3  1  0  0  0  0
  2  3  2  0  0  0  0
  2 12  1  0  0  0  0
  3  4  1  0  0  0  0
  4  6  1  0  0  0  0
  5 22  1  0  0  0  0
  6  7  1  0  0  0  0
  6  8  2  0  0  0  0
  7 12  2  0  0  0  0
  7  9  1  0  0  0  0
  9 10  1  0  0  0  0
  9 22  1  0  0  0  0
 10 11  1  0  0  0  0
 10 14  1  1  0  0  0
 11 13  1  0  0  0  0
 12 13  1  0  0  0  0
 14 15  1  0  0  0  0
 15 19  1  0  0  0  0
 16 17  2  0  0  0  0
 16 21  1  0  0  0  0
 17 18  1  0  0  0  0
 18 19  2  0  0  0  0
 19 20  1  0  0  0  0
 20 21  2  0  0  0  0
M  END
>  <CHROM.1>
-30.03328407,60.05343613,152.13018804,-141.87026586,17.99638327,-20.81175022
25.13159667,-0.35286769,-0.11290745,1.29926938

>  <Name>
ligand

>  <RI>
0

>  <Rbt.Current_Directory>
/home/itssahil/PROJECTS/Mol_Feturizer/Test_systems_manuscript/rnas/3sd3

>  <Rbt.Executable>
rbdock ($Id: //depot/dev/client3/rdock/2013.1/src/exe/rbdock.cxx#4 $)

>  <Rbt.Library>
libRbt.so (2013.1, Build901 2013/11/27)

>  <Rbt.Parameter_File>
/export/apps/rDock/src/rDock_2013.1_src/data/scripts/dock_solv.prm

>  <Rbt.Receptor>
prm/pocket_docking_6.prm

>  <SCORE>
-15.2178

>  <SCORE.INTER>
-15.1833

>  <SCORE.INTER.CONST>
1

>  <SCORE.INTER.POLAR>
0

>  <SCORE.INTER.ROT>
4

>  <SCORE.INTER.SOLV>
7.89477

>  <SCORE.INTER.VDW>
-19.0205

>  <SCORE.INTER.norm>
-0.690152

>  <SCORE.INTRA>
-0.0344257

>  <SCORE.INTRA.DIHEDRAL>
-0.40552

>  <SCORE.INTRA.DIHEDRAL.0>
2.54655

>  <SCORE.INTRA.POLAR>
0

>  <SCORE.INTRA.POLAR.0>
0

>  <SCORE.INTRA.REPUL>
0

>  <SCORE.INTRA.REPUL.0>
0

>  <SCORE.INTRA.SOLV>
1.92429

>  <SCORE.INTRA.SOLV.lig_0>
-56.4922

>  <SCORE.INTRA.VDW>
-0.793811

>  <SCORE.INTRA.VDW.0>
-0.696801

>  <SCORE.INTRA.norm>
-0.0015648

>  <SCORE.RESTR>
0

>  <SCORE.RESTR.CAVITY>
0

>  <SCORE.RESTR.norm>
0

>  <SCORE.SYSTEM>
0

>  <SCORE.SYSTEM.CONST>
0

>  <SCORE.SYSTEM.DIHEDRAL>
0

>  <SCORE.SYSTEM.SOLV>
0

>  <SCORE.SYSTEM.norm>
0

>  <SCORE.heavy>
22

>  <SCORE.norm>
-0.691717

>  <RMSD>
6.263

$$$$
ligand
 OpenBabel02271912143D
libRbt.so/2013.1/901 2013/11/27
 22 24  0  0  0  0  0  0  0  0999 V2000
   20.5538  -15.8907   24.9901 N   0  0  0  0  0  0  0  0  0  0  0  0
   19.8820  -17.7215   23.6009 N   0  0  0  0  0  0  0  0  0  0  0  0
   20.1654  -17.2666   24.8325 C   0  0  0  0  0  0  0  0  0  0  0  0
   20.0986  -18.0454   25.9053 N   0  0  0  0  0  0  0  0  0  0  0  0
   20.3230  -23.1133   24.2918 O   0  0  0  0  0  0  0  0  0  0  0  0
   19.7383  -19.3359   25.7791 C   0  0  0  0  0  0  0  0  0  0  0  0
   19.4430  -19.8554   24.4878 C   0  0  0  0  0  0  0  0  0  0  0  0
   19.6759  -20.1218   26.9078 O   0  0  0  0  0  0  0  0  0  0  0  0
   19.0224  -21.2131   24.2035 N   0  0  0  0  0  0  0  0  0  0  0  0
   17.9786  -21.3767   23.1834 C   0  0  2  0  0  0  0  0  0  0  0  0
   18.3514  -20.6541   21.9267 C   0  0  0  0  0  0  0  0  0  0  0  0
   19.5167  -19.0047   23.4133 C   0  0  0  0  0  0  0  0  0  0  0  0
   19.2189  -19.4939   22.1208 N   0  0  0  0  0  0  0  0  0  0  0  0
   16.5871  -20.8970   23.6343 C   0  0  0  0  0  0  0  0  0  0  0  0
   16.1860  -21.5767   24.8599 N   0  0  0  0  0  0  0  0  0  0  0  0
   13.2579  -19.8868   27.4428 C   0  0  0  0  0  0  0  0  0  0  0  0
   12.8932  -20.8634   26.5313 C   0  0  0  0  0  0  0  0  0  0  0  0
   13.8578  -21.4275   25.6742 C   0  0  0  0  0  0  0  0  0  0  0  0
   15.1762  -21.0033   25.7411 C   0  0  0  0  0  0  0  0  0  0  0  0
   15.5397  -20.0217   26.6583 C   0  0  0  0  0  0  0  0  0  0  0  0
   14.5819  -19.4646   27.5095 C   0  0  0  0  0  0  0  0  0  0  0  0
   19.5392  -22.3678   24.8549 C   0  0  0  0  0  0  0  0  0  0  0  0
  1  3  1  0  0  0  0
  2  3  2  0  0  0  0
  2 12  1  0  0  0  0
  3  4  1  0  0  0  0
  4  6  1  0  0  0  0
  5 22  1  0  0  0  0
  6  7  1  0  0  0  0
  6  8  2  0  0  0  0
  7 12  2  0  0  0  0
  7  9  1  0  0  0  0
  9 10  1  0  0  0  0
  9 22  1  0  0  0  0
 10 11  1  0  0  0  0
 10 14  1  1  0  0  0
 11 13  1  0  0  0  0
 12 13  1  0  0  0  0
 14 15  1  0  0  0  0
 15 19  1  0  0  0  0
 16 17  2  0  0  0  0
 16 21  1  0  0  0  0
 17 18  1  0  0  0  0
 18 19  2  0  0  0  0
 19 20  1  0  0  0  0
 20 21  2  0  0  0  0
M  END
>  <CHROM.1>
-105.11187002,-56.11133836,158.23175453,97.89554678,17.92373547,-20.05949446
24.88898910,0.08206256,0.43883717,0.50056091

>  <Name>
ligand

>  <RI>
0

>  <Rbt.Current_Directory>
/home/itssahil/PROJECTS/Mol_Feturizer/Test_systems_manuscript/rnas/3sd3

>  <Rbt.Executable>
rbdock ($Id: //depot/dev/client3/rdock/2013.1/src/exe/rbdock.cxx#4 $)

>  <Rbt.Library>
libRbt.so (2013.1, Build901 2013/11/27)

>  <Rbt.Parameter_File>
/export/apps/rDock/src/rDock_2013.1_src/data/scripts/dock_solv.prm

>  <Rbt.Receptor>
prm/pocket_docking_7.prm

>  <SCORE>
-14.9832

>  <SCORE.INTER>
-13.6063

>  <SCORE.INTER.CONST>
1

>  <SCORE.INTER.POLAR>
0

>  <SCORE.INTER.ROT>
4

>  <SCORE.INTER.SOLV>
9.05367

>  <SCORE.INTER.VDW>
-18.3555

>  <SCORE.INTER.norm>
-0.61847

>  <SCORE.INTRA>
-1.37687

>  <SCORE.INTRA.DIHEDRAL>
-0.4825

>  <SCORE.INTRA.DIHEDRAL.0>
2.54655

>  <SCORE.INTRA.POLAR>
0

>  <SCORE.INTRA.POLAR.0>
0

>  <SCORE.INTRA.REPUL>
0

>  <SCORE.INTRA.REPUL.0>
0

>  <SCORE.INTRA.SOLV>
-0.218106

>  <SCORE.INTRA.SOLV.lig_0>
-56.4922

>  <SCORE.INTRA.VDW>
-1.02656

>  <SCORE.INTRA.VDW.0>
-0.696801

>  <SCORE.INTRA.norm>
-0.0625848

>  <SCORE.RESTR>
0

>  <SCORE.RESTR.CAVITY>
0

>  <SCORE.RESTR.norm>
0

>  <SCORE.SYSTEM>
0

>  <SCORE.SYSTEM.CONST>
0

>  <SCORE.SYSTEM.DIHEDRAL>
0

>  <SCORE.SYSTEM.SOLV>
0

>  <SCORE.SYSTEM.norm>
0

>  <SCORE.heavy>
22

>  <SCORE.norm>
-0.681055

>  <RMSD>
6.267

$$$$
ligand
 OpenBabel02271912143D
libRbt.so/2013.1/901 2013/11/27
 22 24  0  0  0  0  0  0  0  0999 V2000
   19.9541  -23.0092   23.0180 N   0  0  0  0  0  0  0  0  0  0  0  0
   19.1217  -22.7066   25.2426 N   0  0  0  0  0  0  0  0  0  0  0  0
   20.0126  -22.3586   24.2995 C   0  0  0  0  0  0  0  0  0  0  0  0
   20.9425  -21.4359   24.5130 N   0  0  0  0  0  0  0  0  0  0  0  0
   22.1028  -20.9880   28.9922 O   0  0  0  0  0  0  0  0  0  0  0  0
   21.0148  -20.8163   25.7055 C   0  0  0  0  0  0  0  0  0  0  0  0
   20.0951  -21.1686   26.7324 C   0  0  0  0  0  0  0  0  0  0  0  0
   21.9882  -19.8624   25.9007 O   0  0  0  0  0  0  0  0  0  0  0  0
   20.0400  -20.5729   28.0527 N   0  0  0  0  0  0  0  0  0  0  0  0
   18.7021  -20.3246   28.6053 C   0  0  2  0  0  0  0  0  0  0  0  0
   17.8656  -21.5641   28.5384 C   0  0  0  0  0  0  0  0  0  0  0  0
   19.1465  -22.1210   26.4557 C   0  0  0  0  0  0  0  0  0  0  0  0
   18.2150  -22.4820   27.4560 N   0  0  0  0  0  0  0  0  0  0  0  0
   17.9440  -19.1795   27.9098 C   0  0  0  0  0  0  0  0  0  0  0  0
   17.3942  -19.6312   26.6375 N   0  0  0  0  0  0  0  0  0  0  0  0
   13.3239  -20.8321   26.3344 C   0  0  0  0  0  0  0  0  0  0  0  0
   14.2643  -21.3534   25.4618 C   0  0  0  0  0  0  0  0  0  0  0  0
   15.6134  -20.9608   25.5574 C   0  0  0  0  0  0  0  0  0  0  0  0
   16.0019  -20.0483   26.5265 C   0  0  0  0  0  0  0  0  0  0  0  0
   15.0545  -19.5261   27.4022 C   0  0  0  0  0  0  0  0  0  0  0  0
   13.7169  -19.9184   27.3074 C   0  0  0  0  0  0  0  0  0  0  0  0
   21.1825  -20.2069   28.8179 C   0  0  0  0  0  0  0  0  0  0  0  0
  1  3  1  0  0  0  0
  2  3  2  0  0  0  0
  2 12  1  0  0  0  0
  3  4  1  0  0  0  0
  4  6  1  0  0  0  0
  5 22  1  0  0  0  0
  6  7  1  0  0  0  0
  6  8  2  0  0  0  0
  7 12  2  0  0  0  0
  7  9  1  0  0  0  0
  9 10  1  0  0  0  0
  9 22  1  0  0  0  0
 10 11  1  0  0  0  0
 10 14  1  6  0  0  0
 11 13  1  0  0  0  0
 12 13  1  0  0  0  0
 14 15  1  0  0  0  0
 15 19  1  0  0  0  0
 16 17  2  0  0  0  0
 16 21  1  0  0  0  0
 17 18  1  0  0  0  0
 18 19  2  0  0  0  0
 19 20  1  0  0  0  0
 20 21  2  0  0  0  0
M  END
>  <CHROM.1>
-49.92356667,77.97318496,97.99887367,-152.99046233,18.50391044,-20.95555232
26.64689587,0.06188080,0.08631576,-2.01805208

>  <Name>
ligand

>  <RI>
0

>  <Rbt.Current_Directory>
/home/itssahil/PROJECTS/Mol_Feturizer/Test_systems_manuscript/rnas/3sd3

>  <Rbt.Executable>
rbdock ($Id: //depot/dev/client3/rdock/2013.1/src/exe/rbdock.cxx#4 $)

>  <Rbt.Library>
libRbt.so (2013.1, Build901 2013/11/27)

>  <Rbt.Parameter_File>
/export/apps/rDock/src/rDock_2013.1_src/data/scripts/dock_solv.prm

>  <Rbt.Receptor>
prm/pocket_docking_3.prm

>  <SCORE>
-12.1101

>  <SCORE.INTER>
-13.0241

>  <SCORE.INTER.CONST>
1

>  <SCORE.INTER.POLAR>
0

>  <SCORE.INTER.ROT>
4

>  <SCORE.INTER.SOLV>
12.7834

>  <SCORE.INTER.VDW>
-19.2105

>  <SCORE.INTER.norm>
-0.592003

>  <SCORE.INTRA>
0.91397

>  <SCORE.INTRA.DIHEDRAL>
1.00847

>  <SCORE.INTRA.DIHEDRAL.0>
2.54655

>  <SCORE.INTRA.POLAR>
0

>  <SCORE.INTRA.POLAR.0>
0

>  <SCORE.INTRA.REPUL>
0

>  <SCORE.INTRA.REPUL.0>
0

>  <SCORE.INTRA.SOLV>
1.97783

>  <SCORE.INTRA.SOLV.lig_0>
-56.4922

>  <SCORE.INTRA.VDW>
-0.579183

>  <SCORE.INTRA.VDW.0>
-0.696801

>  <SCORE.INTRA.norm>
0.0415441

>  <SCORE.RESTR>
0

>  <SCORE.RESTR.CAVITY>
0

>  <SCORE.RESTR.norm>
0

>  <SCORE.SYSTEM>
0

>  <SCORE.SYSTEM.CONST>
0

>  <SCORE.SYSTEM.DIHEDRAL>
0

>  <SCORE.SYSTEM.SOLV>
0

>  <SCORE.SYSTEM.norm>
0

>  <SCORE.heavy>
22

>  <SCORE.norm>
-0.550459

>  <RMSD>
6.271

$$$$
ligand
 OpenBabel02271912143D
libRbt.so/2013.1/901 2013/11/27
 22 24  0  0  0  0  0  0  0  0999 V2000
   20.7302  -20.3320   28.4068 N   0  0  0  0  0  0  0  0  0  0  0  0
   19.8012  -19.5970   26.3259 N   0  0  0  0  0  0  0  0  0  0  0  0
   20.3042  -20.6032   27.0600 C   0  0  0  0  0  0  0  0  0  0  0  0
   20.4201  -21.8361   26.5823 N   0  0  0  0  0  0  0  0  0  0  0  0
   20.1260  -21.5757   21.1630 O   0  0  0  0  0  0  0  0  0  0  0  0
   20.0283  -22.1103   25.3243 C   0  0  0  0  0  0  0  0  0  0  0  0
   19.5024  -21.0661   24.5134 C   0  0  0  0  0  0  0  0  0  0  0  0
   20.1585  -23.3976   24.8536 O   0  0  0  0  0  0  0  0  0  0  0  0
   19.0225  -21.2175   23.1541 N   0  0  0  0  0  0  0  0  0  0  0  0
   17.8122  -20.4656   22.7978 C   0  0  2  0  0  0  0  0  0  0  0  0
   17.9641  -19.0206   23.1576 C   0  0  0  0  0  0  0  0  0  0  0  0
   19.3938  -19.8118   25.0598 C   0  0  0  0  0  0  0  0  0  0  0  0
   18.8655  -18.7591   24.2780 N   0  0  0  0  0  0  0  0  0  0  0  0
   16.5285  -21.0053   23.4541 C   0  0  0  0  0  0  0  0  0  0  0  0
   16.6207  -20.9128   24.9060 N   0  0  0  0  0  0  0  0  0  0  0  0
   13.1810  -20.1622   27.2948 C   0  0  0  0  0  0  0  0  0  0  0  0
   13.1163  -21.0811   26.2608 C   0  0  0  0  0  0  0  0  0  0  0  0
   14.2515  -21.3348   25.4670 C   0  0  0  0  0  0  0  0  0  0  0  0
   15.4374  -20.6619   25.7194 C   0  0  0  0  0  0  0  0  0  0  0  0
   15.4994  -19.7391   26.7594 C   0  0  0  0  0  0  0  0  0  0  0  0
   14.3727  -19.4901   27.5474 C   0  0  0  0  0  0  0  0  0  0  0  0
   19.6335  -22.0483   22.1737 C   0  0  0  0  0  0  0  0  0  0  0  0
  1  3  1  0  0  0  0
  2  3  2  0  0  0  0
  2 12  1  0  0  0  0
  3  4  1  0  0  0  0
  4  6  1  0  0  0  0
  5 22  1  0  0  0  0
  6  7  1  0  0  0  0
  6  8  2  0  0  0  0
  7 12  2  0  0  0  0
  7  9  1  0  0  0  0
  9 10  1  0  0  0  0
  9 22  1  0  0  0  0
 10 11  1  0  0  0  0
 10 14  1  1  0  0  0
 11 13  1  0  0  0  0
 12 13  1  0  0  0  0
 14 15  1  0  0  0  0
 15 19  1  0  0  0  0
 16 17  2  0  0  0  0
 16 21  1  0  0  0  0
 17 18  1  0  0  0  0
 18 19  2  0  0  0  0
 19 20  1  0  0  0  0
 20 21  2  0  0  0  0
M  END
>  <CHROM.1>
-116.08234792,61.98030473,147.12446123,44.22413657,17.97681902,-20.77149837
25.01300686,-0.41266296,-0.11702457,1.43115318

>  <Name>
ligand

>  <RI>
0

>  <Rbt.Current_Directory>
/home/itssahil/PROJECTS/Mol_Feturizer/Test_systems_manuscript/rnas/3sd3

>  <Rbt.Executable>
rbdock ($Id: //depot/dev/client3/rdock/2013.1/src/exe/rbdock.cxx#4 $)

>  <Rbt.Library>
libRbt.so (2013.1, Build901 2013/11/27)

>  <Rbt.Parameter_File>
/export/apps/rDock/src/rDock_2013.1_src/data/scripts/dock_solv.prm

>  <Rbt.Receptor>
prm/pocket_docking_7.prm

>  <SCORE>
-15.2423

>  <SCORE.INTER>
-15.1963

>  <SCORE.INTER.CONST>
1

>  <SCORE.INTER.POLAR>
0

>  <SCORE.INTER.ROT>
4

>  <SCORE.INTER.SOLV>
7.79281

>  <SCORE.INTER.VDW>
-18.9952

>  <SCORE.INTER.norm>
-0.690743

>  <SCORE.INTRA>
-0.0459197

>  <SCORE.INTRA.DIHEDRAL>
-0.198679

>  <SCORE.INTRA.DIHEDRAL.0>
2.54655

>  <SCORE.INTRA.POLAR>
0

>  <SCORE.INTRA.POLAR.0>
0

>  <SCORE.INTRA.REPUL>
0

>  <SCORE.INTRA.REPUL.0>
0

>  <SCORE.INTRA.SOLV>
1.6782

>  <SCORE.INTRA.SOLV.lig_0>
-56.4922

>  <SCORE.INTRA.VDW>
-0.785679

>  <SCORE.INTRA.VDW.0>
-0.696801

>  <SCORE.INTRA.norm>
-0.00208726

>  <SCORE.RESTR>
0

>  <SCORE.RESTR.CAVITY>
0

>  <SCORE.RESTR.norm>
0

>  <SCORE.SYSTEM>
0

>  <SCORE.SYSTEM.CONST>
0

>  <SCORE.SYSTEM.DIHEDRAL>
0

>  <SCORE.SYSTEM.SOLV>
0

>  <SCORE.SYSTEM.norm>
0

>  <SCORE.heavy>
22

>  <SCORE.norm>
-0.69283

>  <RMSD>
6.273

$$$$
ligand
 OpenBabel02271912143D
libRbt.so/2013.1/901 2013/11/27
 22 24  0  0  0  0  0  0  0  0999 V2000
   20.8142  -16.0682   25.3098 N   0  0  0  0  0  0  0  0  0  0  0  0
   20.1178  -17.8240   23.8383 N   0  0  0  0  0  0  0  0  0  0  0  0
   20.3851  -17.4237   25.0923 C   0  0  0  0  0  0  0  0  0  0  0  0
   20.2660  -18.2380   26.1337 N   0  0  0  0  0  0  0  0  0  0  0  0
   20.4637  -23.1802   24.3988 O   0  0  0  0  0  0  0  0  0  0  0  0
   19.8669  -19.5103   25.9513 C   0  0  0  0  0  0  0  0  0  0  0  0
   19.5873  -19.9726   24.6351 C   0  0  0  0  0  0  0  0  0  0  0  0
   19.7507  -20.3339   27.0485 O   0  0  0  0  0  0  0  0  0  0  0  0
   19.1298  -21.3042   24.2909 N   0  0  0  0  0  0  0  0  0  0  0  0
   18.1070  -21.3958   23.2409 C   0  0  2  0  0  0  0  0  0  0  0  0
   18.5346  -20.6412   22.0210 C   0  0  0  0  0  0  0  0  0  0  0  0
   19.7156  -19.0866   23.5948 C   0  0  0  0  0  0  0  0  0  0  0  0
   19.4345  -19.5186   22.2784 N   0  0  0  0  0  0  0  0  0  0  0  0
   16.7211  -20.8862   23.6759 C   0  0  0  0  0  0  0  0  0  0  0  0
   16.2815  -21.5734   24.8840 N   0  0  0  0  0  0  0  0  0  0  0  0
   13.2634  -19.9059   27.3764 C   0  0  0  0  0  0  0  0  0  0  0  0
   12.9283  -20.8606   26.4309 C   0  0  0  0  0  0  0  0  0  0  0  0
   13.9227  -21.4172   25.6034 C   0  0  0  0  0  0  0  0  0  0  0  0
   15.2410  -21.0075   25.7337 C   0  0  0  0  0  0  0  0  0  0  0  0
   15.5747  -20.0479   26.6850 C   0  0  0  0  0  0  0  0  0  0  0  0
   14.5873  -19.4983   27.5066 C   0  0  0  0  0  0  0  0  0  0  0  0
   19.5920  -22.4984   24.9114 C   0  0  0  0  0  0  0  0  0  0  0  0
  1  3  1  0  0  0  0
  2  3  2  0  0  0  0
  2 12  1  0  0  0  0
  3  4  1  0  0  0  0
  4  6  1  0  0  0  0
  5 22  1  0  0  0  0
  6  7  1  0  0  0  0
  6  8  2  0  0  0  0
  7 12  2  0  0  0  0
  7  9  1  0  0  0  0
  9 10  1  0  0  0  0
  9 22  1  0  0  0  0
 10 11  1  0  0  0  0
 10 14  1  1  0  0  0
 11 13  1  0  0  0  0
 12 13  1  0  0  0  0
 14 15  1  0  0  0  0
 15 19  1  0  0  0  0
 16 17  2  0  0  0  0
 16 21  1  0  0  0  0
 17 18  1  0  0  0  0
 18 19  2  0  0  0  0
 19 20  1  0  0  0  0
 20 21  2  0  0  0  0
M  END
>  <CHROM.1>
-97.74305367,-54.75789057,160.25560883,96.67484406,18.04836681,-20.13374171
24.98739246,0.06666156,0.38993577,0.53543923

>  <Name>
ligand

>  <RI>
0

>  <Rbt.Current_Directory>
/home/itssahil/PROJECTS/Mol_Feturizer/Test_systems_manuscript/rnas/3sd3

>  <Rbt.Executable>
rbdock ($Id: //depot/dev/client3/rdock/2013.1/src/exe/rbdock.cxx#4 $)

>  <Rbt.Library>
libRbt.so (2013.1, Build901 2013/11/27)

>  <Rbt.Parameter_File>
/export/apps/rDock/src/rDock_2013.1_src/data/scripts/dock_solv.prm

>  <Rbt.Receptor>
prm/pocket_docking_6.prm

>  <SCORE>
-14.9771

>  <SCORE.INTER>
-13.6075

>  <SCORE.INTER.CONST>
1

>  <SCORE.INTER.POLAR>
0

>  <SCORE.INTER.ROT>
4

>  <SCORE.INTER.SOLV>
8.73084

>  <SCORE.INTER.VDW>
-18.2486

>  <SCORE.INTER.norm>
-0.618521

>  <SCORE.INTRA>
-1.36964

>  <SCORE.INTRA.DIHEDRAL>
-0.487547

>  <SCORE.INTRA.DIHEDRAL.0>
2.54655

>  <SCORE.INTRA.POLAR>
0

>  <SCORE.INTRA.POLAR.0>
0

>  <SCORE.INTRA.REPUL>
0

>  <SCORE.INTRA.REPUL.0>
0

>  <SCORE.INTRA.SOLV>
-0.18096

>  <SCORE.INTRA.SOLV.lig_0>
-56.4922

>  <SCORE.INTRA.VDW>
-1.03539

>  <SCORE.INTRA.VDW.0>
-0.696801

>  <SCORE.INTRA.norm>
-0.0622565

>  <SCORE.RESTR>
0

>  <SCORE.RESTR.CAVITY>
0

>  <SCORE.RESTR.norm>
0

>  <SCORE.SYSTEM>
0

>  <SCORE.SYSTEM.CONST>
0

>  <SCORE.SYSTEM.DIHEDRAL>
0

>  <SCORE.SYSTEM.SOLV>
0

>  <SCORE.SYSTEM.norm>
0

>  <SCORE.heavy>
22

>  <SCORE.norm>
-0.680777

>  <RMSD>
6.280

$$$$
ligand
 OpenBabel02271912143D
libRbt.so/2013.1/901 2013/11/27
 22 24  0  0  0  0  0  0  0  0999 V2000
   20.7744  -20.8791   28.3380 N   0  0  0  0  0  0  0  0  0  0  0  0
   19.7773  -19.8711   26.4086 N   0  0  0  0  0  0  0  0  0  0  0  0
   20.3296  -20.9579   26.9725 C   0  0  0  0  0  0  0  0  0  0  0  0
   20.4774  -22.0988   26.3104 N   0  0  0  0  0  0  0  0  0  0  0  0
   19.3192  -22.8141   21.6337 O   0  0  0  0  0  0  0  0  0  0  0  0
   20.0687  -22.1929   25.0316 C   0  0  0  0  0  0  0  0  0  0  0  0
   19.4906  -21.0577   24.3980 C   0  0  0  0  0  0  0  0  0  0  0  0
   20.2328  -23.3879   24.3679 O   0  0  0  0  0  0  0  0  0  0  0  0
   18.9875  -21.0182   23.0391 N   0  0  0  0  0  0  0  0  0  0  0  0
   17.7451  -20.2662   22.8208 C   0  0  2  0  0  0  0  0  0  0  0  0
   17.8552  -18.8880   23.3945 C   0  0  0  0  0  0  0  0  0  0  0  0
   19.3508  -19.9059   25.1310 C   0  0  0  0  0  0  0  0  0  0  0  0
   18.7706  -18.7667   24.5275 N   0  0  0  0  0  0  0  0  0  0  0  0
   16.4947  -20.9463   23.4070 C   0  0  0  0  0  0  0  0  0  0  0  0
   16.6031  -21.0495   24.8570 N   0  0  0  0  0  0  0  0  0  0  0  0
   13.3361  -20.0439   27.3902 C   0  0  0  0  0  0  0  0  0  0  0  0
   13.1734  -20.9975   26.3994 C   0  0  0  0  0  0  0  0  0  0  0  0
   14.2510  -21.3356   25.5581 C   0  0  0  0  0  0  0  0  0  0  0  0
   15.4784  -20.7112   25.7204 C   0  0  0  0  0  0  0  0  0  0  0  0
   15.6390  -19.7533   26.7172 C   0  0  0  0  0  0  0  0  0  0  0  0
   14.5694  -19.4206   27.5524 C   0  0  0  0  0  0  0  0  0  0  0  0
   19.6057  -21.6673   21.9339 C   0  0  0  0  0  0  0  0  0  0  0  0
  1  3  1  0  0  0  0
  2  3  2  0  0  0  0
  2 12  1  0  0  0  0
  3  4  1  0  0  0  0
  4  6  1  0  0  0  0
  5 22  1  0  0  0  0
  6  7  1  0  0  0  0
  6  8  2  0  0  0  0
  7 12  2  0  0  0  0
  7  9  1  0  0  0  0
  9 10  1  0  0  0  0
  9 22  1  0  0  0  0
 10 11  1  0  0  0  0
 10 14  1  1  0  0  0
 11 13  1  0  0  0  0
 12 13  1  0  0  0  0
 14 15  1  0  0  0  0
 15 19  1  0  0  0  0
 16 17  2  0  0  0  0
 16 21  1  0  0  0  0
 17 18  1  0  0  0  0
 18 19  2  0  0  0  0
 19 20  1  0  0  0  0
 20 21  2  0  0  0  0
M  END
>  <CHROM.1>
89.51482194,63.04841837,135.18374067,55.96994852,17.94677338,-20.86504222
24.99691890,-0.42582301,-0.16965837,1.38148108

>  <Name>
ligand

>  <RI>
0

>  <Rbt.Current_Directory>
/home/itssahil/PROJECTS/Mol_Feturizer/Test_systems_manuscript/rnas/3sd3

>  <Rbt.Executable>
rbdock ($Id: //depot/dev/client3/rdock/2013.1/src/exe/rbdock.cxx#4 $)

>  <Rbt.Library>
libRbt.so (2013.1, Build901 2013/11/27)

>  <Rbt.Parameter_File>
/export/apps/rDock/src/rDock_2013.1_src/data/scripts/dock_solv.prm

>  <Rbt.Receptor>
prm/pocket_docking_5.prm

>  <SCORE>
-15.3512

>  <SCORE.INTER>
-15.226

>  <SCORE.INTER.CONST>
1

>  <SCORE.INTER.POLAR>
0

>  <SCORE.INTER.ROT>
4

>  <SCORE.INTER.SOLV>
9.58542

>  <SCORE.INTER.VDW>
-19.6125

>  <SCORE.INTER.norm>
-0.69209

>  <SCORE.INTRA>
-0.125195

>  <SCORE.INTRA.DIHEDRAL>
0.117655

>  <SCORE.INTRA.DIHEDRAL.0>
2.54655

>  <SCORE.INTRA.POLAR>
0

>  <SCORE.INTRA.POLAR.0>
0

>  <SCORE.INTRA.REPUL>
0

>  <SCORE.INTRA.REPUL.0>
0

>  <SCORE.INTRA.SOLV>
2.00674

>  <SCORE.INTRA.SOLV.lig_0>
-56.4922

>  <SCORE.INTRA.VDW>
-1.18739

>  <SCORE.INTRA.VDW.0>
-0.696801

>  <SCORE.INTRA.norm>
-0.00569069

>  <SCORE.RESTR>
0

>  <SCORE.RESTR.CAVITY>
0

>  <SCORE.RESTR.norm>
0

>  <SCORE.SYSTEM>
0

>  <SCORE.SYSTEM.CONST>
0

>  <SCORE.SYSTEM.DIHEDRAL>
0

>  <SCORE.SYSTEM.SOLV>
0

>  <SCORE.SYSTEM.norm>
0

>  <SCORE.heavy>
22

>  <SCORE.norm>
-0.697781

>  <RMSD>
6.282

$$$$
ligand
 OpenBabel02271912143D
libRbt.so/2013.1/901 2013/11/27
 22 24  0  0  0  0  0  0  0  0999 V2000
   21.0192  -16.1861   25.1906 N   0  0  0  0  0  0  0  0  0  0  0  0
   20.2322  -17.9139   23.7317 N   0  0  0  0  0  0  0  0  0  0  0  0
   20.5504  -17.5293   24.9787 C   0  0  0  0  0  0  0  0  0  0  0  0
   20.4460  -18.3480   26.0182 N   0  0  0  0  0  0  0  0  0  0  0  0
   20.7757  -22.6989   25.1895 O   0  0  0  0  0  0  0  0  0  0  0  0
   20.0105  -19.6090   25.8409 C   0  0  0  0  0  0  0  0  0  0  0  0
   19.6763  -20.0548   24.5317 C   0  0  0  0  0  0  0  0  0  0  0  0
   19.9106  -20.4375   26.9360 O   0  0  0  0  0  0  0  0  0  0  0  0
   19.1755  -21.3726   24.1943 N   0  0  0  0  0  0  0  0  0  0  0  0
   18.1167  -21.4319   23.1783 C   0  0  2  0  0  0  0  0  0  0  0  0
   18.5219  -20.6789   21.9498 C   0  0  0  0  0  0  0  0  0  0  0  0
   19.7917  -19.1647   23.4935 C   0  0  0  0  0  0  0  0  0  0  0  0
   19.4567  -19.5801   22.1844 N   0  0  0  0  0  0  0  0  0  0  0  0
   16.7587  -20.8923   23.6624 C   0  0  0  0  0  0  0  0  0  0  0  0
   16.3657  -21.5432   24.9062 N   0  0  0  0  0  0  0  0  0  0  0  0
   13.3028  -19.9059   27.3637 C   0  0  0  0  0  0  0  0  0  0  0  0
   12.9857  -20.8525   26.4040 C   0  0  0  0  0  0  0  0  0  0  0  0
   13.9950  -21.3991   25.5880 C   0  0  0  0  0  0  0  0  0  0  0  0
   15.3099  -20.9876   25.7438 C   0  0  0  0  0  0  0  0  0  0  0  0
   15.6256  -20.0361   26.7092 C   0  0  0  0  0  0  0  0  0  0  0  0
   14.6234  -19.4964   27.5195 C   0  0  0  0  0  0  0  0  0  0  0  0
   19.6289  -22.5820   24.7913 C   0  0  0  0  0  0  0  0  0  0  0  0
  1  3  1  0  0  0  0
  2  3  2  0  0  0  0
  2 12  1  0  0  0  0
  3  4  1  0  0  0  0
  4  6  1  0  0  0  0
  5 22  1  0  0  0  0
  6  7  1  0  0  0  0
  6  8  2  0  0  0  0
  7 12  2  0  0  0  0
  7  9  1  0  0  0  0
  9 10  1  0  0  0  0
  9 22  1  0  0  0  0
 10 11  1  0  0  0  0
 10 14  1  1  0  0  0
 11 13  1  0  0  0  0
 12 13  1  0  0  0  0
 14 15  1  0  0  0  0
 15 19  1  0  0  0  0
 16 17  2  0  0  0  0
 16 21  1  0  0  0  0
 17 18  1  0  0  0  0
 18 19  2  0  0  0  0
 19 20  1  0  0  0  0
 20 21  2  0  0  0  0
M  END
>  <CHROM.1>
-30.77431213,-52.70440235,164.32850202,92.32169322,18.14197344,-20.15340290
24.96946601,0.04361218,0.37961534,0.57680772

>  <Name>
ligand

>  <RI>
0

>  <Rbt.Current_Directory>
/home/itssahil/PROJECTS/Mol_Feturizer/Test_systems_manuscript/rnas/3sd3

>  <Rbt.Executable>
rbdock ($Id: //depot/dev/client3/rdock/2013.1/src/exe/rbdock.cxx#4 $)

>  <Rbt.Library>
libRbt.so (2013.1, Build901 2013/11/27)

>  <Rbt.Parameter_File>
/export/apps/rDock/src/rDock_2013.1_src/data/scripts/dock_solv.prm

>  <Rbt.Receptor>
prm/pocket_docking_4.prm

>  <SCORE>
-14.7812

>  <SCORE.INTER>
-13.4748

>  <SCORE.INTER.CONST>
1

>  <SCORE.INTER.POLAR>
0

>  <SCORE.INTER.ROT>
4

>  <SCORE.INTER.SOLV>
7.79756

>  <SCORE.INTER.VDW>
-17.8491

>  <SCORE.INTER.norm>
-0.612492

>  <SCORE.INTRA>
-1.30635

>  <SCORE.INTRA.DIHEDRAL>
-0.5513

>  <SCORE.INTRA.DIHEDRAL.0>
2.54655

>  <SCORE.INTRA.POLAR>
0

>  <SCORE.INTRA.POLAR.0>
0

>  <SCORE.INTRA.REPUL>
0

>  <SCORE.INTRA.REPUL.0>
0

>  <SCORE.INTRA.SOLV>
0.0921804

>  <SCORE.INTRA.SOLV.lig_0>
-56.4922

>  <SCORE.INTRA.VDW>
-1.07679

>  <SCORE.INTRA.VDW.0>
-0.696801

>  <SCORE.INTRA.norm>
-0.0593796

>  <SCORE.RESTR>
0

>  <SCORE.RESTR.CAVITY>
0

>  <SCORE.RESTR.norm>
0

>  <SCORE.SYSTEM>
0

>  <SCORE.SYSTEM.CONST>
0

>  <SCORE.SYSTEM.DIHEDRAL>
0

>  <SCORE.SYSTEM.SOLV>
0

>  <SCORE.SYSTEM.norm>
0

>  <SCORE.heavy>
22

>  <SCORE.norm>
-0.671872

>  <RMSD>
6.286

$$$$
ligand
 OpenBabel02271912143D
libRbt.so/2013.1/901 2013/11/27
 22 24  0  0  0  0  0  0  0  0999 V2000
   22.5906  -17.7538   27.2606 N   0  0  0  0  0  0  0  0  0  0  0  0
   21.7376  -19.8017   26.3600 N   0  0  0  0  0  0  0  0  0  0  0  0
   21.5693  -18.7645   27.1966 C   0  0  0  0  0  0  0  0  0  0  0  0
   20.4929  -18.6438   27.9639 N   0  0  0  0  0  0  0  0  0  0  0  0
   18.3830  -22.3749   29.0846 O   0  0  0  0  0  0  0  0  0  0  0  0
   19.5263  -19.5792   27.9197 C   0  0  0  0  0  0  0  0  0  0  0  0
   19.6768  -20.6985   27.0542 C   0  0  0  0  0  0  0  0  0  0  0  0
   18.4198  -19.4298   28.7251 O   0  0  0  0  0  0  0  0  0  0  0  0
   18.7123  -21.7675   26.8863 N   0  0  0  0  0  0  0  0  0  0  0  0
   18.5150  -22.2645   25.5185 C   0  0  2  0  0  0  0  0  0  0  0  0
   19.8273  -22.6198   24.8921 C   0  0  0  0  0  0  0  0  0  0  0  0
   20.8038  -20.7692   26.2741 C   0  0  0  0  0  0  0  0  0  0  0  0
   20.9726  -21.8663   25.3987 N   0  0  0  0  0  0  0  0  0  0  0  0
   17.7801  -21.2747   24.5966 C   0  0  0  0  0  0  0  0  0  0  0  0
   16.3505  -21.5596   24.5794 N   0  0  0  0  0  0  0  0  0  0  0  0
   13.7544  -19.8052   27.4575 C   0  0  0  0  0  0  0  0  0  0  0  0
   13.2661  -20.7539   26.5749 C   0  0  0  0  0  0  0  0  0  0  0  0
   14.1204  -21.3391   25.6204 C   0  0  0  0  0  0  0  0  0  0  0  0
   15.4539  -20.9637   25.5623 C   0  0  0  0  0  0  0  0  0  0  0  0
   15.9419  -20.0101   26.4508 C   0  0  0  0  0  0  0  0  0  0  0  0
   15.0935  -19.4320   27.3986 C   0  0  0  0  0  0  0  0  0  0  0  0
   17.9506  -22.3365   27.9449 C   0  0  0  0  0  0  0  0  0  0  0  0
  1  3  1  0  0  0  0
  2  3  2  0  0  0  0
  2 12  1  0  0  0  0
  3  4  1  0  0  0  0
  4  6  1  0  0  0  0
  5 22  1  0  0  0  0
  6  7  1  0  0  0  0
  6  8  2  0  0  0  0
  7 12  2  0  0  0  0
  7  9  1  0  0  0  0
  9 10  1  0  0  0  0
  9 22  1  0  0  0  0
 10 11  1  0  0  0  0
 10 14  1  6  0  0  0
 11 13  1  0  0  0  0
 12 13  1  0  0  0  0
 14 15  1  0  0  0  0
 15 19  1  0  0  0  0
 16 17  2  0  0  0  0
 16 21  1  0  0  0  0
 17 18  1  0  0  0  0
 18 19  2  0  0  0  0
 19 20  1  0  0  0  0
 20 21  2  0  0  0  0
M  END
>  <CHROM.1>
-29.61443398,-94.51631949,88.03522485,-173.71643969,18.31533550,-20.65468467
26.69780499,0.18755004,0.05147282,0.75946842

>  <Name>
ligand

>  <RI>
0

>  <Rbt.Current_Directory>
/home/itssahil/PROJECTS/Mol_Feturizer/Test_systems_manuscript/rnas/3sd3

>  <Rbt.Executable>
rbdock ($Id: //depot/dev/client3/rdock/2013.1/src/exe/rbdock.cxx#4 $)

>  <Rbt.Library>
libRbt.so (2013.1, Build901 2013/11/27)

>  <Rbt.Parameter_File>
/export/apps/rDock/src/rDock_2013.1_src/data/scripts/dock_solv.prm

>  <Rbt.Receptor>
prm/pocket_docking_7.prm

>  <SCORE>
-14.9969

>  <SCORE.INTER>
-15.0575

>  <SCORE.INTER.CONST>
1

>  <SCORE.INTER.POLAR>
0

>  <SCORE.INTER.ROT>
4

>  <SCORE.INTER.SOLV>
9.54643

>  <SCORE.INTER.VDW>
-19.4872

>  <SCORE.INTER.norm>
-0.684433

>  <SCORE.INTRA>
0.0606441

>  <SCORE.INTRA.DIHEDRAL>
2.79103

>  <SCORE.INTRA.DIHEDRAL.0>
2.54655

>  <SCORE.INTRA.POLAR>
0

>  <SCORE.INTRA.POLAR.0>
0

>  <SCORE.INTRA.REPUL>
0

>  <SCORE.INTRA.REPUL.0>
0

>  <SCORE.INTRA.SOLV>
-0.181525

>  <SCORE.INTRA.SOLV.lig_0>
-56.4922

>  <SCORE.INTRA.VDW>
-1.24411

>  <SCORE.INTRA.VDW.0>
-0.696801

>  <SCORE.INTRA.norm>
0.00275655

>  <SCORE.RESTR>
0

>  <SCORE.RESTR.CAVITY>
0

>  <SCORE.RESTR.norm>
0

>  <SCORE.SYSTEM>
0

>  <SCORE.SYSTEM.CONST>
0

>  <SCORE.SYSTEM.DIHEDRAL>
0

>  <SCORE.SYSTEM.SOLV>
0

>  <SCORE.SYSTEM.norm>
0

>  <SCORE.heavy>
22

>  <SCORE.norm>
-0.681676

>  <RMSD>
6.288

$$$$
ligand
 OpenBabel02271912143D
libRbt.so/2013.1/901 2013/11/27
 22 24  0  0  0  0  0  0  0  0999 V2000
   21.4918  -16.2759   24.6536 N   0  0  0  0  0  0  0  0  0  0  0  0
   20.5342  -18.0798   23.4038 N   0  0  0  0  0  0  0  0  0  0  0  0
   20.9488  -17.6063   24.5904 C   0  0  0  0  0  0  0  0  0  0  0  0
   20.8733  -18.3260   25.7031 N   0  0  0  0  0  0  0  0  0  0  0  0
   19.0813  -23.1488   25.7421 O   0  0  0  0  0  0  0  0  0  0  0  0
   20.3694  -19.5734   25.6651 C   0  0  0  0  0  0  0  0  0  0  0  0
   19.9321  -20.1124   24.4231 C   0  0  0  0  0  0  0  0  0  0  0  0
   20.3015  -20.2983   26.8336 O   0  0  0  0  0  0  0  0  0  0  0  0
   19.3504  -21.4266   24.2348 N   0  0  0  0  0  0  0  0  0  0  0  0
   18.2272  -21.5184   23.2930 C   0  0  2  0  0  0  0  0  0  0  0  0
   18.5876  -20.8958   21.9803 C   0  0  0  0  0  0  0  0  0  0  0  0
   20.0220  -19.3220   23.3047 C   0  0  0  0  0  0  0  0  0  0  0  0
   19.5853  -19.8307   22.0601 N   0  0  0  0  0  0  0  0  0  0  0  0
   16.9293  -20.8697   23.8071 C   0  0  0  0  0  0  0  0  0  0  0  0
   16.5665  -21.4174   25.1085 N   0  0  0  0  0  0  0  0  0  0  0  0
   13.1991  -19.9373   27.2465 C   0  0  0  0  0  0  0  0  0  0  0  0
   14.4629  -19.4421   27.5205 C   0  0  0  0  0  0  0  0  0  0  0  0
   15.5816  -19.9271   26.8157 C   0  0  0  0  0  0  0  0  0  0  0  0
   15.4184  -20.9045   25.8458 C   0  0  0  0  0  0  0  0  0  0  0  0
   14.1470  -21.4001   25.5725 C   0  0  0  0  0  0  0  0  0  0  0  0
   13.0378  -20.9164   26.2711 C   0  0  0  0  0  0  0  0  0  0  0  0
   19.7845  -22.6020   24.9092 C   0  0  0  0  0  0  0  0  0  0  0  0
  1  3  1  0  0  0  0
  2  3  2  0  0  0  0
  2 12  1  0  0  0  0
  3  4  1  0  0  0  0
  4  6  1  0  0  0  0
  5 22  1  0  0  0  0
  6  7  1  0  0  0  0
  6  8  2  0  0  0  0
  7 12  2  0  0  0  0
  7  9  1  0  0  0  0
  9 10  1  0  0  0  0
  9 22  1  0  0  0  0
 10 11  1  0  0  0  0
 10 14  1  1  0  0  0
 11 13  1  0  0  0  0
 12 13  1  0  0  0  0
 14 15  1  0  0  0  0
 15 19  1  0  0  0  0
 16 17  2  0  0  0  0
 16 21  1  0  0  0  0
 17 18  1  0  0  0  0
 18 19  2  0  0  0  0
 19 20  1  0  0  0  0
 20 21  2  0  0  0  0
M  END
>  <CHROM.1>
111.31301704,-54.29876446,176.16339453,-95.28633888,18.22769199,-20.20885316
24.92456551,0.08629749,0.41783032,0.51492624

>  <Name>
ligand

>  <RI>
0

>  <Rbt.Current_Directory>
/home/itssahil/PROJECTS/Mol_Feturizer/Test_systems_manuscript/rnas/3sd3

>  <Rbt.Executable>
rbdock ($Id: //depot/dev/client3/rdock/2013.1/src/exe/rbdock.cxx#4 $)

>  <Rbt.Library>
libRbt.so (2013.1, Build901 2013/11/27)

>  <Rbt.Parameter_File>
/export/apps/rDock/src/rDock_2013.1_src/data/scripts/dock_solv.prm

>  <Rbt.Receptor>
prm/pocket_docking_8.prm

>  <SCORE>
-15.0602

>  <SCORE.INTER>
-13.9817

>  <SCORE.INTER.CONST>
1

>  <SCORE.INTER.POLAR>
0

>  <SCORE.INTER.ROT>
4

>  <SCORE.INTER.SOLV>
7.41919

>  <SCORE.INTER.VDW>
-18.0609

>  <SCORE.INTER.norm>
-0.635531

>  <SCORE.INTRA>
-1.0785

>  <SCORE.INTRA.DIHEDRAL>
-0.789155

>  <SCORE.INTRA.DIHEDRAL.0>
2.54655

>  <SCORE.INTRA.POLAR>
0

>  <SCORE.INTRA.POLAR.0>
0

>  <SCORE.INTRA.REPUL>
0

>  <SCORE.INTRA.REPUL.0>
0

>  <SCORE.INTRA.SOLV>
0.715074

>  <SCORE.INTRA.SOLV.lig_0>
-56.4922

>  <SCORE.INTRA.VDW>
-1.04146

>  <SCORE.INTRA.VDW.0>
-0.696801

>  <SCORE.INTRA.norm>
-0.0490225

>  <SCORE.RESTR>
0

>  <SCORE.RESTR.CAVITY>
0

>  <SCORE.RESTR.norm>
0

>  <SCORE.SYSTEM>
0

>  <SCORE.SYSTEM.CONST>
0

>  <SCORE.SYSTEM.DIHEDRAL>
0

>  <SCORE.SYSTEM.SOLV>
0

>  <SCORE.SYSTEM.norm>
0

>  <SCORE.heavy>
22

>  <SCORE.norm>
-0.684554

>  <RMSD>
6.398

$$$$
ligand
 OpenBabel02271912143D
libRbt.so/2013.1/901 2013/11/27
 22 24  0  0  0  0  0  0  0  0999 V2000
   21.5846  -20.8167   29.1564 N   0  0  0  0  0  0  0  0  0  0  0  0
   21.0573  -19.8124   27.0478 N   0  0  0  0  0  0  0  0  0  0  0  0
   20.9578  -20.8751   27.8632 C   0  0  0  0  0  0  0  0  0  0  0  0
   20.3010  -21.9742   27.5133 N   0  0  0  0  0  0  0  0  0  0  0  0
   19.0934  -21.7844   21.9804 O   0  0  0  0  0  0  0  0  0  0  0  0
   19.7085  -22.0493   26.3073 C   0  0  0  0  0  0  0  0  0  0  0  0
   19.8041  -20.9472   25.4125 C   0  0  0  0  0  0  0  0  0  0  0  0
   19.0329  -23.2004   25.9694 O   0  0  0  0  0  0  0  0  0  0  0  0
   19.2009  -20.8778   24.0962 N   0  0  0  0  0  0  0  0  0  0  0  0
   18.6138  -19.5880   23.7106 C   0  0  2  0  0  0  0  0  0  0  0  0
   19.5992  -18.4792   23.9106 C   0  0  0  0  0  0  0  0  0  0  0  0
   20.4854  -19.8307   25.8280 C   0  0  0  0  0  0  0  0  0  0  0  0
   20.5866  -18.7184   24.9613 N   0  0  0  0  0  0  0  0  0  0  0  0
   17.3201  -19.2413   24.4694 C   0  0  0  0  0  0  0  0  0  0  0  0
   16.5348  -20.4448   24.7145 N   0  0  0  0  0  0  0  0  0  0  0  0
   13.1424  -20.3874   27.2816 C   0  0  0  0  0  0  0  0  0  0  0  0
   14.2567  -19.6264   27.5928 C   0  0  0  0  0  0  0  0  0  0  0  0
   15.3825  -19.6402   26.7468 C   0  0  0  0  0  0  0  0  0  0  0  0
   15.3769  -20.4191   25.5997 C   0  0  0  0  0  0  0  0  0  0  0  0
   14.2556  -21.1828   25.2893 C   0  0  0  0  0  0  0  0  0  0  0  0
   13.1386  -21.1663   26.1286 C   0  0  0  0  0  0  0  0  0  0  0  0
   19.1312  -21.9688   23.1854 C   0  0  0  0  0  0  0  0  0  0  0  0
  1  3  1  0  0  0  0
  2  3  2  0  0  0  0
  2 12  1  0  0  0  0
  3  4  1  0  0  0  0
  4  6  1  0  0  0  0
  5 22  1  0  0  0  0
  6  7  1  0  0  0  0
  6  8  2  0  0  0  0
  7 12  2  0  0  0  0
  7  9  1  0  0  0  0
  9 10  1  0  0  0  0
  9 22  1  0  0  0  0
 10 11  1  0  0  0  0
 10 14  1  1  0  0  0
 11 13  1  0  0  0  0
 12 13  1  0  0  0  0
 14 15  1  0  0  0  0
 15 19  1  0  0  0  0
 16 17  2  0  0  0  0
 16 21  1  0  0  0  0
 17 18  1  0  0  0  0
 18 19  2  0  0  0  0
 19 20  1  0  0  0  0
 20 21  2  0  0  0  0
M  END
>  <CHROM.1>
-152.25496591,-35.77817803,169.99767857,-36.98035066,18.22838335,-20.62020096
25.60392284,-0.00613996,-0.03901715,1.61264020

>  <Name>
ligand

>  <RI>
0

>  <Rbt.Current_Directory>
/home/itssahil/PROJECTS/Mol_Feturizer/Test_systems_manuscript/rnas/3sd3

>  <Rbt.Executable>
rbdock ($Id: //depot/dev/client3/rdock/2013.1/src/exe/rbdock.cxx#4 $)

>  <Rbt.Library>
libRbt.so (2013.1, Build901 2013/11/27)

>  <Rbt.Parameter_File>
/export/apps/rDock/src/rDock_2013.1_src/data/scripts/dock_solv.prm

>  <Rbt.Receptor>
prm/pocket_docking_3.prm

>  <SCORE>
-12.2373

>  <SCORE.INTER>
-12.629

>  <SCORE.INTER.CONST>
1

>  <SCORE.INTER.POLAR>
0

>  <SCORE.INTER.ROT>
4

>  <SCORE.INTER.SOLV>
6.84168

>  <SCORE.INTER.VDW>
-16.9666

>  <SCORE.INTER.norm>
-0.574045

>  <SCORE.INTRA>
0.376746

>  <SCORE.INTRA.DIHEDRAL>
0.992893

>  <SCORE.INTRA.DIHEDRAL.0>
2.54655

>  <SCORE.INTRA.POLAR>
0

>  <SCORE.INTRA.POLAR.0>
0

>  <SCORE.INTRA.REPUL>
0

>  <SCORE.INTRA.REPUL.0>
0

>  <SCORE.INTRA.SOLV>
0.522173

>  <SCORE.INTRA.SOLV.lig_0>
-56.4922

>  <SCORE.INTRA.VDW>
-0.380787

>  <SCORE.INTRA.VDW.0>
-0.696801

>  <SCORE.INTRA.norm>
0.0171248

>  <SCORE.RESTR>
0.0149661

>  <SCORE.RESTR.CAVITY>
0.0149661

>  <SCORE.RESTR.norm>
0.000680279

>  <SCORE.SYSTEM>
0

>  <SCORE.SYSTEM.CONST>
0

>  <SCORE.SYSTEM.DIHEDRAL>
0

>  <SCORE.SYSTEM.SOLV>
0

>  <SCORE.SYSTEM.norm>
0

>  <SCORE.heavy>
22

>  <SCORE.norm>
-0.55624

>  <RMSD>
6.403

$$$$
ligand
 OpenBabel02271912143D
libRbt.so/2013.1/901 2013/11/27
 22 24  0  0  0  0  0  0  0  0999 V2000
   22.6044  -22.2654   27.5520 N   0  0  0  0  0  0  0  0  0  0  0  0
   21.4725  -20.4449   26.4854 N   0  0  0  0  0  0  0  0  0  0  0  0
   21.4517  -21.7288   26.8797 C   0  0  0  0  0  0  0  0  0  0  0  0
   20.4035  -22.5152   26.6684 N   0  0  0  0  0  0  0  0  0  0  0  0
   17.6056  -20.5282   22.7623 O   0  0  0  0  0  0  0  0  0  0  0  0
   19.3156  -22.0326   26.0401 C   0  0  0  0  0  0  0  0  0  0  0  0
   19.3073  -20.6804   25.5972 C   0  0  0  0  0  0  0  0  0  0  0  0
   18.2415  -22.8690   25.8342 O   0  0  0  0  0  0  0  0  0  0  0  0
   18.2026  -20.0209   24.9295 N   0  0  0  0  0  0  0  0  0  0  0  0
   17.9365  -18.6300   25.3188 C   0  0  2  0  0  0  0  0  0  0  0  0
   19.1856  -17.8099   25.2316 C   0  0  0  0  0  0  0  0  0  0  0  0
   20.4125  -19.9074   25.8508 C   0  0  0  0  0  0  0  0  0  0  0  0
   20.4255  -18.5580   25.4295 N   0  0  0  0  0  0  0  0  0  0  0  0
   17.3463  -18.4816   26.7328 C   0  0  0  0  0  0  0  0  0  0  0  0
   16.8001  -19.7524   27.1931 N   0  0  0  0  0  0  0  0  0  0  0  0
   12.7833  -20.8508   26.3215 C   0  0  0  0  0  0  0  0  0  0  0  0
   13.8243  -21.4121   25.6011 C   0  0  0  0  0  0  0  0  0  0  0  0
   15.1562  -21.0535   25.8853 C   0  0  0  0  0  0  0  0  0  0  0  0
   15.4270  -20.1345   26.8878 C   0  0  0  0  0  0  0  0  0  0  0  0
   14.3787  -19.5722   27.6102 C   0  0  0  0  0  0  0  0  0  0  0  0
   13.0579  -19.9307   27.3284 C   0  0  0  0  0  0  0  0  0  0  0  0
   17.3697  -20.6369   23.9539 C   0  0  0  0  0  0  0  0  0  0  0  0
  1  3  1  0  0  0  0
  2  3  2  0  0  0  0
  2 12  1  0  0  0  0
  3  4  1  0  0  0  0
  4  6  1  0  0  0  0
  5 22  1  0  0  0  0
  6  7  1  0  0  0  0
  6  8  2  0  0  0  0
  7 12  2  0  0  0  0
  7  9  1  0  0  0  0
  9 10  1  0  0  0  0
  9 22  1  0  0  0  0
 10 11  1  0  0  0  0
 10 14  1  1  0  0  0
 11 13  1  0  0  0  0
 12 13  1  0  0  0  0
 14 15  1  0  0  0  0
 15 19  1  0  0  0  0
 16 17  2  0  0  0  0
 16 21  1  0  0  0  0
 17 18  1  0  0  0  0
 18 19  2  0  0  0  0
 19 20  1  0  0  0  0
 20 21  2  0  0  0  0
M  END
>  <CHROM.1>
-94.11499378,-17.92344908,-87.37813378,102.54364748,17.94287169,-20.44967358
25.95594897,0.09168471,-0.05106616,2.73473913

>  <Name>
ligand

>  <RI>
0

>  <Rbt.Current_Directory>
/home/itssahil/PROJECTS/Mol_Feturizer/Test_systems_manuscript/rnas/3sd3

>  <Rbt.Executable>
rbdock ($Id: //depot/dev/client3/rdock/2013.1/src/exe/rbdock.cxx#4 $)

>  <Rbt.Library>
libRbt.so (2013.1, Build901 2013/11/27)

>  <Rbt.Parameter_File>
/export/apps/rDock/src/rDock_2013.1_src/data/scripts/dock_solv.prm

>  <Rbt.Receptor>
prm/pocket_docking_2.prm

>  <SCORE>
-10.8109

>  <SCORE.INTER>
-12.2526

>  <SCORE.INTER.CONST>
1

>  <SCORE.INTER.POLAR>
0

>  <SCORE.INTER.ROT>
4

>  <SCORE.INTER.SOLV>
9.86135

>  <SCORE.INTER.VDW>
-17.7222

>  <SCORE.INTER.norm>
-0.556936

>  <SCORE.INTRA>
1.12681

>  <SCORE.INTRA.DIHEDRAL>
3.79784

>  <SCORE.INTRA.DIHEDRAL.0>
2.54655

>  <SCORE.INTRA.POLAR>
0

>  <SCORE.INTRA.POLAR.0>
0

>  <SCORE.INTRA.REPUL>
0

>  <SCORE.INTRA.REPUL.0>
0

>  <SCORE.INTRA.SOLV>
1.18553

>  <SCORE.INTRA.SOLV.lig_0>
-56.4922

>  <SCORE.INTRA.VDW>
-1.36488

>  <SCORE.INTRA.VDW.0>
-0.696801

>  <SCORE.INTRA.norm>
0.0512185

>  <SCORE.RESTR>
0.314898

>  <SCORE.RESTR.CAVITY>
0.314898

>  <SCORE.RESTR.norm>
0.0143135

>  <SCORE.SYSTEM>
0

>  <SCORE.SYSTEM.CONST>
0

>  <SCORE.SYSTEM.DIHEDRAL>
0

>  <SCORE.SYSTEM.SOLV>
0

>  <SCORE.SYSTEM.norm>
0

>  <SCORE.heavy>
22

>  <SCORE.norm>
-0.491404

>  <RMSD>
6.457

$$$$
ligand
 OpenBabel02271912143D
libRbt.so/2013.1/901 2013/11/27
 22 24  0  0  0  0  0  0  0  0999 V2000
   21.6196  -16.2647   24.3404 N   0  0  0  0  0  0  0  0  0  0  0  0
   20.5910  -18.0635   23.1407 N   0  0  0  0  0  0  0  0  0  0  0  0
   21.0599  -17.5892   24.3066 C   0  0  0  0  0  0  0  0  0  0  0  0
   21.0230  -18.3030   25.4250 N   0  0  0  0  0  0  0  0  0  0  0  0
   21.0404  -22.8540   24.7483 O   0  0  0  0  0  0  0  0  0  0  0  0
   20.5043  -19.5449   25.4144 C   0  0  0  0  0  0  0  0  0  0  0  0
   20.0097  -20.0846   24.1943 C   0  0  0  0  0  0  0  0  0  0  0  0
   20.4772  -20.2637   26.5883 O   0  0  0  0  0  0  0  0  0  0  0  0
   19.4063  -21.3931   24.0370 N   0  0  0  0  0  0  0  0  0  0  0  0
   18.2439  -21.4766   23.1433 C   0  0  2  0  0  0  0  0  0  0  0  0
   18.5560  -20.8641   21.8136 C   0  0  0  0  0  0  0  0  0  0  0  0
   20.0615  -19.3004   23.0692 C   0  0  0  0  0  0  0  0  0  0  0  0
   19.5677  -19.8098   21.8464 N   0  0  0  0  0  0  0  0  0  0  0  0
   16.9757  -20.8111   23.7077 C   0  0  0  0  0  0  0  0  0  0  0  0
   16.6566  -21.3551   25.0220 N   0  0  0  0  0  0  0  0  0  0  0  0
   13.3025  -19.9445   27.2269 C   0  0  0  0  0  0  0  0  0  0  0  0
   13.1270  -20.8971   26.2373 C   0  0  0  0  0  0  0  0  0  0  0  0
   14.2332  -21.3689   25.5044 C   0  0  0  0  0  0  0  0  0  0  0  0
   15.5018  -20.8775   25.7725 C   0  0  0  0  0  0  0  0  0  0  0  0
   15.6751  -19.9203   26.7678 C   0  0  0  0  0  0  0  0  0  0  0  0
   14.5769  -19.4548   27.4955 C   0  0  0  0  0  0  0  0  0  0  0  0
   19.8553  -22.5702   24.6986 C   0  0  0  0  0  0  0  0  0  0  0  0
  1  3  1  0  0  0  0
  2  3  2  0  0  0  0
  2 12  1  0  0  0  0
  3  4  1  0  0  0  0
  4  6  1  0  0  0  0
  5 22  1  0  0  0  0
  6  7  1  0  0  0  0
  6  8  2  0  0  0  0
  7 12  2  0  0  0  0
  7  9  1  0  0  0  0
  9 10  1  0  0  0  0
  9 22  1  0  0  0  0
 10 11  1  0  0  0  0
 10 14  1  1  0  0  0
 11 13  1  0  0  0  0
 12 13  1  0  0  0  0
 14 15  1  0  0  0  0
 15 19  1  0  0  0  0
 16 17  2  0  0  0  0
 16 21  1  0  0  0  0
 17 18  1  0  0  0  0
 18 19  2  0  0  0  0
 19 20  1  0  0  0  0
 20 21  2  0  0  0  0
M  END
>  <CHROM.1>
-45.85785948,-54.67101308,179.50821059,81.88093834,18.41055640,-20.16839637
24.70957196,0.03512149,0.40161833,0.48739936

>  <Name>
ligand

>  <RI>
0

>  <Rbt.Current_Directory>
/home/itssahil/PROJECTS/Mol_Feturizer/Test_systems_manuscript/rnas/3sd3

>  <Rbt.Executable>
rbdock ($Id: //depot/dev/client3/rdock/2013.1/src/exe/rbdock.cxx#4 $)

>  <Rbt.Library>
libRbt.so (2013.1, Build901 2013/11/27)

>  <Rbt.Parameter_File>
/export/apps/rDock/src/rDock_2013.1_src/data/scripts/dock_solv.prm

>  <Rbt.Receptor>
prm/pocket_docking_7.prm

>  <SCORE>
-14.7837

>  <SCORE.INTER>
-13.4135

>  <SCORE.INTER.CONST>
1

>  <SCORE.INTER.POLAR>
0

>  <SCORE.INTER.ROT>
4

>  <SCORE.INTER.SOLV>
6.89171

>  <SCORE.INTER.VDW>
-17.5062

>  <SCORE.INTER.norm>
-0.609703

>  <SCORE.INTRA>
-1.3702

>  <SCORE.INTRA.DIHEDRAL>
-0.822687

>  <SCORE.INTRA.DIHEDRAL.0>
2.54655

>  <SCORE.INTRA.POLAR>
0

>  <SCORE.INTRA.POLAR.0>
0

>  <SCORE.INTRA.REPUL>
0

>  <SCORE.INTRA.REPUL.0>
0

>  <SCORE.INTRA.SOLV>
-0.0235737

>  <SCORE.INTRA.SOLV.lig_0>
-56.4922

>  <SCORE.INTRA.VDW>
-0.947072

>  <SCORE.INTRA.VDW.0>
-0.696801

>  <SCORE.INTRA.norm>
-0.0622819

>  <SCORE.RESTR>
0

>  <SCORE.RESTR.CAVITY>
0

>  <SCORE.RESTR.norm>
0

>  <SCORE.SYSTEM>
0

>  <SCORE.SYSTEM.CONST>
0

>  <SCORE.SYSTEM.DIHEDRAL>
0

>  <SCORE.SYSTEM.SOLV>
0

>  <SCORE.SYSTEM.norm>
0

>  <SCORE.heavy>
22

>  <SCORE.norm>
-0.671984

>  <RMSD>
6.460

$$$$
ligand
 OpenBabel02271912143D
libRbt.so/2013.1/901 2013/11/27
 22 24  0  0  0  0  0  0  0  0999 V2000
   21.7337  -16.4318   24.6887 N   0  0  0  0  0  0  0  0  0  0  0  0
   20.6469  -18.0997   23.3583 N   0  0  0  0  0  0  0  0  0  0  0  0
   21.1240  -17.7279   24.5576 C   0  0  0  0  0  0  0  0  0  0  0  0
   21.0506  -18.5173   25.6221 N   0  0  0  0  0  0  0  0  0  0  0  0
   20.9017  -22.9948   24.6454 O   0  0  0  0  0  0  0  0  0  0  0  0
   20.4849  -19.7342   25.5202 C   0  0  0  0  0  0  0  0  0  0  0  0
   19.9801  -20.1664   24.2621 C   0  0  0  0  0  0  0  0  0  0  0  0
   20.4207  -20.5330   26.6397 O   0  0  0  0  0  0  0  0  0  0  0  0
   19.3284  -21.4361   24.0086 N   0  0  0  0  0  0  0  0  0  0  0  0
   18.1710  -21.4109   23.1048 C   0  0  2  0  0  0  0  0  0  0  0  0
   18.5173  -20.7181   21.8240 C   0  0  0  0  0  0  0  0  0  0  0  0
   20.0711  -19.3070   23.1960 C   0  0  0  0  0  0  0  0  0  0  0  0
   19.5683  -19.7088   21.9373 N   0  0  0  0  0  0  0  0  0  0  0  0
   16.9247  -20.7385   23.7083 C   0  0  0  0  0  0  0  0  0  0  0  0
   16.5662  -21.3704   24.9722 N   0  0  0  0  0  0  0  0  0  0  0  0
   13.3020  -19.9345   27.2926 C   0  0  0  0  0  0  0  0  0  0  0  0
   14.5791  -19.4525   27.5252 C   0  0  0  0  0  0  0  0  0  0  0  0
   15.6638  -19.9230   26.7600 C   0  0  0  0  0  0  0  0  0  0  0  0
   15.4537  -20.8728   25.7719 C   0  0  0  0  0  0  0  0  0  0  0  0
   14.1689  -21.3553   25.5403 C   0  0  0  0  0  0  0  0  0  0  0  0
   13.0936  -20.8859   26.2989 C   0  0  0  0  0  0  0  0  0  0  0  0
   19.7266  -22.6737   24.5871 C   0  0  0  0  0  0  0  0  0  0  0  0
  1  3  1  0  0  0  0
  2  3  2  0  0  0  0
  2 12  1  0  0  0  0
  3  4  1  0  0  0  0
  4  6  1  0  0  0  0
  5 22  1  0  0  0  0
  6  7  1  0  0  0  0
  6  8  2  0  0  0  0
  7 12  2  0  0  0  0
  7  9  1  0  0  0  0
  9 10  1  0  0  0  0
  9 22  1  0  0  0  0
 10 11  1  0  0  0  0
 10 14  1  1  0  0  0
 11 13  1  0  0  0  0
 12 13  1  0  0  0  0
 14 15  1  0  0  0  0
 15 19  1  0  0  0  0
 16 17  2  0  0  0  0
 16 21  1  0  0  0  0
 17 18  1  0  0  0  0
 18 19  2  0  0  0  0
 19 20  1  0  0  0  0
 20 21  2  0  0  0  0
M  END
>  <CHROM.1>
-44.47630870,-55.23746054,177.18210894,-91.65340533,18.38211495,-20.21604678
24.76783829,0.00157094,0.37918457,0.56097376

>  <Name>
ligand

>  <RI>
0

>  <Rbt.Current_Directory>
/home/itssahil/PROJECTS/Mol_Feturizer/Test_systems_manuscript/rnas/3sd3

>  <Rbt.Executable>
rbdock ($Id: //depot/dev/client3/rdock/2013.1/src/exe/rbdock.cxx#4 $)

>  <Rbt.Library>
libRbt.so (2013.1, Build901 2013/11/27)

>  <Rbt.Parameter_File>
/export/apps/rDock/src/rDock_2013.1_src/data/scripts/dock_solv.prm

>  <Rbt.Receptor>
prm/pocket_docking_8.prm

>  <SCORE>
-14.8059

>  <SCORE.INTER>
-13.4134

>  <SCORE.INTER.CONST>
1

>  <SCORE.INTER.POLAR>
0

>  <SCORE.INTER.ROT>
4

>  <SCORE.INTER.SOLV>
7.44642

>  <SCORE.INTER.VDW>
-17.691

>  <SCORE.INTER.norm>
-0.609698

>  <SCORE.INTRA>
-1.39252

>  <SCORE.INTRA.DIHEDRAL>
-0.839589

>  <SCORE.INTRA.DIHEDRAL.0>
2.54655

>  <SCORE.INTRA.POLAR>
0

>  <SCORE.INTRA.POLAR.0>
0

>  <SCORE.INTRA.REPUL>
0

>  <SCORE.INTRA.REPUL.0>
0

>  <SCORE.INTRA.SOLV>
-0.0321447

>  <SCORE.INTRA.SOLV.lig_0>
-56.4922

>  <SCORE.INTRA.VDW>
-0.956655

>  <SCORE.INTRA.VDW.0>
-0.696801

>  <SCORE.INTRA.norm>
-0.0632965

>  <SCORE.RESTR>
0

>  <SCORE.RESTR.CAVITY>
0

>  <SCORE.RESTR.norm>
0

>  <SCORE.SYSTEM>
0

>  <SCORE.SYSTEM.CONST>
0

>  <SCORE.SYSTEM.DIHEDRAL>
0

>  <SCORE.SYSTEM.SOLV>
0

>  <SCORE.SYSTEM.norm>
0

>  <SCORE.heavy>
22

>  <SCORE.norm>
-0.672995

>  <RMSD>
6.464

$$$$
ligand
 OpenBabel02271912143D
libRbt.so/2013.1/901 2013/11/27
 22 24  0  0  0  0  0  0  0  0999 V2000
   22.6389  -22.2691   27.5084 N   0  0  0  0  0  0  0  0  0  0  0  0
   21.4839  -20.4469   26.4700 N   0  0  0  0  0  0  0  0  0  0  0  0
   21.4755  -21.7343   26.8533 C   0  0  0  0  0  0  0  0  0  0  0  0
   20.4301  -22.5256   26.6466 N   0  0  0  0  0  0  0  0  0  0  0  0
   17.7690  -21.5379   23.2626 O   0  0  0  0  0  0  0  0  0  0  0  0
   19.3324  -22.0447   26.0343 C   0  0  0  0  0  0  0  0  0  0  0  0
   19.3106  -20.6889   25.6033 C   0  0  0  0  0  0  0  0  0  0  0  0
   18.2615  -22.8863   25.8329 O   0  0  0  0  0  0  0  0  0  0  0  0
   18.1945  -20.0309   24.9532 N   0  0  0  0  0  0  0  0  0  0  0  0
   17.9238  -18.6452   25.3574 C   0  0  2  0  0  0  0  0  0  0  0  0
   19.1665  -17.8162   25.2638 C   0  0  0  0  0  0  0  0  0  0  0  0
   20.4136  -19.9109   25.8515 C   0  0  0  0  0  0  0  0  0  0  0  0
   20.4133  -18.5579   25.4418 N   0  0  0  0  0  0  0  0  0  0  0  0
   17.3481  -18.5127   26.7790 C   0  0  0  0  0  0  0  0  0  0  0  0
   16.7848  -19.7825   27.2211 N   0  0  0  0  0  0  0  0  0  0  0  0
   12.7689  -20.8449   26.3019 C   0  0  0  0  0  0  0  0  0  0  0  0
   13.0275  -19.9255   27.3046 C   0  0  0  0  0  0  0  0  0  0  0  0
   14.3545  -19.5688   27.6131 C   0  0  0  0  0  0  0  0  0  0  0  0
   15.4058  -20.1406   26.9128 C   0  0  0  0  0  0  0  0  0  0  0  0
   15.1428  -21.0642   25.9055 C   0  0  0  0  0  0  0  0  0  0  0  0
   13.8256  -21.4154   25.5992 C   0  0  0  0  0  0  0  0  0  0  0  0
   17.3550  -20.6439   23.9815 C   0  0  0  0  0  0  0  0  0  0  0  0
  1  3  1  0  0  0  0
  2  3  2  0  0  0  0
  2 12  1  0  0  0  0
  3  4  1  0  0  0  0
  4  6  1  0  0  0  0
  5 22  1  0  0  0  0
  6  7  1  0  0  0  0
  6  8  2  0  0  0  0
  7 12  2  0  0  0  0
  7  9  1  0  0  0  0
  9 10  1  0  0  0  0
  9 22  1  0  0  0  0
 10 11  1  0  0  0  0
 10 14  1  1  0  0  0
 11 13  1  0  0  0  0
 12 13  1  0  0  0  0
 14 15  1  0  0  0  0
 15 19  1  0  0  0  0
 16 17  2  0  0  0  0
 16 21  1  0  0  0  0
 17 18  1  0  0  0  0
 18 19  2  0  0  0  0
 19 20  1  0  0  0  0
 20 21  2  0  0  0  0
M  END
>  <CHROM.1>
-28.12353369,-19.35118741,-86.93844196,-76.24146061,17.95025512,-20.51307319
25.98845676,0.10477037,-0.02792708,3.07163095

>  <Name>
ligand

>  <RI>
0

>  <Rbt.Current_Directory>
/home/itssahil/PROJECTS/Mol_Feturizer/Test_systems_manuscript/rnas/3sd3

>  <Rbt.Executable>
rbdock ($Id: //depot/dev/client3/rdock/2013.1/src/exe/rbdock.cxx#4 $)

>  <Rbt.Library>
libRbt.so (2013.1, Build901 2013/11/27)

>  <Rbt.Parameter_File>
/export/apps/rDock/src/rDock_2013.1_src/data/scripts/dock_solv.prm

>  <Rbt.Receptor>
prm/pocket_docking_2.prm

>  <SCORE>
-10.9184

>  <SCORE.INTER>
-12.3027

>  <SCORE.INTER.CONST>
1

>  <SCORE.INTER.POLAR>
0

>  <SCORE.INTER.ROT>
4

>  <SCORE.INTER.SOLV>
9.8586

>  <SCORE.INTER.VDW>
-17.7547

>  <SCORE.INTER.norm>
-0.559215

>  <SCORE.INTRA>
1.07079

>  <SCORE.INTRA.DIHEDRAL>
3.56761

>  <SCORE.INTRA.DIHEDRAL.0>
2.54655

>  <SCORE.INTRA.POLAR>
0

>  <SCORE.INTRA.POLAR.0>
0

>  <SCORE.INTRA.REPUL>
0

>  <SCORE.INTRA.REPUL.0>
0

>  <SCORE.INTRA.SOLV>
1.3748

>  <SCORE.INTRA.SOLV.lig_0>
-56.4922

>  <SCORE.INTRA.VDW>
-1.40041

>  <SCORE.INTRA.VDW.0>
-0.696801

>  <SCORE.INTRA.norm>
0.0486725

>  <SCORE.RESTR>
0.313569

>  <SCORE.RESTR.CAVITY>
0.313569

>  <SCORE.RESTR.norm>
0.0142531

>  <SCORE.SYSTEM>
0

>  <SCORE.SYSTEM.CONST>
0

>  <SCORE.SYSTEM.DIHEDRAL>
0

>  <SCORE.SYSTEM.SOLV>
0

>  <SCORE.SYSTEM.norm>
0

>  <SCORE.heavy>
22

>  <SCORE.norm>
-0.496289

>  <RMSD>
6.481

$$$$
ligand
 OpenBabel02271912143D
libRbt.so/2013.1/901 2013/11/27
 22 24  0  0  0  0  0  0  0  0999 V2000
   22.6451  -22.2298   27.5512 N   0  0  0  0  0  0  0  0  0  0  0  0
   21.4986  -20.4179   26.4858 N   0  0  0  0  0  0  0  0  0  0  0  0
   21.4884  -21.7023   26.8786 C   0  0  0  0  0  0  0  0  0  0  0  0
   20.4471  -22.4974   26.6657 N   0  0  0  0  0  0  0  0  0  0  0  0
   17.8363  -21.5094   23.2130 O   0  0  0  0  0  0  0  0  0  0  0  0
   19.3556  -22.0235   26.0371 C   0  0  0  0  0  0  0  0  0  0  0  0
   19.3361  -20.6710   25.5956 C   0  0  0  0  0  0  0  0  0  0  0  0
   18.2889  -22.8688   25.8295 O   0  0  0  0  0  0  0  0  0  0  0  0
   18.2263  -20.0202   24.9277 N   0  0  0  0  0  0  0  0  0  0  0  0
   17.9480  -18.6321   25.3184 C   0  0  2  0  0  0  0  0  0  0  0  0
   19.1901  -17.8012   25.2330 C   0  0  0  0  0  0  0  0  0  0  0  0
   20.4345  -19.8888   25.8509 C   0  0  0  0  0  0  0  0  0  0  0  0
   20.4363  -18.5388   25.4311 N   0  0  0  0  0  0  0  0  0  0  0  0
   17.3555  -18.4902   26.7321 C   0  0  0  0  0  0  0  0  0  0  0  0
   16.8061  -19.7625   27.1845 N   0  0  0  0  0  0  0  0  0  0  0  0
   12.7806  -20.8456   26.3342 C   0  0  0  0  0  0  0  0  0  0  0  0
   13.0507  -19.9130   27.3215 C   0  0  0  0  0  0  0  0  0  0  0  0
   14.3809  -19.5493   27.6072 C   0  0  0  0  0  0  0  0  0  0  0  0
   15.4239  -20.1276   26.8998 C   0  0  0  0  0  0  0  0  0  0  0  0
   15.1493  -21.0646   25.9079 C   0  0  0  0  0  0  0  0  0  0  0  0
   13.8289  -21.4226   25.6243 C   0  0  0  0  0  0  0  0  0  0  0  0
   17.3995  -20.6422   23.9509 C   0  0  0  0  0  0  0  0  0  0  0  0
  1  3  1  0  0  0  0
  2  3  2  0  0  0  0
  2 12  1  0  0  0  0
  3  4  1  0  0  0  0
  4  6  1  0  0  0  0
  5 22  1  0  0  0  0
  6  7  1  0  0  0  0
  6  8  2  0  0  0  0
  7 12  2  0  0  0  0
  7  9  1  0  0  0  0
  9 10  1  0  0  0  0
  9 22  1  0  0  0  0
 10 11  1  0  0  0  0
 10 14  1  1  0  0  0
 11 13  1  0  0  0  0
 12 13  1  0  0  0  0
 14 15  1  0  0  0  0
 15 19  1  0  0  0  0
 16 17  2  0  0  0  0
 16 21  1  0  0  0  0
 17 18  1  0  0  0  0
 18 19  2  0  0  0  0
 19 20  1  0  0  0  0
 20 21  2  0  0  0  0
M  END
>  <CHROM.1>
-30.62339969,-18.57295456,-88.73915973,-75.51255291,17.97273855,-20.49567937
25.98201993,0.09979514,-0.03135059,3.04182016

>  <Name>
ligand

>  <RI>
0

>  <Rbt.Current_Directory>
/home/itssahil/PROJECTS/Mol_Feturizer/Test_systems_manuscript/rnas/3sd3

>  <Rbt.Executable>
rbdock ($Id: //depot/dev/client3/rdock/2013.1/src/exe/rbdock.cxx#4 $)

>  <Rbt.Library>
libRbt.so (2013.1, Build901 2013/11/27)

>  <Rbt.Parameter_File>
/export/apps/rDock/src/rDock_2013.1_src/data/scripts/dock_solv.prm

>  <Rbt.Receptor>
prm/pocket_docking_2.prm

>  <SCORE>
-11.043

>  <SCORE.INTER>
-12.4051

>  <SCORE.INTER.CONST>
1

>  <SCORE.INTER.POLAR>
0

>  <SCORE.INTER.ROT>
4

>  <SCORE.INTER.SOLV>
9.56442

>  <SCORE.INTER.VDW>
-17.7249

>  <SCORE.INTER.norm>
-0.563867

>  <SCORE.INTRA>
1.02754

>  <SCORE.INTRA.DIHEDRAL>
3.71197

>  <SCORE.INTRA.DIHEDRAL.0>
2.54655

>  <SCORE.INTRA.POLAR>
0

>  <SCORE.INTRA.POLAR.0>
0

>  <SCORE.INTRA.REPUL>
0

>  <SCORE.INTRA.REPUL.0>
0

>  <SCORE.INTRA.SOLV>
1.3725

>  <SCORE.INTRA.SOLV.lig_0>
-56.4922

>  <SCORE.INTRA.VDW>
-1.51469

>  <SCORE.INTRA.VDW.0>
-0.696801

>  <SCORE.INTRA.norm>
0.0467063

>  <SCORE.RESTR>
0.334487

>  <SCORE.RESTR.CAVITY>
0.334487

>  <SCORE.RESTR.norm>
0.0152039

>  <SCORE.SYSTEM>
0

>  <SCORE.SYSTEM.CONST>
0

>  <SCORE.SYSTEM.DIHEDRAL>
0

>  <SCORE.SYSTEM.SOLV>
0

>  <SCORE.SYSTEM.norm>
0

>  <SCORE.heavy>
22

>  <SCORE.norm>
-0.501957

>  <RMSD>
6.481

$$$$
ligand
 OpenBabel02271912143D
libRbt.so/2013.1/901 2013/11/27
 22 24  0  0  0  0  0  0  0  0999 V2000
   21.5087  -22.9544   22.5135 N   0  0  0  0  0  0  0  0  0  0  0  0
   21.2769  -22.4814   24.8492 N   0  0  0  0  0  0  0  0  0  0  0  0
   21.0899  -22.0846   23.5797 C   0  0  0  0  0  0  0  0  0  0  0  0
   20.5325  -20.9180   23.2796 N   0  0  0  0  0  0  0  0  0  0  0  0
   19.0485  -17.5691   26.8942 O   0  0  0  0  0  0  0  0  0  0  0  0
   20.1348  -20.0892   24.2626 C   0  0  0  0  0  0  0  0  0  0  0  0
   20.3287  -20.4713   25.6193 C   0  0  0  0  0  0  0  0  0  0  0  0
   19.5586  -18.8854   23.9241 O   0  0  0  0  0  0  0  0  0  0  0  0
   19.9323  -19.6941   26.7769 N   0  0  0  0  0  0  0  0  0  0  0  0
   19.3675  -20.4421   27.9076 C   0  0  2  0  0  0  0  0  0  0  0  0
   20.2722  -21.5684   28.2992 C   0  0  0  0  0  0  0  0  0  0  0  0
   20.8997  -21.6930   25.8745 C   0  0  0  0  0  0  0  0  0  0  0  0
   21.0945  -22.1002   27.2142 N   0  0  0  0  0  0  0  0  0  0  0  0
   17.9617  -21.0088   27.6389 C   0  0  0  0  0  0  0  0  0  0  0  0
   17.0729  -19.9593   27.1554 N   0  0  0  0  0  0  0  0  0  0  0  0
   12.9849  -20.7784   26.3077 C   0  0  0  0  0  0  0  0  0  0  0  0
   13.3188  -19.9712   27.3822 C   0  0  0  0  0  0  0  0  0  0  0  0
   14.6701  -19.6954   27.6676 C   0  0  0  0  0  0  0  0  0  0  0  0
   15.6698  -20.2346   26.8723 C   0  0  0  0  0  0  0  0  0  0  0  0
   15.3311  -21.0454   25.7929 C   0  0  0  0  0  0  0  0  0  0  0  0
   13.9899  -21.3162   25.5098 C   0  0  0  0  0  0  0  0  0  0  0  0
   20.0404  -18.2783   26.8698 C   0  0  0  0  0  0  0  0  0  0  0  0
  1  3  1  0  0  0  0
  2  3  2  0  0  0  0
  2 12  1  0  0  0  0
  3  4  1  0  0  0  0
  4  6  1  0  0  0  0
  5 22  1  0  0  0  0
  6  7  1  0  0  0  0
  6  8  2  0  0  0  0
  7 12  2  0  0  0  0
  7  9  1  0  0  0  0
  9 10  1  0  0  0  0
  9 22  1  0  0  0  0
 10 11  1  0  0  0  0
 10 14  1  6  0  0  0
 11 13  1  0  0  0  0
 12 13  1  0  0  0  0
 14 15  1  0  0  0  0
 15 19  1  0  0  0  0
 16 17  2  0  0  0  0
 16 21  1  0  0  0  0
 17 18  1  0  0  0  0
 18 19  2  0  0  0  0
 19 20  1  0  0  0  0
 20 21  2  0  0  0  0
M  END
>  <CHROM.1>
111.39526039,-51.88807226,-177.85239428,111.21416517,18.57785587,-20.56040488
26.00271983,0.35650881,-0.02755775,-2.11912649

>  <Name>
ligand

>  <RI>
0

>  <Rbt.Current_Directory>
/home/itssahil/PROJECTS/Mol_Feturizer/Test_systems_manuscript/rnas/3sd3

>  <Rbt.Executable>
rbdock ($Id: //depot/dev/client3/rdock/2013.1/src/exe/rbdock.cxx#4 $)

>  <Rbt.Library>
libRbt.so (2013.1, Build901 2013/11/27)

>  <Rbt.Parameter_File>
/export/apps/rDock/src/rDock_2013.1_src/data/scripts/dock_solv.prm

>  <Rbt.Receptor>
prm/pocket_docking_3.prm

>  <SCORE>
-11.6818

>  <SCORE.INTER>
-10.8251

>  <SCORE.INTER.CONST>
1

>  <SCORE.INTER.POLAR>
0

>  <SCORE.INTER.ROT>
4

>  <SCORE.INTER.SOLV>
6.44079

>  <SCORE.INTER.VDW>
-15.6304

>  <SCORE.INTER.norm>
-0.492051

>  <SCORE.INTRA>
-0.856666

>  <SCORE.INTRA.DIHEDRAL>
-0.677586

>  <SCORE.INTRA.DIHEDRAL.0>
2.54655

>  <SCORE.INTRA.POLAR>
0

>  <SCORE.INTRA.POLAR.0>
0

>  <SCORE.INTRA.REPUL>
0

>  <SCORE.INTRA.REPUL.0>
0

>  <SCORE.INTRA.SOLV>
0.776862

>  <SCORE.INTRA.SOLV.lig_0>
-56.4922

>  <SCORE.INTRA.VDW>
-0.906304

>  <SCORE.INTRA.VDW.0>
-0.696801

>  <SCORE.INTRA.norm>
-0.0389394

>  <SCORE.RESTR>
0

>  <SCORE.RESTR.CAVITY>
0

>  <SCORE.RESTR.norm>
0

>  <SCORE.SYSTEM>
0

>  <SCORE.SYSTEM.CONST>
0

>  <SCORE.SYSTEM.DIHEDRAL>
0

>  <SCORE.SYSTEM.SOLV>
0

>  <SCORE.SYSTEM.norm>
0

>  <SCORE.heavy>
22

>  <SCORE.norm>
-0.530991

>  <RMSD>
6.484

$$$$
ligand
 OpenBabel02271912143D
libRbt.so/2013.1/901 2013/11/27
 22 24  0  0  0  0  0  0  0  0999 V2000
   23.5288  -18.9217   26.3427 N   0  0  0  0  0  0  0  0  0  0  0  0
   21.9725  -20.7407   26.2980 N   0  0  0  0  0  0  0  0  0  0  0  0
   22.2195  -19.4565   26.6044 C   0  0  0  0  0  0  0  0  0  0  0  0
   21.2955  -18.6683   27.1399 N   0  0  0  0  0  0  0  0  0  0  0  0
   18.0181  -21.1482   29.5470 O   0  0  0  0  0  0  0  0  0  0  0  0
   20.0647  -19.1497   27.3936 C   0  0  0  0  0  0  0  0  0  0  0  0
   19.7711  -20.5092   27.0935 C   0  0  0  0  0  0  0  0  0  0  0  0
   19.1245  -18.3109   27.9485 O   0  0  0  0  0  0  0  0  0  0  0  0
   18.4891  -21.1563   27.2913 N   0  0  0  0  0  0  0  0  0  0  0  0
   18.0564  -22.0896   26.2431 C   0  0  2  0  0  0  0  0  0  0  0  0
   19.1283  -23.0943   25.9564 C   0  0  0  0  0  0  0  0  0  0  0  0
   20.7590  -21.2778   26.5306 C   0  0  0  0  0  0  0  0  0  0  0  0
   20.4897  -22.6291   26.2141 N   0  0  0  0  0  0  0  0  0  0  0  0
   17.6580  -21.4030   24.9242 C   0  0  0  0  0  0  0  0  0  0  0  0
   16.8883  -20.1941   25.1912 N   0  0  0  0  0  0  0  0  0  0  0  0
   13.0640  -20.4117   27.0428 C   0  0  0  0  0  0  0  0  0  0  0  0
   14.0253  -19.5499   27.5434 C   0  0  0  0  0  0  0  0  0  0  0  0
   15.2929  -19.4723   26.9346 C   0  0  0  0  0  0  0  0  0  0  0  0
   15.5807  -20.2621   25.8318 C   0  0  0  0  0  0  0  0  0  0  0  0
   14.6124  -21.1273   25.3308 C   0  0  0  0  0  0  0  0  0  0  0  0
   13.3546  -21.2014   25.9347 C   0  0  0  0  0  0  0  0  0  0  0  0
   17.6382  -20.9294   28.4090 C   0  0  0  0  0  0  0  0  0  0  0  0
  1  3  1  0  0  0  0
  2  3  2  0  0  0  0
  2 12  1  0  0  0  0
  3  4  1  0  0  0  0
  4  6  1  0  0  0  0
  5 22  1  0  0  0  0
  6  7  1  0  0  0  0
  6  8  2  0  0  0  0
  7 12  2  0  0  0  0
  7  9  1  0  0  0  0
  9 10  1  0  0  0  0
  9 22  1  0  0  0  0
 10 11  1  0  0  0  0
 10 14  1  6  0  0  0
 11 13  1  0  0  0  0
 12 13  1  0  0  0  0
 14 15  1  0  0  0  0
 15 19  1  0  0  0  0
 16 17  2  0  0  0  0
 16 21  1  0  0  0  0
 17 18  1  0  0  0  0
 18 19  2  0  0  0  0
 19 20  1  0  0  0  0
 20 21  2  0  0  0  0
M  END
>  <CHROM.1>
-59.26147145,-41.32617472,-64.52502476,129.10157881,18.32676510,-20.53586158
26.75134185,0.08554066,0.01667890,0.57961983

>  <Name>
ligand

>  <RI>
0

>  <Rbt.Current_Directory>
/home/itssahil/PROJECTS/Mol_Feturizer/Test_systems_manuscript/rnas/3sd3

>  <Rbt.Executable>
rbdock ($Id: //depot/dev/client3/rdock/2013.1/src/exe/rbdock.cxx#4 $)

>  <Rbt.Library>
libRbt.so (2013.1, Build901 2013/11/27)

>  <Rbt.Parameter_File>
/export/apps/rDock/src/rDock_2013.1_src/data/scripts/dock_solv.prm

>  <Rbt.Receptor>
prm/pocket_docking_6.prm

>  <SCORE>
-16.8688

>  <SCORE.INTER>
-15.7955

>  <SCORE.INTER.CONST>
1

>  <SCORE.INTER.POLAR>
0

>  <SCORE.INTER.ROT>
4

>  <SCORE.INTER.SOLV>
8.52661

>  <SCORE.INTER.VDW>
-19.6392

>  <SCORE.INTER.norm>
-0.717977

>  <SCORE.INTRA>
-1.07327

>  <SCORE.INTRA.DIHEDRAL>
0.272228

>  <SCORE.INTRA.DIHEDRAL.0>
2.54655

>  <SCORE.INTRA.POLAR>
0

>  <SCORE.INTRA.POLAR.0>
0

>  <SCORE.INTRA.REPUL>
0

>  <SCORE.INTRA.REPUL.0>
0

>  <SCORE.INTRA.SOLV>
0.436648

>  <SCORE.INTRA.SOLV.lig_0>
-56.4922

>  <SCORE.INTRA.VDW>
-1.42771

>  <SCORE.INTRA.VDW.0>
-0.696801

>  <SCORE.INTRA.norm>
-0.0487852

>  <SCORE.RESTR>
0

>  <SCORE.RESTR.CAVITY>
0

>  <SCORE.RESTR.norm>
0

>  <SCORE.SYSTEM>
0

>  <SCORE.SYSTEM.CONST>
0

>  <SCORE.SYSTEM.DIHEDRAL>
0

>  <SCORE.SYSTEM.SOLV>
0

>  <SCORE.SYSTEM.norm>
0

>  <SCORE.heavy>
22

>  <SCORE.norm>
-0.766762

>  <RMSD>
6.485

$$$$
ligand
 OpenBabel02271912143D
libRbt.so/2013.1/901 2013/11/27
 22 24  0  0  0  0  0  0  0  0999 V2000
   22.6763  -22.3750   27.3327 N   0  0  0  0  0  0  0  0  0  0  0  0
   21.5006  -20.5100   26.3987 N   0  0  0  0  0  0  0  0  0  0  0  0
   21.4990  -21.8123   26.7276 C   0  0  0  0  0  0  0  0  0  0  0  0
   20.4479  -22.5935   26.5120 N   0  0  0  0  0  0  0  0  0  0  0  0
   17.7399  -21.3696   23.1551 O   0  0  0  0  0  0  0  0  0  0  0  0
   19.3371  -22.0866   25.9459 C   0  0  0  0  0  0  0  0  0  0  0  0
   19.3076  -20.7139   25.5729 C   0  0  0  0  0  0  0  0  0  0  0  0
   18.2606  -22.9183   25.7340 O   0  0  0  0  0  0  0  0  0  0  0  0
   18.1779  -20.0284   24.9771 N   0  0  0  0  0  0  0  0  0  0  0  0
   17.9188  -18.6607   25.4453 C   0  0  2  0  0  0  0  0  0  0  0  0
   19.1604  -17.8293   25.3580 C   0  0  0  0  0  0  0  0  0  0  0  0
   20.4173  -19.9477   25.8282 C   0  0  0  0  0  0  0  0  0  0  0  0
   20.4098  -18.5786   25.4759 N   0  0  0  0  0  0  0  0  0  0  0  0
   17.3762  -18.5878   26.8841 C   0  0  0  0  0  0  0  0  0  0  0  0
   16.7980  -19.8673   27.2762 N   0  0  0  0  0  0  0  0  0  0  0  0
   12.7617  -20.8240   26.3303 C   0  0  0  0  0  0  0  0  0  0  0  0
   13.7954  -21.4202   25.6276 C   0  0  0  0  0  0  0  0  0  0  0  0
   15.1336  -21.1086   25.9364 C   0  0  0  0  0  0  0  0  0  0  0  0
   15.4181  -20.2010   26.9454 C   0  0  0  0  0  0  0  0  0  0  0  0
   14.3771  -19.6035   27.6500 C   0  0  0  0  0  0  0  0  0  0  0  0
   13.0500  -19.9154   27.3438 C   0  0  0  0  0  0  0  0  0  0  0  0
   17.3153  -20.5994   24.0000 C   0  0  0  0  0  0  0  0  0  0  0  0
  1  3  1  0  0  0  0
  2  3  2  0  0  0  0
  2 12  1  0  0  0  0
  3  4  1  0  0  0  0
  4  6  1  0  0  0  0
  5 22  1  0  0  0  0
  6  7  1  0  0  0  0
  6  8  2  0  0  0  0
  7 12  2  0  0  0  0
  7  9  1  0  0  0  0
  9 10  1  0  0  0  0
  9 22  1  0  0  0  0
 10 11  1  0  0  0  0
 10 14  1  1  0  0  0
 11 13  1  0  0  0  0
 12 13  1  0  0  0  0
 14 15  1  0  0  0  0
 15 19  1  0  0  0  0
 16 17  2  0  0  0  0
 16 21  1  0  0  0  0
 17 18  1  0  0  0  0
 18 19  2  0  0  0  0
 19 20  1  0  0  0  0
 20 21  2  0  0  0  0
M  END
>  <CHROM.1>
-35.03890902,-20.44228271,-85.03970228,105.54930570,17.95228899,-20.53688111
25.97568324,0.11399223,-0.04087302,3.11726774

>  <Name>
ligand

>  <RI>
0

>  <Rbt.Current_Directory>
/home/itssahil/PROJECTS/Mol_Feturizer/Test_systems_manuscript/rnas/3sd3

>  <Rbt.Executable>
rbdock ($Id: //depot/dev/client3/rdock/2013.1/src/exe/rbdock.cxx#4 $)

>  <Rbt.Library>
libRbt.so (2013.1, Build901 2013/11/27)

>  <Rbt.Parameter_File>
/export/apps/rDock/src/rDock_2013.1_src/data/scripts/dock_solv.prm

>  <Rbt.Receptor>
prm/pocket_docking_2.prm

>  <SCORE>
-10.8607

>  <SCORE.INTER>
-12.1226

>  <SCORE.INTER.CONST>
1

>  <SCORE.INTER.POLAR>
0

>  <SCORE.INTER.ROT>
4

>  <SCORE.INTER.SOLV>
10.1666

>  <SCORE.INTER.VDW>
-17.7373

>  <SCORE.INTER.norm>
-0.551028

>  <SCORE.INTRA>
0.944707

>  <SCORE.INTRA.DIHEDRAL>
3.38286

>  <SCORE.INTRA.DIHEDRAL.0>
2.54655

>  <SCORE.INTRA.POLAR>
0

>  <SCORE.INTRA.POLAR.0>
0

>  <SCORE.INTRA.REPUL>
0

>  <SCORE.INTRA.REPUL.0>
0

>  <SCORE.INTRA.SOLV>
1.30101

>  <SCORE.INTRA.SOLV.lig_0>
-56.4922

>  <SCORE.INTRA.VDW>
-1.39723

>  <SCORE.INTRA.VDW.0>
-0.696801

>  <SCORE.INTRA.norm>
0.0429412

>  <SCORE.RESTR>
0.317252

>  <SCORE.RESTR.CAVITY>
0.317252

>  <SCORE.RESTR.norm>
0.0144205

>  <SCORE.SYSTEM>
0

>  <SCORE.SYSTEM.CONST>
0

>  <SCORE.SYSTEM.DIHEDRAL>
0

>  <SCORE.SYSTEM.SOLV>
0

>  <SCORE.SYSTEM.norm>
0

>  <SCORE.heavy>
22

>  <SCORE.norm>
-0.493667

>  <RMSD>
6.487

$$$$
ligand
 OpenBabel02271912143D
libRbt.so/2013.1/901 2013/11/27
 22 24  0  0  0  0  0  0  0  0999 V2000
   23.5686  -18.9424   26.5984 N   0  0  0  0  0  0  0  0  0  0  0  0
   22.0073  -20.7533   26.4718 N   0  0  0  0  0  0  0  0  0  0  0  0
   22.2501  -19.4765   26.8109 C   0  0  0  0  0  0  0  0  0  0  0  0
   21.3139  -18.6949   27.3347 N   0  0  0  0  0  0  0  0  0  0  0  0
   18.0195  -20.9734   29.6002 O   0  0  0  0  0  0  0  0  0  0  0  0
   20.0742  -19.1758   27.5425 C   0  0  0  0  0  0  0  0  0  0  0  0
   19.7843  -20.5278   27.2069 C   0  0  0  0  0  0  0  0  0  0  0  0
   19.1214  -18.3440   28.0863 O   0  0  0  0  0  0  0  0  0  0  0  0
   18.4946  -21.1729   27.3541 N   0  0  0  0  0  0  0  0  0  0  0  0
   18.0893  -22.0833   26.2754 C   0  0  2  0  0  0  0  0  0  0  0  0
   19.1652  -23.0869   26.0002 C   0  0  0  0  0  0  0  0  0  0  0  0
   20.7853  -21.2895   26.6580 C   0  0  0  0  0  0  0  0  0  0  0  0
   20.5202  -22.6330   26.3069 N   0  0  0  0  0  0  0  0  0  0  0  0
   17.7324  -21.3690   24.9593 C   0  0  0  0  0  0  0  0  0  0  0  0
   16.9397  -20.1750   25.2261 N   0  0  0  0  0  0  0  0  0  0  0  0
   13.0745  -20.4392   26.9845 C   0  0  0  0  0  0  0  0  0  0  0  0
   13.3810  -21.2058   25.8727 C   0  0  0  0  0  0  0  0  0  0  0  0
   14.6589  -21.1237   25.2865 C   0  0  0  0  0  0  0  0  0  0  0  0
   15.6129  -20.2719   25.8221 C   0  0  0  0  0  0  0  0  0  0  0  0
   15.3020  -19.5028   26.9396 C   0  0  0  0  0  0  0  0  0  0  0  0
   14.0344  -19.5870   27.5213 C   0  0  0  0  0  0  0  0  0  0  0  0
   17.6121  -20.9645   28.4507 C   0  0  0  0  0  0  0  0  0  0  0  0
  1  3  1  0  0  0  0
  2  3  2  0  0  0  0
  2 12  1  0  0  0  0
  3  4  1  0  0  0  0
  4  6  1  0  0  0  0
  5 22  1  0  0  0  0
  6  7  1  0  0  0  0
  6  8  2  0  0  0  0
  7 12  2  0  0  0  0
  7  9  1  0  0  0  0
  9 10  1  0  0  0  0
  9 22  1  0  0  0  0
 10 11  1  0  0  0  0
 10 14  1  6  0  0  0
 11 13  1  0  0  0  0
 12 13  1  0  0  0  0
 14 15  1  0  0  0  0
 15 19  1  0  0  0  0
 16 17  2  0  0  0  0
 16 21  1  0  0  0  0
 17 18  1  0  0  0  0
 18 19  2  0  0  0  0
 19 20  1  0  0  0  0
 20 21  2  0  0  0  0
M  END
>  <CHROM.1>
-45.92946927,-42.33581110,-64.18959306,-51.21123142,18.34972527,-20.53795269
26.82497719,0.10255919,-0.00501399,0.62828570

>  <Name>
ligand

>  <RI>
0

>  <Rbt.Current_Directory>
/home/itssahil/PROJECTS/Mol_Feturizer/Test_systems_manuscript/rnas/3sd3

>  <Rbt.Executable>
rbdock ($Id: //depot/dev/client3/rdock/2013.1/src/exe/rbdock.cxx#4 $)

>  <Rbt.Library>
libRbt.so (2013.1, Build901 2013/11/27)

>  <Rbt.Parameter_File>
/export/apps/rDock/src/rDock_2013.1_src/data/scripts/dock_solv.prm

>  <Rbt.Receptor>
prm/pocket_docking_8.prm

>  <SCORE>
-16.8193

>  <SCORE.INTER>
-15.6573

>  <SCORE.INTER.CONST>
1

>  <SCORE.INTER.POLAR>
0

>  <SCORE.INTER.ROT>
4

>  <SCORE.INTER.SOLV>
8.54385

>  <SCORE.INTER.VDW>
-19.5528

>  <SCORE.INTER.norm>
-0.711696

>  <SCORE.INTRA>
-1.162

>  <SCORE.INTRA.DIHEDRAL>
0.139828

>  <SCORE.INTRA.DIHEDRAL.0>
2.54655

>  <SCORE.INTRA.POLAR>
0

>  <SCORE.INTRA.POLAR.0>
0

>  <SCORE.INTRA.REPUL>
0

>  <SCORE.INTRA.REPUL.0>
0

>  <SCORE.INTRA.SOLV>
0.469871

>  <SCORE.INTRA.SOLV.lig_0>
-56.4922

>  <SCORE.INTRA.VDW>
-1.46685

>  <SCORE.INTRA.VDW.0>
-0.696801

>  <SCORE.INTRA.norm>
-0.0528183

>  <SCORE.RESTR>
0

>  <SCORE.RESTR.CAVITY>
0

>  <SCORE.RESTR.norm>
0

>  <SCORE.SYSTEM>
0

>  <SCORE.SYSTEM.CONST>
0

>  <SCORE.SYSTEM.DIHEDRAL>
0

>  <SCORE.SYSTEM.SOLV>
0

>  <SCORE.SYSTEM.norm>
0

>  <SCORE.heavy>
22

>  <SCORE.norm>
-0.764514

>  <RMSD>
6.488

$$$$
ligand
 OpenBabel02271912143D
libRbt.so/2013.1/901 2013/11/27
 22 24  0  0  0  0  0  0  0  0999 V2000
   18.6038  -22.2038   32.5811 N   0  0  0  0  0  0  0  0  0  0  0  0
   19.3070  -20.5794   30.9687 N   0  0  0  0  0  0  0  0  0  0  0  0
   18.7728  -21.7869   31.2149 C   0  0  0  0  0  0  0  0  0  0  0  0
   18.3974  -22.6050   30.2393 N   0  0  0  0  0  0  0  0  0  0  0  0
   18.9387  -21.7527   25.4805 O   0  0  0  0  0  0  0  0  0  0  0  0
   18.5481  -22.2342   28.9544 C   0  0  0  0  0  0  0  0  0  0  0  0
   19.1222  -20.9670   28.6560 C   0  0  0  0  0  0  0  0  0  0  0  0
   18.1499  -23.1010   27.9617 O   0  0  0  0  0  0  0  0  0  0  0  0
   19.3248  -20.4277   27.3259 N   0  0  0  0  0  0  0  0  0  0  0  0
   19.0513  -18.9955   27.1498 C   0  0  2  0  0  0  0  0  0  0  0  0
   19.7844  -18.1887   28.1755 C   0  0  0  0  0  0  0  0  0  0  0  0
   19.4830  -20.1551   29.7021 C   0  0  0  0  0  0  0  0  0  0  0  0
   20.0468  -18.8871   29.4323 N   0  0  0  0  0  0  0  0  0  0  0  0
   17.5562  -18.6348   27.2144 C   0  0  0  0  0  0  0  0  0  0  0  0
   16.8328  -19.2611   26.1146 N   0  0  0  0  0  0  0  0  0  0  0  0
   12.9429  -20.8762   26.7154 C   0  0  0  0  0  0  0  0  0  0  0  0
   13.7213  -21.3245   25.6615 C   0  0  0  0  0  0  0  0  0  0  0  0
   15.0101  -20.7947   25.4576 C   0  0  0  0  0  0  0  0  0  0  0  0
   15.5012  -19.8201   26.3130 C   0  0  0  0  0  0  0  0  0  0  0  0
   14.7167  -19.3716   27.3715 C   0  0  0  0  0  0  0  0  0  0  0  0
   13.4390  -19.8999   27.5736 C   0  0  0  0  0  0  0  0  0  0  0  0
   19.7464  -21.1939   26.2034 C   0  0  0  0  0  0  0  0  0  0  0  0
  1  3  1  0  0  0  0
  2  3  2  0  0  0  0
  2 12  1  0  0  0  0
  3  4  1  0  0  0  0
  4  6  1  0  0  0  0
  5 22  1  0  0  0  0
  6  7  1  0  0  0  0
  6  8  2  0  0  0  0
  7 12  2  0  0  0  0
  7  9  1  0  0  0  0
  9 10  1  0  0  0  0
  9 22  1  0  0  0  0
 10 11  1  0  0  0  0
 10 14  1  1  0  0  0
 11 13  1  0  0  0  0
 12 13  1  0  0  0  0
 14 15  1  0  0  0  0
 15 19  1  0  0  0  0
 16 17  2  0  0  0  0
 16 21  1  0  0  0  0
 17 18  1  0  0  0  0
 18 19  2  0  0  0  0
 19 20  1  0  0  0  0
 20 21  2  0  0  0  0
M  END
>  <CHROM.1>
89.03920935,-63.86832571,140.87932751,-157.35475949,17.69956724,-20.61506843
28.02398795,0.65747335,0.24174018,2.05195483

>  <Name>
ligand

>  <RI>
0

>  <Rbt.Current_Directory>
/home/itssahil/PROJECTS/Mol_Feturizer/Test_systems_manuscript/rnas/3sd3

>  <Rbt.Executable>
rbdock ($Id: //depot/dev/client3/rdock/2013.1/src/exe/rbdock.cxx#4 $)

>  <Rbt.Library>
libRbt.so (2013.1, Build901 2013/11/27)

>  <Rbt.Parameter_File>
/export/apps/rDock/src/rDock_2013.1_src/data/scripts/dock_solv.prm

>  <Rbt.Receptor>
prm/pocket_docking_8.prm

>  <SCORE>
-17.027

>  <SCORE.INTER>
-16.5189

>  <SCORE.INTER.CONST>
1

>  <SCORE.INTER.POLAR>
0

>  <SCORE.INTER.ROT>
4

>  <SCORE.INTER.SOLV>
10.7488

>  <SCORE.INTER.VDW>
-20.8622

>  <SCORE.INTER.norm>
-0.750858

>  <SCORE.INTRA>
-0.508146

>  <SCORE.INTRA.DIHEDRAL>
-0.0145578

>  <SCORE.INTRA.DIHEDRAL.0>
2.54655

>  <SCORE.INTRA.POLAR>
0

>  <SCORE.INTRA.POLAR.0>
0

>  <SCORE.INTRA.REPUL>
0

>  <SCORE.INTRA.REPUL.0>
0

>  <SCORE.INTRA.SOLV>
0.52079

>  <SCORE.INTRA.SOLV.lig_0>
-56.4922

>  <SCORE.INTRA.VDW>
-0.761262

>  <SCORE.INTRA.VDW.0>
-0.696801

>  <SCORE.INTRA.norm>
-0.0230975

>  <SCORE.RESTR>
0

>  <SCORE.RESTR.CAVITY>
0

>  <SCORE.RESTR.norm>
0

>  <SCORE.SYSTEM>
0

>  <SCORE.SYSTEM.CONST>
0

>  <SCORE.SYSTEM.DIHEDRAL>
0

>  <SCORE.SYSTEM.SOLV>
0

>  <SCORE.SYSTEM.norm>
0

>  <SCORE.heavy>
22

>  <SCORE.norm>
-0.773956

>  <RMSD>
6.490

$$$$
ligand
 OpenBabel02271912143D
libRbt.so/2013.1/901 2013/11/27
 22 24  0  0  0  0  0  0  0  0999 V2000
   23.5789  -19.0016   26.3860 N   0  0  0  0  0  0  0  0  0  0  0  0
   21.9967  -20.7973   26.3160 N   0  0  0  0  0  0  0  0  0  0  0  0
   22.2609  -19.5200   26.6366 C   0  0  0  0  0  0  0  0  0  0  0  0
   21.3460  -18.7239   27.1760 N   0  0  0  0  0  0  0  0  0  0  0  0
   18.0445  -21.1166   29.5475 O   0  0  0  0  0  0  0  0  0  0  0  0
   20.1071  -19.1900   27.4195 C   0  0  0  0  0  0  0  0  0  0  0  0
   19.7953  -20.5420   27.1043 C   0  0  0  0  0  0  0  0  0  0  0  0
   19.1767  -18.3433   27.9788 O   0  0  0  0  0  0  0  0  0  0  0  0
   18.5033  -21.1723   27.2900 N   0  0  0  0  0  0  0  0  0  0  0  0
   18.0618  -22.0886   26.2305 C   0  0  2  0  0  0  0  0  0  0  0  0
   19.1203  -23.1058   25.9383 C   0  0  0  0  0  0  0  0  0  0  0  0
   20.7745  -21.3191   26.5379 C   0  0  0  0  0  0  0  0  0  0  0  0
   20.4871  -22.6631   26.2066 N   0  0  0  0  0  0  0  0  0  0  0  0
   17.6792  -21.3831   24.9170 C   0  0  0  0  0  0  0  0  0  0  0  0
   16.9019  -20.1809   25.1918 N   0  0  0  0  0  0  0  0  0  0  0  0
   13.0662  -20.4370   27.0148 C   0  0  0  0  0  0  0  0  0  0  0  0
   14.0232  -19.5834   27.5373 C   0  0  0  0  0  0  0  0  0  0  0  0
   15.2945  -19.4932   26.9380 C   0  0  0  0  0  0  0  0  0  0  0  0
   15.5903  -20.2622   25.8227 C   0  0  0  0  0  0  0  0  0  0  0  0
   14.6264  -21.1191   25.2998 C   0  0  0  0  0  0  0  0  0  0  0  0
   13.3649  -21.2058   25.8942 C   0  0  0  0  0  0  0  0  0  0  0  0
   17.6507  -20.9445   28.4062 C   0  0  0  0  0  0  0  0  0  0  0  0
  1  3  1  0  0  0  0
  2  3  2  0  0  0  0
  2 12  1  0  0  0  0
  3  4  1  0  0  0  0
  4  6  1  0  0  0  0
  5 22  1  0  0  0  0
  6  7  1  0  0  0  0
  6  8  2  0  0  0  0
  7 12  2  0  0  0  0
  7  9  1  0  0  0  0
  9 10  1  0  0  0  0
  9 22  1  0  0  0  0
 10 11  1  0  0  0  0
 10 14  1  6  0  0  0
 11 13  1  0  0  0  0
 12 13  1  0  0  0  0
 14 15  1  0  0  0  0
 15 19  1  0  0  0  0
 16 17  2  0  0  0  0
 16 21  1  0  0  0  0
 17 18  1  0  0  0  0
 18 19  2  0  0  0  0
 19 20  1  0  0  0  0
 20 21  2  0  0  0  0
M  END
>  <CHROM.1>
-55.55486590,-42.51616158,-64.03758597,128.62318214,18.34634221,-20.55766410
26.75396787,0.08458683,0.00981001,0.60890680

>  <Name>
ligand

>  <RI>
0

>  <Rbt.Current_Directory>
/home/itssahil/PROJECTS/Mol_Feturizer/Test_systems_manuscript/rnas/3sd3

>  <Rbt.Executable>
rbdock ($Id: //depot/dev/client3/rdock/2013.1/src/exe/rbdock.cxx#4 $)

>  <Rbt.Library>
libRbt.so (2013.1, Build901 2013/11/27)

>  <Rbt.Parameter_File>
/export/apps/rDock/src/rDock_2013.1_src/data/scripts/dock_solv.prm

>  <Rbt.Receptor>
prm/pocket_docking_6.prm

>  <SCORE>
-16.8718

>  <SCORE.INTER>
-15.7222

>  <SCORE.INTER.CONST>
1

>  <SCORE.INTER.POLAR>
0

>  <SCORE.INTER.ROT>
4

>  <SCORE.INTER.SOLV>
8.57157

>  <SCORE.INTER.VDW>
-19.6053

>  <SCORE.INTER.norm>
-0.714645

>  <SCORE.INTRA>
-1.14957

>  <SCORE.INTRA.DIHEDRAL>
0.130925

>  <SCORE.INTRA.DIHEDRAL.0>
2.54655

>  <SCORE.INTRA.POLAR>
0

>  <SCORE.INTRA.POLAR.0>
0

>  <SCORE.INTRA.REPUL>
0

>  <SCORE.INTRA.REPUL.0>
0

>  <SCORE.INTRA.SOLV>
0.422438

>  <SCORE.INTRA.SOLV.lig_0>
-56.4922

>  <SCORE.INTRA.VDW>
-1.42625

>  <SCORE.INTRA.VDW.0>
-0.696801

>  <SCORE.INTRA.norm>
-0.0522533

>  <SCORE.RESTR>
0

>  <SCORE.RESTR.CAVITY>
0

>  <SCORE.RESTR.norm>
0

>  <SCORE.SYSTEM>
0

>  <SCORE.SYSTEM.CONST>
0

>  <SCORE.SYSTEM.DIHEDRAL>
0

>  <SCORE.SYSTEM.SOLV>
0

>  <SCORE.SYSTEM.norm>
0

>  <SCORE.heavy>
22

>  <SCORE.norm>
-0.766898

>  <RMSD>
6.491

$$$$
ligand
 OpenBabel02271912143D
libRbt.so/2013.1/901 2013/11/27
 22 24  0  0  0  0  0  0  0  0999 V2000
   21.4890  -16.1528   24.0443 N   0  0  0  0  0  0  0  0  0  0  0  0
   20.4686  -18.0269   22.9583 N   0  0  0  0  0  0  0  0  0  0  0  0
   20.9554  -17.4878   24.0881 C   0  0  0  0  0  0  0  0  0  0  0  0
   20.9594  -18.1469   25.2402 N   0  0  0  0  0  0  0  0  0  0  0  0
   20.5613  -23.2989   24.1990 O   0  0  0  0  0  0  0  0  0  0  0  0
   20.4657  -19.3974   25.3021 C   0  0  0  0  0  0  0  0  0  0  0  0
   19.9532  -20.0051   24.1220 C   0  0  0  0  0  0  0  0  0  0  0  0
   20.4810  -20.0587   26.5096 O   0  0  0  0  0  0  0  0  0  0  0  0
   19.3727  -21.3309   24.0428 N   0  0  0  0  0  0  0  0  0  0  0  0
   18.1913  -21.4797   23.1831 C   0  0  2  0  0  0  0  0  0  0  0  0
   18.4594  -20.9268   21.8182 C   0  0  0  0  0  0  0  0  0  0  0  0
   19.9625  -19.2756   22.9595 C   0  0  0  0  0  0  0  0  0  0  0  0
   19.4502  -19.8532   21.7752 N   0  0  0  0  0  0  0  0  0  0  0  0
   16.9238  -20.8118   23.7460 C   0  0  0  0  0  0  0  0  0  0  0  0
   16.6195  -21.3329   25.0730 N   0  0  0  0  0  0  0  0  0  0  0  0
   13.1885  -20.0075   27.2115 C   0  0  0  0  0  0  0  0  0  0  0  0
   14.4319  -19.4707   27.5003 C   0  0  0  0  0  0  0  0  0  0  0  0
   15.5714  -19.9044   26.7955 C   0  0  0  0  0  0  0  0  0  0  0  0
   15.4494  -20.8728   25.8106 C   0  0  0  0  0  0  0  0  0  0  0  0
   14.1983  -21.4103   25.5224 C   0  0  0  0  0  0  0  0  0  0  0  0
   13.0685  -20.9774   26.2212 C   0  0  0  0  0  0  0  0  0  0  0  0
   19.8609  -22.4657   24.7490 C   0  0  0  0  0  0  0  0  0  0  0  0
  1  3  1  0  0  0  0
  2  3  2  0  0  0  0
  2 12  1  0  0  0  0
  3  4  1  0  0  0  0
  4  6  1  0  0  0  0
  5 22  1  0  0  0  0
  6  7  1  0  0  0  0
  6  8  2  0  0  0  0
  7 12  2  0  0  0  0
  7  9  1  0  0  0  0
  9 10  1  0  0  0  0
  9 22  1  0  0  0  0
 10 11  1  0  0  0  0
 10 14  1  1  0  0  0
 11 13  1  0  0  0  0
 12 13  1  0  0  0  0
 14 15  1  0  0  0  0
 15 19  1  0  0  0  0
 16 17  2  0  0  0  0
 16 21  1  0  0  0  0
 17 18  1  0  0  0  0
 18 19  2  0  0  0  0
 19 20  1  0  0  0  0
 20 21  2  0  0  0  0
M  END
>  <CHROM.1>
-100.35421731,-56.72830989,-178.94471482,-99.06059130,18.31765339,-20.15597026
24.62996627,0.06842617,0.43472583,0.42223450

>  <Name>
ligand

>  <RI>
0

>  <Rbt.Current_Directory>
/home/itssahil/PROJECTS/Mol_Feturizer/Test_systems_manuscript/rnas/3sd3

>  <Rbt.Executable>
rbdock ($Id: //depot/dev/client3/rdock/2013.1/src/exe/rbdock.cxx#4 $)

>  <Rbt.Library>
libRbt.so (2013.1, Build901 2013/11/27)

>  <Rbt.Parameter_File>
/export/apps/rDock/src/rDock_2013.1_src/data/scripts/dock_solv.prm

>  <Rbt.Receptor>
prm/pocket_docking_8.prm

>  <SCORE>
-14.7993

>  <SCORE.INTER>
-13.4708

>  <SCORE.INTER.CONST>
1

>  <SCORE.INTER.POLAR>
0

>  <SCORE.INTER.ROT>
4

>  <SCORE.INTER.SOLV>
7.565

>  <SCORE.INTER.VDW>
-17.7689

>  <SCORE.INTER.norm>
-0.61231

>  <SCORE.INTRA>
-1.32844

>  <SCORE.INTRA.DIHEDRAL>
-0.844049

>  <SCORE.INTRA.DIHEDRAL.0>
2.54655

>  <SCORE.INTRA.POLAR>
0

>  <SCORE.INTRA.POLAR.0>
0

>  <SCORE.INTRA.REPUL>
0

>  <SCORE.INTRA.REPUL.0>
0

>  <SCORE.INTRA.SOLV>
-0.226674

>  <SCORE.INTRA.SOLV.lig_0>
-56.4922

>  <SCORE.INTRA.VDW>
-0.793075

>  <SCORE.INTRA.VDW.0>
-0.696801

>  <SCORE.INTRA.norm>
-0.0603835

>  <SCORE.RESTR>
0

>  <SCORE.RESTR.CAVITY>
0

>  <SCORE.RESTR.norm>
0

>  <SCORE.SYSTEM>
0

>  <SCORE.SYSTEM.CONST>
0

>  <SCORE.SYSTEM.DIHEDRAL>
0

>  <SCORE.SYSTEM.SOLV>
0

>  <SCORE.SYSTEM.norm>
0

>  <SCORE.heavy>
22

>  <SCORE.norm>
-0.672693

>  <RMSD>
6.496

$$$$
ligand
 OpenBabel02271912143D
libRbt.so/2013.1/901 2013/11/27
 22 24  0  0  0  0  0  0  0  0999 V2000
   23.6203  -19.0607   26.6038 N   0  0  0  0  0  0  0  0  0  0  0  0
   22.0237  -20.8403   26.4749 N   0  0  0  0  0  0  0  0  0  0  0  0
   22.2924  -19.5699   26.8185 C   0  0  0  0  0  0  0  0  0  0  0  0
   21.3733  -18.7725   27.3486 N   0  0  0  0  0  0  0  0  0  0  0  0
   18.0521  -20.9403   29.6120 O   0  0  0  0  0  0  0  0  0  0  0  0
   20.1252  -19.2301   27.5587 C   0  0  0  0  0  0  0  0  0  0  0  0
   19.8080  -20.5747   27.2184 C   0  0  0  0  0  0  0  0  0  0  0  0
   19.1905  -18.3822   28.1091 O   0  0  0  0  0  0  0  0  0  0  0  0
   18.5065  -21.1953   27.3673 N   0  0  0  0  0  0  0  0  0  0  0  0
   18.0799  -22.0931   26.2861 C   0  0  2  0  0  0  0  0  0  0  0  0
   19.1352  -23.1162   26.0032 C   0  0  0  0  0  0  0  0  0  0  0  0
   20.7922  -21.3534   26.6630 C   0  0  0  0  0  0  0  0  0  0  0  0
   20.4998  -22.6900   26.3072 N   0  0  0  0  0  0  0  0  0  0  0  0
   17.7327  -21.3664   24.9742 C   0  0  0  0  0  0  0  0  0  0  0  0
   16.9457  -20.1700   25.2471 N   0  0  0  0  0  0  0  0  0  0  0  0
   13.0673  -20.4615   26.9717 C   0  0  0  0  0  0  0  0  0  0  0  0
   14.0040  -19.6019   27.5206 C   0  0  0  0  0  0  0  0  0  0  0  0
   15.2893  -19.5000   26.9539 C   0  0  0  0  0  0  0  0  0  0  0  0
   15.6193  -20.2635   25.8445 C   0  0  0  0  0  0  0  0  0  0  0  0
   14.6757  -21.1264   25.2950 C   0  0  0  0  0  0  0  0  0  0  0  0
   13.4003  -21.2247   25.8570 C   0  0  0  0  0  0  0  0  0  0  0  0
   17.6317  -20.9743   28.4677 C   0  0  0  0  0  0  0  0  0  0  0  0
  1  3  1  0  0  0  0
  2  3  2  0  0  0  0
  2 12  1  0  0  0  0
  3  4  1  0  0  0  0
  4  6  1  0  0  0  0
  5 22  1  0  0  0  0
  6  7  1  0  0  0  0
  6  8  2  0  0  0  0
  7 12  2  0  0  0  0
  7  9  1  0  0  0  0
  9 10  1  0  0  0  0
  9 22  1  0  0  0  0
 10 11  1  0  0  0  0
 10 14  1  6  0  0  0
 11 13  1  0  0  0  0
 12 13  1  0  0  0  0
 14 15  1  0  0  0  0
 15 19  1  0  0  0  0
 16 17  2  0  0  0  0
 16 21  1  0  0  0  0
 17 18  1  0  0  0  0
 18 19  2  0  0  0  0
 19 20  1  0  0  0  0
 20 21  2  0  0  0  0
M  END
>  <CHROM.1>
-42.82131800,-43.25614968,-63.80603297,129.35856802,18.36521350,-20.57022793
26.83408956,0.09580874,-0.01061818,0.64304680

>  <Name>
ligand

>  <RI>
0

>  <Rbt.Current_Directory>
/home/itssahil/PROJECTS/Mol_Feturizer/Test_systems_manuscript/rnas/3sd3

>  <Rbt.Executable>
rbdock ($Id: //depot/dev/client3/rdock/2013.1/src/exe/rbdock.cxx#4 $)

>  <Rbt.Library>
libRbt.so (2013.1, Build901 2013/11/27)

>  <Rbt.Parameter_File>
/export/apps/rDock/src/rDock_2013.1_src/data/scripts/dock_solv.prm

>  <Rbt.Receptor>
prm/pocket_docking_8.prm

>  <SCORE>
-16.7972

>  <SCORE.INTER>
-15.5853

>  <SCORE.INTER.CONST>
1

>  <SCORE.INTER.POLAR>
0

>  <SCORE.INTER.ROT>
4

>  <SCORE.INTER.SOLV>
8.69407

>  <SCORE.INTER.VDW>
-19.5549

>  <SCORE.INTER.norm>
-0.708423

>  <SCORE.INTRA>
-1.21188

>  <SCORE.INTRA.DIHEDRAL>
0.0347403

>  <SCORE.INTRA.DIHEDRAL.0>
2.54655

>  <SCORE.INTRA.POLAR>
0

>  <SCORE.INTRA.POLAR.0>
0

>  <SCORE.INTRA.REPUL>
0

>  <SCORE.INTRA.REPUL.0>
0

>  <SCORE.INTRA.SOLV>
0.455625

>  <SCORE.INTRA.SOLV.lig_0>
-56.4922

>  <SCORE.INTRA.VDW>
-1.45706

>  <SCORE.INTRA.VDW.0>
-0.696801

>  <SCORE.INTRA.norm>
-0.0550855

>  <SCORE.RESTR>
0

>  <SCORE.RESTR.CAVITY>
0

>  <SCORE.RESTR.norm>
0

>  <SCORE.SYSTEM>
0

>  <SCORE.SYSTEM.CONST>
0

>  <SCORE.SYSTEM.DIHEDRAL>
0

>  <SCORE.SYSTEM.SOLV>
0

>  <SCORE.SYSTEM.norm>
0

>  <SCORE.heavy>
22

>  <SCORE.norm>
-0.763509

>  <RMSD>
6.499

$$$$
ligand
 OpenBabel02271912143D
libRbt.so/2013.1/901 2013/11/27
 22 24  0  0  0  0  0  0  0  0999 V2000
   19.9576  -22.1647   32.5266 N   0  0  0  0  0  0  0  0  0  0  0  0
   20.4216  -20.9120   30.5396 N   0  0  0  0  0  0  0  0  0  0  0  0
   19.7219  -21.8923   31.1342 C   0  0  0  0  0  0  0  0  0  0  0  0
   18.8225  -22.6154   30.4783 N   0  0  0  0  0  0  0  0  0  0  0  0
   19.3437  -23.0376   26.1127 O   0  0  0  0  0  0  0  0  0  0  0  0
   18.5879  -22.3771   29.1747 C   0  0  0  0  0  0  0  0  0  0  0  0
   19.3198  -21.3545   28.5090 C   0  0  0  0  0  0  0  0  0  0  0  0
   17.6493  -23.1409   28.5181 O   0  0  0  0  0  0  0  0  0  0  0  0
   19.1586  -20.9733   27.1199 N   0  0  0  0  0  0  0  0  0  0  0  0
   19.2174  -19.5362   26.8226 C   0  0  2  0  0  0  0  0  0  0  0  0
   20.4526  -18.9267   27.4085 C   0  0  0  0  0  0  0  0  0  0  0  0
   20.2300  -20.6291   29.2363 C   0  0  0  0  0  0  0  0  0  0  0  0
   20.9632  -19.6011   28.6005 N   0  0  0  0  0  0  0  0  0  0  0  0
   17.9934  -18.7470   27.3212 C   0  0  0  0  0  0  0  0  0  0  0  0
   16.9741  -18.6767   26.2813 N   0  0  0  0  0  0  0  0  0  0  0  0
   13.4909  -21.1125   26.4693 C   0  0  0  0  0  0  0  0  0  0  0  0
   14.4348  -21.3328   25.4803 C   0  0  0  0  0  0  0  0  0  0  0  0
   15.5905  -20.5307   25.4131 C   0  0  0  0  0  0  0  0  0  0  0  0
   15.7837  -19.5161   26.3383 C   0  0  0  0  0  0  0  0  0  0  0  0
   14.8334  -19.2972   27.3312 C   0  0  0  0  0  0  0  0  0  0  0  0
   13.6885  -20.0953   27.3978 C   0  0  0  0  0  0  0  0  0  0  0  0
   18.9337  -21.8905   26.0555 C   0  0  0  0  0  0  0  0  0  0  0  0
  1  3  1  0  0  0  0
  2  3  2  0  0  0  0
  2 12  1  0  0  0  0
  3  4  1  0  0  0  0
  4  6  1  0  0  0  0
  5 22  1  0  0  0  0
  6  7  1  0  0  0  0
  6  8  2  0  0  0  0
  7 12  2  0  0  0  0
  7  9  1  0  0  0  0
  9 10  1  0  0  0  0
  9 22  1  0  0  0  0
 10 11  1  0  0  0  0
 10 14  1  1  0  0  0
 11 13  1  0  0  0  0
 12 13  1  0  0  0  0
 14 15  1  0  0  0  0
 15 19  1  0  0  0  0
 16 17  2  0  0  0  0
 16 21  1  0  0  0  0
 17 18  1  0  0  0  0
 18 19  2  0  0  0  0
 19 20  1  0  0  0  0
 20 21  2  0  0  0  0
M  END
>  <CHROM.1>
-28.12996361,-91.48247579,103.43435104,-111.95253094,18.08029921,-20.87103112
27.93524719,0.62963729,0.27935819,2.24346348

>  <Name>
ligand

>  <RI>
0

>  <Rbt.Current_Directory>
/home/itssahil/PROJECTS/Mol_Feturizer/Test_systems_manuscript/rnas/3sd3

>  <Rbt.Executable>
rbdock ($Id: //depot/dev/client3/rdock/2013.1/src/exe/rbdock.cxx#4 $)

>  <Rbt.Library>
libRbt.so (2013.1, Build901 2013/11/27)

>  <Rbt.Parameter_File>
/export/apps/rDock/src/rDock_2013.1_src/data/scripts/dock_solv.prm

>  <Rbt.Receptor>
prm/pocket_docking_6.prm

>  <SCORE>
-15.253

>  <SCORE.INTER>
-15.2513

>  <SCORE.INTER.CONST>
1

>  <SCORE.INTER.POLAR>
0

>  <SCORE.INTER.ROT>
4

>  <SCORE.INTER.SOLV>
8.44744

>  <SCORE.INTER.VDW>
-19.25

>  <SCORE.INTER.norm>
-0.69324

>  <SCORE.INTRA>
-0.00167015

>  <SCORE.INTRA.DIHEDRAL>
2.83175

>  <SCORE.INTRA.DIHEDRAL.0>
2.54655

>  <SCORE.INTRA.POLAR>
0

>  <SCORE.INTRA.POLAR.0>
0

>  <SCORE.INTRA.REPUL>
0

>  <SCORE.INTRA.REPUL.0>
0

>  <SCORE.INTRA.SOLV>
-0.387024

>  <SCORE.INTRA.SOLV.lig_0>
-56.4922

>  <SCORE.INTRA.VDW>
-1.22403

>  <SCORE.INTRA.VDW.0>
-0.696801

>  <SCORE.INTRA.norm>
-7.59158e-05

>  <SCORE.RESTR>
0

>  <SCORE.RESTR.CAVITY>
0

>  <SCORE.RESTR.norm>
0

>  <SCORE.SYSTEM>
0

>  <SCORE.SYSTEM.CONST>
0

>  <SCORE.SYSTEM.DIHEDRAL>
0

>  <SCORE.SYSTEM.SOLV>
0

>  <SCORE.SYSTEM.norm>
0

>  <SCORE.heavy>
22

>  <SCORE.norm>
-0.693316

>  <RMSD>
6.500

$$$$
ligand
 OpenBabel02271912143D
libRbt.so/2013.1/901 2013/11/27
 22 24  0  0  0  0  0  0  0  0999 V2000
   18.5455  -22.2668   32.7876 N   0  0  0  0  0  0  0  0  0  0  0  0
   19.2874  -20.6542   31.1807 N   0  0  0  0  0  0  0  0  0  0  0  0
   18.7105  -21.8427   31.4232 C   0  0  0  0  0  0  0  0  0  0  0  0
   18.2894  -22.6355   30.4454 N   0  0  0  0  0  0  0  0  0  0  0  0
   18.7936  -21.6997   25.6497 O   0  0  0  0  0  0  0  0  0  0  0  0
   18.4355  -22.2576   29.1621 C   0  0  0  0  0  0  0  0  0  0  0  0
   19.0538  -21.0105   28.8674 C   0  0  0  0  0  0  0  0  0  0  0  0
   17.9894  -23.0981   28.1670 O   0  0  0  0  0  0  0  0  0  0  0  0
   19.2576  -20.4657   27.5397 N   0  0  0  0  0  0  0  0  0  0  0  0
   19.0373  -19.0222   27.3817 C   0  0  2  0  0  0  0  0  0  0  0  0
   19.8161  -18.2550   28.4041 C   0  0  0  0  0  0  0  0  0  0  0  0
   19.4611  -20.2240   29.9158 C   0  0  0  0  0  0  0  0  0  0  0  0
   20.0696  -18.9759   29.6499 N   0  0  0  0  0  0  0  0  0  0  0  0
   17.5584  -18.6048   27.4724 C   0  0  0  0  0  0  0  0  0  0  0  0
   16.8340  -19.0330   26.2820 N   0  0  0  0  0  0  0  0  0  0  0  0
   13.1105  -21.0706   26.5735 C   0  0  0  0  0  0  0  0  0  0  0  0
   13.3935  -20.0233   27.4341 C   0  0  0  0  0  0  0  0  0  0  0  0
   14.6238  -19.3441   27.3423 C   0  0  0  0  0  0  0  0  0  0  0  0
   15.5557  -19.7254   26.3890 C   0  0  0  0  0  0  0  0  0  0  0  0
   15.2684  -20.7783   25.5253 C   0  0  0  0  0  0  0  0  0  0  0  0
   14.0465  -21.4498   25.6164 C   0  0  0  0  0  0  0  0  0  0  0  0
   19.6327  -21.2359   26.4036 C   0  0  0  0  0  0  0  0  0  0  0  0
  1  3  1  0  0  0  0
  2  3  2  0  0  0  0
  2 12  1  0  0  0  0
  3  4  1  0  0  0  0
  4  6  1  0  0  0  0
  5 22  1  0  0  0  0
  6  7  1  0  0  0  0
  6  8  2  0  0  0  0
  7 12  2  0  0  0  0
  7  9  1  0  0  0  0
  9 10  1  0  0  0  0
  9 22  1  0  0  0  0
 10 11  1  0  0  0  0
 10 14  1  1  0  0  0
 11 13  1  0  0  0  0
 12 13  1  0  0  0  0
 14 15  1  0  0  0  0
 15 19  1  0  0  0  0
 16 17  2  0  0  0  0
 16 21  1  0  0  0  0
 17 18  1  0  0  0  0
 18 19  2  0  0  0  0
 19 20  1  0  0  0  0
 20 21  2  0  0  0  0
M  END
>  <CHROM.1>
92.75170817,-71.80174070,132.05069313,39.32279428,17.68385720,-20.64063709
28.17279796,0.69594086,0.33360230,2.11866312

>  <Name>
ligand

>  <RI>
0

>  <Rbt.Current_Directory>
/home/itssahil/PROJECTS/Mol_Feturizer/Test_systems_manuscript/rnas/3sd3

>  <Rbt.Executable>
rbdock ($Id: //depot/dev/client3/rdock/2013.1/src/exe/rbdock.cxx#4 $)

>  <Rbt.Library>
libRbt.so (2013.1, Build901 2013/11/27)

>  <Rbt.Parameter_File>
/export/apps/rDock/src/rDock_2013.1_src/data/scripts/dock_solv.prm

>  <Rbt.Receptor>
prm/pocket_docking_7.prm

>  <SCORE>
-17.5086

>  <SCORE.INTER>
-16.9549

>  <SCORE.INTER.CONST>
1

>  <SCORE.INTER.POLAR>
0

>  <SCORE.INTER.ROT>
4

>  <SCORE.INTER.SOLV>
11.6108

>  <SCORE.INTER.VDW>
-21.4402

>  <SCORE.INTER.norm>
-0.770679

>  <SCORE.INTRA>
-0.553668

>  <SCORE.INTRA.DIHEDRAL>
0.613074

>  <SCORE.INTRA.DIHEDRAL.0>
2.54655

>  <SCORE.INTRA.POLAR>
0

>  <SCORE.INTRA.POLAR.0>
0

>  <SCORE.INTRA.REPUL>
0

>  <SCORE.INTRA.REPUL.0>
0

>  <SCORE.INTRA.SOLV>
0.409167

>  <SCORE.INTRA.SOLV.lig_0>
-56.4922

>  <SCORE.INTRA.VDW>
-1.06479

>  <SCORE.INTRA.VDW.0>
-0.696801

>  <SCORE.INTRA.norm>
-0.0251667

>  <SCORE.RESTR>
0

>  <SCORE.RESTR.CAVITY>
0

>  <SCORE.RESTR.norm>
0

>  <SCORE.SYSTEM>
0

>  <SCORE.SYSTEM.CONST>
0

>  <SCORE.SYSTEM.DIHEDRAL>
0

>  <SCORE.SYSTEM.SOLV>
0

>  <SCORE.SYSTEM.norm>
0

>  <SCORE.heavy>
22

>  <SCORE.norm>
-0.795846

>  <RMSD>
6.504

$$$$
ligand
 OpenBabel02271912143D
libRbt.so/2013.1/901 2013/11/27
 22 24  0  0  0  0  0  0  0  0999 V2000
   24.5725  -21.6008   27.4143 N   0  0  0  0  0  0  0  0  0  0  0  0
   22.8991  -22.2980   25.8502 N   0  0  0  0  0  0  0  0  0  0  0  0
   23.1916  -21.7825   27.0555 C   0  0  0  0  0  0  0  0  0  0  0  0
   22.2484  -21.4370   27.9232 N   0  0  0  0  0  0  0  0  0  0  0  0
   18.3083  -22.9897   27.8678 O   0  0  0  0  0  0  0  0  0  0  0  0
   20.9504  -21.6001   27.6072 C   0  0  0  0  0  0  0  0  0  0  0  0
   20.6037  -22.1551   26.3438 C   0  0  0  0  0  0  0  0  0  0  0  0
   19.9920  -21.2328   28.5248 O   0  0  0  0  0  0  0  0  0  0  0  0
   19.2538  -22.3676   25.8605 N   0  0  0  0  0  0  0  0  0  0  0  0
   19.0098  -22.0705   24.4430 C   0  0  2  0  0  0  0  0  0  0  0  0
   20.0086  -22.7731   23.5775 C   0  0  0  0  0  0  0  0  0  0  0  0
   21.6174  -22.4851   25.4794 C   0  0  0  0  0  0  0  0  0  0  0  0
   21.2991  -23.0295   24.2141 N   0  0  0  0  0  0  0  0  0  0  0  0
   19.0371  -20.5682   24.1084 C   0  0  0  0  0  0  0  0  0  0  0  0
   17.6938  -20.0886   23.8074 N   0  0  0  0  0  0  0  0  0  0  0  0
   14.5213  -20.5283   26.6081 C   0  0  0  0  0  0  0  0  0  0  0  0
   15.5470  -19.6331   26.8617 C   0  0  0  0  0  0  0  0  0  0  0  0
   16.5996  -19.4821   25.9383 C   0  0  0  0  0  0  0  0  0  0  0  0
   16.6108  -20.2327   24.7725 C   0  0  0  0  0  0  0  0  0  0  0  0
   15.5785  -21.1314   24.5202 C   0  0  0  0  0  0  0  0  0  0  0  0
   14.5339  -21.2785   25.4363 C   0  0  0  0  0  0  0  0  0  0  0  0
   18.1728  -22.8201   26.6677 C   0  0  0  0  0  0  0  0  0  0  0  0
  1  3  1  0  0  0  0
  2  3  2  0  0  0  0
  2 12  1  0  0  0  0
  3  4  1  0  0  0  0
  4  6  1  0  0  0  0
  5 22  1  0  0  0  0
  6  7  1  0  0  0  0
  6  8  2  0  0  0  0
  7 12  2  0  0  0  0
  7  9  1  0  0  0  0
  9 10  1  0  0  0  0
  9 22  1  0  0  0  0
 10 11  1  0  0  0  0
 10 14  1  1  0  0  0
 11 13  1  0  0  0  0
 12 13  1  0  0  0  0
 14 15  1  0  0  0  0
 15 19  1  0  0  0  0
 16 17  2  0  0  0  0
 16 21  1  0  0  0  0
 17 18  1  0  0  0  0
 18 19  2  0  0  0  0
 19 20  1  0  0  0  0
 20 21  2  0  0  0  0
M  END
>  <CHROM.1>
4.23366083,-108.89972205,57.30011580,70.15168173,19.27662656,-21.56681008
25.97704644,0.14564797,-0.22216583,1.46253804

>  <Name>
ligand

>  <RI>
0

>  <Rbt.Current_Directory>
/home/itssahil/PROJECTS/Mol_Feturizer/Test_systems_manuscript/rnas/3sd3

>  <Rbt.Executable>
rbdock ($Id: //depot/dev/client3/rdock/2013.1/src/exe/rbdock.cxx#4 $)

>  <Rbt.Library>
libRbt.so (2013.1, Build901 2013/11/27)

>  <Rbt.Parameter_File>
/export/apps/rDock/src/rDock_2013.1_src/data/scripts/dock_solv.prm

>  <Rbt.Receptor>
prm/pocket_docking_3.prm

>  <SCORE>
-13.3972

>  <SCORE.INTER>
-14.1406

>  <SCORE.INTER.CONST>
1

>  <SCORE.INTER.POLAR>
0

>  <SCORE.INTER.ROT>
4

>  <SCORE.INTER.SOLV>
8.401

>  <SCORE.INTER.VDW>
-18.4941

>  <SCORE.INTER.norm>
-0.642755

>  <SCORE.INTRA>
0.743398

>  <SCORE.INTRA.DIHEDRAL>
3.87041

>  <SCORE.INTRA.DIHEDRAL.0>
2.54655

>  <SCORE.INTRA.POLAR>
0

>  <SCORE.INTRA.POLAR.0>
0

>  <SCORE.INTRA.REPUL>
0

>  <SCORE.INTRA.REPUL.0>
0

>  <SCORE.INTRA.SOLV>
-0.356324

>  <SCORE.INTRA.SOLV.lig_0>
-56.4922

>  <SCORE.INTRA.VDW>
-1.01364

>  <SCORE.INTRA.VDW.0>
-0.696801

>  <SCORE.INTRA.norm>
0.0337908

>  <SCORE.RESTR>
0

>  <SCORE.RESTR.CAVITY>
0

>  <SCORE.RESTR.norm>
0

>  <SCORE.SYSTEM>
0

>  <SCORE.SYSTEM.CONST>
0

>  <SCORE.SYSTEM.DIHEDRAL>
0

>  <SCORE.SYSTEM.SOLV>
0

>  <SCORE.SYSTEM.norm>
0

>  <SCORE.heavy>
22

>  <SCORE.norm>
-0.608964

>  <RMSD>
6.511

$$$$
ligand
 OpenBabel02271912143D
libRbt.so/2013.1/901 2013/11/27
 22 24  0  0  0  0  0  0  0  0999 V2000
   18.5180  -22.2538   32.7903 N   0  0  0  0  0  0  0  0  0  0  0  0
   19.3177  -20.6693   31.1832 N   0  0  0  0  0  0  0  0  0  0  0  0
   18.7090  -21.8419   31.4256 C   0  0  0  0  0  0  0  0  0  0  0  0
   18.2799  -22.6299   30.4474 N   0  0  0  0  0  0  0  0  0  0  0  0
   20.3988  -22.2819   26.5372 O   0  0  0  0  0  0  0  0  0  0  0  0
   18.4500  -22.2632   29.1638 C   0  0  0  0  0  0  0  0  0  0  0  0
   19.1021  -21.0334   28.8694 C   0  0  0  0  0  0  0  0  0  0  0  0
   17.9949  -23.0984   28.1683 O   0  0  0  0  0  0  0  0  0  0  0  0
   19.3345  -20.5015   27.5411 N   0  0  0  0  0  0  0  0  0  0  0  0
   19.1515  -19.0541   27.3725 C   0  0  2  0  0  0  0  0  0  0  0  0
   19.9370  -18.3001   28.3996 C   0  0  0  0  0  0  0  0  0  0  0  0
   19.5165  -20.2509   29.9180 C   0  0  0  0  0  0  0  0  0  0  0  0
   20.1584  -19.0197   29.6523 N   0  0  0  0  0  0  0  0  0  0  0  0
   17.6823  -18.6001   27.4436 C   0  0  0  0  0  0  0  0  0  0  0  0
   16.9576  -19.0308   26.2543 N   0  0  0  0  0  0  0  0  0  0  0  0
   13.1821  -20.9632   26.5900 C   0  0  0  0  0  0  0  0  0  0  0  0
   14.0710  -21.3516   25.6018 C   0  0  0  0  0  0  0  0  0  0  0  0
   15.3227  -20.7167   25.4859 C   0  0  0  0  0  0  0  0  0  0  0  0
   15.6663  -19.6984   26.3620 C   0  0  0  0  0  0  0  0  0  0  0  0
   14.7709  -19.3102   27.3544 C   0  0  0  0  0  0  0  0  0  0  0  0
   13.5303  -19.9427   27.4694 C   0  0  0  0  0  0  0  0  0  0  0  0
   19.7036  -21.2874   26.4138 C   0  0  0  0  0  0  0  0  0  0  0  0
  1  3  1  0  0  0  0
  2  3  2  0  0  0  0
  2 12  1  0  0  0  0
  3  4  1  0  0  0  0
  4  6  1  0  0  0  0
  5 22  1  0  0  0  0
  6  7  1  0  0  0  0
  6  8  2  0  0  0  0
  7 12  2  0  0  0  0
  7  9  1  0  0  0  0
  9 10  1  0  0  0  0
  9 22  1  0  0  0  0
 10 11  1  0  0  0  0
 10 14  1  1  0  0  0
 11 13  1  0  0  0  0
 12 13  1  0  0  0  0
 14 15  1  0  0  0  0
 15 19  1  0  0  0  0
 16 17  2  0  0  0  0
 16 21  1  0  0  0  0
 17 18  1  0  0  0  0
 18 19  2  0  0  0  0
 19 20  1  0  0  0  0
 20 21  2  0  0  0  0
M  END
>  <CHROM.1>
-32.81285628,-71.14865357,131.65431429,-143.54550249,17.83353357,-20.66744717
28.21893252,0.67555411,0.22921284,2.08640991

>  <Name>
ligand

>  <RI>
0

>  <Rbt.Current_Directory>
/home/itssahil/PROJECTS/Mol_Feturizer/Test_systems_manuscript/rnas/3sd3

>  <Rbt.Executable>
rbdock ($Id: //depot/dev/client3/rdock/2013.1/src/exe/rbdock.cxx#4 $)

>  <Rbt.Library>
libRbt.so (2013.1, Build901 2013/11/27)

>  <Rbt.Parameter_File>
/export/apps/rDock/src/rDock_2013.1_src/data/scripts/dock_solv.prm

>  <Rbt.Receptor>
prm/pocket_docking_7.prm

>  <SCORE>
-17.4984

>  <SCORE.INTER>
-16.8906

>  <SCORE.INTER.CONST>
1

>  <SCORE.INTER.POLAR>
0

>  <SCORE.INTER.ROT>
4

>  <SCORE.INTER.SOLV>
11.834

>  <SCORE.INTER.VDW>
-21.4717

>  <SCORE.INTER.norm>
-0.767753

>  <SCORE.INTRA>
-0.60782

>  <SCORE.INTRA.DIHEDRAL>
0.57137

>  <SCORE.INTRA.DIHEDRAL.0>
2.54655

>  <SCORE.INTRA.POLAR>
0

>  <SCORE.INTRA.POLAR.0>
0

>  <SCORE.INTRA.REPUL>
0

>  <SCORE.INTRA.REPUL.0>
0

>  <SCORE.INTRA.SOLV>
-0.22177

>  <SCORE.INTRA.SOLV.lig_0>
-56.4922

>  <SCORE.INTRA.VDW>
-0.78262

>  <SCORE.INTRA.VDW.0>
-0.696801

>  <SCORE.INTRA.norm>
-0.0276282

>  <SCORE.RESTR>
0

>  <SCORE.RESTR.CAVITY>
0

>  <SCORE.RESTR.norm>
0

>  <SCORE.SYSTEM>
0

>  <SCORE.SYSTEM.CONST>
0

>  <SCORE.SYSTEM.DIHEDRAL>
0

>  <SCORE.SYSTEM.SOLV>
0

>  <SCORE.SYSTEM.norm>
0

>  <SCORE.heavy>
22

>  <SCORE.norm>
-0.795381

>  <RMSD>
6.514

$$$$
ligand
 OpenBabel02271912143D
libRbt.so/2013.1/901 2013/11/27
 22 24  0  0  0  0  0  0  0  0999 V2000
   23.6644  -19.1193   26.3934 N   0  0  0  0  0  0  0  0  0  0  0  0
   22.0274  -20.8656   26.3343 N   0  0  0  0  0  0  0  0  0  0  0  0
   22.3303  -19.5944   26.6450 C   0  0  0  0  0  0  0  0  0  0  0  0
   21.4394  -18.7659   27.1756 N   0  0  0  0  0  0  0  0  0  0  0  0
   18.0332  -21.1043   29.5545 O   0  0  0  0  0  0  0  0  0  0  0  0
   20.1862  -19.1913   27.4197 C   0  0  0  0  0  0  0  0  0  0  0  0
   19.8332  -20.5355   27.1149 C   0  0  0  0  0  0  0  0  0  0  0  0
   19.2812  -18.3115   27.9698 O   0  0  0  0  0  0  0  0  0  0  0  0
   18.5218  -21.1239   27.3026 N   0  0  0  0  0  0  0  0  0  0  0  0
   18.0544  -22.0348   26.2496 C   0  0  2  0  0  0  0  0  0  0  0  0
   19.0815  -23.0867   25.9684 C   0  0  0  0  0  0  0  0  0  0  0  0
   20.7890  -21.3473   26.5574 C   0  0  0  0  0  0  0  0  0  0  0  0
   20.4608  -22.6844   26.2364 N   0  0  0  0  0  0  0  0  0  0  0  0
   17.6969  -21.3286   24.9293 C   0  0  0  0  0  0  0  0  0  0  0  0
   16.8826  -20.1473   25.1874 N   0  0  0  0  0  0  0  0  0  0  0  0
   13.0500  -20.4631   27.0074 C   0  0  0  0  0  0  0  0  0  0  0  0
   13.3492  -21.2264   25.8914 C   0  0  0  0  0  0  0  0  0  0  0  0
   14.6163  -21.1273   25.2848 C   0  0  0  0  0  0  0  0  0  0  0  0
   15.5670  -20.2619   25.8046 C   0  0  0  0  0  0  0  0  0  0  0  0
   15.2634  -19.4962   26.9264 C   0  0  0  0  0  0  0  0  0  0  0  0
   14.0065  -19.5973   27.5283 C   0  0  0  0  0  0  0  0  0  0  0  0
   17.6742  -20.8604   28.4148 C   0  0  0  0  0  0  0  0  0  0  0  0
  1  3  1  0  0  0  0
  2  3  2  0  0  0  0
  2 12  1  0  0  0  0
  3  4  1  0  0  0  0
  4  6  1  0  0  0  0
  5 22  1  0  0  0  0
  6  7  1  0  0  0  0
  6  8  2  0  0  0  0
  7 12  2  0  0  0  0
  7  9  1  0  0  0  0
  9 10  1  0  0  0  0
  9 22  1  0  0  0  0
 10 11  1  0  0  0  0
 10 14  1  6  0  0  0
 11 13  1  0  0  0  0
 12 13  1  0  0  0  0
 14 15  1  0  0  0  0
 15 19  1  0  0  0  0
 16 17  2  0  0  0  0
 16 21  1  0  0  0  0
 17 18  1  0  0  0  0
 18 19  2  0  0  0  0
 19 20  1  0  0  0  0
 20 21  2  0  0  0  0
M  END
>  <CHROM.1>
-59.62558299,-46.19380017,-62.57968086,-52.25533325,18.36364615,-20.56025526
26.75917217,0.08286352,0.00543059,0.62380972

>  <Name>
ligand

>  <RI>
0

>  <Rbt.Current_Directory>
/home/itssahil/PROJECTS/Mol_Feturizer/Test_systems_manuscript/rnas/3sd3

>  <Rbt.Executable>
rbdock ($Id: //depot/dev/client3/rdock/2013.1/src/exe/rbdock.cxx#4 $)

>  <Rbt.Library>
libRbt.so (2013.1, Build901 2013/11/27)

>  <Rbt.Parameter_File>
/export/apps/rDock/src/rDock_2013.1_src/data/scripts/dock_solv.prm

>  <Rbt.Receptor>
prm/pocket_docking_5.prm

>  <SCORE>
-16.8665

>  <SCORE.INTER>
-15.4888

>  <SCORE.INTER.CONST>
1

>  <SCORE.INTER.POLAR>
0

>  <SCORE.INTER.ROT>
4

>  <SCORE.INTER.SOLV>
8.59553

>  <SCORE.INTER.VDW>
-19.4577

>  <SCORE.INTER.norm>
-0.704037

>  <SCORE.INTRA>
-1.37765

>  <SCORE.INTRA.DIHEDRAL>
-0.239591

>  <SCORE.INTRA.DIHEDRAL.0>
2.54655

>  <SCORE.INTRA.POLAR>
0

>  <SCORE.INTRA.POLAR.0>
0

>  <SCORE.INTRA.REPUL>
0

>  <SCORE.INTRA.REPUL.0>
0

>  <SCORE.INTRA.SOLV>
0.31094

>  <SCORE.INTRA.SOLV.lig_0>
-56.4922

>  <SCORE.INTRA.VDW>
-1.41333

>  <SCORE.INTRA.VDW.0>
-0.696801

>  <SCORE.INTRA.norm>
-0.0626205

>  <SCORE.RESTR>
0

>  <SCORE.RESTR.CAVITY>
0

>  <SCORE.RESTR.norm>
0

>  <SCORE.SYSTEM>
0

>  <SCORE.SYSTEM.CONST>
0

>  <SCORE.SYSTEM.DIHEDRAL>
0

>  <SCORE.SYSTEM.SOLV>
0

>  <SCORE.SYSTEM.norm>
0

>  <SCORE.heavy>
22

>  <SCORE.norm>
-0.766658

>  <RMSD>
6.516

$$$$
ligand
 OpenBabel02271912143D
libRbt.so/2013.1/901 2013/11/27
 22 24  0  0  0  0  0  0  0  0999 V2000
   22.8975  -22.3944   26.5779 N   0  0  0  0  0  0  0  0  0  0  0  0
   21.4901  -20.6974   25.6438 N   0  0  0  0  0  0  0  0  0  0  0  0
   21.6210  -21.9628   26.0749 C   0  0  0  0  0  0  0  0  0  0  0  0
   20.6119  -22.8247   26.0508 N   0  0  0  0  0  0  0  0  0  0  0  0
   16.7594  -20.8475   22.6775 O   0  0  0  0  0  0  0  0  0  0  0  0
   19.4098  -22.4410   25.5829 C   0  0  0  0  0  0  0  0  0  0  0  0
   19.2379  -21.1115   25.1062 C   0  0  0  0  0  0  0  0  0  0  0  0
   18.3796  -23.3543   25.5697 O   0  0  0  0  0  0  0  0  0  0  0  0
   18.0007  -20.5540   24.5966 N   0  0  0  0  0  0  0  0  0  0  0  0
   17.6977  -19.1692   24.9804 C   0  0  2  0  0  0  0  0  0  0  0  0
   18.8574  -18.2724   24.6778 C   0  0  0  0  0  0  0  0  0  0  0  0
   20.3107  -20.2573   25.1637 C   0  0  0  0  0  0  0  0  0  0  0  0
   20.1632  -18.9282   24.7052 N   0  0  0  0  0  0  0  0  0  0  0  0
   17.3190  -19.0028   26.4631 C   0  0  0  0  0  0  0  0  0  0  0  0
   16.7610  -20.2427   26.9888 N   0  0  0  0  0  0  0  0  0  0  0  0
   12.6436  -21.1759   26.4615 C   0  0  0  0  0  0  0  0  0  0  0  0
   13.1856  -21.1395   27.7353 C   0  0  0  0  0  0  0  0  0  0  0  0
   14.5475  -20.8304   27.9168 C   0  0  0  0  0  0  0  0  0  0  0  0
   15.3493  -20.5633   26.8175 C   0  0  0  0  0  0  0  0  0  0  0  0
   14.8017  -20.6004   25.5385 C   0  0  0  0  0  0  0  0  0  0  0  0
   13.4498  -20.9052   25.3604 C   0  0  0  0  0  0  0  0  0  0  0  0
   17.0761  -21.2628   23.7796 C   0  0  0  0  0  0  0  0  0  0  0  0
  1  3  1  0  0  0  0
  2  3  2  0  0  0  0
  2 12  1  0  0  0  0
  3  4  1  0  0  0  0
  4  6  1  0  0  0  0
  5 22  1  0  0  0  0
  6  7  1  0  0  0  0
  6  8  2  0  0  0  0
  7 12  2  0  0  0  0
  7  9  1  0  0  0  0
  9 10  1  0  0  0  0
  9 22  1  0  0  0  0
 10 11  1  0  0  0  0
 10 14  1  1  0  0  0
 11 13  1  0  0  0  0
 12 13  1  0  0  0  0
 14 15  1  0  0  0  0
 15 19  1  0  0  0  0
 16 17  2  0  0  0  0
 16 21  1  0  0  0  0
 17 18  1  0  0  0  0
 18 19  2  0  0  0  0
 19 20  1  0  0  0  0
 20 21  2  0  0  0  0
M  END
>  <CHROM.1>
-122.34823712,-25.99897112,-84.35843779,-123.64907641,17.83981061,-20.84770306
25.60332980,0.00842368,-0.13681522,2.49480667

>  <Name>
ligand

>  <RI>
0

>  <Rbt.Current_Directory>
/home/itssahil/PROJECTS/Mol_Feturizer/Test_systems_manuscript/rnas/3sd3

>  <Rbt.Executable>
rbdock ($Id: //depot/dev/client3/rdock/2013.1/src/exe/rbdock.cxx#4 $)

>  <Rbt.Library>
libRbt.so (2013.1, Build901 2013/11/27)

>  <Rbt.Parameter_File>
/export/apps/rDock/src/rDock_2013.1_src/data/scripts/dock_solv.prm

>  <Rbt.Receptor>
prm/pocket_docking_2.prm

>  <SCORE>
-9.07317

>  <SCORE.INTER>
-10.3328

>  <SCORE.INTER.CONST>
1

>  <SCORE.INTER.POLAR>
0

>  <SCORE.INTER.ROT>
4

>  <SCORE.INTER.SOLV>
10.7445

>  <SCORE.INTER.VDW>
-16.7367

>  <SCORE.INTER.norm>
-0.469673

>  <SCORE.INTRA>
0.812718

>  <SCORE.INTRA.DIHEDRAL>
2.68091

>  <SCORE.INTRA.DIHEDRAL.0>
2.54655

>  <SCORE.INTRA.POLAR>
0

>  <SCORE.INTRA.POLAR.0>
0

>  <SCORE.INTRA.REPUL>
0

>  <SCORE.INTRA.REPUL.0>
0

>  <SCORE.INTRA.SOLV>
0.906578

>  <SCORE.INTRA.SOLV.lig_0>
-56.4922

>  <SCORE.INTRA.VDW>
-0.981025

>  <SCORE.INTRA.VDW.0>
-0.696801

>  <SCORE.INTRA.norm>
0.0369417

>  <SCORE.RESTR>
0.446919

>  <SCORE.RESTR.CAVITY>
0.446919

>  <SCORE.RESTR.norm>
0.0203145

>  <SCORE.SYSTEM>
0

>  <SCORE.SYSTEM.CONST>
0

>  <SCORE.SYSTEM.DIHEDRAL>
0

>  <SCORE.SYSTEM.SOLV>
0

>  <SCORE.SYSTEM.norm>
0

>  <SCORE.heavy>
22

>  <SCORE.norm>
-0.412417

>  <RMSD>
6.519

$$$$
ligand
 OpenBabel02271912143D
libRbt.so/2013.1/901 2013/11/27
 22 24  0  0  0  0  0  0  0  0999 V2000
   22.8609  -22.3445   26.3360 N   0  0  0  0  0  0  0  0  0  0  0  0
   21.4603  -20.6285   25.4268 N   0  0  0  0  0  0  0  0  0  0  0  0
   21.5726  -21.8832   25.8932 C   0  0  0  0  0  0  0  0  0  0  0  0
   20.5346  -22.7079   25.9576 N   0  0  0  0  0  0  0  0  0  0  0  0
   17.1615  -21.5426   22.7335 O   0  0  0  0  0  0  0  0  0  0  0  0
   19.3209  -22.2959   25.5472 C   0  0  0  0  0  0  0  0  0  0  0  0
   19.1672  -20.9772   25.0355 C   0  0  0  0  0  0  0  0  0  0  0  0
   18.2607  -23.1708   25.6254 O   0  0  0  0  0  0  0  0  0  0  0  0
   17.9221  -20.3918   24.5795 N   0  0  0  0  0  0  0  0  0  0  0  0
   17.6904  -18.9849   24.9318 C   0  0  2  0  0  0  0  0  0  0  0  0
   18.8605  -18.1416   24.5316 C   0  0  0  0  0  0  0  0  0  0  0  0
   20.2704  -20.1615   25.0010 C   0  0  0  0  0  0  0  0  0  0  0  0
   20.1422  -18.8435   24.5059 N   0  0  0  0  0  0  0  0  0  0  0  0
   17.4062  -18.7566   26.4274 C   0  0  0  0  0  0  0  0  0  0  0  0
   16.8113  -19.9479   27.0208 N   0  0  0  0  0  0  0  0  0  0  0  0
   12.6699  -20.7966   26.5417 C   0  0  0  0  0  0  0  0  0  0  0  0
   13.6030  -21.4401   25.7462 C   0  0  0  0  0  0  0  0  0  0  0  0
   14.9754  -21.1644   25.9004 C   0  0  0  0  0  0  0  0  0  0  0  0
   15.3944  -20.2449   26.8499 C   0  0  0  0  0  0  0  0  0  0  0  0
   14.4543  -19.5998   27.6481 C   0  0  0  0  0  0  0  0  0  0  0  0
   13.0932  -19.8761   27.4953 C   0  0  0  0  0  0  0  0  0  0  0  0
   16.9268  -21.0925   23.8424 C   0  0  0  0  0  0  0  0  0  0  0  0
  1  3  1  0  0  0  0
  2  3  2  0  0  0  0
  2 12  1  0  0  0  0
  3  4  1  0  0  0  0
  4  6  1  0  0  0  0
  5 22  1  0  0  0  0
  6  7  1  0  0  0  0
  6  8  2  0  0  0  0
  7 12  2  0  0  0  0
  7  9  1  0  0  0  0
  9 10  1  0  0  0  0
  9 22  1  0  0  0  0
 10 11  1  0  0  0  0
 10 14  1  1  0  0  0
 11 13  1  0  0  0  0
 12 13  1  0  0  0  0
 14 15  1  0  0  0  0
 15 19  1  0  0  0  0
 16 17  2  0  0  0  0
 16 21  1  0  0  0  0
 17 18  1  0  0  0  0
 18 19  2  0  0  0  0
 19 20  1  0  0  0  0
 20 21  2  0  0  0  0
M  END
>  <CHROM.1>
-62.94501586,-27.20433048,-79.60793722,99.68629436,17.84144047,-20.69875098
25.56206061,0.11082787,-0.17359294,2.98735177

>  <Name>
ligand

>  <RI>
0

>  <Rbt.Current_Directory>
/home/itssahil/PROJECTS/Mol_Feturizer/Test_systems_manuscript/rnas/3sd3

>  <Rbt.Executable>
rbdock ($Id: //depot/dev/client3/rdock/2013.1/src/exe/rbdock.cxx#4 $)

>  <Rbt.Library>
libRbt.so (2013.1, Build901 2013/11/27)

>  <Rbt.Parameter_File>
/export/apps/rDock/src/rDock_2013.1_src/data/scripts/dock_solv.prm

>  <Rbt.Receptor>
prm/pocket_docking_2.prm

>  <SCORE>
-11.837

>  <SCORE.INTER>
-13.2036

>  <SCORE.INTER.CONST>
1

>  <SCORE.INTER.POLAR>
0

>  <SCORE.INTER.ROT>
4

>  <SCORE.INTER.SOLV>
9.93899

>  <SCORE.INTER.VDW>
-18.382

>  <SCORE.INTER.norm>
-0.600163

>  <SCORE.INTRA>
0.874553

>  <SCORE.INTRA.DIHEDRAL>
2.39029

>  <SCORE.INTRA.DIHEDRAL.0>
2.54655

>  <SCORE.INTRA.POLAR>
0

>  <SCORE.INTRA.POLAR.0>
0

>  <SCORE.INTRA.REPUL>
0

>  <SCORE.INTRA.REPUL.0>
0

>  <SCORE.INTRA.SOLV>
0.91395

>  <SCORE.INTRA.SOLV.lig_0>
-56.4922

>  <SCORE.INTRA.VDW>
-0.777566

>  <SCORE.INTRA.VDW.0>
-0.696801

>  <SCORE.INTRA.norm>
0.0397524

>  <SCORE.RESTR>
0.492048

>  <SCORE.RESTR.CAVITY>
0.492048

>  <SCORE.RESTR.norm>
0.0223658

>  <SCORE.SYSTEM>
0

>  <SCORE.SYSTEM.CONST>
0

>  <SCORE.SYSTEM.DIHEDRAL>
0

>  <SCORE.SYSTEM.SOLV>
0

>  <SCORE.SYSTEM.norm>
0

>  <SCORE.heavy>
22

>  <SCORE.norm>
-0.538044

>  <RMSD>
6.519

$$$$
ligand
 OpenBabel02271912143D
libRbt.so/2013.1/901 2013/11/27
 22 24  0  0  0  0  0  0  0  0999 V2000
   21.8097  -16.3970   24.4008 N   0  0  0  0  0  0  0  0  0  0  0  0
   20.6856  -18.1269   23.1856 N   0  0  0  0  0  0  0  0  0  0  0  0
   21.1954  -17.6966   24.3514 C   0  0  0  0  0  0  0  0  0  0  0  0
   21.1502  -18.4316   25.4558 N   0  0  0  0  0  0  0  0  0  0  0  0
   20.6934  -23.3112   24.2006 O   0  0  0  0  0  0  0  0  0  0  0  0
   20.5808  -19.6507   25.4303 C   0  0  0  0  0  0  0  0  0  0  0  0
   20.0415  -20.1442   24.2096 C   0  0  0  0  0  0  0  0  0  0  0  0
   20.5462  -20.3922   26.5898 O   0  0  0  0  0  0  0  0  0  0  0  0
   19.3819  -21.4234   24.0379 N   0  0  0  0  0  0  0  0  0  0  0  0
   18.2004  -21.4408   23.1656 C   0  0  2  0  0  0  0  0  0  0  0  0
   18.5124  -20.8138   21.8427 C   0  0  0  0  0  0  0  0  0  0  0  0
   20.1044  -19.3394   23.0997 C   0  0  0  0  0  0  0  0  0  0  0  0
   19.5671  -19.8026   21.8768 N   0  0  0  0  0  0  0  0  0  0  0  0
   16.9716  -20.7361   23.7682 C   0  0  0  0  0  0  0  0  0  0  0  0
   16.6476  -21.3024   25.0718 N   0  0  0  0  0  0  0  0  0  0  0  0
   13.1982  -20.0324   27.2143 C   0  0  0  0  0  0  0  0  0  0  0  0
   14.4398  -19.5072   27.5310 C   0  0  0  0  0  0  0  0  0  0  0  0
   15.5854  -19.9226   26.8250 C   0  0  0  0  0  0  0  0  0  0  0  0
   15.4711  -20.8615   25.8110 C   0  0  0  0  0  0  0  0  0  0  0  0
   14.2219  -21.3875   25.4949 C   0  0  0  0  0  0  0  0  0  0  0  0
   13.0861  -20.9726   26.1949 C   0  0  0  0  0  0  0  0  0  0  0  0
   19.7944  -22.6314   24.6666 C   0  0  0  0  0  0  0  0  0  0  0  0
  1  3  1  0  0  0  0
  2  3  2  0  0  0  0
  2 12  1  0  0  0  0
  3  4  1  0  0  0  0
  4  6  1  0  0  0  0
  5 22  1  0  0  0  0
  6  7  1  0  0  0  0
  6  8  2  0  0  0  0
  7 12  2  0  0  0  0
  7  9  1  0  0  0  0
  9 10  1  0  0  0  0
  9 22  1  0  0  0  0
 10 11  1  0  0  0  0
 10 14  1  1  0  0  0
 11 13  1  0  0  0  0
 12 13  1  0  0  0  0
 14 15  1  0  0  0  0
 15 19  1  0  0  0  0
 16 17  2  0  0  0  0
 16 21  1  0  0  0  0
 17 18  1  0  0  0  0
 18 19  2  0  0  0  0
 19 20  1  0  0  0  0
 20 21  2  0  0  0  0
M  END
>  <CHROM.1>
-82.60320109,-55.19723477,-176.09660788,-98.59409409,18.40104499,-20.23202166
24.70094244,0.02350733,0.39555216,0.50130111

>  <Name>
ligand

>  <RI>
0

>  <Rbt.Current_Directory>
/home/itssahil/PROJECTS/Mol_Feturizer/Test_systems_manuscript/rnas/3sd3

>  <Rbt.Executable>
rbdock ($Id: //depot/dev/client3/rdock/2013.1/src/exe/rbdock.cxx#4 $)

>  <Rbt.Library>
libRbt.so (2013.1, Build901 2013/11/27)

>  <Rbt.Parameter_File>
/export/apps/rDock/src/rDock_2013.1_src/data/scripts/dock_solv.prm

>  <Rbt.Receptor>
prm/pocket_docking_6.prm

>  <SCORE>
-14.8409

>  <SCORE.INTER>
-13.5499

>  <SCORE.INTER.CONST>
1

>  <SCORE.INTER.POLAR>
0

>  <SCORE.INTER.ROT>
4

>  <SCORE.INTER.SOLV>
7.44864

>  <SCORE.INTER.VDW>
-17.7828

>  <SCORE.INTER.norm>
-0.615906

>  <SCORE.INTRA>
-1.29098

>  <SCORE.INTRA.DIHEDRAL>
-0.785466

>  <SCORE.INTRA.DIHEDRAL.0>
2.54655

>  <SCORE.INTRA.POLAR>
0

>  <SCORE.INTRA.POLAR.0>
0

>  <SCORE.INTRA.REPUL>
0

>  <SCORE.INTRA.REPUL.0>
0

>  <SCORE.INTRA.SOLV>
-0.173116

>  <SCORE.INTRA.SOLV.lig_0>
-56.4922

>  <SCORE.INTRA.VDW>
-0.811692

>  <SCORE.INTRA.VDW.0>
-0.696801

>  <SCORE.INTRA.norm>
-0.0586811

>  <SCORE.RESTR>
0

>  <SCORE.RESTR.CAVITY>
0

>  <SCORE.RESTR.norm>
0

>  <SCORE.SYSTEM>
0

>  <SCORE.SYSTEM.CONST>
0

>  <SCORE.SYSTEM.DIHEDRAL>
0

>  <SCORE.SYSTEM.SOLV>
0

>  <SCORE.SYSTEM.norm>
0

>  <SCORE.heavy>
22

>  <SCORE.norm>
-0.674587

>  <RMSD>
6.522

$$$$
ligand
 OpenBabel02271912143D
libRbt.so/2013.1/901 2013/11/27
 22 24  0  0  0  0  0  0  0  0999 V2000
   22.9464  -22.3635   26.1916 N   0  0  0  0  0  0  0  0  0  0  0  0
   21.5019  -20.6485   25.3520 N   0  0  0  0  0  0  0  0  0  0  0  0
   21.6416  -21.9103   25.7905 C   0  0  0  0  0  0  0  0  0  0  0  0
   20.6159  -22.7495   25.8647 N   0  0  0  0  0  0  0  0  0  0  0  0
   16.7209  -20.8973   22.6975 O   0  0  0  0  0  0  0  0  0  0  0  0
   19.3872  -22.3453   25.4932 C   0  0  0  0  0  0  0  0  0  0  0  0
   19.2042  -21.0190   25.0116 C   0  0  0  0  0  0  0  0  0  0  0  0
   18.3403  -23.2352   25.5807 O   0  0  0  0  0  0  0  0  0  0  0  0
   17.9407  -20.4410   24.5987 N   0  0  0  0  0  0  0  0  0  0  0  0
   17.7006  -19.0445   24.9845 C   0  0  2  0  0  0  0  0  0  0  0  0
   18.8495  -18.1784   24.5717 C   0  0  0  0  0  0  0  0  0  0  0  0
   20.2959  -20.1886   24.9655 C   0  0  0  0  0  0  0  0  0  0  0  0
   20.1388  -18.8631   24.5000 N   0  0  0  0  0  0  0  0  0  0  0  0
   17.4515  -18.8489   26.4910 C   0  0  0  0  0  0  0  0  0  0  0  0
   16.8178  -20.0318   27.0605 N   0  0  0  0  0  0  0  0  0  0  0  0
   12.6606  -20.7606   26.5234 C   0  0  0  0  0  0  0  0  0  0  0  0
   13.5843  -21.4064   25.7189 C   0  0  0  0  0  0  0  0  0  0  0  0
   14.9619  -21.1704   25.8922 C   0  0  0  0  0  0  0  0  0  0  0  0
   15.3954  -20.2875   26.8696 C   0  0  0  0  0  0  0  0  0  0  0  0
   14.4647  -19.6400   27.6767 C   0  0  0  0  0  0  0  0  0  0  0  0
   13.0985  -19.8770   27.5049 C   0  0  0  0  0  0  0  0  0  0  0  0
   16.9358  -21.1401   23.8732 C   0  0  0  0  0  0  0  0  0  0  0  0
  1  3  1  0  0  0  0
  2  3  2  0  0  0  0
  2 12  1  0  0  0  0
  3  4  1  0  0  0  0
  4  6  1  0  0  0  0
  5 22  1  0  0  0  0
  6  7  1  0  0  0  0
  6  8  2  0  0  0  0
  7 12  2  0  0  0  0
  7  9  1  0  0  0  0
  9 10  1  0  0  0  0
  9 22  1  0  0  0  0
 10 11  1  0  0  0  0
 10 14  1  1  0  0  0
 11 13  1  0  0  0  0
 12 13  1  0  0  0  0
 14 15  1  0  0  0  0
 15 19  1  0  0  0  0
 16 17  2  0  0  0  0
 16 21  1  0  0  0  0
 17 18  1  0  0  0  0
 18 19  2  0  0  0  0
 19 20  1  0  0  0  0
 20 21  2  0  0  0  0
M  END
>  <CHROM.1>
-107.72751557,-30.38263106,-77.57034570,98.95094668,17.84235314,-20.69605949
25.54524609,0.09161225,-0.18559646,2.84595222

>  <Name>
ligand

>  <RI>
0

>  <Rbt.Current_Directory>
/home/itssahil/PROJECTS/Mol_Feturizer/Test_systems_manuscript/rnas/3sd3

>  <Rbt.Executable>
rbdock ($Id: //depot/dev/client3/rdock/2013.1/src/exe/rbdock.cxx#4 $)

>  <Rbt.Library>
libRbt.so (2013.1, Build901 2013/11/27)

>  <Rbt.Parameter_File>
/export/apps/rDock/src/rDock_2013.1_src/data/scripts/dock_solv.prm

>  <Rbt.Receptor>
prm/pocket_docking_2.prm

>  <SCORE>
-11.7319

>  <SCORE.INTER>
-12.9212

>  <SCORE.INTER.CONST>
1

>  <SCORE.INTER.POLAR>
0

>  <SCORE.INTER.ROT>
4

>  <SCORE.INTER.SOLV>
10.0338

>  <SCORE.INTER.VDW>
-18.2254

>  <SCORE.INTER.norm>
-0.587325

>  <SCORE.INTRA>
0.699178

>  <SCORE.INTRA.DIHEDRAL>
1.91929

>  <SCORE.INTRA.DIHEDRAL.0>
2.54655

>  <SCORE.INTRA.POLAR>
0

>  <SCORE.INTRA.POLAR.0>
0

>  <SCORE.INTRA.REPUL>
0

>  <SCORE.INTRA.REPUL.0>
0

>  <SCORE.INTRA.SOLV>
0.740114

>  <SCORE.INTRA.SOLV.lig_0>
-56.4922

>  <SCORE.INTRA.VDW>
-0.630525

>  <SCORE.INTRA.VDW.0>
-0.696801

>  <SCORE.INTRA.norm>
0.0317808

>  <SCORE.RESTR>
0.490041

>  <SCORE.RESTR.CAVITY>
0.490041

>  <SCORE.RESTR.norm>
0.0222746

>  <SCORE.SYSTEM>
0

>  <SCORE.SYSTEM.CONST>
0

>  <SCORE.SYSTEM.DIHEDRAL>
0

>  <SCORE.SYSTEM.SOLV>
0

>  <SCORE.SYSTEM.norm>
0

>  <SCORE.heavy>
22

>  <SCORE.norm>
-0.53327

>  <RMSD>
6.531

$$$$
ligand
 OpenBabel02271912143D
libRbt.so/2013.1/901 2013/11/27
 22 24  0  0  0  0  0  0  0  0999 V2000
   23.7104  -19.1714   26.7751 N   0  0  0  0  0  0  0  0  0  0  0  0
   22.0593  -20.8957   26.5926 N   0  0  0  0  0  0  0  0  0  0  0  0
   22.3639  -19.6410   26.9626 C   0  0  0  0  0  0  0  0  0  0  0  0
   21.4635  -18.8236   27.4946 N   0  0  0  0  0  0  0  0  0  0  0  0
   18.0361  -20.9556   29.6752 O   0  0  0  0  0  0  0  0  0  0  0  0
   20.1985  -19.2441   27.6794 C   0  0  0  0  0  0  0  0  0  0  0  0
   19.8429  -20.5716   27.3107 C   0  0  0  0  0  0  0  0  0  0  0  0
   19.2839  -18.3761   28.2323 O   0  0  0  0  0  0  0  0  0  0  0  0
   18.5202  -21.1521   27.4308 N   0  0  0  0  0  0  0  0  0  0  0  0
   18.0803  -22.0165   26.3279 C   0  0  2  0  0  0  0  0  0  0  0  0
   19.1060  -23.0682   26.0409 C   0  0  0  0  0  0  0  0  0  0  0  0
   20.8093  -21.3719   26.7547 C   0  0  0  0  0  0  0  0  0  0  0  0
   20.4792  -22.6919   26.3710 N   0  0  0  0  0  0  0  0  0  0  0  0
   17.7752  -21.2560   25.0248 C   0  0  0  0  0  0  0  0  0  0  0  0
   16.9254  -20.1027   25.2947 N   0  0  0  0  0  0  0  0  0  0  0  0
   13.0429  -20.5657   26.9721 C   0  0  0  0  0  0  0  0  0  0  0  0
   13.4072  -21.3059   25.8599 C   0  0  0  0  0  0  0  0  0  0  0  0
   14.6911  -21.1581   25.3004 C   0  0  0  0  0  0  0  0  0  0  0  0
   15.5931  -20.2678   25.8629 C   0  0  0  0  0  0  0  0  0  0  0  0
   15.2242  -19.5253   26.9808 C   0  0  0  0  0  0  0  0  0  0  0  0
   13.9508  -19.6748   27.5360 C   0  0  0  0  0  0  0  0  0  0  0  0
   17.6376  -20.9223   28.5230 C   0  0  0  0  0  0  0  0  0  0  0  0
  1  3  1  0  0  0  0
  2  3  2  0  0  0  0
  2 12  1  0  0  0  0
  3  4  1  0  0  0  0
  4  6  1  0  0  0  0
  5 22  1  0  0  0  0
  6  7  1  0  0  0  0
  6  8  2  0  0  0  0
  7 12  2  0  0  0  0
  7  9  1  0  0  0  0
  9 10  1  0  0  0  0
  9 22  1  0  0  0  0
 10 11  1  0  0  0  0
 10 14  1  6  0  0  0
 11 13  1  0  0  0  0
 12 13  1  0  0  0  0
 14 15  1  0  0  0  0
 15 19  1  0  0  0  0
 16 17  2  0  0  0  0
 16 21  1  0  0  0  0
 17 18  1  0  0  0  0
 18 19  2  0  0  0  0
 19 20  1  0  0  0  0
 20 21  2  0  0  0  0
M  END
>  <CHROM.1>
-44.69821024,-48.17590633,-61.35137762,-50.79335271,18.38154239,-20.57971855
26.90382288,0.10876800,-0.01867790,0.68888631

>  <Name>
ligand

>  <RI>
0

>  <Rbt.Current_Directory>
/home/itssahil/PROJECTS/Mol_Feturizer/Test_systems_manuscript/rnas/3sd3

>  <Rbt.Executable>
rbdock ($Id: //depot/dev/client3/rdock/2013.1/src/exe/rbdock.cxx#4 $)

>  <Rbt.Library>
libRbt.so (2013.1, Build901 2013/11/27)

>  <Rbt.Parameter_File>
/export/apps/rDock/src/rDock_2013.1_src/data/scripts/dock_solv.prm

>  <Rbt.Receptor>
prm/pocket_docking_5.prm

>  <SCORE>
-16.767

>  <SCORE.INTER>
-15.2504

>  <SCORE.INTER.CONST>
1

>  <SCORE.INTER.POLAR>
0

>  <SCORE.INTER.ROT>
4

>  <SCORE.INTER.SOLV>
8.66946

>  <SCORE.INTER.VDW>
-19.3234

>  <SCORE.INTER.norm>
-0.693199

>  <SCORE.INTRA>
-1.51665

>  <SCORE.INTRA.DIHEDRAL>
-0.432898

>  <SCORE.INTRA.DIHEDRAL.0>
2.54655

>  <SCORE.INTRA.POLAR>
0

>  <SCORE.INTRA.POLAR.0>
0

>  <SCORE.INTRA.REPUL>
0

>  <SCORE.INTRA.REPUL.0>
0

>  <SCORE.INTRA.SOLV>
0.318675

>  <SCORE.INTRA.SOLV.lig_0>
-56.4922

>  <SCORE.INTRA.VDW>
-1.45953

>  <SCORE.INTRA.VDW.0>
-0.696801

>  <SCORE.INTRA.norm>
-0.0689385

>  <SCORE.RESTR>
0

>  <SCORE.RESTR.CAVITY>
0

>  <SCORE.RESTR.norm>
0

>  <SCORE.SYSTEM>
0

>  <SCORE.SYSTEM.CONST>
0

>  <SCORE.SYSTEM.DIHEDRAL>
0

>  <SCORE.SYSTEM.SOLV>
0

>  <SCORE.SYSTEM.norm>
0

>  <SCORE.heavy>
22

>  <SCORE.norm>
-0.762137

>  <RMSD>
6.531

$$$$
ligand
 OpenBabel02271912143D
libRbt.so/2013.1/901 2013/11/27
 22 24  0  0  0  0  0  0  0  0999 V2000
   23.9014  -19.4759   26.0969 N   0  0  0  0  0  0  0  0  0  0  0  0
   22.1680  -21.1276   26.1013 N   0  0  0  0  0  0  0  0  0  0  0  0
   22.5620  -19.8849   26.4245 C   0  0  0  0  0  0  0  0  0  0  0  0
   21.7558  -19.0253   27.0353 N   0  0  0  0  0  0  0  0  0  0  0  0
   17.4443  -19.8595   28.6410 O   0  0  0  0  0  0  0  0  0  0  0  0
   20.4992  -19.3888   27.3514 C   0  0  0  0  0  0  0  0  0  0  0  0
   20.0517  -20.7019   27.0354 C   0  0  0  0  0  0  0  0  0  0  0  0
   19.6832  -18.4779   27.9839 O   0  0  0  0  0  0  0  0  0  0  0  0
   18.7242  -21.2232   27.2947 N   0  0  0  0  0  0  0  0  0  0  0  0
   18.1384  -22.0751   26.2516 C   0  0  2  0  0  0  0  0  0  0  0  0
   19.0838  -23.1726   25.8745 C   0  0  0  0  0  0  0  0  0  0  0  0
   20.9217  -21.5475   26.3939 C   0  0  0  0  0  0  0  0  0  0  0  0
   20.4982  -22.8544   26.0603 N   0  0  0  0  0  0  0  0  0  0  0  0
   17.7358  -21.3110   24.9774 C   0  0  0  0  0  0  0  0  0  0  0  0
   16.9508  -20.1306   25.3175 N   0  0  0  0  0  0  0  0  0  0  0  0
   13.0409  -20.4755   26.9591 C   0  0  0  0  0  0  0  0  0  0  0  0
   13.4040  -21.2521   25.8716 C   0  0  0  0  0  0  0  0  0  0  0  0
   14.6970  -21.1435   25.3241 C   0  0  0  0  0  0  0  0  0  0  0  0
   15.6091  -20.2553   25.8735 C   0  0  0  0  0  0  0  0  0  0  0  0
   15.2413  -19.4762   26.9665 C   0  0  0  0  0  0  0  0  0  0  0  0
   13.9589  -19.5867   27.5099 C   0  0  0  0  0  0  0  0  0  0  0  0
   17.9673  -20.9476   28.4677 C   0  0  0  0  0  0  0  0  0  0  0  0
  1  3  1  0  0  0  0
  2  3  2  0  0  0  0
  2 12  1  0  0  0  0
  3  4  1  0  0  0  0
  4  6  1  0  0  0  0
  5 22  1  0  0  0  0
  6  7  1  0  0  0  0
  6  8  2  0  0  0  0
  7 12  2  0  0  0  0
  7  9  1  0  0  0  0
  9 10  1  0  0  0  0
  9 22  1  0  0  0  0
 10 11  1  0  0  0  0
 10 14  1  6  0  0  0
 11 13  1  0  0  0  0
 12 13  1  0  0  0  0
 14 15  1  0  0  0  0
 15 19  1  0  0  0  0
 16 17  2  0  0  0  0
 16 21  1  0  0  0  0
 17 18  1  0  0  0  0
 18 19  2  0  0  0  0
 19 20  1  0  0  0  0
 20 21  2  0  0  0  0
M  END
>  <CHROM.1>
73.92664334,-49.02339569,-68.23590425,-45.25684166,18.46244963,-20.60062015
26.65600587,0.02772219,0.00853104,0.59260517

>  <Name>
ligand

>  <RI>
0

>  <Rbt.Current_Directory>
/home/itssahil/PROJECTS/Mol_Feturizer/Test_systems_manuscript/rnas/3sd3

>  <Rbt.Executable>
rbdock ($Id: //depot/dev/client3/rdock/2013.1/src/exe/rbdock.cxx#4 $)

>  <Rbt.Library>
libRbt.so (2013.1, Build901 2013/11/27)

>  <Rbt.Parameter_File>
/export/apps/rDock/src/rDock_2013.1_src/data/scripts/dock_solv.prm

>  <Rbt.Receptor>
prm/pocket_docking_5.prm

>  <SCORE>
-15.8767

>  <SCORE.INTER>
-14.8156

>  <SCORE.INTER.CONST>
1

>  <SCORE.INTER.POLAR>
0

>  <SCORE.INTER.ROT>
4

>  <SCORE.INTER.SOLV>
8.67533

>  <SCORE.INTER.VDW>
-19.0355

>  <SCORE.INTER.norm>
-0.673435

>  <SCORE.INTRA>
-1.06111

>  <SCORE.INTRA.DIHEDRAL>
-0.443755

>  <SCORE.INTRA.DIHEDRAL.0>
2.54655

>  <SCORE.INTRA.POLAR>
0

>  <SCORE.INTRA.POLAR.0>
0

>  <SCORE.INTRA.REPUL>
0

>  <SCORE.INTRA.REPUL.0>
0

>  <SCORE.INTRA.SOLV>
1.12907

>  <SCORE.INTRA.SOLV.lig_0>
-56.4922

>  <SCORE.INTRA.VDW>
-1.40377

>  <SCORE.INTRA.VDW.0>
-0.696801

>  <SCORE.INTRA.norm>
-0.0482325

>  <SCORE.RESTR>
0

>  <SCORE.RESTR.CAVITY>
0

>  <SCORE.RESTR.norm>
0

>  <SCORE.SYSTEM>
0

>  <SCORE.SYSTEM.CONST>
0

>  <SCORE.SYSTEM.DIHEDRAL>
0

>  <SCORE.SYSTEM.SOLV>
0

>  <SCORE.SYSTEM.norm>
0

>  <SCORE.heavy>
22

>  <SCORE.norm>
-0.721667

>  <RMSD>
6.541

$$$$
ligand
 OpenBabel02271912143D
libRbt.so/2013.1/901 2013/11/27
 22 24  0  0  0  0  0  0  0  0999 V2000
   23.6336  -19.0829   26.0105 N   0  0  0  0  0  0  0  0  0  0  0  0
   22.0085  -20.8302   26.2078 N   0  0  0  0  0  0  0  0  0  0  0  0
   22.3141  -19.5318   26.3659 C   0  0  0  0  0  0  0  0  0  0  0  0
   21.4388  -18.6531   26.8386 N   0  0  0  0  0  0  0  0  0  0  0  0
   17.8617  -21.1573   29.5332 O   0  0  0  0  0  0  0  0  0  0  0  0
   20.1995  -19.0531   27.1780 C   0  0  0  0  0  0  0  0  0  0  0  0
   19.8447  -20.4237   27.0357 C   0  0  0  0  0  0  0  0  0  0  0  0
   19.3106  -18.1214   27.6651 O   0  0  0  0  0  0  0  0  0  0  0  0
   18.5462  -20.9921   27.3390 N   0  0  0  0  0  0  0  0  0  0  0  0
   18.0442  -22.0138   26.4111 C   0  0  2  0  0  0  0  0  0  0  0  0
   19.0670  -23.0870   26.2048 C   0  0  0  0  0  0  0  0  0  0  0  0
   20.7836  -21.2885   26.5318 C   0  0  0  0  0  0  0  0  0  0  0  0
   20.4528  -22.6536   26.3717 N   0  0  0  0  0  0  0  0  0  0  0  0
   17.6292  -21.4569   25.0373 C   0  0  0  0  0  0  0  0  0  0  0  0
   16.8222  -20.2535   25.1978 N   0  0  0  0  0  0  0  0  0  0  0  0
   12.9926  -20.4273   27.0430 C   0  0  0  0  0  0  0  0  0  0  0  0
   13.9660  -19.5834   27.5510 C   0  0  0  0  0  0  0  0  0  0  0  0
   15.2353  -19.5204   26.9443 C   0  0  0  0  0  0  0  0  0  0  0  0
   15.5129  -20.3066   25.8363 C   0  0  0  0  0  0  0  0  0  0  0  0
   14.5325  -21.1537   25.3279 C   0  0  0  0  0  0  0  0  0  0  0  0
   13.2730  -21.2133   25.9297 C   0  0  0  0  0  0  0  0  0  0  0  0
   17.7415  -20.6116   28.4492 C   0  0  0  0  0  0  0  0  0  0  0  0
  1  3  1  0  0  0  0
  2  3  2  0  0  0  0
  2 12  1  0  0  0  0
  3  4  1  0  0  0  0
  4  6  1  0  0  0  0
  5 22  1  0  0  0  0
  6  7  1  0  0  0  0
  6  8  2  0  0  0  0
  7 12  2  0  0  0  0
  7  9  1  0  0  0  0
  9 10  1  0  0  0  0
  9 22  1  0  0  0  0
 10 11  1  0  0  0  0
 10 14  1  6  0  0  0
 11 13  1  0  0  0  0
 12 13  1  0  0  0  0
 14 15  1  0  0  0  0
 15 19  1  0  0  0  0
 16 17  2  0  0  0  0
 16 21  1  0  0  0  0
 17 18  1  0  0  0  0
 18 19  2  0  0  0  0
 19 20  1  0  0  0  0
 20 21  2  0  0  0  0
M  END
>  <CHROM.1>
-88.41909768,-45.93238328,-64.77905780,123.24896394,18.33624090,-20.52042456
26.71677939,0.07507123,0.03290482,0.47090336

>  <Name>
ligand

>  <RI>
0

>  <Rbt.Current_Directory>
/home/itssahil/PROJECTS/Mol_Feturizer/Test_systems_manuscript/rnas/3sd3

>  <Rbt.Executable>
rbdock ($Id: //depot/dev/client3/rdock/2013.1/src/exe/rbdock.cxx#4 $)

>  <Rbt.Library>
libRbt.so (2013.1, Build901 2013/11/27)

>  <Rbt.Parameter_File>
/export/apps/rDock/src/rDock_2013.1_src/data/scripts/dock_solv.prm

>  <Rbt.Receptor>
prm/pocket_docking_6.prm

>  <SCORE>
-16.6048

>  <SCORE.INTER>
-15.2395

>  <SCORE.INTER.CONST>
1

>  <SCORE.INTER.POLAR>
0

>  <SCORE.INTER.ROT>
4

>  <SCORE.INTER.SOLV>
8.6799

>  <SCORE.INTER.VDW>
-19.3196

>  <SCORE.INTER.norm>
-0.692703

>  <SCORE.INTRA>
-1.36539

>  <SCORE.INTRA.DIHEDRAL>
-0.17344

>  <SCORE.INTRA.DIHEDRAL.0>
2.54655

>  <SCORE.INTRA.POLAR>
0

>  <SCORE.INTRA.POLAR.0>
0

>  <SCORE.INTRA.REPUL>
0

>  <SCORE.INTRA.REPUL.0>
0

>  <SCORE.INTRA.SOLV>
0.224046

>  <SCORE.INTRA.SOLV.lig_0>
-56.4922

>  <SCORE.INTRA.VDW>
-1.39069

>  <SCORE.INTRA.VDW.0>
-0.696801

>  <SCORE.INTRA.norm>
-0.062063

>  <SCORE.RESTR>
0

>  <SCORE.RESTR.CAVITY>
0

>  <SCORE.RESTR.norm>
0

>  <SCORE.SYSTEM>
0

>  <SCORE.SYSTEM.CONST>
0

>  <SCORE.SYSTEM.DIHEDRAL>
0

>  <SCORE.SYSTEM.SOLV>
0

>  <SCORE.SYSTEM.norm>
0

>  <SCORE.heavy>
22

>  <SCORE.norm>
-0.754766

>  <RMSD>
6.541

$$$$
ligand
 OpenBabel02271912143D
libRbt.so/2013.1/901 2013/11/27
 22 24  0  0  0  0  0  0  0  0999 V2000
   22.6247  -22.5739   26.5794 N   0  0  0  0  0  0  0  0  0  0  0  0
   21.4331  -20.5003   26.4650 N   0  0  0  0  0  0  0  0  0  0  0  0
   21.4374  -21.8277   26.2597 C   0  0  0  0  0  0  0  0  0  0  0  0
   20.3831  -22.4700   25.7722 N   0  0  0  0  0  0  0  0  0  0  0  0
   17.5960  -20.1554   23.2329 O   0  0  0  0  0  0  0  0  0  0  0  0
   19.2629  -21.7900   25.4657 C   0  0  0  0  0  0  0  0  0  0  0  0
   19.2268  -20.3807   25.6583 C   0  0  0  0  0  0  0  0  0  0  0  0
   18.1833  -22.4804   24.9624 O   0  0  0  0  0  0  0  0  0  0  0  0
   18.0872  -19.5248   25.3942 N   0  0  0  0  0  0  0  0  0  0  0  0
   17.8353  -18.4499   26.3629 C   0  0  2  0  0  0  0  0  0  0  0  0
   19.0750  -17.6419   26.5881 C   0  0  0  0  0  0  0  0  0  0  0  0
   20.3402  -19.7673   26.1755 C   0  0  0  0  0  0  0  0  0  0  0  0
   20.3264  -18.3693   26.3853 N   0  0  0  0  0  0  0  0  0  0  0  0
   17.3166  -18.9477   27.7240 C   0  0  0  0  0  0  0  0  0  0  0  0
   15.8747  -18.7562   27.8210 N   0  0  0  0  0  0  0  0  0  0  0  0
   13.1535  -21.4213   25.9253 C   0  0  0  0  0  0  0  0  0  0  0  0
   14.4982  -21.4585   25.5966 C   0  0  0  0  0  0  0  0  0  0  0  0
   15.4043  -20.5797   26.2211 C   0  0  0  0  0  0  0  0  0  0  0  0
   14.9494  -19.6730   27.1666 C   0  0  0  0  0  0  0  0  0  0  0  0
   13.5974  -19.6381   27.4949 C   0  0  0  0  0  0  0  0  0  0  0  0
   12.7001  -20.5121   26.8759 C   0  0  0  0  0  0  0  0  0  0  0  0
   17.2087  -19.6752   24.2850 C   0  0  0  0  0  0  0  0  0  0  0  0
  1  3  1  0  0  0  0
  2  3  2  0  0  0  0
  2 12  1  0  0  0  0
  3  4  1  0  0  0  0
  4  6  1  0  0  0  0
  5 22  1  0  0  0  0
  6  7  1  0  0  0  0
  6  8  2  0  0  0  0
  7 12  2  0  0  0  0
  7  9  1  0  0  0  0
  9 10  1  0  0  0  0
  9 22  1  0  0  0  0
 10 11  1  0  0  0  0
 10 14  1  1  0  0  0
 11 13  1  0  0  0  0
 12 13  1  0  0  0  0
 14 15  1  0  0  0  0
 15 19  1  0  0  0  0
 16 17  2  0  0  0  0
 16 21  1  0  0  0  0
 17 18  1  0  0  0  0
 18 19  2  0  0  0  0
 19 20  1  0  0  0  0
 20 21  2  0  0  0  0
M  END
>  <CHROM.1>
-28.93899209,-101.32241187,78.51237917,-13.21709183,17.84094823,-20.29182831
26.06931355,0.14810879,-0.01633543,-2.71646295

>  <Name>
ligand

>  <RI>
0

>  <Rbt.Current_Directory>
/home/itssahil/PROJECTS/Mol_Feturizer/Test_systems_manuscript/rnas/3sd3

>  <Rbt.Executable>
rbdock ($Id: //depot/dev/client3/rdock/2013.1/src/exe/rbdock.cxx#4 $)

>  <Rbt.Library>
libRbt.so (2013.1, Build901 2013/11/27)

>  <Rbt.Parameter_File>
/export/apps/rDock/src/rDock_2013.1_src/data/scripts/dock_solv.prm

>  <Rbt.Receptor>
prm/pocket_docking_2.prm

>  <SCORE>
-9.09888

>  <SCORE.INTER>
-11.2717

>  <SCORE.INTER.CONST>
1

>  <SCORE.INTER.POLAR>
0

>  <SCORE.INTER.ROT>
4

>  <SCORE.INTER.SOLV>
13.8913

>  <SCORE.INTER.VDW>
-18.4115

>  <SCORE.INTER.norm>
-0.512349

>  <SCORE.INTRA>
1.65702

>  <SCORE.INTRA.DIHEDRAL>
3.36176

>  <SCORE.INTRA.DIHEDRAL.0>
2.54655

>  <SCORE.INTRA.POLAR>
0

>  <SCORE.INTRA.POLAR.0>
0

>  <SCORE.INTRA.REPUL>
0

>  <SCORE.INTRA.REPUL.0>
0

>  <SCORE.INTRA.SOLV>
-0.216265

>  <SCORE.INTRA.SOLV.lig_0>
-56.4922

>  <SCORE.INTRA.VDW>
0.0842711

>  <SCORE.INTRA.VDW.0>
-0.696801

>  <SCORE.INTRA.norm>
0.075319

>  <SCORE.RESTR>
0.515775

>  <SCORE.RESTR.CAVITY>
0.515775

>  <SCORE.RESTR.norm>
0.0234443

>  <SCORE.SYSTEM>
0

>  <SCORE.SYSTEM.CONST>
0

>  <SCORE.SYSTEM.DIHEDRAL>
0

>  <SCORE.SYSTEM.SOLV>
0

>  <SCORE.SYSTEM.norm>
0

>  <SCORE.heavy>
22

>  <SCORE.norm>
-0.413586

>  <RMSD>
6.545

$$$$
ligand
 OpenBabel02271912143D
libRbt.so/2013.1/901 2013/11/27
 22 24  0  0  0  0  0  0  0  0999 V2000
   22.6561  -22.3064   27.4758 N   0  0  0  0  0  0  0  0  0  0  0  0
   21.5242  -20.4491   26.4746 N   0  0  0  0  0  0  0  0  0  0  0  0
   21.5308  -21.7604   26.7656 C   0  0  0  0  0  0  0  0  0  0  0  0
   20.5341  -22.5655   26.4188 N   0  0  0  0  0  0  0  0  0  0  0  0
   16.7626  -21.4357   23.8412 O   0  0  0  0  0  0  0  0  0  0  0  0
   19.4727  -22.0745   25.7529 C   0  0  0  0  0  0  0  0  0  0  0  0
   19.4375  -20.6924   25.4167 C   0  0  0  0  0  0  0  0  0  0  0  0
   18.4520  -22.9308   25.4057 O   0  0  0  0  0  0  0  0  0  0  0  0
   18.3545  -20.0227   24.7240 N   0  0  0  0  0  0  0  0  0  0  0  0
   18.0032  -18.6783   25.1997 C   0  0  2  0  0  0  0  0  0  0  0  0
   19.2193  -17.8082   25.2669 C   0  0  0  0  0  0  0  0  0  0  0  0
   20.4887  -19.9019   25.8087 C   0  0  0  0  0  0  0  0  0  0  0  0
   20.4733  -18.5234   25.4953 N   0  0  0  0  0  0  0  0  0  0  0  0
   17.3110  -18.6659   26.5746 C   0  0  0  0  0  0  0  0  0  0  0  0
   16.7687  -19.9832   26.8842 N   0  0  0  0  0  0  0  0  0  0  0  0
   12.6046  -20.7860   26.5426 C   0  0  0  0  0  0  0  0  0  0  0  0
   13.0615  -19.9113   27.5140 C   0  0  0  0  0  0  0  0  0  0  0  0
   14.4386  -19.6405   27.6318 C   0  0  0  0  0  0  0  0  0  0  0  0
   15.3403  -20.2523   26.7743 C   0  0  0  0  0  0  0  0  0  0  0  0
   14.8780  -21.1309   25.7989 C   0  0  0  0  0  0  0  0  0  0  0  0
   13.5113  -21.3968   25.6820 C   0  0  0  0  0  0  0  0  0  0  0  0
   17.6180  -20.5886   23.6460 C   0  0  0  0  0  0  0  0  0  0  0  0
  1  3  1  0  0  0  0
  2  3  2  0  0  0  0
  2 12  1  0  0  0  0
  3  4  1  0  0  0  0
  4  6  1  0  0  0  0
  5 22  1  0  0  0  0
  6  7  1  0  0  0  0
  6  8  2  0  0  0  0
  7 12  2  0  0  0  0
  7  9  1  0  0  0  0
  9 10  1  0  0  0  0
  9 22  1  0  0  0  0
 10 11  1  0  0  0  0
 10 14  1  1  0  0  0
 11 13  1  0  0  0  0
 12 13  1  0  0  0  0
 14 15  1  0  0  0  0
 15 19  1  0  0  0  0
 16 17  2  0  0  0  0
 16 21  1  0  0  0  0
 17 18  1  0  0  0  0
 18 19  2  0  0  0  0
 19 20  1  0  0  0  0
 20 21  2  0  0  0  0
M  END
>  <CHROM.1>
76.39156562,-18.89936109,-103.80888289,-67.02618211,17.92787139,-20.53573980
25.91487580,0.08635956,-0.03603801,3.05440055

>  <Name>
ligand

>  <RI>
0

>  <Rbt.Current_Directory>
/home/itssahil/PROJECTS/Mol_Feturizer/Test_systems_manuscript/rnas/3sd3

>  <Rbt.Executable>
rbdock ($Id: //depot/dev/client3/rdock/2013.1/src/exe/rbdock.cxx#4 $)

>  <Rbt.Library>
libRbt.so (2013.1, Build901 2013/11/27)

>  <Rbt.Parameter_File>
/export/apps/rDock/src/rDock_2013.1_src/data/scripts/dock_solv.prm

>  <Rbt.Receptor>
prm/pocket_docking_2.prm

>  <SCORE>
-9.88566

>  <SCORE.INTER>
-11.9153

>  <SCORE.INTER.CONST>
1

>  <SCORE.INTER.POLAR>
0

>  <SCORE.INTER.ROT>
4

>  <SCORE.INTER.SOLV>
9.95438

>  <SCORE.INTER.VDW>
-17.5284

>  <SCORE.INTER.norm>
-0.541606

>  <SCORE.INTRA>
1.64102

>  <SCORE.INTRA.DIHEDRAL>
4.11838

>  <SCORE.INTRA.DIHEDRAL.0>
2.54655

>  <SCORE.INTRA.POLAR>
0

>  <SCORE.INTRA.POLAR.0>
0

>  <SCORE.INTRA.REPUL>
0

>  <SCORE.INTRA.REPUL.0>
0

>  <SCORE.INTRA.SOLV>
1.98812

>  <SCORE.INTRA.SOLV.lig_0>
-56.4922

>  <SCORE.INTRA.VDW>
-1.41223

>  <SCORE.INTRA.VDW.0>
-0.696801

>  <SCORE.INTRA.norm>
0.0745919

>  <SCORE.RESTR>
0.388656

>  <SCORE.RESTR.CAVITY>
0.388656

>  <SCORE.RESTR.norm>
0.0176662

>  <SCORE.SYSTEM>
0

>  <SCORE.SYSTEM.CONST>
0

>  <SCORE.SYSTEM.DIHEDRAL>
0

>  <SCORE.SYSTEM.SOLV>
0

>  <SCORE.SYSTEM.norm>
0

>  <SCORE.heavy>
22

>  <SCORE.norm>
-0.449348

>  <RMSD>
6.545

$$$$
ligand
 OpenBabel02271912143D
libRbt.so/2013.1/901 2013/11/27
 22 24  0  0  0  0  0  0  0  0999 V2000
   21.4865  -16.2166   22.5377 N   0  0  0  0  0  0  0  0  0  0  0  0
   20.5338  -18.3707   22.1076 N   0  0  0  0  0  0  0  0  0  0  0  0
   21.0337  -17.5009   23.0007 C   0  0  0  0  0  0  0  0  0  0  0  0
   21.1228  -17.7891   24.2933 N   0  0  0  0  0  0  0  0  0  0  0  0
   21.4451  -22.3842   25.1210 O   0  0  0  0  0  0  0  0  0  0  0  0
   20.7057  -18.9857   24.7465 C   0  0  0  0  0  0  0  0  0  0  0  0
   20.1821  -19.9369   23.8270 C   0  0  0  0  0  0  0  0  0  0  0  0
   20.8083  -19.2591   26.0920 O   0  0  0  0  0  0  0  0  0  0  0  0
   19.6770  -21.2509   24.1725 N   0  0  0  0  0  0  0  0  0  0  0  0
   18.4724  -21.6987   23.4616 C   0  0  2  0  0  0  0  0  0  0  0  0
   18.6523  -21.5629   21.9818 C   0  0  0  0  0  0  0  0  0  0  0  0
   20.1018  -19.5841   22.5031 C   0  0  0  0  0  0  0  0  0  0  0  0
   19.5764  -20.5078   21.5707 N   0  0  0  0  0  0  0  0  0  0  0  0
   17.1920  -20.9502   23.8738 C   0  0  0  0  0  0  0  0  0  0  0  0
   16.9641  -21.0815   25.3077 N   0  0  0  0  0  0  0  0  0  0  0  0
   13.1810  -20.1791   27.0325 C   0  0  0  0  0  0  0  0  0  0  0  0
   13.2636  -21.0739   25.9789 C   0  0  0  0  0  0  0  0  0  0  0  0
   14.5129  -21.3777   25.4041 C   0  0  0  0  0  0  0  0  0  0  0  0
   15.6638  -20.7782   25.8926 C   0  0  0  0  0  0  0  0  0  0  0  0
   15.5777  -19.8794   26.9517 C   0  0  0  0  0  0  0  0  0  0  0  0
   14.3377  -19.5808   27.5222 C   0  0  0  0  0  0  0  0  0  0  0  0
   20.2586  -22.1037   25.1519 C   0  0  0  0  0  0  0  0  0  0  0  0
  1  3  1  0  0  0  0
  2  3  2  0  0  0  0
  2 12  1  0  0  0  0
  3  4  1  0  0  0  0
  4  6  1  0  0  0  0
  5 22  1  0  0  0  0
  6  7  1  0  0  0  0
  6  8  2  0  0  0  0
  7 12  2  0  0  0  0
  7  9  1  0  0  0  0
  9 10  1  0  0  0  0
  9 22  1  0  0  0  0
 10 11  1  0  0  0  0
 10 14  1  1  0  0  0
 11 13  1  0  0  0  0
 12 13  1  0  0  0  0
 14 15  1  0  0  0  0
 15 19  1  0  0  0  0
 16 17  2  0  0  0  0
 16 21  1  0  0  0  0
 17 18  1  0  0  0  0
 18 19  2  0  0  0  0
 19 20  1  0  0  0  0
 20 21  2  0  0  0  0
M  END
>  <CHROM.1>
-52.54823408,-57.38708249,-163.64550403,53.35411276,18.54050826,-20.11217746
24.44206730,0.18211491,0.46621741,0.12887786

>  <Name>
ligand

>  <RI>
0

>  <Rbt.Current_Directory>
/home/itssahil/PROJECTS/Mol_Feturizer/Test_systems_manuscript/rnas/3sd3

>  <Rbt.Executable>
rbdock ($Id: //depot/dev/client3/rdock/2013.1/src/exe/rbdock.cxx#4 $)

>  <Rbt.Library>
libRbt.so (2013.1, Build901 2013/11/27)

>  <Rbt.Parameter_File>
/export/apps/rDock/src/rDock_2013.1_src/data/scripts/dock_solv.prm

>  <Rbt.Receptor>
prm/pocket_docking_7.prm

>  <SCORE>
-13.927

>  <SCORE.INTER>
-12.8365

>  <SCORE.INTER.CONST>
1

>  <SCORE.INTER.POLAR>
0

>  <SCORE.INTER.ROT>
4

>  <SCORE.INTER.SOLV>
5.00785

>  <SCORE.INTER.VDW>
-16.4936

>  <SCORE.INTER.norm>
-0.583476

>  <SCORE.INTRA>
-1.0905

>  <SCORE.INTRA.DIHEDRAL>
-0.688177

>  <SCORE.INTRA.DIHEDRAL.0>
2.54655

>  <SCORE.INTRA.POLAR>
0

>  <SCORE.INTRA.POLAR.0>
0

>  <SCORE.INTRA.REPUL>
0

>  <SCORE.INTRA.REPUL.0>
0

>  <SCORE.INTRA.SOLV>
-0.108535

>  <SCORE.INTRA.SOLV.lig_0>
-56.4922

>  <SCORE.INTRA.VDW>
-0.692144

>  <SCORE.INTRA.VDW.0>
-0.696801

>  <SCORE.INTRA.norm>
-0.0495682

>  <SCORE.RESTR>
0

>  <SCORE.RESTR.CAVITY>
0

>  <SCORE.RESTR.norm>
0

>  <SCORE.SYSTEM>
0

>  <SCORE.SYSTEM.CONST>
0

>  <SCORE.SYSTEM.DIHEDRAL>
0

>  <SCORE.SYSTEM.SOLV>
0

>  <SCORE.SYSTEM.norm>
0

>  <SCORE.heavy>
22

>  <SCORE.norm>
-0.633044

>  <RMSD>
6.554

$$$$
ligand
 OpenBabel02271912143D
libRbt.so/2013.1/901 2013/11/27
 22 24  0  0  0  0  0  0  0  0999 V2000
   18.0125  -17.2097   18.5059 N   0  0  0  0  0  0  0  0  0  0  0  0
   18.5163  -19.1840   19.7635 N   0  0  0  0  0  0  0  0  0  0  0  0
   18.3590  -17.8501   19.7463 C   0  0  0  0  0  0  0  0  0  0  0  0
   18.5133  -17.1071   20.8353 N   0  0  0  0  0  0  0  0  0  0  0  0
   21.4483  -19.6717   24.1917 O   0  0  0  0  0  0  0  0  0  0  0  0
   18.8385  -17.6869   22.0055 C   0  0  0  0  0  0  0  0  0  0  0  0
   19.0255  -19.0964   22.0582 C   0  0  0  0  0  0  0  0  0  0  0  0
   18.9917  -16.8934   23.1202 O   0  0  0  0  0  0  0  0  0  0  0  0
   19.3545  -19.8572   23.2474 N   0  0  0  0  0  0  0  0  0  0  0  0
   18.6829  -21.1539   23.4035 C   0  0  2  0  0  0  0  0  0  0  0  0
   18.8477  -21.9851   22.1696 C   0  0  0  0  0  0  0  0  0  0  0  0
   18.8430  -19.8191   20.9059 C   0  0  0  0  0  0  0  0  0  0  0  0
   19.0134  -21.2223   20.9340 N   0  0  0  0  0  0  0  0  0  0  0  0
   17.1819  -21.0425   23.7266 C   0  0  0  0  0  0  0  0  0  0  0  0
   16.9817  -20.3150   24.9739 N   0  0  0  0  0  0  0  0  0  0  0  0
   13.2404  -20.3759   26.9989 C   0  0  0  0  0  0  0  0  0  0  0  0
   13.4026  -21.0947   25.8264 C   0  0  0  0  0  0  0  0  0  0  0  0
   14.6387  -21.0795   25.1518 C   0  0  0  0  0  0  0  0  0  0  0  0
   15.6964  -20.3416   25.6611 C   0  0  0  0  0  0  0  0  0  0  0  0
   15.5305  -19.6203   26.8398 C   0  0  0  0  0  0  0  0  0  0  0  0
   14.3041  -19.6382   27.5090 C   0  0  0  0  0  0  0  0  0  0  0  0
   20.2567  -19.4202   24.2572 C   0  0  0  0  0  0  0  0  0  0  0  0
  1  3  1  0  0  0  0
  2  3  2  0  0  0  0
  2 12  1  0  0  0  0
  3  4  1  0  0  0  0
  4  6  1  0  0  0  0
  5 22  1  0  0  0  0
  6  7  1  0  0  0  0
  6  8  2  0  0  0  0
  7 12  2  0  0  0  0
  7  9  1  0  0  0  0
  9 10  1  0  0  0  0
  9 22  1  0  0  0  0
 10 11  1  0  0  0  0
 10 14  1  6  0  0  0
 11 13  1  0  0  0  0
 12 13  1  0  0  0  0
 14 15  1  0  0  0  0
 15 19  1  0  0  0  0
 16 17  2  0  0  0  0
 16 21  1  0  0  0  0
 17 18  1  0  0  0  0
 18 19  2  0  0  0  0
 19 20  1  0  0  0  0
 20 21  2  0  0  0  0
M  END
>  <CHROM.1>
-89.45213700,-60.01906218,-165.45357446,1.01510589,17.75225892,-19.59517036
23.20109936,0.90862264,0.20330396,-1.08958065

>  <Name>
ligand

>  <RI>
0

>  <Rbt.Current_Directory>
/home/itssahil/PROJECTS/Mol_Feturizer/Test_systems_manuscript/rnas/3sd3

>  <Rbt.Executable>
rbdock ($Id: //depot/dev/client3/rdock/2013.1/src/exe/rbdock.cxx#4 $)

>  <Rbt.Library>
libRbt.so (2013.1, Build901 2013/11/27)

>  <Rbt.Parameter_File>
/export/apps/rDock/src/rDock_2013.1_src/data/scripts/dock_solv.prm

>  <Rbt.Receptor>
prm/pocket_docking_8.prm

>  <SCORE>
-13.3494

>  <SCORE.INTER>
-12.6682

>  <SCORE.INTER.CONST>
1

>  <SCORE.INTER.POLAR>
0

>  <SCORE.INTER.ROT>
4

>  <SCORE.INTER.SOLV>
8.22928

>  <SCORE.INTER.VDW>
-17.4552

>  <SCORE.INTER.norm>
-0.575827

>  <SCORE.INTRA>
-0.681158

>  <SCORE.INTRA.DIHEDRAL>
-0.717284

>  <SCORE.INTRA.DIHEDRAL.0>
2.54655

>  <SCORE.INTRA.POLAR>
0

>  <SCORE.INTRA.POLAR.0>
0

>  <SCORE.INTRA.REPUL>
0

>  <SCORE.INTRA.REPUL.0>
0

>  <SCORE.INTRA.SOLV>
-0.269187

>  <SCORE.INTRA.SOLV.lig_0>
-56.4922

>  <SCORE.INTRA.VDW>
-0.187922

>  <SCORE.INTRA.VDW.0>
-0.696801

>  <SCORE.INTRA.norm>
-0.0309617

>  <SCORE.RESTR>
0

>  <SCORE.RESTR.CAVITY>
0

>  <SCORE.RESTR.norm>
0

>  <SCORE.SYSTEM>
0

>  <SCORE.SYSTEM.CONST>
0

>  <SCORE.SYSTEM.DIHEDRAL>
0

>  <SCORE.SYSTEM.SOLV>
0

>  <SCORE.SYSTEM.norm>
0

>  <SCORE.heavy>
22

>  <SCORE.norm>
-0.606789

>  <RMSD>
6.554

$$$$
ligand
 OpenBabel02271912143D
libRbt.so/2013.1/901 2013/11/27
 22 24  0  0  0  0  0  0  0  0999 V2000
   18.6142  -22.3334   32.8059 N   0  0  0  0  0  0  0  0  0  0  0  0
   19.3067  -20.6842   31.2143 N   0  0  0  0  0  0  0  0  0  0  0  0
   18.7519  -21.8853   31.4462 C   0  0  0  0  0  0  0  0  0  0  0  0
   18.3284  -22.6690   30.4622 N   0  0  0  0  0  0  0  0  0  0  0  0
   20.1119  -22.2820   26.5220 O   0  0  0  0  0  0  0  0  0  0  0  0
   18.4492  -22.2686   29.1831 C   0  0  0  0  0  0  0  0  0  0  0  0
   19.0436  -21.0074   28.8993 C   0  0  0  0  0  0  0  0  0  0  0  0
   18.0011  -23.1002   28.1814 O   0  0  0  0  0  0  0  0  0  0  0  0
   19.2189  -20.4385   27.5776 N   0  0  0  0  0  0  0  0  0  0  0  0
   18.9739  -18.9964   27.4461 C   0  0  2  0  0  0  0  0  0  0  0  0
   19.7561  -18.2333   28.4690 C   0  0  0  0  0  0  0  0  0  0  0  0
   19.4545  -20.2313   29.9540 C   0  0  0  0  0  0  0  0  0  0  0  0
   20.0396  -18.9698   29.6992 N   0  0  0  0  0  0  0  0  0  0  0  0
   17.4902  -18.6038   27.5655 C   0  0  0  0  0  0  0  0  0  0  0  0
   16.7672  -18.9688   26.3534 N   0  0  0  0  0  0  0  0  0  0  0  0
   13.1066  -21.1261   26.5705 C   0  0  0  0  0  0  0  0  0  0  0  0
   14.0476  -21.4580   25.6103 C   0  0  0  0  0  0  0  0  0  0  0  0
   15.2617  -20.7485   25.5337 C   0  0  0  0  0  0  0  0  0  0  0  0
   15.5158  -19.7133   26.4206 C   0  0  0  0  0  0  0  0  0  0  0  0
   14.5682  -19.3822   27.3846 C   0  0  0  0  0  0  0  0  0  0  0  0
   13.3651  -20.0885   27.4606 C   0  0  0  0  0  0  0  0  0  0  0  0
   19.5886  -21.1847   26.4238 C   0  0  0  0  0  0  0  0  0  0  0  0
  1  3  1  0  0  0  0
  2  3  2  0  0  0  0
  2 12  1  0  0  0  0
  3  4  1  0  0  0  0
  4  6  1  0  0  0  0
  5 22  1  0  0  0  0
  6  7  1  0  0  0  0
  6  8  2  0  0  0  0
  7 12  2  0  0  0  0
  7  9  1  0  0  0  0
  9 10  1  0  0  0  0
  9 22  1  0  0  0  0
 10 11  1  0  0  0  0
 10 14  1  1  0  0  0
 11 13  1  0  0  0  0
 12 13  1  0  0  0  0
 14 15  1  0  0  0  0
 15 19  1  0  0  0  0
 16 17  2  0  0  0  0
 16 21  1  0  0  0  0
 17 18  1  0  0  0  0
 18 19  2  0  0  0  0
 19 20  1  0  0  0  0
 20 21  2  0  0  0  0
M  END
>  <CHROM.1>
-19.02532610,-74.42634058,130.41565922,-137.89838764,17.74145057,-20.67713970
28.25271033,0.65195071,0.29853675,2.16189747

>  <Name>
ligand

>  <RI>
0

>  <Rbt.Current_Directory>
/home/itssahil/PROJECTS/Mol_Feturizer/Test_systems_manuscript/rnas/3sd3

>  <Rbt.Executable>
rbdock ($Id: //depot/dev/client3/rdock/2013.1/src/exe/rbdock.cxx#4 $)

>  <Rbt.Library>
libRbt.so (2013.1, Build901 2013/11/27)

>  <Rbt.Parameter_File>
/export/apps/rDock/src/rDock_2013.1_src/data/scripts/dock_solv.prm

>  <Rbt.Receptor>
prm/pocket_docking_7.prm

>  <SCORE>
-17.541

>  <SCORE.INTER>
-17.1554

>  <SCORE.INTER.CONST>
1

>  <SCORE.INTER.POLAR>
0

>  <SCORE.INTER.ROT>
4

>  <SCORE.INTER.SOLV>
11.9125

>  <SCORE.INTER.VDW>
-21.6744

>  <SCORE.INTER.norm>
-0.779789

>  <SCORE.INTRA>
-0.385668

>  <SCORE.INTRA.DIHEDRAL>
0.871119

>  <SCORE.INTRA.DIHEDRAL.0>
2.54655

>  <SCORE.INTRA.POLAR>
0

>  <SCORE.INTRA.POLAR.0>
0

>  <SCORE.INTRA.REPUL>
0

>  <SCORE.INTRA.REPUL.0>
0

>  <SCORE.INTRA.SOLV>
-0.217799

>  <SCORE.INTRA.SOLV.lig_0>
-56.4922

>  <SCORE.INTRA.VDW>
-0.712328

>  <SCORE.INTRA.VDW.0>
-0.696801

>  <SCORE.INTRA.norm>
-0.0175304

>  <SCORE.RESTR>
0

>  <SCORE.RESTR.CAVITY>
0

>  <SCORE.RESTR.norm>
0

>  <SCORE.SYSTEM>
0

>  <SCORE.SYSTEM.CONST>
0

>  <SCORE.SYSTEM.DIHEDRAL>
0

>  <SCORE.SYSTEM.SOLV>
0

>  <SCORE.SYSTEM.norm>
0

>  <SCORE.heavy>
22

>  <SCORE.norm>
-0.797319

>  <RMSD>
6.560

$$$$
ligand
 OpenBabel02271912143D
libRbt.so/2013.1/901 2013/11/27
 22 24  0  0  0  0  0  0  0  0999 V2000
   22.6864  -22.5026   26.5969 N   0  0  0  0  0  0  0  0  0  0  0  0
   21.4630  -20.4476   26.4818 N   0  0  0  0  0  0  0  0  0  0  0  0
   21.4894  -21.7742   26.2725 C   0  0  0  0  0  0  0  0  0  0  0  0
   20.4481  -22.4314   25.7769 N   0  0  0  0  0  0  0  0  0  0  0  0
   17.6482  -20.1185   23.2169 O   0  0  0  0  0  0  0  0  0  0  0  0
   19.3192  -21.7681   25.4659 C   0  0  0  0  0  0  0  0  0  0  0  0
   19.2598  -20.3602   25.6626 C   0  0  0  0  0  0  0  0  0  0  0  0
   18.2535  -22.4738   24.9542 O   0  0  0  0  0  0  0  0  0  0  0  0
   18.1084  -19.5214   25.3944 N   0  0  0  0  0  0  0  0  0  0  0  0
   17.8341  -18.4537   26.3648 C   0  0  2  0  0  0  0  0  0  0  0  0
   19.0597  -17.6270   26.5997 C   0  0  0  0  0  0  0  0  0  0  0  0
   20.3605  -19.7310   26.1881 C   0  0  0  0  0  0  0  0  0  0  0  0
   20.3235  -18.3341   26.4021 N   0  0  0  0  0  0  0  0  0  0  0  0
   17.3154  -18.9638   27.7214 C   0  0  0  0  0  0  0  0  0  0  0  0
   15.8765  -18.7557   27.8278 N   0  0  0  0  0  0  0  0  0  0  0  0
   13.1535  -21.4067   25.9149 C   0  0  0  0  0  0  0  0  0  0  0  0
   12.6966  -20.5276   26.8824 C   0  0  0  0  0  0  0  0  0  0  0  0
   13.5926  -19.6468   27.5187 C   0  0  0  0  0  0  0  0  0  0  0  0
   14.9365  -19.6604   27.1775 C   0  0  0  0  0  0  0  0  0  0  0  0
   15.3927  -20.5450   26.2047 C   0  0  0  0  0  0  0  0  0  0  0  0
   14.5021  -21.4166   25.5728 C   0  0  0  0  0  0  0  0  0  0  0  0
   17.2389  -19.6821   24.2796 C   0  0  0  0  0  0  0  0  0  0  0  0
  1  3  1  0  0  0  0
  2  3  2  0  0  0  0
  2 12  1  0  0  0  0
  3  4  1  0  0  0  0
  4  6  1  0  0  0  0
  5 22  1  0  0  0  0
  6  7  1  0  0  0  0
  6  8  2  0  0  0  0
  7 12  2  0  0  0  0
  7  9  1  0  0  0  0
  9 10  1  0  0  0  0
  9 22  1  0  0  0  0
 10 11  1  0  0  0  0
 10 14  1  1  0  0  0
 11 13  1  0  0  0  0
 12 13  1  0  0  0  0
 14 15  1  0  0  0  0
 15 19  1  0  0  0  0
 16 17  2  0  0  0  0
 16 21  1  0  0  0  0
 17 18  1  0  0  0  0
 18 19  2  0  0  0  0
 19 20  1  0  0  0  0
 20 21  2  0  0  0  0
M  END
>  <CHROM.1>
-30.98116249,-103.15256239,79.20697442,165.35931913,17.86224238,-20.27156505
26.07211453,0.14378128,-0.01575789,-2.70223348

>  <Name>
ligand

>  <RI>
0

>  <Rbt.Current_Directory>
/home/itssahil/PROJECTS/Mol_Feturizer/Test_systems_manuscript/rnas/3sd3

>  <Rbt.Executable>
rbdock ($Id: //depot/dev/client3/rdock/2013.1/src/exe/rbdock.cxx#4 $)

>  <Rbt.Library>
libRbt.so (2013.1, Build901 2013/11/27)

>  <Rbt.Parameter_File>
/export/apps/rDock/src/rDock_2013.1_src/data/scripts/dock_solv.prm

>  <Rbt.Receptor>
prm/pocket_docking_2.prm

>  <SCORE>
-9.22845

>  <SCORE.INTER>
-11.5896

>  <SCORE.INTER.CONST>
1

>  <SCORE.INTER.POLAR>
0

>  <SCORE.INTER.ROT>
4

>  <SCORE.INTER.SOLV>
13.5225

>  <SCORE.INTER.VDW>
-18.5006

>  <SCORE.INTER.norm>
-0.526802

>  <SCORE.INTRA>
1.81576

>  <SCORE.INTRA.DIHEDRAL>
3.58059

>  <SCORE.INTRA.DIHEDRAL.0>
2.54655

>  <SCORE.INTRA.POLAR>
0

>  <SCORE.INTRA.POLAR.0>
0

>  <SCORE.INTRA.REPUL>
0

>  <SCORE.INTRA.REPUL.0>
0

>  <SCORE.INTRA.SOLV>
-0.264565

>  <SCORE.INTRA.SOLV.lig_0>
-56.4922

>  <SCORE.INTRA.VDW>
0.157744

>  <SCORE.INTRA.VDW.0>
-0.696801

>  <SCORE.INTRA.norm>
0.0825343

>  <SCORE.RESTR>
0.545432

>  <SCORE.RESTR.CAVITY>
0.545432

>  <SCORE.RESTR.norm>
0.0247924

>  <SCORE.SYSTEM>
0

>  <SCORE.SYSTEM.CONST>
0

>  <SCORE.SYSTEM.DIHEDRAL>
0

>  <SCORE.SYSTEM.SOLV>
0

>  <SCORE.SYSTEM.norm>
0

>  <SCORE.heavy>
22

>  <SCORE.norm>
-0.419475

>  <RMSD>
6.561

$$$$
ligand
 OpenBabel02271912143D
libRbt.so/2013.1/901 2013/11/27
 22 24  0  0  0  0  0  0  0  0999 V2000
   18.6258  -22.3557   32.8730 N   0  0  0  0  0  0  0  0  0  0  0  0
   19.3355  -20.7192   31.2757 N   0  0  0  0  0  0  0  0  0  0  0  0
   18.7640  -21.9116   31.5119 C   0  0  0  0  0  0  0  0  0  0  0  0
   18.3244  -22.6904   30.5311 N   0  0  0  0  0  0  0  0  0  0  0  0
   20.3012  -22.2169   26.5676 O   0  0  0  0  0  0  0  0  0  0  0  0
   18.4453  -22.2937   29.2508 C   0  0  0  0  0  0  0  0  0  0  0  0
   19.0571  -21.0419   28.9624 C   0  0  0  0  0  0  0  0  0  0  0  0
   17.9804  -23.1200   28.2525 O   0  0  0  0  0  0  0  0  0  0  0  0
   19.2348  -20.4777   27.6391 N   0  0  0  0  0  0  0  0  0  0  0  0
   19.0107  -19.0323   27.5064 C   0  0  2  0  0  0  0  0  0  0  0  0
   19.8088  -18.2793   28.5246 C   0  0  0  0  0  0  0  0  0  0  0  0
   19.4843  -20.2705   30.0140 C   0  0  0  0  0  0  0  0  0  0  0  0
   20.0869  -19.0182   29.7546 N   0  0  0  0  0  0  0  0  0  0  0  0
   17.5336  -18.6174   27.6319 C   0  0  0  0  0  0  0  0  0  0  0  0
   16.8065  -18.9459   26.4119 N   0  0  0  0  0  0  0  0  0  0  0  0
   13.1692  -21.1472   26.5727 C   0  0  0  0  0  0  0  0  0  0  0  0
   14.1171  -21.4495   25.6095 C   0  0  0  0  0  0  0  0  0  0  0  0
   15.3235  -20.7253   25.5514 C   0  0  0  0  0  0  0  0  0  0  0  0
   15.5631  -19.7053   26.4597 C   0  0  0  0  0  0  0  0  0  0  0  0
   14.6087  -19.4039   27.4268 C   0  0  0  0  0  0  0  0  0  0  0  0
   13.4132  -20.1248   27.4843 C   0  0  0  0  0  0  0  0  0  0  0  0
   19.5881  -21.2310   26.4848 C   0  0  0  0  0  0  0  0  0  0  0  0
  1  3  1  0  0  0  0
  2  3  2  0  0  0  0
  2 12  1  0  0  0  0
  3  4  1  0  0  0  0
  4  6  1  0  0  0  0
  5 22  1  0  0  0  0
  6  7  1  0  0  0  0
  6  8  2  0  0  0  0
  7 12  2  0  0  0  0
  7  9  1  0  0  0  0
  9 10  1  0  0  0  0
  9 22  1  0  0  0  0
 10 11  1  0  0  0  0
 10 14  1  1  0  0  0
 11 13  1  0  0  0  0
 12 13  1  0  0  0  0
 14 15  1  0  0  0  0
 15 19  1  0  0  0  0
 16 17  2  0  0  0  0
 16 21  1  0  0  0  0
 17 18  1  0  0  0  0
 18 19  2  0  0  0  0
 19 20  1  0  0  0  0
 20 21  2  0  0  0  0
M  END
>  <CHROM.1>
-32.12845474,-75.71724489,128.56370120,-136.80881478,17.77937217,-20.69503120
28.30424344,0.66582229,0.28660655,2.14424145

>  <Name>
ligand

>  <RI>
0

>  <Rbt.Current_Directory>
/home/itssahil/PROJECTS/Mol_Feturizer/Test_systems_manuscript/rnas/3sd3

>  <Rbt.Executable>
rbdock ($Id: //depot/dev/client3/rdock/2013.1/src/exe/rbdock.cxx#4 $)

>  <Rbt.Library>
libRbt.so (2013.1, Build901 2013/11/27)

>  <Rbt.Parameter_File>
/export/apps/rDock/src/rDock_2013.1_src/data/scripts/dock_solv.prm

>  <Rbt.Receptor>
prm/pocket_docking_7.prm

>  <SCORE>
-17.5329

>  <SCORE.INTER>
-17.0687

>  <SCORE.INTER.CONST>
1

>  <SCORE.INTER.POLAR>
0

>  <SCORE.INTER.ROT>
4

>  <SCORE.INTER.SOLV>
11.8163

>  <SCORE.INTER.VDW>
-21.5846

>  <SCORE.INTER.norm>
-0.775849

>  <SCORE.INTRA>
-0.464221

>  <SCORE.INTRA.DIHEDRAL>
1.01785

>  <SCORE.INTRA.DIHEDRAL.0>
2.54655

>  <SCORE.INTRA.POLAR>
0

>  <SCORE.INTRA.POLAR.0>
0

>  <SCORE.INTRA.REPUL>
0

>  <SCORE.INTRA.REPUL.0>
0

>  <SCORE.INTRA.SOLV>
-0.289207

>  <SCORE.INTRA.SOLV.lig_0>
-56.4922

>  <SCORE.INTRA.VDW>
-0.828541

>  <SCORE.INTRA.VDW.0>
-0.696801

>  <SCORE.INTRA.norm>
-0.021101

>  <SCORE.RESTR>
0

>  <SCORE.RESTR.CAVITY>
0

>  <SCORE.RESTR.norm>
0

>  <SCORE.SYSTEM>
0

>  <SCORE.SYSTEM.CONST>
0

>  <SCORE.SYSTEM.DIHEDRAL>
0

>  <SCORE.SYSTEM.SOLV>
0

>  <SCORE.SYSTEM.norm>
0

>  <SCORE.heavy>
22

>  <SCORE.norm>
-0.79695

>  <RMSD>
6.567

$$$$
ligand
 OpenBabel02271912143D
libRbt.so/2013.1/901 2013/11/27
 22 24  0  0  0  0  0  0  0  0999 V2000
   21.3991  -23.3846   22.0514 N   0  0  0  0  0  0  0  0  0  0  0  0
   20.0885  -23.3628   24.0551 N   0  0  0  0  0  0  0  0  0  0  0  0
   21.2011  -22.9688   23.4140 C   0  0  0  0  0  0  0  0  0  0  0  0
   22.1208  -22.2102   23.9974 N   0  0  0  0  0  0  0  0  0  0  0  0
   21.5431  -20.7324   29.0574 O   0  0  0  0  0  0  0  0  0  0  0  0
   21.9549  -21.8114   25.2720 C   0  0  0  0  0  0  0  0  0  0  0  0
   20.7942  -22.2202   25.9862 C   0  0  0  0  0  0  0  0  0  0  0  0
   22.9235  -21.0242   25.8533 O   0  0  0  0  0  0  0  0  0  0  0  0
   20.4729  -21.8513   27.3507 N   0  0  0  0  0  0  0  0  0  0  0  0
   19.0648  -21.5440   27.6331 C   0  0  2  0  0  0  0  0  0  0  0  0
   18.1770  -22.6482   27.1504 C   0  0  0  0  0  0  0  0  0  0  0  0
   19.8691  -22.9952   25.3326 C   0  0  0  0  0  0  0  0  0  0  0  0
   18.7026  -23.4067   26.0171 N   0  0  0  0  0  0  0  0  0  0  0  0
   18.5818  -20.2179   27.0183 C   0  0  0  0  0  0  0  0  0  0  0  0
   17.2888  -19.8391   27.5750 N   0  0  0  0  0  0  0  0  0  0  0  0
   13.6743  -21.0560   25.6893 C   0  0  0  0  0  0  0  0  0  0  0  0
   13.6401  -20.5167   26.9643 C   0  0  0  0  0  0  0  0  0  0  0  0
   14.8329  -20.1111   27.5937 C   0  0  0  0  0  0  0  0  0  0  0  0
   16.0456  -20.2533   26.9365 C   0  0  0  0  0  0  0  0  0  0  0  0
   16.0767  -20.7955   25.6551 C   0  0  0  0  0  0  0  0  0  0  0  0
   14.8922  -21.1954   25.0312 C   0  0  0  0  0  0  0  0  0  0  0  0
   21.4258  -21.7548   28.4030 C   0  0  0  0  0  0  0  0  0  0  0  0
  1  3  1  0  0  0  0
  2  3  2  0  0  0  0
  2 12  1  0  0  0  0
  3  4  1  0  0  0  0
  4  6  1  0  0  0  0
  5 22  1  0  0  0  0
  6  7  1  0  0  0  0
  6  8  2  0  0  0  0
  7 12  2  0  0  0  0
  7  9  1  0  0  0  0
  9 10  1  0  0  0  0
  9 22  1  0  0  0  0
 10 11  1  0  0  0  0
 10 14  1  6  0  0  0
 11 13  1  0  0  0  0
 12 13  1  0  0  0  0
 14 15  1  0  0  0  0
 15 19  1  0  0  0  0
 16 17  2  0  0  0  0
 16 21  1  0  0  0  0
 17 18  1  0  0  0  0
 18 19  2  0  0  0  0
 19 20  1  0  0  0  0
 20 21  2  0  0  0  0
M  END
>  <CHROM.1>
124.96682928,-167.57109995,-91.25706833,167.80031558,19.00539240,-21.63818651
26.12721705,0.29475455,0.13281720,-1.98491308

>  <Name>
ligand

>  <RI>
0

>  <Rbt.Current_Directory>
/home/itssahil/PROJECTS/Mol_Feturizer/Test_systems_manuscript/rnas/3sd3

>  <Rbt.Executable>
rbdock ($Id: //depot/dev/client3/rdock/2013.1/src/exe/rbdock.cxx#4 $)

>  <Rbt.Library>
libRbt.so (2013.1, Build901 2013/11/27)

>  <Rbt.Parameter_File>
/export/apps/rDock/src/rDock_2013.1_src/data/scripts/dock_solv.prm

>  <Rbt.Receptor>
prm/pocket_docking_6.prm

>  <SCORE>
-16.1526

>  <SCORE.INTER>
-15.9596

>  <SCORE.INTER.CONST>
1

>  <SCORE.INTER.POLAR>
0

>  <SCORE.INTER.ROT>
4

>  <SCORE.INTER.SOLV>
12.4542

>  <SCORE.INTER.VDW>
-21.0578

>  <SCORE.INTER.norm>
-0.725434

>  <SCORE.INTRA>
-0.193054

>  <SCORE.INTRA.DIHEDRAL>
0.282602

>  <SCORE.INTRA.DIHEDRAL.0>
2.54655

>  <SCORE.INTRA.POLAR>
0

>  <SCORE.INTRA.POLAR.0>
0

>  <SCORE.INTRA.REPUL>
0

>  <SCORE.INTRA.REPUL.0>
0

>  <SCORE.INTRA.SOLV>
-0.500326

>  <SCORE.INTRA.SOLV.lig_0>
-56.4922

>  <SCORE.INTRA.VDW>
-0.0841917

>  <SCORE.INTRA.VDW.0>
-0.696801

>  <SCORE.INTRA.norm>
-0.00877518

>  <SCORE.RESTR>
0

>  <SCORE.RESTR.CAVITY>
0

>  <SCORE.RESTR.norm>
0

>  <SCORE.SYSTEM>
0

>  <SCORE.SYSTEM.CONST>
0

>  <SCORE.SYSTEM.DIHEDRAL>
0

>  <SCORE.SYSTEM.SOLV>
0

>  <SCORE.SYSTEM.norm>
0

>  <SCORE.heavy>
22

>  <SCORE.norm>
-0.73421

>  <RMSD>
6.587

$$$$
ligand
 OpenBabel02271912143D
libRbt.so/2013.1/901 2013/11/27
 22 24  0  0  0  0  0  0  0  0999 V2000
   24.0332  -20.0248   25.2714 N   0  0  0  0  0  0  0  0  0  0  0  0
   22.1383  -21.4043   25.7605 N   0  0  0  0  0  0  0  0  0  0  0  0
   22.6776  -20.1746   25.7282 C   0  0  0  0  0  0  0  0  0  0  0  0
   22.0003  -19.0967   26.1040 N   0  0  0  0  0  0  0  0  0  0  0  0
   18.1656  -20.5536   29.2275 O   0  0  0  0  0  0  0  0  0  0  0  0
   20.7312  -19.2155   26.5356 C   0  0  0  0  0  0  0  0  0  0  0  0
   20.1316  -20.5045   26.5951 C   0  0  0  0  0  0  0  0  0  0  0  0
   20.0507  -18.0816   26.9186 O   0  0  0  0  0  0  0  0  0  0  0  0
   18.7725  -20.7813   27.0161 N   0  0  0  0  0  0  0  0  0  0  0  0
   18.0452  -21.8051   26.2547 C   0  0  2  0  0  0  0  0  0  0  0  0
   18.8482  -23.0650   26.1647 C   0  0  0  0  0  0  0  0  0  0  0  0
   20.8721  -21.5846   26.1845 C   0  0  0  0  0  0  0  0  0  0  0  0
   20.2962  -22.8750   26.2248 N   0  0  0  0  0  0  0  0  0  0  0  0
   17.6576  -21.3642   24.8316 C   0  0  0  0  0  0  0  0  0  0  0  0
   16.7415  -20.2313   24.8808 N   0  0  0  0  0  0  0  0  0  0  0  0
   13.1508  -20.4234   27.1549 C   0  0  0  0  0  0  0  0  0  0  0  0
   14.1757  -19.5814   27.5528 C   0  0  0  0  0  0  0  0  0  0  0  0
   15.3665  -19.5124   26.8039 C   0  0  0  0  0  0  0  0  0  0  0  0
   15.5147  -20.2907   25.6659 C   0  0  0  0  0  0  0  0  0  0  0  0
   14.4828  -21.1358   25.2684 C   0  0  0  0  0  0  0  0  0  0  0  0
   13.3013  -21.2014   26.0113 C   0  0  0  0  0  0  0  0  0  0  0  0
   18.1127  -20.1193   28.0891 C   0  0  0  0  0  0  0  0  0  0  0  0
  1  3  1  0  0  0  0
  2  3  2  0  0  0  0
  2 12  1  0  0  0  0
  3  4  1  0  0  0  0
  4  6  1  0  0  0  0
  5 22  1  0  0  0  0
  6  7  1  0  0  0  0
  6  8  2  0  0  0  0
  7 12  2  0  0  0  0
  7  9  1  0  0  0  0
  9 10  1  0  0  0  0
  9 22  1  0  0  0  0
 10 11  1  0  0  0  0
 10 14  1  6  0  0  0
 11 13  1  0  0  0  0
 12 13  1  0  0  0  0
 14 15  1  0  0  0  0
 15 19  1  0  0  0  0
 16 17  2  0  0  0  0
 16 21  1  0  0  0  0
 17 18  1  0  0  0  0
 18 19  2  0  0  0  0
 19 20  1  0  0  0  0
 20 21  2  0  0  0  0
M  END
>  <CHROM.1>
-90.47495008,-62.97200018,-53.47660395,111.36055430,18.52645008,-20.58647546
26.40008160,0.01235396,-0.06408303,-2.60949168

>  <Name>
ligand

>  <RI>
0

>  <Rbt.Current_Directory>
/home/itssahil/PROJECTS/Mol_Feturizer/Test_systems_manuscript/rnas/3sd3

>  <Rbt.Executable>
rbdock ($Id: //depot/dev/client3/rdock/2013.1/src/exe/rbdock.cxx#4 $)

>  <Rbt.Library>
libRbt.so (2013.1, Build901 2013/11/27)

>  <Rbt.Parameter_File>
/export/apps/rDock/src/rDock_2013.1_src/data/scripts/dock_solv.prm

>  <Rbt.Receptor>
prm/pocket_docking_5.prm

>  <SCORE>
-15.828

>  <SCORE.INTER>
-14.096

>  <SCORE.INTER.CONST>
1

>  <SCORE.INTER.POLAR>
0

>  <SCORE.INTER.ROT>
4

>  <SCORE.INTER.SOLV>
8.64281

>  <SCORE.INTER.VDW>
-18.5449

>  <SCORE.INTER.norm>
-0.640728

>  <SCORE.INTRA>
-1.732

>  <SCORE.INTRA.DIHEDRAL>
-0.820298

>  <SCORE.INTRA.DIHEDRAL.0>
2.54655

>  <SCORE.INTRA.POLAR>
0

>  <SCORE.INTRA.POLAR.0>
0

>  <SCORE.INTRA.REPUL>
0

>  <SCORE.INTRA.REPUL.0>
0

>  <SCORE.INTRA.SOLV>
-0.138923

>  <SCORE.INTRA.SOLV.lig_0>
-56.4922

>  <SCORE.INTRA.VDW>
-1.25239

>  <SCORE.INTRA.VDW.0>
-0.696801

>  <SCORE.INTRA.norm>
-0.0787271

>  <SCORE.RESTR>
0

>  <SCORE.RESTR.CAVITY>
0

>  <SCORE.RESTR.norm>
0

>  <SCORE.SYSTEM>
0

>  <SCORE.SYSTEM.CONST>
0

>  <SCORE.SYSTEM.DIHEDRAL>
0

>  <SCORE.SYSTEM.SOLV>
0

>  <SCORE.SYSTEM.norm>
0

>  <SCORE.heavy>
22

>  <SCORE.norm>
-0.719455

>  <RMSD>
6.592

$$$$
ligand
 OpenBabel02271912143D
libRbt.so/2013.1/901 2013/11/27
 22 24  0  0  0  0  0  0  0  0999 V2000
   24.8081  -22.1674   26.6859 N   0  0  0  0  0  0  0  0  0  0  0  0
   22.8669  -22.5019   25.3248 N   0  0  0  0  0  0  0  0  0  0  0  0
   23.3787  -22.2156   26.5332 C   0  0  0  0  0  0  0  0  0  0  0  0
   22.6085  -21.9767   27.5874 N   0  0  0  0  0  0  0  0  0  0  0  0
   17.8689  -22.2602   27.7432 O   0  0  0  0  0  0  0  0  0  0  0  0
   21.2689  -22.0179   27.4657 C   0  0  0  0  0  0  0  0  0  0  0  0
   20.6917  -22.3305   26.2034 C   0  0  0  0  0  0  0  0  0  0  0  0
   20.4929  -21.7654   28.5746 O   0  0  0  0  0  0  0  0  0  0  0  0
   19.2714  -22.3892   25.9193 N   0  0  0  0  0  0  0  0  0  0  0  0
   18.8374  -21.8420   24.6274 C   0  0  2  0  0  0  0  0  0  0  0  0
   19.6354  -22.4355   23.5086 C   0  0  0  0  0  0  0  0  0  0  0  0
   21.5330  -22.5583   25.1433 C   0  0  0  0  0  0  0  0  0  0  0  0
   20.9843  -22.8614   23.8761 N   0  0  0  0  0  0  0  0  0  0  0  0
   18.9286  -20.3079   24.5390 C   0  0  0  0  0  0  0  0  0  0  0  0
   18.0674  -19.6877   25.5383 N   0  0  0  0  0  0  0  0  0  0  0  0
   14.0168  -20.8945   26.0261 C   0  0  0  0  0  0  0  0  0  0  0  0
   14.6498  -21.0776   24.8081 C   0  0  0  0  0  0  0  0  0  0  0  0
   15.9907  -20.6811   24.6403 C   0  0  0  0  0  0  0  0  0  0  0  0
   16.6794  -20.1042   25.6965 C   0  0  0  0  0  0  0  0  0  0  0  0
   16.0407  -19.9217   26.9195 C   0  0  0  0  0  0  0  0  0  0  0  0
   14.7109  -20.3175   27.0849 C   0  0  0  0  0  0  0  0  0  0  0  0
   18.2949  -22.9182   26.8089 C   0  0  0  0  0  0  0  0  0  0  0  0
  1  3  1  0  0  0  0
  2  3  2  0  0  0  0
  2 12  1  0  0  0  0
  3  4  1  0  0  0  0
  4  6  1  0  0  0  0
  5 22  1  0  0  0  0
  6  7  1  0  0  0  0
  6  8  2  0  0  0  0
  7 12  2  0  0  0  0
  7  9  1  0  0  0  0
  9 10  1  0  0  0  0
  9 22  1  0  0  0  0
 10 11  1  0  0  0  0
 10 14  1  1  0  0  0
 11 13  1  0  0  0  0
 12 13  1  0  0  0  0
 14 15  1  0  0  0  0
 15 19  1  0  0  0  0
 16 17  2  0  0  0  0
 16 21  1  0  0  0  0
 17 18  1  0  0  0  0
 18 19  2  0  0  0  0
 19 20  1  0  0  0  0
 20 21  2  0  0  0  0
M  END
>  <CHROM.1>
80.01990376,-61.31296274,-48.92168478,-25.06316206,19.25302051,-21.63305054
25.99456806,0.04814660,-0.23043629,1.51009616

>  <Name>
ligand

>  <RI>
0

>  <Rbt.Current_Directory>
/home/itssahil/PROJECTS/Mol_Feturizer/Test_systems_manuscript/rnas/3sd3

>  <Rbt.Executable>
rbdock ($Id: //depot/dev/client3/rdock/2013.1/src/exe/rbdock.cxx#4 $)

>  <Rbt.Library>
libRbt.so (2013.1, Build901 2013/11/27)

>  <Rbt.Parameter_File>
/export/apps/rDock/src/rDock_2013.1_src/data/scripts/dock_solv.prm

>  <Rbt.Receptor>
prm/pocket_docking_3.prm

>  <SCORE>
-16.1213

>  <SCORE.INTER>
-14.8759

>  <SCORE.INTER.CONST>
1

>  <SCORE.INTER.POLAR>
0

>  <SCORE.INTER.ROT>
4

>  <SCORE.INTER.SOLV>
6.84335

>  <SCORE.INTER.VDW>
-18.4651

>  <SCORE.INTER.norm>
-0.676179

>  <SCORE.INTRA>
-1.24539

>  <SCORE.INTRA.DIHEDRAL>
-0.832691

>  <SCORE.INTRA.DIHEDRAL.0>
2.54655

>  <SCORE.INTRA.POLAR>
0

>  <SCORE.INTRA.POLAR.0>
0

>  <SCORE.INTRA.REPUL>
0

>  <SCORE.INTRA.REPUL.0>
0

>  <SCORE.INTRA.SOLV>
0.855522

>  <SCORE.INTRA.SOLV.lig_0>
-56.4922

>  <SCORE.INTRA.VDW>
-1.25681

>  <SCORE.INTRA.VDW.0>
-0.696801

>  <SCORE.INTRA.norm>
-0.0566087

>  <SCORE.RESTR>
0

>  <SCORE.RESTR.CAVITY>
0

>  <SCORE.RESTR.norm>
0

>  <SCORE.SYSTEM>
0

>  <SCORE.SYSTEM.CONST>
0

>  <SCORE.SYSTEM.DIHEDRAL>
0

>  <SCORE.SYSTEM.SOLV>
0

>  <SCORE.SYSTEM.norm>
0

>  <SCORE.heavy>
22

>  <SCORE.norm>
-0.732788

>  <RMSD>
6.598

$$$$
ligand
 OpenBabel02271912143D
libRbt.so/2013.1/901 2013/11/27
 22 24  0  0  0  0  0  0  0  0999 V2000
   24.0094  -19.8822   25.5781 N   0  0  0  0  0  0  0  0  0  0  0  0
   22.1497  -21.3582   25.8880 N   0  0  0  0  0  0  0  0  0  0  0  0
   22.6585  -20.1211   26.0101 C   0  0  0  0  0  0  0  0  0  0  0  0
   21.9552  -19.1154   26.5158 N   0  0  0  0  0  0  0  0  0  0  0  0
   18.7123  -20.1248   29.3441 O   0  0  0  0  0  0  0  0  0  0  0  0
   20.6899  -19.3183   26.9269 C   0  0  0  0  0  0  0  0  0  0  0  0
   20.1224  -20.6190   26.8242 C   0  0  0  0  0  0  0  0  0  0  0  0
   19.9821  -18.2580   27.4468 O   0  0  0  0  0  0  0  0  0  0  0  0
   18.7710  -20.9795   27.2049 N   0  0  0  0  0  0  0  0  0  0  0  0
   18.0683  -21.9181   26.3204 C   0  0  2  0  0  0  0  0  0  0  0  0
   18.9022  -23.1369   26.0758 C   0  0  0  0  0  0  0  0  0  0  0  0
   20.8889  -21.6210   26.2837 C   0  0  0  0  0  0  0  0  0  0  0  0
   20.3450  -22.9202   26.1619 N   0  0  0  0  0  0  0  0  0  0  0  0
   17.6683  -21.3131   24.9627 C   0  0  0  0  0  0  0  0  0  0  0  0
   16.8222  -20.1418   25.1560 N   0  0  0  0  0  0  0  0  0  0  0  0
   13.0259  -20.4519   27.0516 C   0  0  0  0  0  0  0  0  0  0  0  0
   13.3016  -21.2151   25.9296 C   0  0  0  0  0  0  0  0  0  0  0  0
   14.5566  -21.1179   25.2980 C   0  0  0  0  0  0  0  0  0  0  0  0
   15.5189  -20.2545   25.7991 C   0  0  0  0  0  0  0  0  0  0  0  0
   15.2390  -19.4887   26.9271 C   0  0  0  0  0  0  0  0  0  0  0  0
   13.9941  -19.5880   27.5538 C   0  0  0  0  0  0  0  0  0  0  0  0
   18.0964  -20.4728   28.3507 C   0  0  0  0  0  0  0  0  0  0  0  0
  1  3  1  0  0  0  0
  2  3  2  0  0  0  0
  2 12  1  0  0  0  0
  3  4  1  0  0  0  0
  4  6  1  0  0  0  0
  5 22  1  0  0  0  0
  6  7  1  0  0  0  0
  6  8  2  0  0  0  0
  7 12  2  0  0  0  0
  7  9  1  0  0  0  0
  9 10  1  0  0  0  0
  9 22  1  0  0  0  0
 10 11  1  0  0  0  0
 10 14  1  6  0  0  0
 11 13  1  0  0  0  0
 12 13  1  0  0  0  0
 14 15  1  0  0  0  0
 15 19  1  0  0  0  0
 16 17  2  0  0  0  0
 16 21  1  0  0  0  0
 17 18  1  0  0  0  0
 18 19  2  0  0  0  0
 19 20  1  0  0  0  0
 20 21  2  0  0  0  0
M  END
>  <CHROM.1>
-28.44688546,-57.76899376,-62.77022640,-56.43015216,18.54263762,-20.60198529
26.55855666,-0.00460287,-0.02590203,-2.50773038

>  <Name>
ligand

>  <RI>
0

>  <Rbt.Current_Directory>
/home/itssahil/PROJECTS/Mol_Feturizer/Test_systems_manuscript/rnas/3sd3

>  <Rbt.Executable>
rbdock ($Id: //depot/dev/client3/rdock/2013.1/src/exe/rbdock.cxx#4 $)

>  <Rbt.Library>
libRbt.so (2013.1, Build901 2013/11/27)

>  <Rbt.Parameter_File>
/export/apps/rDock/src/rDock_2013.1_src/data/scripts/dock_solv.prm

>  <Rbt.Receptor>
prm/pocket_docking_7.prm

>  <SCORE>
-15.9585

>  <SCORE.INTER>
-14.2319

>  <SCORE.INTER.CONST>
1

>  <SCORE.INTER.POLAR>
0

>  <SCORE.INTER.ROT>
4

>  <SCORE.INTER.SOLV>
8.535

>  <SCORE.INTER.VDW>
-18.5996

>  <SCORE.INTER.norm>
-0.646904

>  <SCORE.INTRA>
-1.72658

>  <SCORE.INTRA.DIHEDRAL>
-0.912217

>  <SCORE.INTRA.DIHEDRAL.0>
2.54655

>  <SCORE.INTRA.POLAR>
0

>  <SCORE.INTRA.POLAR.0>
0

>  <SCORE.INTRA.REPUL>
0

>  <SCORE.INTRA.REPUL.0>
0

>  <SCORE.INTRA.SOLV>
0.109506

>  <SCORE.INTRA.SOLV.lig_0>
-56.4922

>  <SCORE.INTRA.VDW>
-1.32522

>  <SCORE.INTRA.VDW.0>
-0.696801

>  <SCORE.INTRA.norm>
-0.0784807

>  <SCORE.RESTR>
0

>  <SCORE.RESTR.CAVITY>
0

>  <SCORE.RESTR.norm>
0

>  <SCORE.SYSTEM>
0

>  <SCORE.SYSTEM.CONST>
0

>  <SCORE.SYSTEM.DIHEDRAL>
0

>  <SCORE.SYSTEM.SOLV>
0

>  <SCORE.SYSTEM.norm>
0

>  <SCORE.heavy>
22

>  <SCORE.norm>
-0.725385

>  <RMSD>
6.604

$$$$
ligand
 OpenBabel02271912143D
libRbt.so/2013.1/901 2013/11/27
 22 24  0  0  0  0  0  0  0  0999 V2000
   22.2881  -22.1041   24.4094 N   0  0  0  0  0  0  0  0  0  0  0  0
   21.6120  -20.6597   26.1953 N   0  0  0  0  0  0  0  0  0  0  0  0
   21.5073  -21.0004   24.9003 C   0  0  0  0  0  0  0  0  0  0  0  0
   20.7082  -20.3519   24.0621 N   0  0  0  0  0  0  0  0  0  0  0  0
   19.8727  -15.7175   25.7770 O   0  0  0  0  0  0  0  0  0  0  0  0
   19.9702  -19.3157   24.5013 C   0  0  0  0  0  0  0  0  0  0  0  0
   20.0652  -18.9188   25.8643 C   0  0  0  0  0  0  0  0  0  0  0  0
   19.1488  -18.6606   23.6115 O   0  0  0  0  0  0  0  0  0  0  0  0
   19.3176  -17.8406   26.4804 N   0  0  0  0  0  0  0  0  0  0  0  0
   18.8180  -18.0817   27.8403 C   0  0  2  0  0  0  0  0  0  0  0  0
   19.9247  -18.5487   28.7334 C   0  0  0  0  0  0  0  0  0  0  0  0
   20.8982  -19.6302   26.6912 C   0  0  0  0  0  0  0  0  0  0  0  0
   21.0032  -19.2619   28.0520 N   0  0  0  0  0  0  0  0  0  0  0  0
   17.6657  -19.1000   27.9086 C   0  0  0  0  0  0  0  0  0  0  0  0
   16.5312  -18.6398   27.1173 N   0  0  0  0  0  0  0  0  0  0  0  0
   13.3674  -21.2839   26.0683 C   0  0  0  0  0  0  0  0  0  0  0  0
   14.5472  -21.2972   25.3433 C   0  0  0  0  0  0  0  0  0  0  0  0
   15.5986  -20.4251   25.6860 C   0  0  0  0  0  0  0  0  0  0  0  0
   15.4525  -19.5492   26.7509 C   0  0  0  0  0  0  0  0  0  0  0  0
   14.2656  -19.5383   27.4778 C   0  0  0  0  0  0  0  0  0  0  0  0
   13.2242  -20.4056   27.1378 C   0  0  0  0  0  0  0  0  0  0  0  0
   19.0316  -16.5977   25.8494 C   0  0  0  0  0  0  0  0  0  0  0  0
  1  3  1  0  0  0  0
  2  3  2  0  0  0  0
  2 12  1  0  0  0  0
  3  4  1  0  0  0  0
  4  6  1  0  0  0  0
  5 22  1  0  0  0  0
  6  7  1  0  0  0  0
  6  8  2  0  0  0  0
  7 12  2  0  0  0  0
  7  9  1  0  0  0  0
  9 10  1  0  0  0  0
  9 22  1  0  0  0  0
 10 11  1  0  0  0  0
 10 14  1  6  0  0  0
 11 13  1  0  0  0  0
 12 13  1  0  0  0  0
 14 15  1  0  0  0  0
 15 19  1  0  0  0  0
 16 17  2  0  0  0  0
 16 21  1  0  0  0  0
 17 18  1  0  0  0  0
 18 19  2  0  0  0  0
 19 20  1  0  0  0  0
 20 21  2  0  0  0  0
M  END
>  <CHROM.1>
-78.82314032,-59.79583912,164.94814501,-80.08349712,18.51826876,-19.32966184
26.18770458,0.00089258,-0.17942946,-2.58052782

>  <Name>
ligand

>  <RI>
0

>  <Rbt.Current_Directory>
/home/itssahil/PROJECTS/Mol_Feturizer/Test_systems_manuscript/rnas/3sd3

>  <Rbt.Executable>
rbdock ($Id: //depot/dev/client3/rdock/2013.1/src/exe/rbdock.cxx#4 $)

>  <Rbt.Library>
libRbt.so (2013.1, Build901 2013/11/27)

>  <Rbt.Parameter_File>
/export/apps/rDock/src/rDock_2013.1_src/data/scripts/dock_solv.prm

>  <Rbt.Receptor>
prm/pocket_docking_5.prm

>  <SCORE>
-13.2856

>  <SCORE.INTER>
-11.8484

>  <SCORE.INTER.CONST>
1

>  <SCORE.INTER.POLAR>
0

>  <SCORE.INTER.ROT>
4

>  <SCORE.INTER.SOLV>
7.3724

>  <SCORE.INTER.VDW>
-16.6231

>  <SCORE.INTER.norm>
-0.538563

>  <SCORE.INTRA>
-1.4372

>  <SCORE.INTRA.DIHEDRAL>
-0.711177

>  <SCORE.INTRA.DIHEDRAL.0>
2.54655

>  <SCORE.INTRA.POLAR>
0

>  <SCORE.INTRA.POLAR.0>
0

>  <SCORE.INTRA.REPUL>
0

>  <SCORE.INTRA.REPUL.0>
0

>  <SCORE.INTRA.SOLV>
-0.241798

>  <SCORE.INTRA.SOLV.lig_0>
-56.4922

>  <SCORE.INTRA.VDW>
-0.960713

>  <SCORE.INTRA.VDW.0>
-0.696801

>  <SCORE.INTRA.norm>
-0.0653273

>  <SCORE.RESTR>
0

>  <SCORE.RESTR.CAVITY>
0

>  <SCORE.RESTR.norm>
0

>  <SCORE.SYSTEM>
0

>  <SCORE.SYSTEM.CONST>
0

>  <SCORE.SYSTEM.DIHEDRAL>
0

>  <SCORE.SYSTEM.SOLV>
0

>  <SCORE.SYSTEM.norm>
0

>  <SCORE.heavy>
22

>  <SCORE.norm>
-0.60389

>  <RMSD>
6.612

$$$$
ligand
 OpenBabel02271912143D
libRbt.so/2013.1/901 2013/11/27
 22 24  0  0  0  0  0  0  0  0999 V2000
   21.7083  -23.3147   22.2256 N   0  0  0  0  0  0  0  0  0  0  0  0
   20.2396  -23.2617   24.1158 N   0  0  0  0  0  0  0  0  0  0  0  0
   21.4080  -22.8907   23.5668 C   0  0  0  0  0  0  0  0  0  0  0  0
   22.2912  -22.1473   24.2218 N   0  0  0  0  0  0  0  0  0  0  0  0
   21.6649  -20.5900   28.9551 O   0  0  0  0  0  0  0  0  0  0  0  0
   22.0297  -21.7413   25.4779 C   0  0  0  0  0  0  0  0  0  0  0  0
   20.8072  -22.1260   26.0959 C   0  0  0  0  0  0  0  0  0  0  0  0
   22.9624  -20.9704   26.1347 O   0  0  0  0  0  0  0  0  0  0  0  0
   20.3828  -21.7466   27.4290 N   0  0  0  0  0  0  0  0  0  0  0  0
   18.9625  -21.4121   27.5952 C   0  0  2  0  0  0  0  0  0  0  0  0
   18.0963  -22.5012   27.0439 C   0  0  0  0  0  0  0  0  0  0  0  0
   19.9240  -22.8858   25.3706 C   0  0  0  0  0  0  0  0  0  0  0  0
   18.6980  -23.2732   25.9585 N   0  0  0  0  0  0  0  0  0  0  0  0
   18.5562  -20.0794   26.9407 C   0  0  0  0  0  0  0  0  0  0  0  0
   17.2656  -19.6334   27.4513 N   0  0  0  0  0  0  0  0  0  0  0  0
   13.6158  -21.0868   25.8179 C   0  0  0  0  0  0  0  0  0  0  0  0
   14.7804  -21.1517   25.0715 C   0  0  0  0  0  0  0  0  0  0  0  0
   15.9920  -20.6732   25.6067 C   0  0  0  0  0  0  0  0  0  0  0  0
   16.0196  -20.1338   26.8838 C   0  0  0  0  0  0  0  0  0  0  0  0
   14.8476  -20.0700   27.6316 C   0  0  0  0  0  0  0  0  0  0  0  0
   13.6468  -20.5471   27.0999 C   0  0  0  0  0  0  0  0  0  0  0  0
   21.2486  -21.6644   28.5553 C   0  0  0  0  0  0  0  0  0  0  0  0
  1  3  1  0  0  0  0
  2  3  2  0  0  0  0
  2 12  1  0  0  0  0
  3  4  1  0  0  0  0
  4  6  1  0  0  0  0
  5 22  1  0  0  0  0
  6  7  1  0  0  0  0
  6  8  2  0  0  0  0
  7 12  2  0  0  0  0
  7  9  1  0  0  0  0
  9 10  1  0  0  0  0
  9 22  1  0  0  0  0
 10 11  1  0  0  0  0
 10 14  1  6  0  0  0
 11 13  1  0  0  0  0
 12 13  1  0  0  0  0
 14 15  1  0  0  0  0
 15 19  1  0  0  0  0
 16 17  2  0  0  0  0
 16 21  1  0  0  0  0
 17 18  1  0  0  0  0
 18 19  2  0  0  0  0
 19 20  1  0  0  0  0
 20 21  2  0  0  0  0
M  END
>  <CHROM.1>
101.39613362,-164.10759327,-83.83426670,-21.48815898,19.02436488,-21.54535367
26.18175792,0.27687867,0.12373535,-2.01357089

>  <Name>
ligand

>  <RI>
0

>  <Rbt.Current_Directory>
/home/itssahil/PROJECTS/Mol_Feturizer/Test_systems_manuscript/rnas/3sd3

>  <Rbt.Executable>
rbdock ($Id: //depot/dev/client3/rdock/2013.1/src/exe/rbdock.cxx#4 $)

>  <Rbt.Library>
libRbt.so (2013.1, Build901 2013/11/27)

>  <Rbt.Parameter_File>
/export/apps/rDock/src/rDock_2013.1_src/data/scripts/dock_solv.prm

>  <Rbt.Receptor>
prm/pocket_docking_8.prm

>  <SCORE>
-16.3317

>  <SCORE.INTER>
-15.958

>  <SCORE.INTER.CONST>
1

>  <SCORE.INTER.POLAR>
0

>  <SCORE.INTER.ROT>
4

>  <SCORE.INTER.SOLV>
11.1137

>  <SCORE.INTER.VDW>
-20.6099

>  <SCORE.INTER.norm>
-0.725364

>  <SCORE.INTRA>
-0.373677

>  <SCORE.INTRA.DIHEDRAL>
0.344476

>  <SCORE.INTRA.DIHEDRAL.0>
2.54655

>  <SCORE.INTRA.POLAR>
0

>  <SCORE.INTRA.POLAR.0>
0

>  <SCORE.INTRA.REPUL>
0

>  <SCORE.INTRA.REPUL.0>
0

>  <SCORE.INTRA.SOLV>
-0.483216

>  <SCORE.INTRA.SOLV.lig_0>
-56.4922

>  <SCORE.INTRA.VDW>
-0.304308

>  <SCORE.INTRA.VDW.0>
-0.696801

>  <SCORE.INTRA.norm>
-0.0169853

>  <SCORE.RESTR>
0

>  <SCORE.RESTR.CAVITY>
0

>  <SCORE.RESTR.norm>
0

>  <SCORE.SYSTEM>
0

>  <SCORE.SYSTEM.CONST>
0

>  <SCORE.SYSTEM.DIHEDRAL>
0

>  <SCORE.SYSTEM.SOLV>
0

>  <SCORE.SYSTEM.norm>
0

>  <SCORE.heavy>
22

>  <SCORE.norm>
-0.742349

>  <RMSD>
6.612

$$$$
ligand
 OpenBabel02271912143D
libRbt.so/2013.1/901 2013/11/27
 22 24  0  0  0  0  0  0  0  0999 V2000
   24.0241  -20.0469   24.7862 N   0  0  0  0  0  0  0  0  0  0  0  0
   22.1727  -21.4039   25.4674 N   0  0  0  0  0  0  0  0  0  0  0  0
   22.7018  -20.1761   25.3371 C   0  0  0  0  0  0  0  0  0  0  0  0
   22.0440  -19.0819   25.7002 N   0  0  0  0  0  0  0  0  0  0  0  0
   18.1063  -20.5418   29.0638 O   0  0  0  0  0  0  0  0  0  0  0  0
   20.8061  -19.1814   26.2188 C   0  0  0  0  0  0  0  0  0  0  0  0
   20.2191  -20.4670   26.3831 C   0  0  0  0  0  0  0  0  0  0  0  0
   20.1454  -18.0308   26.5865 O   0  0  0  0  0  0  0  0  0  0  0  0
   18.8916  -20.7250   26.9051 N   0  0  0  0  0  0  0  0  0  0  0  0
   18.1225  -21.7884   26.2460 C   0  0  2  0  0  0  0  0  0  0  0  0
   18.9253  -23.0494   26.1689 C   0  0  0  0  0  0  0  0  0  0  0  0
   20.9377  -21.5651   25.9813 C   0  0  0  0  0  0  0  0  0  0  0  0
   20.3730  -22.8531   26.1251 N   0  0  0  0  0  0  0  0  0  0  0  0
   17.6412  -21.4224   24.8303 C   0  0  0  0  0  0  0  0  0  0  0  0
   16.7493  -20.2703   24.8772 N   0  0  0  0  0  0  0  0  0  0  0  0
   13.1512  -20.3632   27.1458 C   0  0  0  0  0  0  0  0  0  0  0  0
   13.2614  -21.1251   25.9948 C   0  0  0  0  0  0  0  0  0  0  0  0
   14.4500  -21.0996   25.2398 C   0  0  0  0  0  0  0  0  0  0  0  0
   15.5129  -20.3083   25.6484 C   0  0  0  0  0  0  0  0  0  0  0  0
   15.3992  -19.5437   26.8058 C   0  0  0  0  0  0  0  0  0  0  0  0
   14.2200  -19.5718   27.5548 C   0  0  0  0  0  0  0  0  0  0  0  0
   18.2989  -20.0101   27.9832 C   0  0  0  0  0  0  0  0  0  0  0  0
  1  3  1  0  0  0  0
  2  3  2  0  0  0  0
  2 12  1  0  0  0  0
  3  4  1  0  0  0  0
  4  6  1  0  0  0  0
  5 22  1  0  0  0  0
  6  7  1  0  0  0  0
  6  8  2  0  0  0  0
  7 12  2  0  0  0  0
  7  9  1  0  0  0  0
  9 10  1  0  0  0  0
  9 22  1  0  0  0  0
 10 11  1  0  0  0  0
 10 14  1  6  0  0  0
 11 13  1  0  0  0  0
 12 13  1  0  0  0  0
 14 15  1  0  0  0  0
 15 19  1  0  0  0  0
 16 17  2  0  0  0  0
 16 21  1  0  0  0  0
 17 18  1  0  0  0  0
 18 19  2  0  0  0  0
 19 20  1  0  0  0  0
 20 21  2  0  0  0  0
M  END
>  <CHROM.1>
-110.62135289,-61.58969087,-59.48705926,-69.85885493,18.56738449,-20.56834558
26.25122683,0.03092426,-0.10535782,-2.68193497

>  <Name>
ligand

>  <RI>
0

>  <Rbt.Current_Directory>
/home/itssahil/PROJECTS/Mol_Feturizer/Test_systems_manuscript/rnas/3sd3

>  <Rbt.Executable>
rbdock ($Id: //depot/dev/client3/rdock/2013.1/src/exe/rbdock.cxx#4 $)

>  <Rbt.Library>
libRbt.so (2013.1, Build901 2013/11/27)

>  <Rbt.Parameter_File>
/export/apps/rDock/src/rDock_2013.1_src/data/scripts/dock_solv.prm

>  <Rbt.Receptor>
prm/pocket_docking_4.prm

>  <SCORE>
-15.8553

>  <SCORE.INTER>
-14.0147

>  <SCORE.INTER.CONST>
1

>  <SCORE.INTER.POLAR>
0

>  <SCORE.INTER.ROT>
4

>  <SCORE.INTER.SOLV>
8.3632

>  <SCORE.INTER.VDW>
-18.3975

>  <SCORE.INTER.norm>
-0.637033

>  <SCORE.INTRA>
-1.84062

>  <SCORE.INTRA.DIHEDRAL>
-0.890258

>  <SCORE.INTRA.DIHEDRAL.0>
2.54655

>  <SCORE.INTRA.POLAR>
0

>  <SCORE.INTRA.POLAR.0>
0

>  <SCORE.INTRA.REPUL>
0

>  <SCORE.INTRA.REPUL.0>
0

>  <SCORE.INTRA.SOLV>
-0.126485

>  <SCORE.INTRA.SOLV.lig_0>
-56.4922

>  <SCORE.INTRA.VDW>
-1.33225

>  <SCORE.INTRA.VDW.0>
-0.696801

>  <SCORE.INTRA.norm>
-0.0836647

>  <SCORE.RESTR>
0

>  <SCORE.RESTR.CAVITY>
0

>  <SCORE.RESTR.norm>
0

>  <SCORE.SYSTEM>
0

>  <SCORE.SYSTEM.CONST>
0

>  <SCORE.SYSTEM.DIHEDRAL>
0

>  <SCORE.SYSTEM.SOLV>
0

>  <SCORE.SYSTEM.norm>
0

>  <SCORE.heavy>
22

>  <SCORE.norm>
-0.720698

>  <RMSD>
6.613

$$$$
ligand
 OpenBabel02271912143D
libRbt.so/2013.1/901 2013/11/27
 22 24  0  0  0  0  0  0  0  0999 V2000
   21.6626  -23.3754   22.1971 N   0  0  0  0  0  0  0  0  0  0  0  0
   20.2247  -23.2949   24.1099 N   0  0  0  0  0  0  0  0  0  0  0  0
   21.3811  -22.9265   23.5342 C   0  0  0  0  0  0  0  0  0  0  0  0
   22.2693  -22.1636   24.1594 N   0  0  0  0  0  0  0  0  0  0  0  0
   21.7679  -20.5247   28.8239 O   0  0  0  0  0  0  0  0  0  0  0  0
   22.0253  -21.7341   25.4112 C   0  0  0  0  0  0  0  0  0  0  0  0
   20.8161  -22.1151   26.0570 C   0  0  0  0  0  0  0  0  0  0  0  0
   22.9627  -20.9432   26.0369 O   0  0  0  0  0  0  0  0  0  0  0  0
   20.4107  -21.7118   27.3890 N   0  0  0  0  0  0  0  0  0  0  0  0
   18.9907  -21.3845   27.5720 C   0  0  2  0  0  0  0  0  0  0  0  0
   18.1240  -22.4908   27.0571 C   0  0  0  0  0  0  0  0  0  0  0  0
   19.9268  -22.8959   25.3618 C   0  0  0  0  0  0  0  0  0  0  0  0
   18.7137  -23.2803   25.9776 N   0  0  0  0  0  0  0  0  0  0  0  0
   18.5636  -20.0683   26.8975 C   0  0  0  0  0  0  0  0  0  0  0  0
   17.2813  -19.6181   27.4249 N   0  0  0  0  0  0  0  0  0  0  0  0
   13.6054  -21.0364   25.8194 C   0  0  0  0  0  0  0  0  0  0  0  0
   14.7663  -21.1258   25.0698 C   0  0  0  0  0  0  0  0  0  0  0  0
   15.9865  -20.6591   25.5957 C   0  0  0  0  0  0  0  0  0  0  0  0
   16.0263  -20.1066   26.8669 C   0  0  0  0  0  0  0  0  0  0  0  0
   14.8579  -20.0182   27.6180 C   0  0  0  0  0  0  0  0  0  0  0  0
   13.6486  -20.4837   27.0956 C   0  0  0  0  0  0  0  0  0  0  0  0
   21.2941  -21.6005   28.4989 C   0  0  0  0  0  0  0  0  0  0  0  0
  1  3  1  0  0  0  0
  2  3  2  0  0  0  0
  2 12  1  0  0  0  0
  3  4  1  0  0  0  0
  4  6  1  0  0  0  0
  5 22  1  0  0  0  0
  6  7  1  0  0  0  0
  6  8  2  0  0  0  0
  7 12  2  0  0  0  0
  7  9  1  0  0  0  0
  9 10  1  0  0  0  0
  9 22  1  0  0  0  0
 10 11  1  0  0  0  0
 10 14  1  6  0  0  0
 11 13  1  0  0  0  0
 12 13  1  0  0  0  0
 14 15  1  0  0  0  0
 15 19  1  0  0  0  0
 16 17  2  0  0  0  0
 16 21  1  0  0  0  0
 17 18  1  0  0  0  0
 18 19  2  0  0  0  0
 19 20  1  0  0  0  0
 20 21  2  0  0  0  0
M  END
>  <CHROM.1>
97.24482814,-163.83478021,-85.70457028,-20.29401546,19.03280295,-21.52970173
26.14909244,0.28476116,0.12094778,-2.03328779

>  <Name>
ligand

>  <RI>
0

>  <Rbt.Current_Directory>
/home/itssahil/PROJECTS/Mol_Feturizer/Test_systems_manuscript/rnas/3sd3

>  <Rbt.Executable>
rbdock ($Id: //depot/dev/client3/rdock/2013.1/src/exe/rbdock.cxx#4 $)

>  <Rbt.Library>
libRbt.so (2013.1, Build901 2013/11/27)

>  <Rbt.Parameter_File>
/export/apps/rDock/src/rDock_2013.1_src/data/scripts/dock_solv.prm

>  <Rbt.Receptor>
prm/pocket_docking_6.prm

>  <SCORE>
-16.3626

>  <SCORE.INTER>
-15.9901

>  <SCORE.INTER.CONST>
1

>  <SCORE.INTER.POLAR>
0

>  <SCORE.INTER.ROT>
4

>  <SCORE.INTER.SOLV>
11.2446

>  <SCORE.INTER.VDW>
-20.6749

>  <SCORE.INTER.norm>
-0.726822

>  <SCORE.INTRA>
-0.372548

>  <SCORE.INTRA.DIHEDRAL>
0.42593

>  <SCORE.INTRA.DIHEDRAL.0>
2.54655

>  <SCORE.INTRA.POLAR>
0

>  <SCORE.INTRA.POLAR.0>
0

>  <SCORE.INTRA.REPUL>
0

>  <SCORE.INTRA.REPUL.0>
0

>  <SCORE.INTRA.SOLV>
-0.486202

>  <SCORE.INTRA.SOLV.lig_0>
-56.4922

>  <SCORE.INTRA.VDW>
-0.342412

>  <SCORE.INTRA.VDW.0>
-0.696801

>  <SCORE.INTRA.norm>
-0.016934

>  <SCORE.RESTR>
0

>  <SCORE.RESTR.CAVITY>
0

>  <SCORE.RESTR.norm>
0

>  <SCORE.SYSTEM>
0

>  <SCORE.SYSTEM.CONST>
0

>  <SCORE.SYSTEM.DIHEDRAL>
0

>  <SCORE.SYSTEM.SOLV>
0

>  <SCORE.SYSTEM.norm>
0

>  <SCORE.heavy>
22

>  <SCORE.norm>
-0.743756

>  <RMSD>
6.613

$$$$
ligand
 OpenBabel02271912143D
libRbt.so/2013.1/901 2013/11/27
 22 24  0  0  0  0  0  0  0  0999 V2000
   21.6028  -23.2734   22.2222 N   0  0  0  0  0  0  0  0  0  0  0  0
   20.1996  -23.2806   24.1623 N   0  0  0  0  0  0  0  0  0  0  0  0
   21.3377  -22.8717   23.5776 C   0  0  0  0  0  0  0  0  0  0  0  0
   22.2225  -22.1110   24.2102 N   0  0  0  0  0  0  0  0  0  0  0  0
   21.8975  -20.6592   28.8356 O   0  0  0  0  0  0  0  0  0  0  0  0
   21.9937  -21.7254   25.4791 C   0  0  0  0  0  0  0  0  0  0  0  0
   20.8043  -22.1502   26.1344 C   0  0  0  0  0  0  0  0  0  0  0  0
   22.9272  -20.9358   26.1121 O   0  0  0  0  0  0  0  0  0  0  0  0
   20.4162  -21.7964   27.4855 N   0  0  0  0  0  0  0  0  0  0  0  0
   18.9939  -21.5031   27.7042 C   0  0  2  0  0  0  0  0  0  0  0  0
   18.1391  -22.6100   27.1707 C   0  0  0  0  0  0  0  0  0  0  0  0
   19.9175  -22.9265   25.4313 C   0  0  0  0  0  0  0  0  0  0  0  0
   18.7238  -23.3538   26.0566 N   0  0  0  0  0  0  0  0  0  0  0  0
   18.5289  -20.1754   27.0791 C   0  0  0  0  0  0  0  0  0  0  0  0
   17.2201  -19.7983   27.5985 N   0  0  0  0  0  0  0  0  0  0  0  0
   13.6325  -21.0476   25.6829 C   0  0  0  0  0  0  0  0  0  0  0  0
   14.8447  -21.1685   25.0245 C   0  0  0  0  0  0  0  0  0  0  0  0
   16.0360  -20.7577   25.6534 C   0  0  0  0  0  0  0  0  0  0  0  0
   15.9958  -20.2289   26.9346 C   0  0  0  0  0  0  0  0  0  0  0  0
   14.7760  -20.1089   27.5938 C   0  0  0  0  0  0  0  0  0  0  0  0
   13.5952  -20.5189   26.9693 C   0  0  0  0  0  0  0  0  0  0  0  0
   21.3179  -21.7019   28.5822 C   0  0  0  0  0  0  0  0  0  0  0  0
  1  3  1  0  0  0  0
  2  3  2  0  0  0  0
  2 12  1  0  0  0  0
  3  4  1  0  0  0  0
  4  6  1  0  0  0  0
  5 22  1  0  0  0  0
  6  7  1  0  0  0  0
  6  8  2  0  0  0  0
  7 12  2  0  0  0  0
  7  9  1  0  0  0  0
  9 10  1  0  0  0  0
  9 22  1  0  0  0  0
 10 11  1  0  0  0  0
 10 14  1  6  0  0  0
 11 13  1  0  0  0  0
 12 13  1  0  0  0  0
 14 15  1  0  0  0  0
 15 19  1  0  0  0  0
 16 17  2  0  0  0  0
 16 21  1  0  0  0  0
 17 18  1  0  0  0  0
 18 19  2  0  0  0  0
 19 20  1  0  0  0  0
 20 21  2  0  0  0  0
M  END
>  <CHROM.1>
88.57147151,-166.41087732,-90.25884876,-13.81530722,19.02539682,-21.58253706
26.20308959,0.25305543,0.12692514,-1.99299619

>  <Name>
ligand

>  <RI>
0

>  <Rbt.Current_Directory>
/home/itssahil/PROJECTS/Mol_Feturizer/Test_systems_manuscript/rnas/3sd3

>  <Rbt.Executable>
rbdock ($Id: //depot/dev/client3/rdock/2013.1/src/exe/rbdock.cxx#4 $)

>  <Rbt.Library>
libRbt.so (2013.1, Build901 2013/11/27)

>  <Rbt.Parameter_File>
/export/apps/rDock/src/rDock_2013.1_src/data/scripts/dock_solv.prm

>  <Rbt.Receptor>
prm/pocket_docking_6.prm

>  <SCORE>
-16.492

>  <SCORE.INTER>
-16.1326

>  <SCORE.INTER.CONST>
1

>  <SCORE.INTER.POLAR>
0

>  <SCORE.INTER.ROT>
4

>  <SCORE.INTER.SOLV>
11.8535

>  <SCORE.INTER.VDW>
-20.9729

>  <SCORE.INTER.norm>
-0.733299

>  <SCORE.INTRA>
-0.35945

>  <SCORE.INTRA.DIHEDRAL>
0.31665

>  <SCORE.INTRA.DIHEDRAL.0>
2.54655

>  <SCORE.INTRA.POLAR>
0

>  <SCORE.INTRA.POLAR.0>
0

>  <SCORE.INTRA.REPUL>
0

>  <SCORE.INTRA.REPUL.0>
0

>  <SCORE.INTRA.SOLV>
-0.413253

>  <SCORE.INTRA.SOLV.lig_0>
-56.4922

>  <SCORE.INTRA.VDW>
-0.311149

>  <SCORE.INTRA.VDW.0>
-0.696801

>  <SCORE.INTRA.norm>
-0.0163387

>  <SCORE.RESTR>
0

>  <SCORE.RESTR.CAVITY>
0

>  <SCORE.RESTR.norm>
0

>  <SCORE.SYSTEM>
0

>  <SCORE.SYSTEM.CONST>
0

>  <SCORE.SYSTEM.DIHEDRAL>
0

>  <SCORE.SYSTEM.SOLV>
0

>  <SCORE.SYSTEM.norm>
0

>  <SCORE.heavy>
22

>  <SCORE.norm>
-0.749638

>  <RMSD>
6.613

$$$$
ligand
 OpenBabel02271912143D
libRbt.so/2013.1/901 2013/11/27
 22 24  0  0  0  0  0  0  0  0999 V2000
   23.8570  -20.0925   23.9662 N   0  0  0  0  0  0  0  0  0  0  0  0
   22.1162  -21.3908   24.9746 N   0  0  0  0  0  0  0  0  0  0  0  0
   22.5968  -20.1781   24.6541 C   0  0  0  0  0  0  0  0  0  0  0  0
   21.9468  -19.0599   24.9521 N   0  0  0  0  0  0  0  0  0  0  0  0
   18.5778  -20.0946   28.8509 O   0  0  0  0  0  0  0  0  0  0  0  0
   20.7668  -19.1183   25.5965 C   0  0  0  0  0  0  0  0  0  0  0  0
   20.2332  -20.3854   25.9628 C   0  0  0  0  0  0  0  0  0  0  0  0
   20.1127  -17.9436   25.8929 O   0  0  0  0  0  0  0  0  0  0  0  0
   18.9687  -20.6023   26.6374 N   0  0  0  0  0  0  0  0  0  0  0  0
   18.1699  -21.7475   26.1819 C   0  0  2  0  0  0  0  0  0  0  0  0
   18.9958  -22.9957   26.1716 C   0  0  0  0  0  0  0  0  0  0  0  0
   20.9402  -21.5110   25.6211 C   0  0  0  0  0  0  0  0  0  0  0  0
   20.4269  -22.7825   25.9652 N   0  0  0  0  0  0  0  0  0  0  0  0
   17.5468  -21.5564   24.7873 C   0  0  0  0  0  0  0  0  0  0  0  0
   16.6511  -20.4063   24.7825 N   0  0  0  0  0  0  0  0  0  0  0  0
   13.1641  -20.3241   27.2188 C   0  0  0  0  0  0  0  0  0  0  0  0
   13.1970  -21.1217   26.0872 C   0  0  0  0  0  0  0  0  0  0  0  0
   14.3485  -21.1541   25.2770 C   0  0  0  0  0  0  0  0  0  0  0  0
   15.4522  -20.3843   25.6115 C   0  0  0  0  0  0  0  0  0  0  0  0
   15.4163  -19.5839   26.7494 C   0  0  0  0  0  0  0  0  0  0  0  0
   14.2738  -19.5544   27.5533 C   0  0  0  0  0  0  0  0  0  0  0  0
   18.4614  -19.7766   27.6793 C   0  0  0  0  0  0  0  0  0  0  0  0
  1  3  1  0  0  0  0
  2  3  2  0  0  0  0
  2 12  1  0  0  0  0
  3  4  1  0  0  0  0
  4  6  1  0  0  0  0
  5 22  1  0  0  0  0
  6  7  1  0  0  0  0
  6  8  2  0  0  0  0
  7 12  2  0  0  0  0
  7  9  1  0  0  0  0
  9 10  1  0  0  0  0
  9 22  1  0  0  0  0
 10 11  1  0  0  0  0
 10 14  1  6  0  0  0
 11 13  1  0  0  0  0
 12 13  1  0  0  0  0
 14 15  1  0  0  0  0
 15 19  1  0  0  0  0
 16 17  2  0  0  0  0
 16 21  1  0  0  0  0
 17 18  1  0  0  0  0
 18 19  2  0  0  0  0
 19 20  1  0  0  0  0
 20 21  2  0  0  0  0
M  END
>  <CHROM.1>
-98.97887945,-60.55359883,-63.30651831,-73.42269191,18.57527026,-20.52398789
25.97618774,0.05134206,-0.17964182,-2.74080399

>  <Name>
ligand

>  <RI>
0

>  <Rbt.Current_Directory>
/home/itssahil/PROJECTS/Mol_Feturizer/Test_systems_manuscript/rnas/3sd3

>  <Rbt.Executable>
rbdock ($Id: //depot/dev/client3/rdock/2013.1/src/exe/rbdock.cxx#4 $)

>  <Rbt.Library>
libRbt.so (2013.1, Build901 2013/11/27)

>  <Rbt.Parameter_File>
/export/apps/rDock/src/rDock_2013.1_src/data/scripts/dock_solv.prm

>  <Rbt.Receptor>
prm/pocket_docking_8.prm

>  <SCORE>
-15.4565

>  <SCORE.INTER>
-13.6097

>  <SCORE.INTER.CONST>
1

>  <SCORE.INTER.POLAR>
0

>  <SCORE.INTER.ROT>
4

>  <SCORE.INTER.SOLV>
7.98912

>  <SCORE.INTER.VDW>
-18.0029

>  <SCORE.INTER.norm>
-0.618624

>  <SCORE.INTRA>
-1.84681

>  <SCORE.INTRA.DIHEDRAL>
-0.876687

>  <SCORE.INTRA.DIHEDRAL.0>
2.54655

>  <SCORE.INTRA.POLAR>
0

>  <SCORE.INTRA.POLAR.0>
0

>  <SCORE.INTRA.REPUL>
0

>  <SCORE.INTRA.REPUL.0>
0

>  <SCORE.INTRA.SOLV>
-0.138145

>  <SCORE.INTRA.SOLV.lig_0>
-56.4922

>  <SCORE.INTRA.VDW>
-1.3394

>  <SCORE.INTRA.VDW.0>
-0.696801

>  <SCORE.INTRA.norm>
-0.0839461

>  <SCORE.RESTR>
0

>  <SCORE.RESTR.CAVITY>
0

>  <SCORE.RESTR.norm>
0

>  <SCORE.SYSTEM>
0

>  <SCORE.SYSTEM.CONST>
0

>  <SCORE.SYSTEM.DIHEDRAL>
0

>  <SCORE.SYSTEM.SOLV>
0

>  <SCORE.SYSTEM.norm>
0

>  <SCORE.heavy>
22

>  <SCORE.norm>
-0.70257

>  <RMSD>
6.613

$$$$
ligand
 OpenBabel02271912143D
libRbt.so/2013.1/901 2013/11/27
 22 24  0  0  0  0  0  0  0  0999 V2000
   24.0973  -20.5145   25.1665 N   0  0  0  0  0  0  0  0  0  0  0  0
   22.1241  -21.7675   25.6855 N   0  0  0  0  0  0  0  0  0  0  0  0
   22.7522  -20.5802   25.6715 C   0  0  0  0  0  0  0  0  0  0  0  0
   22.1717  -19.4693   26.1083 N   0  0  0  0  0  0  0  0  0  0  0  0
   17.8469  -19.1428   28.1104 O   0  0  0  0  0  0  0  0  0  0  0  0
   20.9141  -19.5097   26.5857 C   0  0  0  0  0  0  0  0  0  0  0  0
   20.2225  -20.7525   26.6273 C   0  0  0  0  0  0  0  0  0  0  0  0
   20.3349  -18.3430   27.0316 O   0  0  0  0  0  0  0  0  0  0  0  0
   18.8630  -20.9433   27.0926 N   0  0  0  0  0  0  0  0  0  0  0  0
   18.0336  -21.8837   26.3279 C   0  0  2  0  0  0  0  0  0  0  0  0
   18.7364  -23.1952   26.1657 C   0  0  0  0  0  0  0  0  0  0  0  0
   20.8646  -21.8690   26.1532 C   0  0  0  0  0  0  0  0  0  0  0  0
   20.1957  -23.1143   26.1746 N   0  0  0  0  0  0  0  0  0  0  0  0
   17.6275  -21.3659   24.9363 C   0  0  0  0  0  0  0  0  0  0  0  0
   16.7703  -20.1932   25.0589 N   0  0  0  0  0  0  0  0  0  0  0  0
   13.0396  -20.3938   27.0944 C   0  0  0  0  0  0  0  0  0  0  0  0
   13.2507  -21.1633   25.9626 C   0  0  0  0  0  0  0  0  0  0  0  0
   14.4837  -21.1023   25.2848 C   0  0  0  0  0  0  0  0  0  0  0  0
   15.4890  -20.2683   25.7500 C   0  0  0  0  0  0  0  0  0  0  0  0
   15.2739  -19.4962   26.8878 C   0  0  0  0  0  0  0  0  0  0  0  0
   14.0508  -19.5595   27.5604 C   0  0  0  0  0  0  0  0  0  0  0  0
   18.2948  -20.2727   28.2116 C   0  0  0  0  0  0  0  0  0  0  0  0
  1  3  1  0  0  0  0
  2  3  2  0  0  0  0
  2 12  1  0  0  0  0
  3  4  1  0  0  0  0
  4  6  1  0  0  0  0
  5 22  1  0  0  0  0
  6  7  1  0  0  0  0
  6  8  2  0  0  0  0
  7 12  2  0  0  0  0
  7  9  1  0  0  0  0
  9 10  1  0  0  0  0
  9 22  1  0  0  0  0
 10 11  1  0  0  0  0
 10 14  1  6  0  0  0
 11 13  1  0  0  0  0
 12 13  1  0  0  0  0
 14 15  1  0  0  0  0
 15 19  1  0  0  0  0
 16 17  2  0  0  0  0
 16 21  1  0  0  0  0
 17 18  1  0  0  0  0
 18 19  2  0  0  0  0
 19 20  1  0  0  0  0
 20 21  2  0  0  0  0
M  END
>  <CHROM.1>
82.11818388,-64.56279955,-60.58603195,-61.84138502,18.53491509,-20.66115955
26.36376135,0.06279208,-0.04304235,-2.68641094

>  <Name>
ligand

>  <RI>
0

>  <Rbt.Current_Directory>
/home/itssahil/PROJECTS/Mol_Feturizer/Test_systems_manuscript/rnas/3sd3

>  <Rbt.Executable>
rbdock ($Id: //depot/dev/client3/rdock/2013.1/src/exe/rbdock.cxx#4 $)

>  <Rbt.Library>
libRbt.so (2013.1, Build901 2013/11/27)

>  <Rbt.Parameter_File>
/export/apps/rDock/src/rDock_2013.1_src/data/scripts/dock_solv.prm

>  <Rbt.Receptor>
prm/pocket_docking_3.prm

>  <SCORE>
-15.6574

>  <SCORE.INTER>
-14.0872

>  <SCORE.INTER.CONST>
1

>  <SCORE.INTER.POLAR>
0

>  <SCORE.INTER.ROT>
4

>  <SCORE.INTER.SOLV>
9.18029

>  <SCORE.INTER.VDW>
-18.7182

>  <SCORE.INTER.norm>
-0.640327

>  <SCORE.INTRA>
-1.57016

>  <SCORE.INTRA.DIHEDRAL>
-0.868565

>  <SCORE.INTRA.DIHEDRAL.0>
2.54655

>  <SCORE.INTRA.POLAR>
0

>  <SCORE.INTRA.POLAR.0>
0

>  <SCORE.INTRA.REPUL>
0

>  <SCORE.INTRA.REPUL.0>
0

>  <SCORE.INTRA.SOLV>
0.73904

>  <SCORE.INTRA.SOLV.lig_0>
-56.4922

>  <SCORE.INTRA.VDW>
-1.50539

>  <SCORE.INTRA.VDW.0>
-0.696801

>  <SCORE.INTRA.norm>
-0.0713707

>  <SCORE.RESTR>
0

>  <SCORE.RESTR.CAVITY>
0

>  <SCORE.RESTR.norm>
0

>  <SCORE.SYSTEM>
0

>  <SCORE.SYSTEM.CONST>
0

>  <SCORE.SYSTEM.DIHEDRAL>
0

>  <SCORE.SYSTEM.SOLV>
0

>  <SCORE.SYSTEM.norm>
0

>  <SCORE.heavy>
22

>  <SCORE.norm>
-0.711698

>  <RMSD>
6.614

$$$$
ligand
 OpenBabel02271912143D
libRbt.so/2013.1/901 2013/11/27
 22 24  0  0  0  0  0  0  0  0999 V2000
   24.7585  -22.1281   26.5788 N   0  0  0  0  0  0  0  0  0  0  0  0
   22.7744  -22.4321   25.2735 N   0  0  0  0  0  0  0  0  0  0  0  0
   23.3252  -22.1846   26.4734 C   0  0  0  0  0  0  0  0  0  0  0  0
   22.5899  -21.9915   27.5614 N   0  0  0  0  0  0  0  0  0  0  0  0
   17.8700  -22.3313   27.8751 O   0  0  0  0  0  0  0  0  0  0  0  0
   21.2472  -22.0414   27.4841 C   0  0  0  0  0  0  0  0  0  0  0  0
   20.6295  -22.3138   26.2316 C   0  0  0  0  0  0  0  0  0  0  0  0
   20.5078  -21.8367   28.6273 O   0  0  0  0  0  0  0  0  0  0  0  0
   19.2008  -22.3760   25.9944 N   0  0  0  0  0  0  0  0  0  0  0  0
   18.7178  -21.7867   24.7388 C   0  0  2  0  0  0  0  0  0  0  0  0
   19.4817  -22.3315   23.5725 C   0  0  0  0  0  0  0  0  0  0  0  0
   21.4356  -22.4948   25.1358 C   0  0  0  0  0  0  0  0  0  0  0  0
   20.8461  -22.7573   23.8779 N   0  0  0  0  0  0  0  0  0  0  0  0
   18.7928  -20.2496   24.7033 C   0  0  0  0  0  0  0  0  0  0  0  0
   17.9646  -19.6745   25.7562 N   0  0  0  0  0  0  0  0  0  0  0  0
   13.8817  -20.7789   26.2156 C   0  0  0  0  0  0  0  0  0  0  0  0
   14.5749  -21.1558   25.0776 C   0  0  0  0  0  0  0  0  0  0  0  0
   15.9269  -20.7943   24.9198 C   0  0  0  0  0  0  0  0  0  0  0  0
   16.5660  -20.0573   25.9053 C   0  0  0  0  0  0  0  0  0  0  0  0
   15.8667  -19.6801   27.0479 C   0  0  0  0  0  0  0  0  0  0  0  0
   14.5261  -20.0415   27.2039 C   0  0  0  0  0  0  0  0  0  0  0  0
   18.2601  -22.9464   26.8969 C   0  0  0  0  0  0  0  0  0  0  0  0
  1  3  1  0  0  0  0
  2  3  2  0  0  0  0
  2 12  1  0  0  0  0
  3  4  1  0  0  0  0
  4  6  1  0  0  0  0
  5 22  1  0  0  0  0
  6  7  1  0  0  0  0
  6  8  2  0  0  0  0
  7 12  2  0  0  0  0
  7  9  1  0  0  0  0
  9 10  1  0  0  0  0
  9 22  1  0  0  0  0
 10 11  1  0  0  0  0
 10 14  1  1  0  0  0
 11 13  1  0  0  0  0
 12 13  1  0  0  0  0
 14 15  1  0  0  0  0
 15 19  1  0  0  0  0
 16 17  2  0  0  0  0
 16 21  1  0  0  0  0
 17 18  1  0  0  0  0
 18 19  2  0  0  0  0
 19 20  1  0  0  0  0
 20 21  2  0  0  0  0
M  END
>  <CHROM.1>
79.35952283,-61.13595309,-52.25199289,-11.23168457,19.16978658,-21.59734433
26.07864205,0.01396971,-0.23451271,1.50856364

>  <Name>
ligand

>  <RI>
0

>  <Rbt.Current_Directory>
/home/itssahil/PROJECTS/Mol_Feturizer/Test_systems_manuscript/rnas/3sd3

>  <Rbt.Executable>
rbdock ($Id: //depot/dev/client3/rdock/2013.1/src/exe/rbdock.cxx#4 $)

>  <Rbt.Library>
libRbt.so (2013.1, Build901 2013/11/27)

>  <Rbt.Parameter_File>
/export/apps/rDock/src/rDock_2013.1_src/data/scripts/dock_solv.prm

>  <Rbt.Receptor>
prm/pocket_docking_3.prm

>  <SCORE>
-16.0699

>  <SCORE.INTER>
-15.0618

>  <SCORE.INTER.CONST>
1

>  <SCORE.INTER.POLAR>
0

>  <SCORE.INTER.ROT>
4

>  <SCORE.INTER.SOLV>
6.79935

>  <SCORE.INTER.VDW>
-18.5743

>  <SCORE.INTER.norm>
-0.684625

>  <SCORE.INTRA>
-1.00811

>  <SCORE.INTRA.DIHEDRAL>
-0.883185

>  <SCORE.INTRA.DIHEDRAL.0>
2.54655

>  <SCORE.INTRA.POLAR>
0

>  <SCORE.INTRA.POLAR.0>
0

>  <SCORE.INTRA.REPUL>
0

>  <SCORE.INTRA.REPUL.0>
0

>  <SCORE.INTRA.SOLV>
0.818463

>  <SCORE.INTRA.SOLV.lig_0>
-56.4922

>  <SCORE.INTRA.VDW>
-0.975752

>  <SCORE.INTRA.VDW.0>
-0.696801

>  <SCORE.INTRA.norm>
-0.0458233

>  <SCORE.RESTR>
0

>  <SCORE.RESTR.CAVITY>
0

>  <SCORE.RESTR.norm>
0

>  <SCORE.SYSTEM>
0

>  <SCORE.SYSTEM.CONST>
0

>  <SCORE.SYSTEM.DIHEDRAL>
0

>  <SCORE.SYSTEM.SOLV>
0

>  <SCORE.SYSTEM.norm>
0

>  <SCORE.heavy>
22

>  <SCORE.norm>
-0.730449

>  <RMSD>
6.616

$$$$
ligand
 OpenBabel02271912143D
libRbt.so/2013.1/901 2013/11/27
 22 24  0  0  0  0  0  0  0  0999 V2000
   21.3295  -23.2874   22.0875 N   0  0  0  0  0  0  0  0  0  0  0  0
   20.0517  -23.2611   24.1122 N   0  0  0  0  0  0  0  0  0  0  0  0
   21.1376  -22.8423   23.4417 C   0  0  0  0  0  0  0  0  0  0  0  0
   22.0365  -22.0332   23.9886 N   0  0  0  0  0  0  0  0  0  0  0  0
   21.3725  -22.1803   29.3932 O   0  0  0  0  0  0  0  0  0  0  0  0
   21.8759  -21.6064   25.2548 C   0  0  0  0  0  0  0  0  0  0  0  0
   20.7437  -22.0398   25.9996 C   0  0  0  0  0  0  0  0  0  0  0  0
   22.8224  -20.7670   25.7981 O   0  0  0  0  0  0  0  0  0  0  0  0
   20.4304  -21.6463   27.3591 N   0  0  0  0  0  0  0  0  0  0  0  0
   19.0162  -21.3856   27.6574 C   0  0  2  0  0  0  0  0  0  0  0  0
   18.1643  -22.5360   27.2198 C   0  0  0  0  0  0  0  0  0  0  0  0
   19.8390  -22.8673   25.3830 C   0  0  0  0  0  0  0  0  0  0  0  0
   18.7006  -23.3045   26.0983 N   0  0  0  0  0  0  0  0  0  0  0  0
   18.4721  -20.0964   27.0159 C   0  0  0  0  0  0  0  0  0  0  0  0
   17.1655  -19.7636   27.5699 N   0  0  0  0  0  0  0  0  0  0  0  0
   13.5705  -21.0712   25.7077 C   0  0  0  0  0  0  0  0  0  0  0  0
   14.7854  -21.2561   25.0694 C   0  0  0  0  0  0  0  0  0  0  0  0
   15.9791  -20.8264   25.6808 C   0  0  0  0  0  0  0  0  0  0  0  0
   15.9387  -20.2148   26.9246 C   0  0  0  0  0  0  0  0  0  0  0  0
   14.7162  -20.0305   27.5637 C   0  0  0  0  0  0  0  0  0  0  0  0
   13.5331  -20.4593   26.9567 C   0  0  0  0  0  0  0  0  0  0  0  0
   21.3958  -21.4845   28.3918 C   0  0  0  0  0  0  0  0  0  0  0  0
  1  3  1  0  0  0  0
  2  3  2  0  0  0  0
  2 12  1  0  0  0  0
  3  4  1  0  0  0  0
  4  6  1  0  0  0  0
  5 22  1  0  0  0  0
  6  7  1  0  0  0  0
  6  8  2  0  0  0  0
  7 12  2  0  0  0  0
  7  9  1  0  0  0  0
  9 10  1  0  0  0  0
  9 22  1  0  0  0  0
 10 11  1  0  0  0  0
 10 14  1  6  0  0  0
 11 13  1  0  0  0  0
 12 13  1  0  0  0  0
 14 15  1  0  0  0  0
 15 19  1  0  0  0  0
 16 17  2  0  0  0  0
 16 21  1  0  0  0  0
 17 18  1  0  0  0  0
 18 19  2  0  0  0  0
 19 20  1  0  0  0  0
 20 21  2  0  0  0  0
M  END
>  <CHROM.1>
-117.56506876,-168.42771744,-93.03987883,-8.15149496,18.92818042,-21.60648816
26.15894407,0.26515322,0.16220486,-1.88076348

>  <Name>
ligand

>  <RI>
0

>  <Rbt.Current_Directory>
/home/itssahil/PROJECTS/Mol_Feturizer/Test_systems_manuscript/rnas/3sd3

>  <Rbt.Executable>
rbdock ($Id: //depot/dev/client3/rdock/2013.1/src/exe/rbdock.cxx#4 $)

>  <Rbt.Library>
libRbt.so (2013.1, Build901 2013/11/27)

>  <Rbt.Parameter_File>
/export/apps/rDock/src/rDock_2013.1_src/data/scripts/dock_solv.prm

>  <Rbt.Receptor>
prm/pocket_docking_4.prm

>  <SCORE>
-16.6455

>  <SCORE.INTER>
-16.3405

>  <SCORE.INTER.CONST>
1

>  <SCORE.INTER.POLAR>
0

>  <SCORE.INTER.ROT>
4

>  <SCORE.INTER.SOLV>
12.4005

>  <SCORE.INTER.VDW>
-21.2938

>  <SCORE.INTER.norm>
-0.742749

>  <SCORE.INTRA>
-0.305001

>  <SCORE.INTRA.DIHEDRAL>
0.265579

>  <SCORE.INTRA.DIHEDRAL.0>
2.54655

>  <SCORE.INTRA.POLAR>
0

>  <SCORE.INTRA.POLAR.0>
0

>  <SCORE.INTRA.REPUL>
0

>  <SCORE.INTRA.REPUL.0>
0

>  <SCORE.INTRA.SOLV>
-0.686532

>  <SCORE.INTRA.SOLV.lig_0>
-56.4922

>  <SCORE.INTRA.VDW>
-0.0945249

>  <SCORE.INTRA.VDW.0>
-0.696801

>  <SCORE.INTRA.norm>
-0.0138637

>  <SCORE.RESTR>
0

>  <SCORE.RESTR.CAVITY>
0

>  <SCORE.RESTR.norm>
0

>  <SCORE.SYSTEM>
0

>  <SCORE.SYSTEM.CONST>
0

>  <SCORE.SYSTEM.DIHEDRAL>
0

>  <SCORE.SYSTEM.SOLV>
0

>  <SCORE.SYSTEM.norm>
0

>  <SCORE.heavy>
22

>  <SCORE.norm>
-0.756613

>  <RMSD>
6.616

$$$$
ligand
 OpenBabel02271912143D
libRbt.so/2013.1/901 2013/11/27
 22 24  0  0  0  0  0  0  0  0999 V2000
   22.9683  -22.6559   26.8106 N   0  0  0  0  0  0  0  0  0  0  0  0
   21.6935  -20.7404   26.1485 N   0  0  0  0  0  0  0  0  0  0  0  0
   21.7441  -22.0696   26.3351 C   0  0  0  0  0  0  0  0  0  0  0  0
   20.7024  -22.8563   26.0946 N   0  0  0  0  0  0  0  0  0  0  0  0
   17.7586  -21.4492   23.0967 O   0  0  0  0  0  0  0  0  0  0  0  0
   19.5482  -22.3275   25.6481 C   0  0  0  0  0  0  0  0  0  0  0  0
   19.4622  -20.9246   25.4271 C   0  0  0  0  0  0  0  0  0  0  0  0
   18.4827  -23.1655   25.4073 O   0  0  0  0  0  0  0  0  0  0  0  0
   18.2829  -20.2157   24.9712 N   0  0  0  0  0  0  0  0  0  0  0  0
   18.0166  -18.9142   25.5974 C   0  0  2  0  0  0  0  0  0  0  0  0
   19.2295  -18.0395   25.5321 C   0  0  0  0  0  0  0  0  0  0  0  0
   20.5650  -20.1552   25.7021 C   0  0  0  0  0  0  0  0  0  0  0  0
   20.5023  -18.7574   25.5000 N   0  0  0  0  0  0  0  0  0  0  0  0
   17.5565  -19.0112   27.0632 C   0  0  0  0  0  0  0  0  0  0  0  0
   16.1534  -18.6341   27.1830 N   0  0  0  0  0  0  0  0  0  0  0  0
   13.0379  -21.3629   26.2092 C   0  0  0  0  0  0  0  0  0  0  0  0
   14.2367  -21.4084   25.5175 C   0  0  0  0  0  0  0  0  0  0  0  0
   15.2724  -20.5086   25.8356 C   0  0  0  0  0  0  0  0  0  0  0  0
   15.0915  -19.5729   26.8427 C   0  0  0  0  0  0  0  0  0  0  0  0
   13.8856  -19.5297   27.5363 C   0  0  0  0  0  0  0  0  0  0  0  0
   12.8599  -20.4245   27.2209 C   0  0  0  0  0  0  0  0  0  0  0  0
   17.3800  -20.7068   23.9872 C   0  0  0  0  0  0  0  0  0  0  0  0
  1  3  1  0  0  0  0
  2  3  2  0  0  0  0
  2 12  1  0  0  0  0
  3  4  1  0  0  0  0
  4  6  1  0  0  0  0
  5 22  1  0  0  0  0
  6  7  1  0  0  0  0
  6  8  2  0  0  0  0
  7 12  2  0  0  0  0
  7  9  1  0  0  0  0
  9 10  1  0  0  0  0
  9 22  1  0  0  0  0
 10 11  1  0  0  0  0
 10 14  1  1  0  0  0
 11 13  1  0  0  0  0
 12 13  1  0  0  0  0
 14 15  1  0  0  0  0
 15 19  1  0  0  0  0
 16 17  2  0  0  0  0
 16 21  1  0  0  0  0
 17 18  1  0  0  0  0
 18 19  2  0  0  0  0
 19 20  1  0  0  0  0
 20 21  2  0  0  0  0
M  END
>  <CHROM.1>
-29.66153251,-110.31417491,79.66105798,-32.47947539,18.02409026,-20.62422448
25.84951083,0.19529635,-0.03770064,-2.90970580

>  <Name>
ligand

>  <RI>
0

>  <Rbt.Current_Directory>
/home/itssahil/PROJECTS/Mol_Feturizer/Test_systems_manuscript/rnas/3sd3

>  <Rbt.Executable>
rbdock ($Id: //depot/dev/client3/rdock/2013.1/src/exe/rbdock.cxx#4 $)

>  <Rbt.Library>
libRbt.so (2013.1, Build901 2013/11/27)

>  <Rbt.Parameter_File>
/export/apps/rDock/src/rDock_2013.1_src/data/scripts/dock_solv.prm

>  <Rbt.Receptor>
prm/pocket_docking_2.prm

>  <SCORE>
-9.14787

>  <SCORE.INTER>
-11.822

>  <SCORE.INTER.CONST>
1

>  <SCORE.INTER.POLAR>
0

>  <SCORE.INTER.ROT>
4

>  <SCORE.INTER.SOLV>
13.2069

>  <SCORE.INTER.VDW>
-18.5503

>  <SCORE.INTER.norm>
-0.537364

>  <SCORE.INTRA>
2.05892

>  <SCORE.INTRA.DIHEDRAL>
4.22188

>  <SCORE.INTRA.DIHEDRAL.0>
2.54655

>  <SCORE.INTRA.POLAR>
0

>  <SCORE.INTRA.POLAR.0>
0

>  <SCORE.INTRA.REPUL>
0

>  <SCORE.INTRA.REPUL.0>
0

>  <SCORE.INTRA.SOLV>
-0.391556

>  <SCORE.INTRA.SOLV.lig_0>
-56.4922

>  <SCORE.INTRA.VDW>
0.143759

>  <SCORE.INTRA.VDW.0>
-0.696801

>  <SCORE.INTRA.norm>
0.0935874

>  <SCORE.RESTR>
0.615203

>  <SCORE.RESTR.CAVITY>
0.615203

>  <SCORE.RESTR.norm>
0.0279638

>  <SCORE.SYSTEM>
0

>  <SCORE.SYSTEM.CONST>
0

>  <SCORE.SYSTEM.DIHEDRAL>
0

>  <SCORE.SYSTEM.SOLV>
0

>  <SCORE.SYSTEM.norm>
0

>  <SCORE.heavy>
22

>  <SCORE.norm>
-0.415812

>  <RMSD>
6.617

$$$$
ligand
 OpenBabel02271912143D
libRbt.so/2013.1/901 2013/11/27
 22 24  0  0  0  0  0  0  0  0999 V2000
   24.0213  -20.0362   25.3267 N   0  0  0  0  0  0  0  0  0  0  0  0
   22.1345  -21.4398   25.7767 N   0  0  0  0  0  0  0  0  0  0  0  0
   22.6736  -20.2097   25.7982 C   0  0  0  0  0  0  0  0  0  0  0  0
   22.0032  -19.1528   26.2400 N   0  0  0  0  0  0  0  0  0  0  0  0
   18.2197  -20.7706   29.3492 O   0  0  0  0  0  0  0  0  0  0  0  0
   20.7415  -19.2942   26.6865 C   0  0  0  0  0  0  0  0  0  0  0  0
   20.1426  -20.5848   26.6901 C   0  0  0  0  0  0  0  0  0  0  0  0
   20.0681  -18.1816   27.1385 O   0  0  0  0  0  0  0  0  0  0  0  0
   18.7907  -20.8834   27.1195 N   0  0  0  0  0  0  0  0  0  0  0  0
   18.0502  -21.8673   26.3191 C   0  0  2  0  0  0  0  0  0  0  0  0
   18.8511  -23.1206   26.1512 C   0  0  0  0  0  0  0  0  0  0  0  0
   20.8756  -21.6421   26.2123 C   0  0  0  0  0  0  0  0  0  0  0  0
   20.2999  -22.9332   26.1964 N   0  0  0  0  0  0  0  0  0  0  0  0
   17.6386  -21.3543   24.9273 C   0  0  0  0  0  0  0  0  0  0  0  0
   16.7544  -20.2018   25.0497 N   0  0  0  0  0  0  0  0  0  0  0  0
   13.0392  -20.4824   27.1039 C   0  0  0  0  0  0  0  0  0  0  0  0
   13.2739  -21.2719   25.9908 C   0  0  0  0  0  0  0  0  0  0  0  0
   14.5019  -21.1846   25.3069 C   0  0  0  0  0  0  0  0  0  0  0  0
   15.4787  -20.3045   25.7475 C   0  0  0  0  0  0  0  0  0  0  0  0
   15.2400  -19.5124   26.8666 C   0  0  0  0  0  0  0  0  0  0  0  0
   14.0219  -19.6018   27.5453 C   0  0  0  0  0  0  0  0  0  0  0  0
   18.1495  -20.2774   28.2359 C   0  0  0  0  0  0  0  0  0  0  0  0
  1  3  1  0  0  0  0
  2  3  2  0  0  0  0
  2 12  1  0  0  0  0
  3  4  1  0  0  0  0
  4  6  1  0  0  0  0
  5 22  1  0  0  0  0
  6  7  1  0  0  0  0
  6  8  2  0  0  0  0
  7 12  2  0  0  0  0
  7  9  1  0  0  0  0
  9 10  1  0  0  0  0
  9 22  1  0  0  0  0
 10 11  1  0  0  0  0
 10 14  1  6  0  0  0
 11 13  1  0  0  0  0
 12 13  1  0  0  0  0
 14 15  1  0  0  0  0
 15 19  1  0  0  0  0
 16 17  2  0  0  0  0
 16 21  1  0  0  0  0
 17 18  1  0  0  0  0
 18 19  2  0  0  0  0
 19 20  1  0  0  0  0
 20 21  2  0  0  0  0
M  END
>  <CHROM.1>
-90.59316100,-61.34448884,-59.91548909,-60.46780977,18.51552787,-20.64687716
26.47292741,0.01197175,-0.05494913,-2.58251193

>  <Name>
ligand

>  <RI>
0

>  <Rbt.Current_Directory>
/home/itssahil/PROJECTS/Mol_Feturizer/Test_systems_manuscript/rnas/3sd3

>  <Rbt.Executable>
rbdock ($Id: //depot/dev/client3/rdock/2013.1/src/exe/rbdock.cxx#4 $)

>  <Rbt.Library>
libRbt.so (2013.1, Build901 2013/11/27)

>  <Rbt.Parameter_File>
/export/apps/rDock/src/rDock_2013.1_src/data/scripts/dock_solv.prm

>  <Rbt.Receptor>
prm/pocket_docking_8.prm

>  <SCORE>
-15.9481

>  <SCORE.INTER>
-14.1037

>  <SCORE.INTER.CONST>
1

>  <SCORE.INTER.POLAR>
0

>  <SCORE.INTER.ROT>
4

>  <SCORE.INTER.SOLV>
8.79381

>  <SCORE.INTER.VDW>
-18.6004

>  <SCORE.INTER.norm>
-0.641077

>  <SCORE.INTRA>
-1.84436

>  <SCORE.INTRA.DIHEDRAL>
-0.878202

>  <SCORE.INTRA.DIHEDRAL.0>
2.54655

>  <SCORE.INTRA.POLAR>
0

>  <SCORE.INTRA.POLAR.0>
0

>  <SCORE.INTRA.REPUL>
0

>  <SCORE.INTRA.REPUL.0>
0

>  <SCORE.INTRA.SOLV>
-0.167211

>  <SCORE.INTRA.SOLV.lig_0>
-56.4922

>  <SCORE.INTRA.VDW>
-1.32166

>  <SCORE.INTRA.VDW.0>
-0.696801

>  <SCORE.INTRA.norm>
-0.0838347

>  <SCORE.RESTR>
0

>  <SCORE.RESTR.CAVITY>
0

>  <SCORE.RESTR.norm>
0

>  <SCORE.SYSTEM>
0

>  <SCORE.SYSTEM.CONST>
0

>  <SCORE.SYSTEM.DIHEDRAL>
0

>  <SCORE.SYSTEM.SOLV>
0

>  <SCORE.SYSTEM.norm>
0

>  <SCORE.heavy>
22

>  <SCORE.norm>
-0.724912

>  <RMSD>
6.624

$$$$
ligand
 OpenBabel02271912143D
libRbt.so/2013.1/901 2013/11/27
 22 24  0  0  0  0  0  0  0  0999 V2000
   21.3234  -23.3569   22.1218 N   0  0  0  0  0  0  0  0  0  0  0  0
   20.0662  -23.3040   24.1588 N   0  0  0  0  0  0  0  0  0  0  0  0
   21.1392  -22.8850   23.4680 C   0  0  0  0  0  0  0  0  0  0  0  0
   22.0321  -22.0517   23.9877 N   0  0  0  0  0  0  0  0  0  0  0  0
   21.6233  -22.2579   29.2446 O   0  0  0  0  0  0  0  0  0  0  0  0
   21.8785  -21.5995   25.2459 C   0  0  0  0  0  0  0  0  0  0  0  0
   20.7602  -22.0322   26.0118 C   0  0  0  0  0  0  0  0  0  0  0  0
   22.8186  -20.7353   25.7607 O   0  0  0  0  0  0  0  0  0  0  0  0
   20.4553  -21.6133   27.3656 N   0  0  0  0  0  0  0  0  0  0  0  0
   19.0407  -21.3659   27.6732 C   0  0  2  0  0  0  0  0  0  0  0  0
   18.2007  -22.5372   27.2697 C   0  0  0  0  0  0  0  0  0  0  0  0
   19.8610  -22.8855   25.4230 C   0  0  0  0  0  0  0  0  0  0  0  0
   18.7363  -23.3226   26.1595 N   0  0  0  0  0  0  0  0  0  0  0  0
   18.4719  -20.0987   27.0095 C   0  0  0  0  0  0  0  0  0  0  0  0
   17.1749  -19.7613   27.5831 N   0  0  0  0  0  0  0  0  0  0  0  0
   13.5758  -21.0503   25.7161 C   0  0  0  0  0  0  0  0  0  0  0  0
   13.5284  -20.4352   26.9558 C   0  0  0  0  0  0  0  0  0  0  0  0
   14.7160  -20.0053   27.5788 C   0  0  0  0  0  0  0  0  0  0  0  0
   15.9369  -20.1997   26.9507 C   0  0  0  0  0  0  0  0  0  0  0  0
   15.9813  -20.8181   25.7047 C   0  0  0  0  0  0  0  0  0  0  0  0
   14.8019  -21.2421   25.0870 C   0  0  0  0  0  0  0  0  0  0  0  0
   21.4289  -21.4155   28.3844 C   0  0  0  0  0  0  0  0  0  0  0  0
  1  3  1  0  0  0  0
  2  3  2  0  0  0  0
  2 12  1  0  0  0  0
  3  4  1  0  0  0  0
  4  6  1  0  0  0  0
  5 22  1  0  0  0  0
  6  7  1  0  0  0  0
  6  8  2  0  0  0  0
  7 12  2  0  0  0  0
  7  9  1  0  0  0  0
  9 10  1  0  0  0  0
  9 22  1  0  0  0  0
 10 11  1  0  0  0  0
 10 14  1  6  0  0  0
 11 13  1  0  0  0  0
 12 13  1  0  0  0  0
 14 15  1  0  0  0  0
 15 19  1  0  0  0  0
 16 17  2  0  0  0  0
 16 21  1  0  0  0  0
 17 18  1  0  0  0  0
 18 19  2  0  0  0  0
 19 20  1  0  0  0  0
 20 21  2  0  0  0  0
M  END
>  <CHROM.1>
-100.86481502,-167.63335771,-95.22408526,172.71562950,18.95219790,-21.60792568
26.16550881,0.26255105,0.16399696,-1.89718278

>  <Name>
ligand

>  <RI>
0

>  <Rbt.Current_Directory>
/home/itssahil/PROJECTS/Mol_Feturizer/Test_systems_manuscript/rnas/3sd3

>  <Rbt.Executable>
rbdock ($Id: //depot/dev/client3/rdock/2013.1/src/exe/rbdock.cxx#4 $)

>  <Rbt.Library>
libRbt.so (2013.1, Build901 2013/11/27)

>  <Rbt.Parameter_File>
/export/apps/rDock/src/rDock_2013.1_src/data/scripts/dock_solv.prm

>  <Rbt.Receptor>
prm/pocket_docking_6.prm

>  <SCORE>
-16.4523

>  <SCORE.INTER>
-16.1677

>  <SCORE.INTER.CONST>
1

>  <SCORE.INTER.POLAR>
0

>  <SCORE.INTER.ROT>
4

>  <SCORE.INTER.SOLV>
12.8393

>  <SCORE.INTER.VDW>
-21.3249

>  <SCORE.INTER.norm>
-0.734893

>  <SCORE.INTRA>
-0.28464

>  <SCORE.INTRA.DIHEDRAL>
0.416327

>  <SCORE.INTRA.DIHEDRAL.0>
2.54655

>  <SCORE.INTRA.POLAR>
0

>  <SCORE.INTRA.POLAR.0>
0

>  <SCORE.INTRA.REPUL>
0

>  <SCORE.INTRA.REPUL.0>
0

>  <SCORE.INTRA.SOLV>
-0.716238

>  <SCORE.INTRA.SOLV.lig_0>
-56.4922

>  <SCORE.INTRA.VDW>
-0.134685

>  <SCORE.INTRA.VDW.0>
-0.696801

>  <SCORE.INTRA.norm>
-0.0129382

>  <SCORE.RESTR>
0

>  <SCORE.RESTR.CAVITY>
0

>  <SCORE.RESTR.norm>
0

>  <SCORE.SYSTEM>
0

>  <SCORE.SYSTEM.CONST>
0

>  <SCORE.SYSTEM.DIHEDRAL>
0

>  <SCORE.SYSTEM.SOLV>
0

>  <SCORE.SYSTEM.norm>
0

>  <SCORE.heavy>
22

>  <SCORE.norm>
-0.747831

>  <RMSD>
6.626

$$$$
ligand
 OpenBabel02271912143D
libRbt.so/2013.1/901 2013/11/27
 22 24  0  0  0  0  0  0  0  0999 V2000
   23.9613  -20.3876   24.2519 N   0  0  0  0  0  0  0  0  0  0  0  0
   22.1246  -21.6178   25.1717 N   0  0  0  0  0  0  0  0  0  0  0  0
   22.6731  -20.4243   24.8905 C   0  0  0  0  0  0  0  0  0  0  0  0
   22.0649  -19.2814   25.1832 N   0  0  0  0  0  0  0  0  0  0  0  0
   18.1334  -20.3366   28.8492 O   0  0  0  0  0  0  0  0  0  0  0  0
   20.8597  -19.2941   25.7818 C   0  0  0  0  0  0  0  0  0  0  0  0
   20.2541  -20.5402   26.1059 C   0  0  0  0  0  0  0  0  0  0  0  0
   20.2501  -18.0946   26.0737 O   0  0  0  0  0  0  0  0  0  0  0  0
   18.9559  -20.7076   26.7288 N   0  0  0  0  0  0  0  0  0  0  0  0
   18.1227  -21.8066   26.2240 C   0  0  2  0  0  0  0  0  0  0  0  0
   18.8894  -23.0921   26.2231 C   0  0  0  0  0  0  0  0  0  0  0  0
   20.9204  -21.6924   25.7715 C   0  0  0  0  0  0  0  0  0  0  0  0
   20.3357  -22.9435   26.0742 N   0  0  0  0  0  0  0  0  0  0  0  0
   17.5630  -21.5647   24.8105 C   0  0  0  0  0  0  0  0  0  0  0  0
   16.6760  -20.4079   24.8045 N   0  0  0  0  0  0  0  0  0  0  0  0
   13.1570  -20.3396   27.1948 C   0  0  0  0  0  0  0  0  0  0  0  0
   14.2486  -19.5655   27.5510 C   0  0  0  0  0  0  0  0  0  0  0  0
   15.4161  -19.5828   26.7635 C   0  0  0  0  0  0  0  0  0  0  0  0
   15.4744  -20.3783   25.6293 C   0  0  0  0  0  0  0  0  0  0  0  0
   14.3757  -21.1551   25.2738 C   0  0  0  0  0  0  0  0  0  0  0  0
   13.2174  -21.1351   26.0549 C   0  0  0  0  0  0  0  0  0  0  0  0
   18.4482  -19.8751   27.7651 C   0  0  0  0  0  0  0  0  0  0  0  0
  1  3  1  0  0  0  0
  2  3  2  0  0  0  0
  2 12  1  0  0  0  0
  3  4  1  0  0  0  0
  4  6  1  0  0  0  0
  5 22  1  0  0  0  0
  6  7  1  0  0  0  0
  6  8  2  0  0  0  0
  7 12  2  0  0  0  0
  7  9  1  0  0  0  0
  9 10  1  0  0  0  0
  9 22  1  0  0  0  0
 10 11  1  0  0  0  0
 10 14  1  6  0  0  0
 11 13  1  0  0  0  0
 12 13  1  0  0  0  0
 14 15  1  0  0  0  0
 15 19  1  0  0  0  0
 16 17  2  0  0  0  0
 16 21  1  0  0  0  0
 17 18  1  0  0  0  0
 18 19  2  0  0  0  0
 19 20  1  0  0  0  0
 20 21  2  0  0  0  0
M  END
>  <CHROM.1>
-121.05923244,-63.03379400,-60.37981376,106.95787356,18.56717672,-20.63931491
26.06893031,0.06449211,-0.14925307,-2.75662501

>  <Name>
ligand

>  <RI>
0

>  <Rbt.Current_Directory>
/home/itssahil/PROJECTS/Mol_Feturizer/Test_systems_manuscript/rnas/3sd3

>  <Rbt.Executable>
rbdock ($Id: //depot/dev/client3/rdock/2013.1/src/exe/rbdock.cxx#4 $)

>  <Rbt.Library>
libRbt.so (2013.1, Build901 2013/11/27)

>  <Rbt.Parameter_File>
/export/apps/rDock/src/rDock_2013.1_src/data/scripts/dock_solv.prm

>  <Rbt.Receptor>
prm/pocket_docking_4.prm

>  <SCORE>
-15.6683

>  <SCORE.INTER>
-13.855

>  <SCORE.INTER.CONST>
1

>  <SCORE.INTER.POLAR>
0

>  <SCORE.INTER.ROT>
4

>  <SCORE.INTER.SOLV>
8.74838

>  <SCORE.INTER.VDW>
-18.4195

>  <SCORE.INTER.norm>
-0.629775

>  <SCORE.INTRA>
-1.81326

>  <SCORE.INTRA.DIHEDRAL>
-0.882549

>  <SCORE.INTRA.DIHEDRAL.0>
2.54655

>  <SCORE.INTRA.POLAR>
0

>  <SCORE.INTRA.POLAR.0>
0

>  <SCORE.INTRA.REPUL>
0

>  <SCORE.INTRA.REPUL.0>
0

>  <SCORE.INTRA.SOLV>
-0.127921

>  <SCORE.INTRA.SOLV.lig_0>
-56.4922

>  <SCORE.INTRA.VDW>
-1.30803

>  <SCORE.INTRA.VDW.0>
-0.696801

>  <SCORE.INTRA.norm>
-0.0824209

>  <SCORE.RESTR>
0

>  <SCORE.RESTR.CAVITY>
0

>  <SCORE.RESTR.norm>
0

>  <SCORE.SYSTEM>
0

>  <SCORE.SYSTEM.CONST>
0

>  <SCORE.SYSTEM.DIHEDRAL>
0

>  <SCORE.SYSTEM.SOLV>
0

>  <SCORE.SYSTEM.norm>
0

>  <SCORE.heavy>
22

>  <SCORE.norm>
-0.712195

>  <RMSD>
6.627

$$$$
ligand
 OpenBabel02271912143D
libRbt.so/2013.1/901 2013/11/27
 22 24  0  0  0  0  0  0  0  0999 V2000
   24.1508  -20.4036   25.8170 N   0  0  0  0  0  0  0  0  0  0  0  0
   22.1478  -21.7045   25.9856 N   0  0  0  0  0  0  0  0  0  0  0  0
   22.7750  -20.5388   26.2139 C   0  0  0  0  0  0  0  0  0  0  0  0
   22.1662  -19.5112   26.7928 N   0  0  0  0  0  0  0  0  0  0  0  0
   17.7103  -19.4823   28.5291 O   0  0  0  0  0  0  0  0  0  0  0  0
   20.8795  -19.6178   27.1726 C   0  0  0  0  0  0  0  0  0  0  0  0
   20.1872  -20.8422   26.9579 C   0  0  0  0  0  0  0  0  0  0  0  0
   20.2714  -18.5367   27.7701 O   0  0  0  0  0  0  0  0  0  0  0  0
   18.7997  -21.0938   27.2936 N   0  0  0  0  0  0  0  0  0  0  0  0
   18.0235  -21.8826   26.3280 C   0  0  2  0  0  0  0  0  0  0  0  0
   18.7361  -23.1557   25.9932 C   0  0  0  0  0  0  0  0  0  0  0  0
   20.8599  -21.8696   26.3452 C   0  0  0  0  0  0  0  0  0  0  0  0
   20.1915  -23.0933   26.1118 N   0  0  0  0  0  0  0  0  0  0  0  0
   17.7112  -21.1332   25.0202 C   0  0  0  0  0  0  0  0  0  0  0  0
   16.8294  -20.0016   25.2792 N   0  0  0  0  0  0  0  0  0  0  0  0
   12.9695  -20.5557   26.9807 C   0  0  0  0  0  0  0  0  0  0  0  0
   13.3401  -21.2793   25.8597 C   0  0  0  0  0  0  0  0  0  0  0  0
   14.6166  -21.1013   25.2922 C   0  0  0  0  0  0  0  0  0  0  0  0
   15.5050  -20.1979   25.8556 C   0  0  0  0  0  0  0  0  0  0  0  0
   15.1297  -19.4722   26.9824 C   0  0  0  0  0  0  0  0  0  0  0  0
   13.8637  -19.6516   27.5455 C   0  0  0  0  0  0  0  0  0  0  0  0
   18.1577  -20.6153   28.4699 C   0  0  0  0  0  0  0  0  0  0  0  0
  1  3  1  0  0  0  0
  2  3  2  0  0  0  0
  2 12  1  0  0  0  0
  3  4  1  0  0  0  0
  4  6  1  0  0  0  0
  5 22  1  0  0  0  0
  6  7  1  0  0  0  0
  6  8  2  0  0  0  0
  7 12  2  0  0  0  0
  7  9  1  0  0  0  0
  9 10  1  0  0  0  0
  9 22  1  0  0  0  0
 10 11  1  0  0  0  0
 10 14  1  6  0  0  0
 11 13  1  0  0  0  0
 12 13  1  0  0  0  0
 14 15  1  0  0  0  0
 15 19  1  0  0  0  0
 16 17  2  0  0  0  0
 16 21  1  0  0  0  0
 17 18  1  0  0  0  0
 18 19  2  0  0  0  0
 19 20  1  0  0  0  0
 20 21  2  0  0  0  0
M  END
>  <CHROM.1>
82.54621621,-65.49496308,-60.33756212,-52.13083519,18.51507326,-20.70225424
26.59850447,0.02773784,0.01302323,-2.54008217

>  <Name>
ligand

>  <RI>
0

>  <Rbt.Current_Directory>
/home/itssahil/PROJECTS/Mol_Feturizer/Test_systems_manuscript/rnas/3sd3

>  <Rbt.Executable>
rbdock ($Id: //depot/dev/client3/rdock/2013.1/src/exe/rbdock.cxx#4 $)

>  <Rbt.Library>
libRbt.so (2013.1, Build901 2013/11/27)

>  <Rbt.Parameter_File>
/export/apps/rDock/src/rDock_2013.1_src/data/scripts/dock_solv.prm

>  <Rbt.Receptor>
prm/pocket_docking_4.prm

>  <SCORE>
-15.6949

>  <SCORE.INTER>
-14.1098

>  <SCORE.INTER.CONST>
1

>  <SCORE.INTER.POLAR>
0

>  <SCORE.INTER.ROT>
4

>  <SCORE.INTER.SOLV>
9.23348

>  <SCORE.INTER.VDW>
-18.751

>  <SCORE.INTER.norm>
-0.641356

>  <SCORE.INTRA>
-1.58507

>  <SCORE.INTRA.DIHEDRAL>
-0.83677

>  <SCORE.INTRA.DIHEDRAL.0>
2.54655

>  <SCORE.INTRA.POLAR>
0

>  <SCORE.INTRA.POLAR.0>
0

>  <SCORE.INTRA.REPUL>
0

>  <SCORE.INTRA.REPUL.0>
0

>  <SCORE.INTRA.SOLV>
0.677437

>  <SCORE.INTRA.SOLV.lig_0>
-56.4922

>  <SCORE.INTRA.VDW>
-1.5054

>  <SCORE.INTRA.VDW.0>
-0.696801

>  <SCORE.INTRA.norm>
-0.0720487

>  <SCORE.RESTR>
0

>  <SCORE.RESTR.CAVITY>
0

>  <SCORE.RESTR.norm>
0

>  <SCORE.SYSTEM>
0

>  <SCORE.SYSTEM.CONST>
0

>  <SCORE.SYSTEM.DIHEDRAL>
0

>  <SCORE.SYSTEM.SOLV>
0

>  <SCORE.SYSTEM.norm>
0

>  <SCORE.heavy>
22

>  <SCORE.norm>
-0.713405

>  <RMSD>
6.627

$$$$
ligand
 OpenBabel02271912143D
libRbt.so/2013.1/901 2013/11/27
 22 24  0  0  0  0  0  0  0  0999 V2000
   20.5405  -18.0171   20.9364 N   0  0  0  0  0  0  0  0  0  0  0  0
   20.4156  -18.8881   23.1632 N   0  0  0  0  0  0  0  0  0  0  0  0
   20.3654  -17.8199   22.3503 C   0  0  0  0  0  0  0  0  0  0  0  0
   20.1601  -16.5919   22.8102 N   0  0  0  0  0  0  0  0  0  0  0  0
   21.4970  -15.9343   27.1310 O   0  0  0  0  0  0  0  0  0  0  0  0
   19.9950  -16.3860   24.1299 C   0  0  0  0  0  0  0  0  0  0  0  0
   20.0546  -17.4927   25.0221 C   0  0  0  0  0  0  0  0  0  0  0  0
   19.7826  -15.1026   24.5807 O   0  0  0  0  0  0  0  0  0  0  0  0
   19.8738  -17.4255   26.4588 N   0  0  0  0  0  0  0  0  0  0  0  0
   19.1062  -18.5152   27.0754 C   0  0  2  0  0  0  0  0  0  0  0  0
   19.6549  -19.8455   26.6632 C   0  0  0  0  0  0  0  0  0  0  0  0
   20.2582  -18.7427   24.4934 C   0  0  0  0  0  0  0  0  0  0  0  0
   20.3119  -19.8601   25.3578 N   0  0  0  0  0  0  0  0  0  0  0  0
   17.6022  -18.4792   26.7492 C   0  0  0  0  0  0  0  0  0  0  0  0
   16.9093  -19.5736   27.4178 N   0  0  0  0  0  0  0  0  0  0  0  0
   13.1076  -20.9133   26.0562 C   0  0  0  0  0  0  0  0  0  0  0  0
   13.1914  -20.0779   27.1574 C   0  0  0  0  0  0  0  0  0  0  0  0
   14.4466  -19.6301   27.6127 C   0  0  0  0  0  0  0  0  0  0  0  0
   15.6026  -20.0277   26.9582 C   0  0  0  0  0  0  0  0  0  0  0  0
   15.5152  -20.8673   25.8516 C   0  0  0  0  0  0  0  0  0  0  0  0
   14.2689  -21.3089   25.3999 C   0  0  0  0  0  0  0  0  0  0  0  0
   20.3712  -16.3779   27.2834 C   0  0  0  0  0  0  0  0  0  0  0  0
  1  3  1  0  0  0  0
  2  3  2  0  0  0  0
  2 12  1  0  0  0  0
  3  4  1  0  0  0  0
  4  6  1  0  0  0  0
  5 22  1  0  0  0  0
  6  7  1  0  0  0  0
  6  8  2  0  0  0  0
  7 12  2  0  0  0  0
  7  9  1  0  0  0  0
  9 10  1  0  0  0  0
  9 22  1  0  0  0  0
 10 11  1  0  0  0  0
 10 14  1  6  0  0  0
 11 13  1  0  0  0  0
 12 13  1  0  0  0  0
 14 15  1  0  0  0  0
 15 19  1  0  0  0  0
 16 17  2  0  0  0  0
 16 21  1  0  0  0  0
 17 18  1  0  0  0  0
 18 19  2  0  0  0  0
 19 20  1  0  0  0  0
 20 21  2  0  0  0  0
M  END
>  <CHROM.1>
-43.17195969,-178.85951107,-160.13562466,-100.55336077,18.46118186,-18.44464598
25.48318791,0.22419846,-0.56911296,-1.80467109

>  <Name>
ligand

>  <RI>
0

>  <Rbt.Current_Directory>
/home/itssahil/PROJECTS/Mol_Feturizer/Test_systems_manuscript/rnas/3sd3

>  <Rbt.Executable>
rbdock ($Id: //depot/dev/client3/rdock/2013.1/src/exe/rbdock.cxx#4 $)

>  <Rbt.Library>
libRbt.so (2013.1, Build901 2013/11/27)

>  <Rbt.Parameter_File>
/export/apps/rDock/src/rDock_2013.1_src/data/scripts/dock_solv.prm

>  <Rbt.Receptor>
prm/pocket_docking_5.prm

>  <SCORE>
-11.225

>  <SCORE.INTER>
-10.3818

>  <SCORE.INTER.CONST>
1

>  <SCORE.INTER.POLAR>
0

>  <SCORE.INTER.ROT>
4

>  <SCORE.INTER.SOLV>
3.8617

>  <SCORE.INTER.VDW>
-14.4751

>  <SCORE.INTER.norm>
-0.471902

>  <SCORE.INTRA>
-0.843127

>  <SCORE.INTRA.DIHEDRAL>
-0.631308

>  <SCORE.INTRA.DIHEDRAL.0>
2.54655

>  <SCORE.INTRA.POLAR>
0

>  <SCORE.INTRA.POLAR.0>
0

>  <SCORE.INTRA.REPUL>
0

>  <SCORE.INTRA.REPUL.0>
0

>  <SCORE.INTRA.SOLV>
-0.502598

>  <SCORE.INTRA.SOLV.lig_0>
-56.4922

>  <SCORE.INTRA.VDW>
-0.276174

>  <SCORE.INTRA.VDW.0>
-0.696801

>  <SCORE.INTRA.norm>
-0.038324

>  <SCORE.RESTR>
0

>  <SCORE.RESTR.CAVITY>
0

>  <SCORE.RESTR.norm>
0

>  <SCORE.SYSTEM>
0

>  <SCORE.SYSTEM.CONST>
0

>  <SCORE.SYSTEM.DIHEDRAL>
0

>  <SCORE.SYSTEM.SOLV>
0

>  <SCORE.SYSTEM.norm>
0

>  <SCORE.heavy>
22

>  <SCORE.norm>
-0.510226

>  <RMSD>
6.632

$$$$
ligand
 OpenBabel02271912143D
libRbt.so/2013.1/901 2013/11/27
 22 24  0  0  0  0  0  0  0  0999 V2000
   22.2925  -21.0293   31.1745 N   0  0  0  0  0  0  0  0  0  0  0  0
   21.6235  -20.3716   28.9716 N   0  0  0  0  0  0  0  0  0  0  0  0
   21.3709  -21.0987   30.0724 C   0  0  0  0  0  0  0  0  0  0  0  0
   20.3005  -21.8770   30.1740 N   0  0  0  0  0  0  0  0  0  0  0  0
   18.6239  -23.4235   26.3054 O   0  0  0  0  0  0  0  0  0  0  0  0
   19.4267  -21.9567   29.1537 C   0  0  0  0  0  0  0  0  0  0  0  0
   19.6688  -21.2100   27.9670 C   0  0  0  0  0  0  0  0  0  0  0  0
   18.3241  -22.7708   29.2851 O   0  0  0  0  0  0  0  0  0  0  0  0
   18.8077  -21.1806   26.8013 N   0  0  0  0  0  0  0  0  0  0  0  0
   18.6364  -19.8782   26.1446 C   0  0  2  0  0  0  0  0  0  0  0  0
   19.9661  -19.2585   25.8475 C   0  0  0  0  0  0  0  0  0  0  0  0
   20.7845  -20.4123   27.9181 C   0  0  0  0  0  0  0  0  0  0  0  0
   21.0427  -19.6529   26.7539 N   0  0  0  0  0  0  0  0  0  0  0  0
   17.7958  -18.8771   26.9575 C   0  0  0  0  0  0  0  0  0  0  0  0
   16.7499  -19.5724   27.6975 N   0  0  0  0  0  0  0  0  0  0  0  0
   13.2277  -20.9662   25.7603 C   0  0  0  0  0  0  0  0  0  0  0  0
   14.4694  -21.2232   25.2037 C   0  0  0  0  0  0  0  0  0  0  0  0
   15.6392  -20.7654   25.8404 C   0  0  0  0  0  0  0  0  0  0  0  0
   15.5484  -20.0538   27.0270 C   0  0  0  0  0  0  0  0  0  0  0  0
   14.2991  -19.7972   27.5841 C   0  0  0  0  0  0  0  0  0  0  0  0
   13.1396  -20.2540   26.9523 C   0  0  0  0  0  0  0  0  0  0  0  0
   18.1207  -22.3128   26.2807 C   0  0  0  0  0  0  0  0  0  0  0  0
  1  3  1  0  0  0  0
  2  3  2  0  0  0  0
  2 12  1  0  0  0  0
  3  4  1  0  0  0  0
  4  6  1  0  0  0  0
  5 22  1  0  0  0  0
  6  7  1  0  0  0  0
  6  8  2  0  0  0  0
  7 12  2  0  0  0  0
  7  9  1  0  0  0  0
  9 10  1  0  0  0  0
  9 22  1  0  0  0  0
 10 11  1  0  0  0  0
 10 14  1  1  0  0  0
 11 13  1  0  0  0  0
 12 13  1  0  0  0  0
 14 15  1  0  0  0  0
 15 19  1  0  0  0  0
 16 17  2  0  0  0  0
 16 21  1  0  0  0  0
 17 18  1  0  0  0  0
 18 19  2  0  0  0  0
 19 20  1  0  0  0  0
 20 21  2  0  0  0  0
M  END
>  <CHROM.1>
-35.80054928,-34.32415789,-76.47444157,47.42538853,18.27515712,-20.85269497
27.56079843,0.37800751,0.21065637,2.22059561

>  <Name>
ligand

>  <RI>
0

>  <Rbt.Current_Directory>
/home/itssahil/PROJECTS/Mol_Feturizer/Test_systems_manuscript/rnas/3sd3

>  <Rbt.Executable>
rbdock ($Id: //depot/dev/client3/rdock/2013.1/src/exe/rbdock.cxx#4 $)

>  <Rbt.Library>
libRbt.so (2013.1, Build901 2013/11/27)

>  <Rbt.Parameter_File>
/export/apps/rDock/src/rDock_2013.1_src/data/scripts/dock_solv.prm

>  <Rbt.Receptor>
prm/pocket_docking_7.prm

>  <SCORE>
-14.4752

>  <SCORE.INTER>
-14.6011

>  <SCORE.INTER.CONST>
1

>  <SCORE.INTER.POLAR>
0

>  <SCORE.INTER.ROT>
4

>  <SCORE.INTER.SOLV>
7.79612

>  <SCORE.INTER.VDW>
-18.5994

>  <SCORE.INTER.norm>
-0.663686

>  <SCORE.INTRA>
0.125752

>  <SCORE.INTRA.DIHEDRAL>
1.31421

>  <SCORE.INTRA.DIHEDRAL.0>
2.54655

>  <SCORE.INTRA.POLAR>
0

>  <SCORE.INTRA.POLAR.0>
0

>  <SCORE.INTRA.REPUL>
0

>  <SCORE.INTRA.REPUL.0>
0

>  <SCORE.INTRA.SOLV>
0.770156

>  <SCORE.INTRA.SOLV.lig_0>
-56.4922

>  <SCORE.INTRA.VDW>
-0.916433

>  <SCORE.INTRA.VDW.0>
-0.696801

>  <SCORE.INTRA.norm>
0.00571599

>  <SCORE.RESTR>
0.000103746

>  <SCORE.RESTR.CAVITY>
0.000103746

>  <SCORE.RESTR.norm>
4.71572e-06

>  <SCORE.SYSTEM>
0

>  <SCORE.SYSTEM.CONST>
0

>  <SCORE.SYSTEM.DIHEDRAL>
0

>  <SCORE.SYSTEM.SOLV>
0

>  <SCORE.SYSTEM.norm>
0

>  <SCORE.heavy>
22

>  <SCORE.norm>
-0.657966

>  <RMSD>
6.632

$$$$
ligand
 OpenBabel02271912143D
libRbt.so/2013.1/901 2013/11/27
 22 24  0  0  0  0  0  0  0  0999 V2000
   24.1428  -20.2986   24.9341 N   0  0  0  0  0  0  0  0  0  0  0  0
   22.2339  -21.6155   25.5296 N   0  0  0  0  0  0  0  0  0  0  0  0
   22.8242  -20.4094   25.4979 C   0  0  0  0  0  0  0  0  0  0  0  0
   22.2302  -19.3201   25.9694 N   0  0  0  0  0  0  0  0  0  0  0  0
   17.8998  -19.1873   28.1473 O   0  0  0  0  0  0  0  0  0  0  0  0
   20.9970  -19.4027   26.5019 C   0  0  0  0  0  0  0  0  0  0  0  0
   20.3463  -20.6665   26.5636 C   0  0  0  0  0  0  0  0  0  0  0  0
   20.4030  -18.2577   26.9830 O   0  0  0  0  0  0  0  0  0  0  0  0
   19.0154  -20.9025   27.0872 N   0  0  0  0  0  0  0  0  0  0  0  0
   18.1816  -21.8625   26.3522 C   0  0  2  0  0  0  0  0  0  0  0  0
   18.9162  -23.1506   26.1478 C   0  0  0  0  0  0  0  0  0  0  0  0
   21.0002  -21.7593   26.0519 C   0  0  0  0  0  0  0  0  0  0  0  0
   20.3713  -23.0247   26.0925 N   0  0  0  0  0  0  0  0  0  0  0  0
   17.6982  -21.3476   24.9844 C   0  0  0  0  0  0  0  0  0  0  0  0
   16.8631  -20.1645   25.1513 N   0  0  0  0  0  0  0  0  0  0  0  0
   13.0552  -20.4316   27.0302 C   0  0  0  0  0  0  0  0  0  0  0  0
   14.0188  -19.5784   27.5412 C   0  0  0  0  0  0  0  0  0  0  0  0
   15.2809  -19.4846   26.9235 C   0  0  0  0  0  0  0  0  0  0  0  0
   15.5611  -20.2496   25.8014 C   0  0  0  0  0  0  0  0  0  0  0  0
   14.5906  -21.1061   25.2900 C   0  0  0  0  0  0  0  0  0  0  0  0
   13.3382  -21.1964   25.9029 C   0  0  0  0  0  0  0  0  0  0  0  0
   18.4775  -20.2578   28.2360 C   0  0  0  0  0  0  0  0  0  0  0  0
  1  3  1  0  0  0  0
  2  3  2  0  0  0  0
  2 12  1  0  0  0  0
  3  4  1  0  0  0  0
  4  6  1  0  0  0  0
  5 22  1  0  0  0  0
  6  7  1  0  0  0  0
  6  8  2  0  0  0  0
  7 12  2  0  0  0  0
  7  9  1  0  0  0  0
  9 10  1  0  0  0  0
  9 22  1  0  0  0  0
 10 11  1  0  0  0  0
 10 14  1  6  0  0  0
 11 13  1  0  0  0  0
 12 13  1  0  0  0  0
 14 15  1  0  0  0  0
 15 19  1  0  0  0  0
 16 17  2  0  0  0  0
 16 21  1  0  0  0  0
 17 18  1  0  0  0  0
 18 19  2  0  0  0  0
 19 20  1  0  0  0  0
 20 21  2  0  0  0  0
M  END
>  <CHROM.1>
87.81218871,-61.87391859,-66.86254170,122.27043745,18.62726216,-20.60478734
26.32218968,0.05392971,-0.06787738,-2.68697640

>  <Name>
ligand

>  <RI>
0

>  <Rbt.Current_Directory>
/home/itssahil/PROJECTS/Mol_Feturizer/Test_systems_manuscript/rnas/3sd3

>  <Rbt.Executable>
rbdock ($Id: //depot/dev/client3/rdock/2013.1/src/exe/rbdock.cxx#4 $)

>  <Rbt.Library>
libRbt.so (2013.1, Build901 2013/11/27)

>  <Rbt.Parameter_File>
/export/apps/rDock/src/rDock_2013.1_src/data/scripts/dock_solv.prm

>  <Rbt.Receptor>
prm/pocket_docking_5.prm

>  <SCORE>
-15.5903

>  <SCORE.INTER>
-14.0118

>  <SCORE.INTER.CONST>
1

>  <SCORE.INTER.POLAR>
0

>  <SCORE.INTER.ROT>
4

>  <SCORE.INTER.SOLV>
8.49492

>  <SCORE.INTER.VDW>
-18.4395

>  <SCORE.INTER.norm>
-0.636901

>  <SCORE.INTRA>
-1.57847

>  <SCORE.INTRA.DIHEDRAL>
-0.890692

>  <SCORE.INTRA.DIHEDRAL.0>
2.54655

>  <SCORE.INTRA.POLAR>
0

>  <SCORE.INTRA.POLAR.0>
0

>  <SCORE.INTRA.REPUL>
0

>  <SCORE.INTRA.REPUL.0>
0

>  <SCORE.INTRA.SOLV>
0.770024

>  <SCORE.INTRA.SOLV.lig_0>
-56.4922

>  <SCORE.INTRA.VDW>
-1.51813

>  <SCORE.INTRA.VDW.0>
-0.696801

>  <SCORE.INTRA.norm>
-0.0717484

>  <SCORE.RESTR>
0

>  <SCORE.RESTR.CAVITY>
0

>  <SCORE.RESTR.norm>
0

>  <SCORE.SYSTEM>
0

>  <SCORE.SYSTEM.CONST>
0

>  <SCORE.SYSTEM.DIHEDRAL>
0

>  <SCORE.SYSTEM.SOLV>
0

>  <SCORE.SYSTEM.norm>
0

>  <SCORE.heavy>
22

>  <SCORE.norm>
-0.70865

>  <RMSD>
6.633

$$$$
ligand
 OpenBabel02271912143D
libRbt.so/2013.1/901 2013/11/27
 22 24  0  0  0  0  0  0  0  0999 V2000
   24.7447  -22.0623   26.6184 N   0  0  0  0  0  0  0  0  0  0  0  0
   22.6229  -22.4561   25.5812 N   0  0  0  0  0  0  0  0  0  0  0  0
   23.3072  -22.0524   26.6643 C   0  0  0  0  0  0  0  0  0  0  0  0
   22.6996  -21.6460   27.7722 N   0  0  0  0  0  0  0  0  0  0  0  0
   17.8452  -21.6056   28.4672 O   0  0  0  0  0  0  0  0  0  0  0  0
   21.3554  -21.6303   27.8358 C   0  0  0  0  0  0  0  0  0  0  0  0
   20.5980  -22.0631   26.7117 C   0  0  0  0  0  0  0  0  0  0  0  0
   20.7501  -21.2035   28.9964 O   0  0  0  0  0  0  0  0  0  0  0  0
   19.1509  -22.0801   26.6287 N   0  0  0  0  0  0  0  0  0  0  0  0
   18.5623  -21.6720   25.3465 C   0  0  2  0  0  0  0  0  0  0  0  0
   19.1756  -22.4390   24.2169 C   0  0  0  0  0  0  0  0  0  0  0  0
   21.2756  -22.4628   25.5872 C   0  0  0  0  0  0  0  0  0  0  0  0
   20.5461  -22.8884   24.4535 N   0  0  0  0  0  0  0  0  0  0  0  0
   18.6959  -20.1671   25.0512 C   0  0  0  0  0  0  0  0  0  0  0  0
   17.7329  -19.4059   25.8376 N   0  0  0  0  0  0  0  0  0  0  0  0
   13.7228  -20.7418   26.3229 C   0  0  0  0  0  0  0  0  0  0  0  0
   14.4316  -21.0849   25.1839 C   0  0  0  0  0  0  0  0  0  0  0  0
   15.7597  -20.6467   25.0175 C   0  0  0  0  0  0  0  0  0  0  0  0
   16.3595  -19.8681   25.9956 C   0  0  0  0  0  0  0  0  0  0  0  0
   15.6446  -19.5250   27.1394 C   0  0  0  0  0  0  0  0  0  0  0  0
   14.3278  -19.9623   27.3039 C   0  0  0  0  0  0  0  0  0  0  0  0
   18.2885  -22.4439   27.7004 C   0  0  0  0  0  0  0  0  0  0  0  0
  1  3  1  0  0  0  0
  2  3  2  0  0  0  0
  2 12  1  0  0  0  0
  3  4  1  0  0  0  0
  4  6  1  0  0  0  0
  5 22  1  0  0  0  0
  6  7  1  0  0  0  0
  6  8  2  0  0  0  0
  7 12  2  0  0  0  0
  7  9  1  0  0  0  0
  9 10  1  0  0  0  0
  9 22  1  0  0  0  0
 10 11  1  0  0  0  0
 10 14  1  6  0  0  0
 11 13  1  0  0  0  0
 12 13  1  0  0  0  0
 14 15  1  0  0  0  0
 15 19  1  0  0  0  0
 16 17  2  0  0  0  0
 16 21  1  0  0  0  0
 17 18  1  0  0  0  0
 18 19  2  0  0  0  0
 19 20  1  0  0  0  0
 20 21  2  0  0  0  0
M  END
>  <CHROM.1>
92.12334027,-76.33453292,-42.42392070,-28.15089411,19.07668899,-21.39303487
26.41927492,-0.01416946,0.23335296,-1.76450321

>  <Name>
ligand

>  <RI>
0

>  <Rbt.Current_Directory>
/home/itssahil/PROJECTS/Mol_Feturizer/Test_systems_manuscript/rnas/3sd3

>  <Rbt.Executable>
rbdock ($Id: //depot/dev/client3/rdock/2013.1/src/exe/rbdock.cxx#4 $)

>  <Rbt.Library>
libRbt.so (2013.1, Build901 2013/11/27)

>  <Rbt.Parameter_File>
/export/apps/rDock/src/rDock_2013.1_src/data/scripts/dock_solv.prm

>  <Rbt.Receptor>
prm/pocket_docking_3.prm

>  <SCORE>
-15.3896

>  <SCORE.INTER>
-14.7562

>  <SCORE.INTER.CONST>
1

>  <SCORE.INTER.POLAR>
0

>  <SCORE.INTER.ROT>
4

>  <SCORE.INTER.SOLV>
6.87782

>  <SCORE.INTER.VDW>
-18.3968

>  <SCORE.INTER.norm>
-0.670738

>  <SCORE.INTRA>
-0.635174

>  <SCORE.INTRA.DIHEDRAL>
0.176182

>  <SCORE.INTRA.DIHEDRAL.0>
2.54655

>  <SCORE.INTRA.POLAR>
0

>  <SCORE.INTRA.POLAR.0>
0

>  <SCORE.INTRA.REPUL>
0

>  <SCORE.INTRA.REPUL.0>
0

>  <SCORE.INTRA.SOLV>
0.486612

>  <SCORE.INTRA.SOLV.lig_0>
-56.4922

>  <SCORE.INTRA.VDW>
-0.966571

>  <SCORE.INTRA.VDW.0>
-0.696801

>  <SCORE.INTRA.norm>
-0.0288716

>  <SCORE.RESTR>
0.00177529

>  <SCORE.RESTR.CAVITY>
0.00177529

>  <SCORE.RESTR.norm>
8.06948e-05

>  <SCORE.SYSTEM>
0

>  <SCORE.SYSTEM.CONST>
0

>  <SCORE.SYSTEM.DIHEDRAL>
0

>  <SCORE.SYSTEM.SOLV>
0

>  <SCORE.SYSTEM.norm>
0

>  <SCORE.heavy>
22

>  <SCORE.norm>
-0.699529

>  <RMSD>
6.638

$$$$
ligand
 OpenBabel02271912143D
libRbt.so/2013.1/901 2013/11/27
 22 24  0  0  0  0  0  0  0  0999 V2000
   24.0963  -20.4584   25.2248 N   0  0  0  0  0  0  0  0  0  0  0  0
   22.1343  -21.7418   25.7110 N   0  0  0  0  0  0  0  0  0  0  0  0
   22.7461  -20.5460   25.7125 C   0  0  0  0  0  0  0  0  0  0  0  0
   22.1448  -19.4461   26.1491 N   0  0  0  0  0  0  0  0  0  0  0  0
   18.0207  -20.9179   29.2337 O   0  0  0  0  0  0  0  0  0  0  0  0
   20.8821  -19.5070   26.6105 C   0  0  0  0  0  0  0  0  0  0  0  0
   20.2074  -20.7594   26.6354 C   0  0  0  0  0  0  0  0  0  0  0  0
   20.2813  -18.3513   27.0566 O   0  0  0  0  0  0  0  0  0  0  0  0
   18.8450  -20.9720   27.0824 N   0  0  0  0  0  0  0  0  0  0  0  0
   18.0382  -21.9186   26.3014 C   0  0  2  0  0  0  0  0  0  0  0  0
   18.7611  -23.2193   26.1396 C   0  0  0  0  0  0  0  0  0  0  0  0
   20.8707  -21.8638   26.1622 C   0  0  0  0  0  0  0  0  0  0  0  0
   20.2189  -23.1183   26.1673 N   0  0  0  0  0  0  0  0  0  0  0  0
   17.6423  -21.3973   24.9082 C   0  0  0  0  0  0  0  0  0  0  0  0
   16.7832  -20.2257   25.0275 N   0  0  0  0  0  0  0  0  0  0  0  0
   13.1009  -20.4276   27.1491 C   0  0  0  0  0  0  0  0  0  0  0  0
   14.1058  -19.5826   27.5894 C   0  0  0  0  0  0  0  0  0  0  0  0
   15.3267  -19.5104   26.8911 C   0  0  0  0  0  0  0  0  0  0  0  0
   15.5248  -20.2884   25.7605 C   0  0  0  0  0  0  0  0  0  0  0  0
   14.5128  -21.1366   25.3204 C   0  0  0  0  0  0  0  0  0  0  0  0
   13.3014  -21.2054   26.0131 C   0  0  0  0  0  0  0  0  0  0  0  0
   18.2536  -20.3166   28.1985 C   0  0  0  0  0  0  0  0  0  0  0  0
  1  3  1  0  0  0  0
  2  3  2  0  0  0  0
  2 12  1  0  0  0  0
  3  4  1  0  0  0  0
  4  6  1  0  0  0  0
  5 22  1  0  0  0  0
  6  7  1  0  0  0  0
  6  8  2  0  0  0  0
  7 12  2  0  0  0  0
  7  9  1  0  0  0  0
  9 10  1  0  0  0  0
  9 22  1  0  0  0  0
 10 11  1  0  0  0  0
 10 14  1  6  0  0  0
 11 13  1  0  0  0  0
 12 13  1  0  0  0  0
 14 15  1  0  0  0  0
 15 19  1  0  0  0  0
 16 17  2  0  0  0  0
 16 21  1  0  0  0  0
 17 18  1  0  0  0  0
 18 19  2  0  0  0  0
 19 20  1  0  0  0  0
 20 21  2  0  0  0  0
M  END
>  <CHROM.1>
-108.24334537,-63.73800808,-57.79532600,117.40433768,18.55146027,-20.76900213
26.43703782,0.05435688,-0.04910365,-2.59938349

>  <Name>
ligand

>  <RI>
0

>  <Rbt.Current_Directory>
/home/itssahil/PROJECTS/Mol_Feturizer/Test_systems_manuscript/rnas/3sd3

>  <Rbt.Executable>
rbdock ($Id: //depot/dev/client3/rdock/2013.1/src/exe/rbdock.cxx#4 $)

>  <Rbt.Library>
libRbt.so (2013.1, Build901 2013/11/27)

>  <Rbt.Parameter_File>
/export/apps/rDock/src/rDock_2013.1_src/data/scripts/dock_solv.prm

>  <Rbt.Receptor>
prm/pocket_docking_3.prm

>  <SCORE>
-15.8379

>  <SCORE.INTER>
-14.0016

>  <SCORE.INTER.CONST>
1

>  <SCORE.INTER.POLAR>
0

>  <SCORE.INTER.ROT>
4

>  <SCORE.INTER.SOLV>
9.45999

>  <SCORE.INTER.VDW>
-18.7544

>  <SCORE.INTER.norm>
-0.636436

>  <SCORE.INTRA>
-1.83628

>  <SCORE.INTRA.DIHEDRAL>
-0.845157

>  <SCORE.INTRA.DIHEDRAL.0>
2.54655

>  <SCORE.INTRA.POLAR>
0

>  <SCORE.INTRA.POLAR.0>
0

>  <SCORE.INTRA.REPUL>
0

>  <SCORE.INTRA.REPUL.0>
0

>  <SCORE.INTRA.SOLV>
-0.202016

>  <SCORE.INTRA.SOLV.lig_0>
-56.4922

>  <SCORE.INTRA.VDW>
-1.3127

>  <SCORE.INTRA.VDW.0>
-0.696801

>  <SCORE.INTRA.norm>
-0.0834674

>  <SCORE.RESTR>
0

>  <SCORE.RESTR.CAVITY>
0

>  <SCORE.RESTR.norm>
0

>  <SCORE.SYSTEM>
0

>  <SCORE.SYSTEM.CONST>
0

>  <SCORE.SYSTEM.DIHEDRAL>
0

>  <SCORE.SYSTEM.SOLV>
0

>  <SCORE.SYSTEM.norm>
0

>  <SCORE.heavy>
22

>  <SCORE.norm>
-0.719903

>  <RMSD>
6.638

$$$$
ligand
 OpenBabel02271912143D
libRbt.so/2013.1/901 2013/11/27
 22 24  0  0  0  0  0  0  0  0999 V2000
   22.6697  -20.9668   28.5350 N   0  0  0  0  0  0  0  0  0  0  0  0
   21.7495  -19.9102   26.5934 N   0  0  0  0  0  0  0  0  0  0  0  0
   21.8177  -20.9993   27.3767 C   0  0  0  0  0  0  0  0  0  0  0  0
   21.1252  -22.1011   27.1155 N   0  0  0  0  0  0  0  0  0  0  0  0
   20.0906  -22.4273   22.3905 O   0  0  0  0  0  0  0  0  0  0  0  0
   20.3231  -22.1522   26.0361 C   0  0  0  0  0  0  0  0  0  0  0  0
   20.2359  -21.0215   25.1768 C   0  0  0  0  0  0  0  0  0  0  0  0
   19.6152  -23.3068   25.7884 O   0  0  0  0  0  0  0  0  0  0  0  0
   19.4008  -20.9250   23.9959 N   0  0  0  0  0  0  0  0  0  0  0  0
   18.7328  -19.6371   23.7680 C   0  0  2  0  0  0  0  0  0  0  0  0
   19.7207  -18.5139   23.8222 C   0  0  0  0  0  0  0  0  0  0  0  0
   20.9641  -19.9037   25.4987 C   0  0  0  0  0  0  0  0  0  0  0  0
   20.8874  -18.7636   24.6663 N   0  0  0  0  0  0  0  0  0  0  0  0
   17.5947  -19.3418   24.7616 C   0  0  0  0  0  0  0  0  0  0  0  0
   16.6602  -20.4595   24.8130 N   0  0  0  0  0  0  0  0  0  0  0  0
   13.1715  -20.3175   27.2440 C   0  0  0  0  0  0  0  0  0  0  0  0
   14.2975  -19.5993   27.6099 C   0  0  0  0  0  0  0  0  0  0  0  0
   15.4552  -19.6412   26.8091 C   0  0  0  0  0  0  0  0  0  0  0  0
   15.4693  -20.4050   25.6518 C   0  0  0  0  0  0  0  0  0  0  0  0
   14.3360  -21.1256   25.2866 C   0  0  0  0  0  0  0  0  0  0  0  0
   13.1875  -21.0812   26.0811 C   0  0  0  0  0  0  0  0  0  0  0  0
   19.1826  -21.9890   23.0766 C   0  0  0  0  0  0  0  0  0  0  0  0
  1  3  1  0  0  0  0
  2  3  2  0  0  0  0
  2 12  1  0  0  0  0
  3  4  1  0  0  0  0
  4  6  1  0  0  0  0
  5 22  1  0  0  0  0
  6  7  1  0  0  0  0
  6  8  2  0  0  0  0
  7 12  2  0  0  0  0
  7  9  1  0  0  0  0
  9 10  1  0  0  0  0
  9 22  1  0  0  0  0
 10 11  1  0  0  0  0
 10 14  1  1  0  0  0
 11 13  1  0  0  0  0
 12 13  1  0  0  0  0
 14 15  1  0  0  0  0
 15 19  1  0  0  0  0
 16 17  2  0  0  0  0
 16 21  1  0  0  0  0
 17 18  1  0  0  0  0
 18 19  2  0  0  0  0
 19 20  1  0  0  0  0
 20 21  2  0  0  0  0
M  END
>  <CHROM.1>
-65.98556628,-51.99336684,-178.04512387,-28.41588868,18.61062548,-20.69924539
25.48575812,-0.05305397,-0.08626409,1.54731338

>  <Name>
ligand

>  <RI>
0

>  <Rbt.Current_Directory>
/home/itssahil/PROJECTS/Mol_Feturizer/Test_systems_manuscript/rnas/3sd3

>  <Rbt.Executable>
rbdock ($Id: //depot/dev/client3/rdock/2013.1/src/exe/rbdock.cxx#4 $)

>  <Rbt.Library>
libRbt.so (2013.1, Build901 2013/11/27)

>  <Rbt.Parameter_File>
/export/apps/rDock/src/rDock_2013.1_src/data/scripts/dock_solv.prm

>  <Rbt.Receptor>
prm/pocket_docking_4.prm

>  <SCORE>
-13.5035

>  <SCORE.INTER>
-12.7207

>  <SCORE.INTER.CONST>
1

>  <SCORE.INTER.POLAR>
0

>  <SCORE.INTER.ROT>
4

>  <SCORE.INTER.SOLV>
6.1155

>  <SCORE.INTER.VDW>
-16.7857

>  <SCORE.INTER.norm>
-0.578215

>  <SCORE.INTRA>
-0.782719

>  <SCORE.INTRA.DIHEDRAL>
-0.664252

>  <SCORE.INTRA.DIHEDRAL.0>
2.54655

>  <SCORE.INTRA.POLAR>
0

>  <SCORE.INTRA.POLAR.0>
0

>  <SCORE.INTRA.REPUL>
0

>  <SCORE.INTRA.REPUL.0>
0

>  <SCORE.INTRA.SOLV>
-0.0400716

>  <SCORE.INTRA.SOLV.lig_0>
-56.4922

>  <SCORE.INTRA.VDW>
-0.430557

>  <SCORE.INTRA.VDW.0>
-0.696801

>  <SCORE.INTRA.norm>
-0.0355781

>  <SCORE.RESTR>
0

>  <SCORE.RESTR.CAVITY>
0

>  <SCORE.RESTR.norm>
0

>  <SCORE.SYSTEM>
0

>  <SCORE.SYSTEM.CONST>
0

>  <SCORE.SYSTEM.DIHEDRAL>
0

>  <SCORE.SYSTEM.SOLV>
0

>  <SCORE.SYSTEM.norm>
0

>  <SCORE.heavy>
22

>  <SCORE.norm>
-0.613793

>  <RMSD>
6.638

$$$$
ligand
 OpenBabel02271912143D
libRbt.so/2013.1/901 2013/11/27
 22 24  0  0  0  0  0  0  0  0999 V2000
   22.3046  -20.9789   31.1517 N   0  0  0  0  0  0  0  0  0  0  0  0
   21.6267  -20.3731   28.9367 N   0  0  0  0  0  0  0  0  0  0  0  0
   21.3763  -21.0706   30.0569 C   0  0  0  0  0  0  0  0  0  0  0  0
   20.3020  -21.8398   30.1842 N   0  0  0  0  0  0  0  0  0  0  0  0
   18.6183  -23.4636   26.3077 O   0  0  0  0  0  0  0  0  0  0  0  0
   19.4219  -21.9400   29.1711 C   0  0  0  0  0  0  0  0  0  0  0  0
   19.6615  -21.2250   27.9645 C   0  0  0  0  0  0  0  0  0  0  0  0
   18.3154  -22.7440   29.3293 O   0  0  0  0  0  0  0  0  0  0  0  0
   18.7939  -21.2200   26.8033 N   0  0  0  0  0  0  0  0  0  0  0  0
   18.6263  -19.9336   26.1148 C   0  0  2  0  0  0  0  0  0  0  0  0
   19.9579  -19.3295   25.7948 C   0  0  0  0  0  0  0  0  0  0  0  0
   20.7815  -20.4354   27.8893 C   0  0  0  0  0  0  0  0  0  0  0  0
   21.0374  -19.7072   26.7048 N   0  0  0  0  0  0  0  0  0  0  0  0
   17.7963  -18.9073   26.9068 C   0  0  0  0  0  0  0  0  0  0  0  0
   16.7567  -19.5784   27.6775 N   0  0  0  0  0  0  0  0  0  0  0  0
   13.1889  -20.9371   25.7998 C   0  0  0  0  0  0  0  0  0  0  0  0
   13.1159  -20.2061   26.9736 C   0  0  0  0  0  0  0  0  0  0  0  0
   14.2931  -19.7526   27.5997 C   0  0  0  0  0  0  0  0  0  0  0  0
   15.5292  -20.0398   27.0410 C   0  0  0  0  0  0  0  0  0  0  0  0
   15.5994  -20.7746   25.8611 C   0  0  0  0  0  0  0  0  0  0  0  0
   14.4304  -21.2220   25.2400 C   0  0  0  0  0  0  0  0  0  0  0  0
   18.0974  -22.3609   26.3154 C   0  0  0  0  0  0  0  0  0  0  0  0
  1  3  1  0  0  0  0
  2  3  2  0  0  0  0
  2 12  1  0  0  0  0
  3  4  1  0  0  0  0
  4  6  1  0  0  0  0
  5 22  1  0  0  0  0
  6  7  1  0  0  0  0
  6  8  2  0  0  0  0
  7 12  2  0  0  0  0
  7  9  1  0  0  0  0
  9 10  1  0  0  0  0
  9 22  1  0  0  0  0
 10 11  1  0  0  0  0
 10 14  1  1  0  0  0
 11 13  1  0  0  0  0
 12 13  1  0  0  0  0
 14 15  1  0  0  0  0
 15 19  1  0  0  0  0
 16 17  2  0  0  0  0
 16 21  1  0  0  0  0
 17 18  1  0  0  0  0
 18 19  2  0  0  0  0
 19 20  1  0  0  0  0
 20 21  2  0  0  0  0
M  END
>  <CHROM.1>
-39.27217210,-33.91971350,-78.36875820,-131.73632625,18.26538592,-20.85820081
27.55805678,0.38311793,0.18609170,2.17254811

>  <Name>
ligand

>  <RI>
0

>  <Rbt.Current_Directory>
/home/itssahil/PROJECTS/Mol_Feturizer/Test_systems_manuscript/rnas/3sd3

>  <Rbt.Executable>
rbdock ($Id: //depot/dev/client3/rdock/2013.1/src/exe/rbdock.cxx#4 $)

>  <Rbt.Library>
libRbt.so (2013.1, Build901 2013/11/27)

>  <Rbt.Parameter_File>
/export/apps/rDock/src/rDock_2013.1_src/data/scripts/dock_solv.prm

>  <Rbt.Receptor>
prm/pocket_docking_6.prm

>  <SCORE>
-14.5086

>  <SCORE.INTER>
-14.6069

>  <SCORE.INTER.CONST>
1

>  <SCORE.INTER.POLAR>
0

>  <SCORE.INTER.ROT>
4

>  <SCORE.INTER.SOLV>
7.82841

>  <SCORE.INTER.VDW>
-18.6141

>  <SCORE.INTER.norm>
-0.66395

>  <SCORE.INTRA>
0.0969204

>  <SCORE.INTRA.DIHEDRAL>
1.41769

>  <SCORE.INTRA.DIHEDRAL.0>
2.54655

>  <SCORE.INTRA.POLAR>
0

>  <SCORE.INTRA.POLAR.0>
0

>  <SCORE.INTRA.REPUL>
0

>  <SCORE.INTRA.REPUL.0>
0

>  <SCORE.INTRA.SOLV>
0.761402

>  <SCORE.INTRA.SOLV.lig_0>
-56.4922

>  <SCORE.INTRA.VDW>
-0.992627

>  <SCORE.INTRA.VDW.0>
-0.696801

>  <SCORE.INTRA.norm>
0.00440547

>  <SCORE.RESTR>
0.00134973

>  <SCORE.RESTR.CAVITY>
0.00134973

>  <SCORE.RESTR.norm>
6.13513e-05

>  <SCORE.SYSTEM>
0

>  <SCORE.SYSTEM.CONST>
0

>  <SCORE.SYSTEM.DIHEDRAL>
0

>  <SCORE.SYSTEM.SOLV>
0

>  <SCORE.SYSTEM.norm>
0

>  <SCORE.heavy>
22

>  <SCORE.norm>
-0.659483

>  <RMSD>
6.639

$$$$
ligand
 OpenBabel02271912143D
libRbt.so/2013.1/901 2013/11/27
 22 24  0  0  0  0  0  0  0  0999 V2000
   21.5453  -23.3963   22.2356 N   0  0  0  0  0  0  0  0  0  0  0  0
   20.1848  -23.3097   24.2040 N   0  0  0  0  0  0  0  0  0  0  0  0
   21.3055  -22.9231   23.5726 C   0  0  0  0  0  0  0  0  0  0  0  0
   22.1959  -22.1206   24.1426 N   0  0  0  0  0  0  0  0  0  0  0  0
   21.4229  -22.2718   29.4311 O   0  0  0  0  0  0  0  0  0  0  0  0
   21.9908  -21.6678   25.3932 C   0  0  0  0  0  0  0  0  0  0  0  0
   20.8205  -22.0669   26.0972 C   0  0  0  0  0  0  0  0  0  0  0  0
   22.9295  -20.8359   25.9610 O   0  0  0  0  0  0  0  0  0  0  0  0
   20.4582  -21.6429   27.4351 N   0  0  0  0  0  0  0  0  0  0  0  0
   19.0379  -21.3512   27.6691 C   0  0  2  0  0  0  0  0  0  0  0  0
   18.1834  -22.4937   27.2163 C   0  0  0  0  0  0  0  0  0  0  0  0
   19.9267  -22.8890   25.4577 C   0  0  0  0  0  0  0  0  0  0  0  0
   18.7514  -23.2922   26.1319 N   0  0  0  0  0  0  0  0  0  0  0  0
   18.5456  -20.0643   26.9827 C   0  0  0  0  0  0  0  0  0  0  0  0
   17.2442  -19.6716   27.5093 N   0  0  0  0  0  0  0  0  0  0  0  0
   13.6582  -21.0340   25.6692 C   0  0  0  0  0  0  0  0  0  0  0  0
   13.6097  -20.4364   26.9175 C   0  0  0  0  0  0  0  0  0  0  0  0
   14.7929  -19.9824   27.5317 C   0  0  0  0  0  0  0  0  0  0  0  0
   16.0106  -20.1354   26.8863 C   0  0  0  0  0  0  0  0  0  0  0  0
   16.0562  -20.7362   25.6317 C   0  0  0  0  0  0  0  0  0  0  0  0
   14.8811  -21.1841   25.0228 C   0  0  0  0  0  0  0  0  0  0  0  0
   21.3825  -21.4798   28.5046 C   0  0  0  0  0  0  0  0  0  0  0  0
  1  3  1  0  0  0  0
  2  3  2  0  0  0  0
  2 12  1  0  0  0  0
  3  4  1  0  0  0  0
  4  6  1  0  0  0  0
  5 22  1  0  0  0  0
  6  7  1  0  0  0  0
  6  8  2  0  0  0  0
  7 12  2  0  0  0  0
  7  9  1  0  0  0  0
  9 10  1  0  0  0  0
  9 22  1  0  0  0  0
 10 11  1  0  0  0  0
 10 14  1  6  0  0  0
 11 13  1  0  0  0  0
 12 13  1  0  0  0  0
 14 15  1  0  0  0  0
 15 19  1  0  0  0  0
 16 17  2  0  0  0  0
 16 21  1  0  0  0  0
 17 18  1  0  0  0  0
 18 19  2  0  0  0  0
 19 20  1  0  0  0  0
 20 21  2  0  0  0  0
M  END
>  <CHROM.1>
-107.33894329,-166.43508392,-91.07776853,167.26173451,19.01210814,-21.61001138
26.20364241,0.24988913,0.18286007,-1.89522229

>  <Name>
ligand

>  <RI>
0

>  <Rbt.Current_Directory>
/home/itssahil/PROJECTS/Mol_Feturizer/Test_systems_manuscript/rnas/3sd3

>  <Rbt.Executable>
rbdock ($Id: //depot/dev/client3/rdock/2013.1/src/exe/rbdock.cxx#4 $)

>  <Rbt.Library>
libRbt.so (2013.1, Build901 2013/11/27)

>  <Rbt.Parameter_File>
/export/apps/rDock/src/rDock_2013.1_src/data/scripts/dock_solv.prm

>  <Rbt.Receptor>
prm/pocket_docking_4.prm

>  <SCORE>
-16.4889

>  <SCORE.INTER>
-16.1864

>  <SCORE.INTER.CONST>
1

>  <SCORE.INTER.POLAR>
0

>  <SCORE.INTER.ROT>
4

>  <SCORE.INTER.SOLV>
12.438

>  <SCORE.INTER.VDW>
-21.2036

>  <SCORE.INTER.norm>
-0.735747

>  <SCORE.INTRA>
-0.302516

>  <SCORE.INTRA.DIHEDRAL>
0.385491

>  <SCORE.INTRA.DIHEDRAL.0>
2.54655

>  <SCORE.INTRA.POLAR>
0

>  <SCORE.INTRA.POLAR.0>
0

>  <SCORE.INTRA.REPUL>
0

>  <SCORE.INTRA.REPUL.0>
0

>  <SCORE.INTRA.SOLV>
-0.729194

>  <SCORE.INTRA.SOLV.lig_0>
-56.4922

>  <SCORE.INTRA.VDW>
-0.130665

>  <SCORE.INTRA.VDW.0>
-0.696801

>  <SCORE.INTRA.norm>
-0.0137507

>  <SCORE.RESTR>
0

>  <SCORE.RESTR.CAVITY>
0

>  <SCORE.RESTR.norm>
0

>  <SCORE.SYSTEM>
0

>  <SCORE.SYSTEM.CONST>
0

>  <SCORE.SYSTEM.DIHEDRAL>
0

>  <SCORE.SYSTEM.SOLV>
0

>  <SCORE.SYSTEM.norm>
0

>  <SCORE.heavy>
22

>  <SCORE.norm>
-0.749498

>  <RMSD>
6.641

$$$$
ligand
 OpenBabel02271912143D
libRbt.so/2013.1/901 2013/11/27
 22 24  0  0  0  0  0  0  0  0999 V2000
   24.1842  -20.2941   25.3473 N   0  0  0  0  0  0  0  0  0  0  0  0
   22.2424  -21.6334   25.7577 N   0  0  0  0  0  0  0  0  0  0  0  0
   22.8415  -20.4343   25.8435 C   0  0  0  0  0  0  0  0  0  0  0  0
   22.2346  -19.3781   26.3707 N   0  0  0  0  0  0  0  0  0  0  0  0
   17.8214  -19.3642   28.3653 O   0  0  0  0  0  0  0  0  0  0  0  0
   20.9788  -19.4887   26.8416 C   0  0  0  0  0  0  0  0  0  0  0  0
   20.3176  -20.7470   26.7786 C   0  0  0  0  0  0  0  0  0  0  0  0
   20.3718  -18.3776   27.3826 O   0  0  0  0  0  0  0  0  0  0  0  0
   18.9635  -21.0088   27.2248 N   0  0  0  0  0  0  0  0  0  0  0  0
   18.1565  -21.9020   26.3834 C   0  0  2  0  0  0  0  0  0  0  0  0
   18.8908  -23.1780   26.1132 C   0  0  0  0  0  0  0  0  0  0  0  0
   20.9861  -21.8041   26.2137 C   0  0  0  0  0  0  0  0  0  0  0  0
   20.3477  -23.0627   26.1305 N   0  0  0  0  0  0  0  0  0  0  0  0
   17.7368  -21.2799   25.0393 C   0  0  0  0  0  0  0  0  0  0  0  0
   16.8920  -20.1125   25.2596 N   0  0  0  0  0  0  0  0  0  0  0  0
   13.0088  -20.4883   26.9570 C   0  0  0  0  0  0  0  0  0  0  0  0
   13.3389  -21.2099   25.8221 C   0  0  0  0  0  0  0  0  0  0  0  0
   14.6228  -21.0907   25.2558 C   0  0  0  0  0  0  0  0  0  0  0  0
   15.5592  -20.2475   25.8344 C   0  0  0  0  0  0  0  0  0  0  0  0
   15.2246  -19.5237   26.9751 C   0  0  0  0  0  0  0  0  0  0  0  0
   13.9510  -19.6446   27.5369 C   0  0  0  0  0  0  0  0  0  0  0  0
   18.3802  -20.4478   28.3951 C   0  0  0  0  0  0  0  0  0  0  0  0
  1  3  1  0  0  0  0
  2  3  2  0  0  0  0
  2 12  1  0  0  0  0
  3  4  1  0  0  0  0
  4  6  1  0  0  0  0
  5 22  1  0  0  0  0
  6  7  1  0  0  0  0
  6  8  2  0  0  0  0
  7 12  2  0  0  0  0
  7  9  1  0  0  0  0
  9 10  1  0  0  0  0
  9 22  1  0  0  0  0
 10 11  1  0  0  0  0
 10 14  1  6  0  0  0
 11 13  1  0  0  0  0
 12 13  1  0  0  0  0
 14 15  1  0  0  0  0
 15 19  1  0  0  0  0
 16 17  2  0  0  0  0
 16 21  1  0  0  0  0
 17 18  1  0  0  0  0
 18 19  2  0  0  0  0
 19 20  1  0  0  0  0
 20 21  2  0  0  0  0
M  END
>  <CHROM.1>
87.34576374,-62.44225305,-67.07973656,-55.18813069,18.60887471,-20.65418643
26.46929371,0.03883076,-0.02721436,-2.61618150

>  <Name>
ligand

>  <RI>
0

>  <Rbt.Current_Directory>
/home/itssahil/PROJECTS/Mol_Feturizer/Test_systems_manuscript/rnas/3sd3

>  <Rbt.Executable>
rbdock ($Id: //depot/dev/client3/rdock/2013.1/src/exe/rbdock.cxx#4 $)

>  <Rbt.Library>
libRbt.so (2013.1, Build901 2013/11/27)

>  <Rbt.Parameter_File>
/export/apps/rDock/src/rDock_2013.1_src/data/scripts/dock_solv.prm

>  <Rbt.Receptor>
prm/pocket_docking_5.prm

>  <SCORE>
-15.7409

>  <SCORE.INTER>
-14.1453

>  <SCORE.INTER.CONST>
1

>  <SCORE.INTER.POLAR>
0

>  <SCORE.INTER.ROT>
4

>  <SCORE.INTER.SOLV>
8.73495

>  <SCORE.INTER.VDW>
-18.6085

>  <SCORE.INTER.norm>
-0.642969

>  <SCORE.INTRA>
-1.5956

>  <SCORE.INTRA.DIHEDRAL>
-0.879964

>  <SCORE.INTRA.DIHEDRAL.0>
2.54655

>  <SCORE.INTRA.POLAR>
0

>  <SCORE.INTRA.POLAR.0>
0

>  <SCORE.INTRA.REPUL>
0

>  <SCORE.INTRA.REPUL.0>
0

>  <SCORE.INTRA.SOLV>
0.748315

>  <SCORE.INTRA.SOLV.lig_0>
-56.4922

>  <SCORE.INTRA.VDW>
-1.52977

>  <SCORE.INTRA.VDW.0>
-0.696801

>  <SCORE.INTRA.norm>
-0.0725271

>  <SCORE.RESTR>
0

>  <SCORE.RESTR.CAVITY>
0

>  <SCORE.RESTR.norm>
0

>  <SCORE.SYSTEM>
0

>  <SCORE.SYSTEM.CONST>
0

>  <SCORE.SYSTEM.DIHEDRAL>
0

>  <SCORE.SYSTEM.SOLV>
0

>  <SCORE.SYSTEM.norm>
0

>  <SCORE.heavy>
22

>  <SCORE.norm>
-0.715496

>  <RMSD>
6.642

$$$$
ligand
 OpenBabel02271912143D
libRbt.so/2013.1/901 2013/11/27
 22 24  0  0  0  0  0  0  0  0999 V2000
   21.5538  -23.3276   22.2577 N   0  0  0  0  0  0  0  0  0  0  0  0
   20.1829  -23.2966   24.2205 N   0  0  0  0  0  0  0  0  0  0  0  0
   21.3013  -22.8831   23.6021 C   0  0  0  0  0  0  0  0  0  0  0  0
   22.1779  -22.0796   24.1917 N   0  0  0  0  0  0  0  0  0  0  0  0
   21.1907  -22.1433   29.6065 O   0  0  0  0  0  0  0  0  0  0  0  0
   21.9607  -21.6533   25.4496 C   0  0  0  0  0  0  0  0  0  0  0  0
   20.7925  -22.0814   26.1400 C   0  0  0  0  0  0  0  0  0  0  0  0
   22.8853  -20.8198   26.0376 O   0  0  0  0  0  0  0  0  0  0  0  0
   20.4181  -21.6877   27.4838 N   0  0  0  0  0  0  0  0  0  0  0  0
   18.9929  -21.4196   27.7161 C   0  0  2  0  0  0  0  0  0  0  0  0
   18.1562  -22.5647   27.2375 C   0  0  0  0  0  0  0  0  0  0  0  0
   19.9131  -22.9032   25.4806 C   0  0  0  0  0  0  0  0  0  0  0  0
   18.7402  -23.3349   26.1412 N   0  0  0  0  0  0  0  0  0  0  0  0
   18.4865  -20.1267   27.0516 C   0  0  0  0  0  0  0  0  0  0  0  0
   17.1764  -19.7628   27.5774 N   0  0  0  0  0  0  0  0  0  0  0  0
   13.5921  -21.0681   25.6931 C   0  0  0  0  0  0  0  0  0  0  0  0
   14.8072  -21.2212   25.0467 C   0  0  0  0  0  0  0  0  0  0  0  0
   15.9974  -20.7921   25.6653 C   0  0  0  0  0  0  0  0  0  0  0  0
   15.9534  -20.2130   26.9244 C   0  0  0  0  0  0  0  0  0  0  0  0
   14.7307  -20.0606   27.5717 C   0  0  0  0  0  0  0  0  0  0  0  0
   13.5511  -20.4888   26.9574 C   0  0  0  0  0  0  0  0  0  0  0  0
   21.3350  -21.5324   28.5609 C   0  0  0  0  0  0  0  0  0  0  0  0
  1  3  1  0  0  0  0
  2  3  2  0  0  0  0
  2 12  1  0  0  0  0
  3  4  1  0  0  0  0
  4  6  1  0  0  0  0
  5 22  1  0  0  0  0
  6  7  1  0  0  0  0
  6  8  2  0  0  0  0
  7 12  2  0  0  0  0
  7  9  1  0  0  0  0
  9 10  1  0  0  0  0
  9 22  1  0  0  0  0
 10 11  1  0  0  0  0
 10 14  1  6  0  0  0
 11 13  1  0  0  0  0
 12 13  1  0  0  0  0
 14 15  1  0  0  0  0
 15 19  1  0  0  0  0
 16 17  2  0  0  0  0
 16 21  1  0  0  0  0
 17 18  1  0  0  0  0
 18 19  2  0  0  0  0
 19 20  1  0  0  0  0
 20 21  2  0  0  0  0
M  END
>  <CHROM.1>
-124.20404313,-166.52559321,-92.13399677,-11.54503991,18.96351743,-21.62953431
26.25138313,0.24705234,0.17335532,-1.87797736

>  <Name>
ligand

>  <RI>
0

>  <Rbt.Current_Directory>
/home/itssahil/PROJECTS/Mol_Feturizer/Test_systems_manuscript/rnas/3sd3

>  <Rbt.Executable>
rbdock ($Id: //depot/dev/client3/rdock/2013.1/src/exe/rbdock.cxx#4 $)

>  <Rbt.Library>
libRbt.so (2013.1, Build901 2013/11/27)

>  <Rbt.Parameter_File>
/export/apps/rDock/src/rDock_2013.1_src/data/scripts/dock_solv.prm

>  <Rbt.Receptor>
prm/pocket_docking_6.prm

>  <SCORE>
-16.6546

>  <SCORE.INTER>
-16.3545

>  <SCORE.INTER.CONST>
1

>  <SCORE.INTER.POLAR>
0

>  <SCORE.INTER.ROT>
4

>  <SCORE.INTER.SOLV>
12.6213

>  <SCORE.INTER.VDW>
-21.3768

>  <SCORE.INTER.norm>
-0.743387

>  <SCORE.INTRA>
-0.300091

>  <SCORE.INTRA.DIHEDRAL>
0.387697

>  <SCORE.INTRA.DIHEDRAL.0>
2.54655

>  <SCORE.INTRA.POLAR>
0

>  <SCORE.INTRA.POLAR.0>
0

>  <SCORE.INTRA.REPUL>
0

>  <SCORE.INTRA.REPUL.0>
0

>  <SCORE.INTRA.SOLV>
-0.731141

>  <SCORE.INTRA.SOLV.lig_0>
-56.4922

>  <SCORE.INTRA.VDW>
-0.128369

>  <SCORE.INTRA.VDW.0>
-0.696801

>  <SCORE.INTRA.norm>
-0.0136405

>  <SCORE.RESTR>
0

>  <SCORE.RESTR.CAVITY>
0

>  <SCORE.RESTR.norm>
0

>  <SCORE.SYSTEM>
0

>  <SCORE.SYSTEM.CONST>
0

>  <SCORE.SYSTEM.DIHEDRAL>
0

>  <SCORE.SYSTEM.SOLV>
0

>  <SCORE.SYSTEM.norm>
0

>  <SCORE.heavy>
22

>  <SCORE.norm>
-0.757028

>  <RMSD>
6.647

$$$$
ligand
 OpenBabel02271912143D
libRbt.so/2013.1/901 2013/11/27
 22 24  0  0  0  0  0  0  0  0999 V2000
   23.6745  -21.4856   26.4247 N   0  0  0  0  0  0  0  0  0  0  0  0
   21.9848  -19.9682   25.6662 N   0  0  0  0  0  0  0  0  0  0  0  0
   22.3203  -21.2200   26.0193 C   0  0  0  0  0  0  0  0  0  0  0  0
   21.4436  -22.2164   26.0053 N   0  0  0  0  0  0  0  0  0  0  0  0
   17.2150  -20.6998   22.9282 O   0  0  0  0  0  0  0  0  0  0  0  0
   20.1719  -21.9890   25.6280 C   0  0  0  0  0  0  0  0  0  0  0  0
   19.7839  -20.6777   25.2354 C   0  0  0  0  0  0  0  0  0  0  0  0
   19.2823  -23.0398   25.6233 O   0  0  0  0  0  0  0  0  0  0  0  0
   18.4503  -20.2817   24.8280 N   0  0  0  0  0  0  0  0  0  0  0  0
   17.9800  -18.9742   25.3035 C   0  0  2  0  0  0  0  0  0  0  0  0
   18.9796  -17.9065   24.9852 C   0  0  0  0  0  0  0  0  0  0  0  0
   20.7267  -19.6813   25.2786 C   0  0  0  0  0  0  0  0  0  0  0  0
   20.3641  -18.3676   24.9026 N   0  0  0  0  0  0  0  0  0  0  0  0
   17.6772  -18.9327   26.8122 C   0  0  0  0  0  0  0  0  0  0  0  0
   16.9754  -20.1420   27.2247 N   0  0  0  0  0  0  0  0  0  0  0  0
   12.8439  -20.6764   26.3607 C   0  0  0  0  0  0  0  0  0  0  0  0
   13.7990  -21.3140   25.5869 C   0  0  0  0  0  0  0  0  0  0  0  0
   15.1682  -21.1421   25.8682 C   0  0  0  0  0  0  0  0  0  0  0  0
   15.5621  -20.3309   26.9215 C   0  0  0  0  0  0  0  0  0  0  0  0
   14.5998  -19.6915   27.6975 C   0  0  0  0  0  0  0  0  0  0  0  0
   13.2417  -19.8648   27.4184 C   0  0  0  0  0  0  0  0  0  0  0  0
   17.5848  -21.0780   24.0271 C   0  0  0  0  0  0  0  0  0  0  0  0
  1  3  1  0  0  0  0
  2  3  2  0  0  0  0
  2 12  1  0  0  0  0
  3  4  1  0  0  0  0
  4  6  1  0  0  0  0
  5 22  1  0  0  0  0
  6  7  1  0  0  0  0
  6  8  2  0  0  0  0
  7 12  2  0  0  0  0
  7  9  1  0  0  0  0
  9 10  1  0  0  0  0
  9 22  1  0  0  0  0
 10 11  1  0  0  0  0
 10 14  1  1  0  0  0
 11 13  1  0  0  0  0
 12 13  1  0  0  0  0
 14 15  1  0  0  0  0
 15 19  1  0  0  0  0
 16 17  2  0  0  0  0
 16 21  1  0  0  0  0
 17 18  1  0  0  0  0
 18 19  2  0  0  0  0
 19 20  1  0  0  0  0
 20 21  2  0  0  0  0
M  END
>  <CHROM.1>
-117.34653278,-42.26497597,-75.81340364,101.32082255,18.26838622,-20.44933338
25.71211286,0.06223980,-0.10632831,3.08563768

>  <Name>
ligand

>  <RI>
0

>  <Rbt.Current_Directory>
/home/itssahil/PROJECTS/Mol_Feturizer/Test_systems_manuscript/rnas/3sd3

>  <Rbt.Executable>
rbdock ($Id: //depot/dev/client3/rdock/2013.1/src/exe/rbdock.cxx#4 $)

>  <Rbt.Library>
libRbt.so (2013.1, Build901 2013/11/27)

>  <Rbt.Parameter_File>
/export/apps/rDock/src/rDock_2013.1_src/data/scripts/dock_solv.prm

>  <Rbt.Receptor>
prm/pocket_docking_3.prm

>  <SCORE>
-13.4064

>  <SCORE.INTER>
-12.4689

>  <SCORE.INTER.CONST>
1

>  <SCORE.INTER.POLAR>
0

>  <SCORE.INTER.ROT>
4

>  <SCORE.INTER.SOLV>
5.68333

>  <SCORE.INTER.VDW>
-16.4737

>  <SCORE.INTER.norm>
-0.566766

>  <SCORE.INTRA>
-0.937941

>  <SCORE.INTRA.DIHEDRAL>
0.351552

>  <SCORE.INTRA.DIHEDRAL.0>
2.54655

>  <SCORE.INTRA.POLAR>
0

>  <SCORE.INTRA.POLAR.0>
0

>  <SCORE.INTRA.REPUL>
0

>  <SCORE.INTRA.REPUL.0>
0

>  <SCORE.INTRA.SOLV>
0.329358

>  <SCORE.INTRA.SOLV.lig_0>
-56.4922

>  <SCORE.INTRA.VDW>
-1.2784

>  <SCORE.INTRA.VDW.0>
-0.696801

>  <SCORE.INTRA.norm>
-0.0426337

>  <SCORE.RESTR>
0.000390015

>  <SCORE.RESTR.CAVITY>
0.000390015

>  <SCORE.RESTR.norm>
1.77279e-05

>  <SCORE.SYSTEM>
0

>  <SCORE.SYSTEM.CONST>
0

>  <SCORE.SYSTEM.DIHEDRAL>
0

>  <SCORE.SYSTEM.SOLV>
0

>  <SCORE.SYSTEM.norm>
0

>  <SCORE.heavy>
22

>  <SCORE.norm>
-0.609382

>  <RMSD>
6.648

$$$$
ligand
 OpenBabel02271912143D
libRbt.so/2013.1/901 2013/11/27
 22 24  0  0  0  0  0  0  0  0999 V2000
   23.6044  -21.7640   26.8346 N   0  0  0  0  0  0  0  0  0  0  0  0
   22.0381  -20.2231   25.8830 N   0  0  0  0  0  0  0  0  0  0  0  0
   22.2907  -21.4637   26.3317 C   0  0  0  0  0  0  0  0  0  0  0  0
   21.3683  -22.4181   26.3253 N   0  0  0  0  0  0  0  0  0  0  0  0
   18.0365  -21.6159   22.9435 O   0  0  0  0  0  0  0  0  0  0  0  0
   20.1334  -22.1578   25.8579 C   0  0  0  0  0  0  0  0  0  0  0  0
   19.8338  -20.8580   25.3628 C   0  0  0  0  0  0  0  0  0  0  0  0
   19.1950  -23.1652   25.8631 O   0  0  0  0  0  0  0  0  0  0  0  0
   18.5472  -20.4287   24.8514 N   0  0  0  0  0  0  0  0  0  0  0  0
   18.1148  -19.0735   25.2165 C   0  0  2  0  0  0  0  0  0  0  0  0
   19.1825  -18.0749   24.8951 C   0  0  0  0  0  0  0  0  0  0  0  0
   20.8203  -19.9047   25.4025 C   0  0  0  0  0  0  0  0  0  0  0  0
   20.5451  -18.6027   24.9255 N   0  0  0  0  0  0  0  0  0  0  0  0
   17.7273  -18.9219   26.6986 C   0  0  0  0  0  0  0  0  0  0  0  0
   17.0224  -20.1096   27.1652 N   0  0  0  0  0  0  0  0  0  0  0  0
   12.8721  -20.6373   26.3921 C   0  0  0  0  0  0  0  0  0  0  0  0
   13.8095  -21.2432   25.5724 C   0  0  0  0  0  0  0  0  0  0  0  0
   15.1848  -21.0733   25.8234 C   0  0  0  0  0  0  0  0  0  0  0  0
   15.6025  -20.2959   26.8929 C   0  0  0  0  0  0  0  0  0  0  0  0
   14.6581  -19.6883   27.7150 C   0  0  0  0  0  0  0  0  0  0  0  0
   13.2940  -19.8596   27.4659 C   0  0  0  0  0  0  0  0  0  0  0  0
   17.6915  -21.2345   24.0494 C   0  0  0  0  0  0  0  0  0  0  0  0
  1  3  1  0  0  0  0
  2  3  2  0  0  0  0
  2 12  1  0  0  0  0
  3  4  1  0  0  0  0
  4  6  1  0  0  0  0
  5 22  1  0  0  0  0
  6  7  1  0  0  0  0
  6  8  2  0  0  0  0
  7 12  2  0  0  0  0
  7  9  1  0  0  0  0
  9 10  1  0  0  0  0
  9 22  1  0  0  0  0
 10 11  1  0  0  0  0
 10 14  1  1  0  0  0
 11 13  1  0  0  0  0
 12 13  1  0  0  0  0
 14 15  1  0  0  0  0
 15 19  1  0  0  0  0
 16 17  2  0  0  0  0
 16 21  1  0  0  0  0
 17 18  1  0  0  0  0
 18 19  2  0  0  0  0
 19 20  1  0  0  0  0
 20 21  2  0  0  0  0
M  END
>  <CHROM.1>
-63.36166235,-38.43264426,-80.87098531,97.26218432,18.35489353,-20.60277449
25.79147518,0.10511188,-0.08159101,-3.09572749

>  <Name>
ligand

>  <RI>
0

>  <Rbt.Current_Directory>
/home/itssahil/PROJECTS/Mol_Feturizer/Test_systems_manuscript/rnas/3sd3

>  <Rbt.Executable>
rbdock ($Id: //depot/dev/client3/rdock/2013.1/src/exe/rbdock.cxx#4 $)

>  <Rbt.Library>
libRbt.so (2013.1, Build901 2013/11/27)

>  <Rbt.Parameter_File>
/export/apps/rDock/src/rDock_2013.1_src/data/scripts/dock_solv.prm

>  <Rbt.Receptor>
prm/pocket_docking_3.prm

>  <SCORE>
-13.4734

>  <SCORE.INTER>
-12.8109

>  <SCORE.INTER.CONST>
1

>  <SCORE.INTER.POLAR>
0

>  <SCORE.INTER.ROT>
4

>  <SCORE.INTER.SOLV>
5.96168

>  <SCORE.INTER.VDW>
-16.7945

>  <SCORE.INTER.norm>
-0.582316

>  <SCORE.INTRA>
-0.663639

>  <SCORE.INTRA.DIHEDRAL>
0.930608

>  <SCORE.INTRA.DIHEDRAL.0>
2.54655

>  <SCORE.INTRA.POLAR>
0

>  <SCORE.INTRA.POLAR.0>
0

>  <SCORE.INTRA.REPUL>
0

>  <SCORE.INTRA.REPUL.0>
0

>  <SCORE.INTRA.SOLV>
0.472972

>  <SCORE.INTRA.SOLV.lig_0>
-56.4922

>  <SCORE.INTRA.VDW>
-1.36543

>  <SCORE.INTRA.VDW.0>
-0.696801

>  <SCORE.INTRA.norm>
-0.0301654

>  <SCORE.RESTR>
0.0012028

>  <SCORE.RESTR.CAVITY>
0.0012028

>  <SCORE.RESTR.norm>
5.46728e-05

>  <SCORE.SYSTEM>
0

>  <SCORE.SYSTEM.CONST>
0

>  <SCORE.SYSTEM.DIHEDRAL>
0

>  <SCORE.SYSTEM.SOLV>
0

>  <SCORE.SYSTEM.norm>
0

>  <SCORE.heavy>
22

>  <SCORE.norm>
-0.612427

>  <RMSD>
6.649

$$$$
ligand
 OpenBabel02271912143D
libRbt.so/2013.1/901 2013/11/27
 22 24  0  0  0  0  0  0  0  0999 V2000
   21.6207  -23.3460   22.2134 N   0  0  0  0  0  0  0  0  0  0  0  0
   20.1937  -23.2567   24.1339 N   0  0  0  0  0  0  0  0  0  0  0  0
   21.3490  -22.8951   23.5519 C   0  0  0  0  0  0  0  0  0  0  0  0
   22.2448  -22.1371   24.1721 N   0  0  0  0  0  0  0  0  0  0  0  0
   22.2359  -22.3338   28.6475 O   0  0  0  0  0  0  0  0  0  0  0  0
   22.0101  -21.7058   25.4251 C   0  0  0  0  0  0  0  0  0  0  0  0
   20.8022  -22.0798   26.0775 C   0  0  0  0  0  0  0  0  0  0  0  0
   22.9553  -20.9201   26.0454 O   0  0  0  0  0  0  0  0  0  0  0  0
   20.4064  -21.6739   27.4115 N   0  0  0  0  0  0  0  0  0  0  0  0
   18.9893  -21.3383   27.6020 C   0  0  2  0  0  0  0  0  0  0  0  0
   18.1135  -22.4399   27.0922 C   0  0  0  0  0  0  0  0  0  0  0  0
   19.9048  -22.8557   25.3874 C   0  0  0  0  0  0  0  0  0  0  0  0
   18.6929  -23.2329   26.0098 N   0  0  0  0  0  0  0  0  0  0  0  0
   18.5660  -20.0199   26.9295 C   0  0  0  0  0  0  0  0  0  0  0  0
   17.2784  -19.5740   27.4475 N   0  0  0  0  0  0  0  0  0  0  0  0
   13.6458  -21.0562   25.8018 C   0  0  0  0  0  0  0  0  0  0  0  0
   13.6517  -20.4947   27.0676 C   0  0  0  0  0  0  0  0  0  0  0  0
   14.8506  -20.0013   27.6178 C   0  0  0  0  0  0  0  0  0  0  0  0
   16.0293  -20.0792   26.8915 C   0  0  0  0  0  0  0  0  0  0  0  0
   16.0201  -20.6440   25.6195 C   0  0  0  0  0  0  0  0  0  0  0  0
   14.8294  -21.1310   25.0743 C   0  0  0  0  0  0  0  0  0  0  0  0
   21.2964  -21.5672   28.5166 C   0  0  0  0  0  0  0  0  0  0  0  0
  1  3  1  0  0  0  0
  2  3  2  0  0  0  0
  2 12  1  0  0  0  0
  3  4  1  0  0  0  0
  4  6  1  0  0  0  0
  5 22  1  0  0  0  0
  6  7  1  0  0  0  0
  6  8  2  0  0  0  0
  7 12  2  0  0  0  0
  7  9  1  0  0  0  0
  9 10  1  0  0  0  0
  9 22  1  0  0  0  0
 10 11  1  0  0  0  0
 10 14  1  6  0  0  0
 11 13  1  0  0  0  0
 12 13  1  0  0  0  0
 14 15  1  0  0  0  0
 15 19  1  0  0  0  0
 16 17  2  0  0  0  0
 16 21  1  0  0  0  0
 17 18  1  0  0  0  0
 18 19  2  0  0  0  0
 19 20  1  0  0  0  0
 20 21  2  0  0  0  0
M  END
>  <CHROM.1>
-34.69467771,-164.78613308,-84.65567191,159.68188053,19.05391160,-21.60207855
26.15505975,0.25541187,0.17386242,-1.93378929

>  <Name>
ligand

>  <RI>
0

>  <Rbt.Current_Directory>
/home/itssahil/PROJECTS/Mol_Feturizer/Test_systems_manuscript/rnas/3sd3

>  <Rbt.Executable>
rbdock ($Id: //depot/dev/client3/rdock/2013.1/src/exe/rbdock.cxx#4 $)

>  <Rbt.Library>
libRbt.so (2013.1, Build901 2013/11/27)

>  <Rbt.Parameter_File>
/export/apps/rDock/src/rDock_2013.1_src/data/scripts/dock_solv.prm

>  <Rbt.Receptor>
prm/pocket_docking_8.prm

>  <SCORE>
-16.5703

>  <SCORE.INTER>
-16.2179

>  <SCORE.INTER.CONST>
1

>  <SCORE.INTER.POLAR>
0

>  <SCORE.INTER.ROT>
4

>  <SCORE.INTER.SOLV>
11.6948

>  <SCORE.INTER.VDW>
-20.9769

>  <SCORE.INTER.norm>
-0.737177

>  <SCORE.INTRA>
-0.352452

>  <SCORE.INTRA.DIHEDRAL>
0.295804

>  <SCORE.INTRA.DIHEDRAL.0>
2.54655

>  <SCORE.INTRA.POLAR>
0

>  <SCORE.INTRA.POLAR.0>
0

>  <SCORE.INTRA.REPUL>
0

>  <SCORE.INTRA.REPUL.0>
0

>  <SCORE.INTRA.SOLV>
-0.536616

>  <SCORE.INTRA.SOLV.lig_0>
-56.4922

>  <SCORE.INTRA.VDW>
-0.232046

>  <SCORE.INTRA.VDW.0>
-0.696801

>  <SCORE.INTRA.norm>
-0.0160205

>  <SCORE.RESTR>
0

>  <SCORE.RESTR.CAVITY>
0

>  <SCORE.RESTR.norm>
0

>  <SCORE.SYSTEM>
0

>  <SCORE.SYSTEM.CONST>
0

>  <SCORE.SYSTEM.DIHEDRAL>
0

>  <SCORE.SYSTEM.SOLV>
0

>  <SCORE.SYSTEM.norm>
0

>  <SCORE.heavy>
22

>  <SCORE.norm>
-0.753197

>  <RMSD>
6.650

$$$$
ligand
 OpenBabel02271912143D
libRbt.so/2013.1/901 2013/11/27
 22 24  0  0  0  0  0  0  0  0999 V2000
   21.5491  -23.3815   22.2316 N   0  0  0  0  0  0  0  0  0  0  0  0
   20.1739  -23.3070   24.1902 N   0  0  0  0  0  0  0  0  0  0  0  0
   21.3019  -22.9210   23.5716 C   0  0  0  0  0  0  0  0  0  0  0  0
   22.1929  -22.1303   24.1570 N   0  0  0  0  0  0  0  0  0  0  0  0
   22.2726  -22.3127   28.6738 O   0  0  0  0  0  0  0  0  0  0  0  0
   21.9809  -21.6895   25.4107 C   0  0  0  0  0  0  0  0  0  0  0  0
   20.8026  -22.0885   26.1013 C   0  0  0  0  0  0  0  0  0  0  0  0
   22.9205  -20.8698   25.9946 O   0  0  0  0  0  0  0  0  0  0  0  0
   20.4326  -21.6764   27.4409 N   0  0  0  0  0  0  0  0  0  0  0  0
   19.0125  -21.3780   27.6670 C   0  0  2  0  0  0  0  0  0  0  0  0
   18.1543  -22.5100   27.1954 C   0  0  0  0  0  0  0  0  0  0  0  0
   19.9087  -22.8979   25.4462 C   0  0  0  0  0  0  0  0  0  0  0  0
   18.7256  -23.3007   26.1070 N   0  0  0  0  0  0  0  0  0  0  0  0
   18.5337  -20.0807   26.9906 C   0  0  0  0  0  0  0  0  0  0  0  0
   17.2357  -19.6795   27.5190 N   0  0  0  0  0  0  0  0  0  0  0  0
   13.6380  -21.0476   25.7062 C   0  0  0  0  0  0  0  0  0  0  0  0
   13.6026  -20.4814   26.9694 C   0  0  0  0  0  0  0  0  0  0  0  0
   14.7897  -20.0257   27.5747 C   0  0  0  0  0  0  0  0  0  0  0  0
   15.9982  -20.1454   26.9054 C   0  0  0  0  0  0  0  0  0  0  0  0
   16.0307  -20.7148   25.6359 C   0  0  0  0  0  0  0  0  0  0  0  0
   14.8517  -21.1644   25.0359 C   0  0  0  0  0  0  0  0  0  0  0  0
   21.3496  -21.5306   28.5192 C   0  0  0  0  0  0  0  0  0  0  0  0
  1  3  1  0  0  0  0
  2  3  2  0  0  0  0
  2 12  1  0  0  0  0
  3  4  1  0  0  0  0
  4  6  1  0  0  0  0
  5 22  1  0  0  0  0
  6  7  1  0  0  0  0
  6  8  2  0  0  0  0
  7 12  2  0  0  0  0
  7  9  1  0  0  0  0
  9 10  1  0  0  0  0
  9 22  1  0  0  0  0
 10 11  1  0  0  0  0
 10 14  1  6  0  0  0
 11 13  1  0  0  0  0
 12 13  1  0  0  0  0
 14 15  1  0  0  0  0
 15 19  1  0  0  0  0
 16 17  2  0  0  0  0
 16 21  1  0  0  0  0
 17 18  1  0  0  0  0
 18 19  2  0  0  0  0
 19 20  1  0  0  0  0
 20 21  2  0  0  0  0
M  END
>  <CHROM.1>
-38.67631144,-165.98130074,-89.95631063,164.97687412,19.04416574,-21.62634989
26.17055342,0.24283450,0.17299381,-1.93235214

>  <Name>
ligand

>  <RI>
0

>  <Rbt.Current_Directory>
/home/itssahil/PROJECTS/Mol_Feturizer/Test_systems_manuscript/rnas/3sd3

>  <Rbt.Executable>
rbdock ($Id: //depot/dev/client3/rdock/2013.1/src/exe/rbdock.cxx#4 $)

>  <Rbt.Library>
libRbt.so (2013.1, Build901 2013/11/27)

>  <Rbt.Parameter_File>
/export/apps/rDock/src/rDock_2013.1_src/data/scripts/dock_solv.prm

>  <Rbt.Receptor>
prm/pocket_docking_4.prm

>  <SCORE>
-16.6164

>  <SCORE.INTER>
-16.2539

>  <SCORE.INTER.CONST>
1

>  <SCORE.INTER.POLAR>
0

>  <SCORE.INTER.ROT>
4

>  <SCORE.INTER.SOLV>
12.4273

>  <SCORE.INTER.VDW>
-21.245

>  <SCORE.INTER.norm>
-0.738812

>  <SCORE.INTRA>
-0.362546

>  <SCORE.INTRA.DIHEDRAL>
0.348144

>  <SCORE.INTRA.DIHEDRAL.0>
2.54655

>  <SCORE.INTRA.POLAR>
0

>  <SCORE.INTRA.POLAR.0>
0

>  <SCORE.INTRA.REPUL>
0

>  <SCORE.INTRA.REPUL.0>
0

>  <SCORE.INTRA.SOLV>
-0.550872

>  <SCORE.INTRA.SOLV.lig_0>
-56.4922

>  <SCORE.INTRA.VDW>
-0.261182

>  <SCORE.INTRA.VDW.0>
-0.696801

>  <SCORE.INTRA.norm>
-0.0164794

>  <SCORE.RESTR>
0

>  <SCORE.RESTR.CAVITY>
0

>  <SCORE.RESTR.norm>
0

>  <SCORE.SYSTEM>
0

>  <SCORE.SYSTEM.CONST>
0

>  <SCORE.SYSTEM.DIHEDRAL>
0

>  <SCORE.SYSTEM.SOLV>
0

>  <SCORE.SYSTEM.norm>
0

>  <SCORE.heavy>
22

>  <SCORE.norm>
-0.755291

>  <RMSD>
6.653

$$$$
ligand
 OpenBabel02271912143D
libRbt.so/2013.1/901 2013/11/27
 22 24  0  0  0  0  0  0  0  0999 V2000
   21.4887  -23.2902   22.1424 N   0  0  0  0  0  0  0  0  0  0  0  0
   20.1465  -23.2774   24.1252 N   0  0  0  0  0  0  0  0  0  0  0  0
   21.2560  -22.8584   23.4945 C   0  0  0  0  0  0  0  0  0  0  0  0
   22.1415  -22.0608   24.0788 N   0  0  0  0  0  0  0  0  0  0  0  0
   22.3392  -22.2802   28.5525 O   0  0  0  0  0  0  0  0  0  0  0  0
   21.9428  -21.6465   25.3438 C   0  0  0  0  0  0  0  0  0  0  0  0
   20.7847  -22.0807   26.0470 C   0  0  0  0  0  0  0  0  0  0  0  0
   22.8763  -20.8188   25.9262 O   0  0  0  0  0  0  0  0  0  0  0  0
   20.4301  -21.6997   27.3999 N   0  0  0  0  0  0  0  0  0  0  0  0
   19.0086  -21.4334   27.6555 C   0  0  2  0  0  0  0  0  0  0  0  0
   18.1644  -22.5736   27.1783 C   0  0  0  0  0  0  0  0  0  0  0  0
   19.8954  -22.8959   25.3927 C   0  0  0  0  0  0  0  0  0  0  0  0
   18.7320  -23.3335   26.0662 N   0  0  0  0  0  0  0  0  0  0  0  0
   18.4931  -20.1340   27.0108 C   0  0  0  0  0  0  0  0  0  0  0  0
   17.1887  -19.7775   27.5554 N   0  0  0  0  0  0  0  0  0  0  0  0
   13.5846  -21.0528   25.6885 C   0  0  0  0  0  0  0  0  0  0  0  0
   14.7903  -21.1775   25.0191 C   0  0  0  0  0  0  0  0  0  0  0  0
   15.9871  -20.7582   25.6318 C   0  0  0  0  0  0  0  0  0  0  0  0
   15.9587  -20.2171   26.9082 C   0  0  0  0  0  0  0  0  0  0  0  0
   14.7454  -20.0931   27.5785 C   0  0  0  0  0  0  0  0  0  0  0  0
   13.5593  -20.5116   26.9701 C   0  0  0  0  0  0  0  0  0  0  0  0
   21.3627  -21.5550   28.4649 C   0  0  0  0  0  0  0  0  0  0  0  0
  1  3  1  0  0  0  0
  2  3  2  0  0  0  0
  2 12  1  0  0  0  0
  3  4  1  0  0  0  0
  4  6  1  0  0  0  0
  5 22  1  0  0  0  0
  6  7  1  0  0  0  0
  6  8  2  0  0  0  0
  7 12  2  0  0  0  0
  7  9  1  0  0  0  0
  9 10  1  0  0  0  0
  9 22  1  0  0  0  0
 10 11  1  0  0  0  0
 10 14  1  6  0  0  0
 11 13  1  0  0  0  0
 12 13  1  0  0  0  0
 14 15  1  0  0  0  0
 15 19  1  0  0  0  0
 16 17  2  0  0  0  0
 16 21  1  0  0  0  0
 17 18  1  0  0  0  0
 18 19  2  0  0  0  0
 19 20  1  0  0  0  0
 20 21  2  0  0  0  0
M  END
>  <CHROM.1>
-35.04689938,-166.74099153,-92.41109712,-12.54561831,19.01907600,-21.63406885
26.13212092,0.24147573,0.16205740,-1.91452193

>  <Name>
ligand

>  <RI>
0

>  <Rbt.Current_Directory>
/home/itssahil/PROJECTS/Mol_Feturizer/Test_systems_manuscript/rnas/3sd3

>  <Rbt.Executable>
rbdock ($Id: //depot/dev/client3/rdock/2013.1/src/exe/rbdock.cxx#4 $)

>  <Rbt.Library>
libRbt.so (2013.1, Build901 2013/11/27)

>  <Rbt.Parameter_File>
/export/apps/rDock/src/rDock_2013.1_src/data/scripts/dock_solv.prm

>  <Rbt.Receptor>
prm/pocket_docking_6.prm

>  <SCORE>
-16.7833

>  <SCORE.INTER>
-16.3728

>  <SCORE.INTER.CONST>
1

>  <SCORE.INTER.POLAR>
0

>  <SCORE.INTER.ROT>
4

>  <SCORE.INTER.SOLV>
12.2923

>  <SCORE.INTER.VDW>
-21.2793

>  <SCORE.INTER.norm>
-0.744217

>  <SCORE.INTRA>
-0.410566

>  <SCORE.INTRA.DIHEDRAL>
0.3554

>  <SCORE.INTRA.DIHEDRAL.0>
2.54655

>  <SCORE.INTRA.POLAR>
0

>  <SCORE.INTRA.POLAR.0>
0

>  <SCORE.INTRA.REPUL>
0

>  <SCORE.INTRA.REPUL.0>
0

>  <SCORE.INTRA.SOLV>
-0.536659

>  <SCORE.INTRA.SOLV.lig_0>
-56.4922

>  <SCORE.INTRA.VDW>
-0.319937

>  <SCORE.INTRA.VDW.0>
-0.696801

>  <SCORE.INTRA.norm>
-0.0186621

>  <SCORE.RESTR>
0

>  <SCORE.RESTR.CAVITY>
0

>  <SCORE.RESTR.norm>
0

>  <SCORE.SYSTEM>
0

>  <SCORE.SYSTEM.CONST>
0

>  <SCORE.SYSTEM.DIHEDRAL>
0

>  <SCORE.SYSTEM.SOLV>
0

>  <SCORE.SYSTEM.norm>
0

>  <SCORE.heavy>
22

>  <SCORE.norm>
-0.762879

>  <RMSD>
6.653

$$$$
ligand
 OpenBabel02271912143D
libRbt.so/2013.1/901 2013/11/27
 22 24  0  0  0  0  0  0  0  0999 V2000
   21.5494  -23.3631   22.2783 N   0  0  0  0  0  0  0  0  0  0  0  0
   20.1583  -23.2840   24.2254 N   0  0  0  0  0  0  0  0  0  0  0  0
   21.2810  -22.8823   23.6070 C   0  0  0  0  0  0  0  0  0  0  0  0
   22.1477  -22.0580   24.1825 N   0  0  0  0  0  0  0  0  0  0  0  0
   21.3638  -22.2217   29.4139 O   0  0  0  0  0  0  0  0  0  0  0  0
   21.9155  -21.5977   25.4256 C   0  0  0  0  0  0  0  0  0  0  0  0
   20.7424  -22.0122   26.1160 C   0  0  0  0  0  0  0  0  0  0  0  0
   22.8300  -20.7433   25.9993 O   0  0  0  0  0  0  0  0  0  0  0  0
   20.3524  -21.5828   27.4444 N   0  0  0  0  0  0  0  0  0  0  0  0
   18.9237  -21.3156   27.6547 C   0  0  2  0  0  0  0  0  0  0  0  0
   18.0974  -22.4780   27.2001 C   0  0  0  0  0  0  0  0  0  0  0  0
   19.8738  -22.8567   25.4711 C   0  0  0  0  0  0  0  0  0  0  0  0
   18.6962  -23.2757   26.1318 N   0  0  0  0  0  0  0  0  0  0  0  0
   18.4178  -20.0445   26.9490 C   0  0  0  0  0  0  0  0  0  0  0  0
   17.1385  -19.6257   27.5086 N   0  0  0  0  0  0  0  0  0  0  0  0
   13.4534  -20.9907   25.8781 C   0  0  0  0  0  0  0  0  0  0  0  0
   14.6402  -21.2483   25.2128 C   0  0  0  0  0  0  0  0  0  0  0  0
   15.8636  -20.8001   25.7476 C   0  0  0  0  0  0  0  0  0  0  0  0
   15.8806  -20.0972   26.9427 C   0  0  0  0  0  0  0  0  0  0  0  0
   14.6862  -19.8399   27.6092 C   0  0  0  0  0  0  0  0  0  0  0  0
   13.4736  -20.2872   27.0783 C   0  0  0  0  0  0  0  0  0  0  0  0
   21.2575  -21.3927   28.5258 C   0  0  0  0  0  0  0  0  0  0  0  0
  1  3  1  0  0  0  0
  2  3  2  0  0  0  0
  2 12  1  0  0  0  0
  3  4  1  0  0  0  0
  4  6  1  0  0  0  0
  5 22  1  0  0  0  0
  6  7  1  0  0  0  0
  6  8  2  0  0  0  0
  7 12  2  0  0  0  0
  7  9  1  0  0  0  0
  9 10  1  0  0  0  0
  9 22  1  0  0  0  0
 10 11  1  0  0  0  0
 10 14  1  6  0  0  0
 11 13  1  0  0  0  0
 12 13  1  0  0  0  0
 14 15  1  0  0  0  0
 15 19  1  0  0  0  0
 16 17  2  0  0  0  0
 16 21  1  0  0  0  0
 17 18  1  0  0  0  0
 18 19  2  0  0  0  0
 19 20  1  0  0  0  0
 20 21  2  0  0  0  0
M  END
>  <CHROM.1>
-102.26171395,-163.02846681,-91.02071178,-9.19244970,18.91452514,-21.56466796
26.24564895,0.26708201,0.17136177,-1.91346827

>  <Name>
ligand

>  <RI>
0

>  <Rbt.Current_Directory>
/home/itssahil/PROJECTS/Mol_Feturizer/Test_systems_manuscript/rnas/3sd3

>  <Rbt.Executable>
rbdock ($Id: //depot/dev/client3/rdock/2013.1/src/exe/rbdock.cxx#4 $)

>  <Rbt.Library>
libRbt.so (2013.1, Build901 2013/11/27)

>  <Rbt.Parameter_File>
/export/apps/rDock/src/rDock_2013.1_src/data/scripts/dock_solv.prm

>  <Rbt.Receptor>
prm/pocket_docking_7.prm

>  <SCORE>
-16.5355

>  <SCORE.INTER>
-16.3133

>  <SCORE.INTER.CONST>
1

>  <SCORE.INTER.POLAR>
0

>  <SCORE.INTER.ROT>
4

>  <SCORE.INTER.SOLV>
12.4824

>  <SCORE.INTER.VDW>
-21.303

>  <SCORE.INTER.norm>
-0.741513

>  <SCORE.INTRA>
-0.22217

>  <SCORE.INTRA.DIHEDRAL>
0.724925

>  <SCORE.INTRA.DIHEDRAL.0>
2.54655

>  <SCORE.INTRA.POLAR>
0

>  <SCORE.INTRA.POLAR.0>
0

>  <SCORE.INTRA.REPUL>
0

>  <SCORE.INTRA.REPUL.0>
0

>  <SCORE.INTRA.SOLV>
-0.781447

>  <SCORE.INTRA.SOLV.lig_0>
-56.4922

>  <SCORE.INTRA.VDW>
-0.193909

>  <SCORE.INTRA.VDW.0>
-0.696801

>  <SCORE.INTRA.norm>
-0.0100986

>  <SCORE.RESTR>
0

>  <SCORE.RESTR.CAVITY>
0

>  <SCORE.RESTR.norm>
0

>  <SCORE.SYSTEM>
0

>  <SCORE.SYSTEM.CONST>
0

>  <SCORE.SYSTEM.DIHEDRAL>
0

>  <SCORE.SYSTEM.SOLV>
0

>  <SCORE.SYSTEM.norm>
0

>  <SCORE.heavy>
22

>  <SCORE.norm>
-0.751612

>  <RMSD>
6.666

$$$$
ligand
 OpenBabel02271912143D
libRbt.so/2013.1/901 2013/11/27
 22 24  0  0  0  0  0  0  0  0999 V2000
   21.6155  -23.3532   22.2329 N   0  0  0  0  0  0  0  0  0  0  0  0
   20.2130  -23.3077   24.1730 N   0  0  0  0  0  0  0  0  0  0  0  0
   21.3492  -22.9121   23.5757 C   0  0  0  0  0  0  0  0  0  0  0  0
   22.2313  -22.1292   24.1847 N   0  0  0  0  0  0  0  0  0  0  0  0
   22.3167  -22.2991   28.6334 O   0  0  0  0  0  0  0  0  0  0  0  0
   22.0015  -21.7065   25.4416 C   0  0  0  0  0  0  0  0  0  0  0  0
   20.8140  -22.1162   26.1099 C   0  0  0  0  0  0  0  0  0  0  0  0
   22.9320  -20.8946   26.0501 O   0  0  0  0  0  0  0  0  0  0  0  0
   20.4251  -21.7235   27.4500 N   0  0  0  0  0  0  0  0  0  0  0  0
   19.0016  -21.4294   27.6605 C   0  0  2  0  0  0  0  0  0  0  0  0
   18.1511  -22.5552   27.1609 C   0  0  0  0  0  0  0  0  0  0  0  0
   19.9300  -22.9168   25.4309 C   0  0  0  0  0  0  0  0  0  0  0  0
   18.7382  -23.3298   26.0694 N   0  0  0  0  0  0  0  0  0  0  0  0
   18.5312  -20.1229   26.9961 C   0  0  0  0  0  0  0  0  0  0  0  0
   17.2272  -19.7282   27.5148 N   0  0  0  0  0  0  0  0  0  0  0  0
   13.6219  -21.0294   25.6683 C   0  0  0  0  0  0  0  0  0  0  0  0
   14.8279  -21.1683   25.0020 C   0  0  0  0  0  0  0  0  0  0  0  0
   16.0250  -20.7404   25.6080 C   0  0  0  0  0  0  0  0  0  0  0  0
   15.9969  -20.1768   26.8746 C   0  0  0  0  0  0  0  0  0  0  0  0
   14.7833  -20.0387   27.5418 C   0  0  0  0  0  0  0  0  0  0  0  0
   13.5968  -20.4656   26.9401 C   0  0  0  0  0  0  0  0  0  0  0  0
   21.3268  -21.5925   28.5429 C   0  0  0  0  0  0  0  0  0  0  0  0
  1  3  1  0  0  0  0
  2  3  2  0  0  0  0
  2 12  1  0  0  0  0
  3  4  1  0  0  0  0
  4  6  1  0  0  0  0
  5 22  1  0  0  0  0
  6  7  1  0  0  0  0
  6  8  2  0  0  0  0
  7 12  2  0  0  0  0
  7  9  1  0  0  0  0
  9 10  1  0  0  0  0
  9 22  1  0  0  0  0
 10 11  1  0  0  0  0
 10 14  1  6  0  0  0
 11 13  1  0  0  0  0
 12 13  1  0  0  0  0
 14 15  1  0  0  0  0
 15 19  1  0  0  0  0
 16 17  2  0  0  0  0
 16 21  1  0  0  0  0
 17 18  1  0  0  0  0
 18 19  2  0  0  0  0
 19 20  1  0  0  0  0
 20 21  2  0  0  0  0
M  END
>  <CHROM.1>
-31.96386619,-165.81882234,-90.43819157,-14.01859594,19.05381925,-21.64499296
26.16305627,0.23359989,0.17598082,-1.92438744

>  <Name>
ligand

>  <RI>
0

>  <Rbt.Current_Directory>
/home/itssahil/PROJECTS/Mol_Feturizer/Test_systems_manuscript/rnas/3sd3

>  <Rbt.Executable>
rbdock ($Id: //depot/dev/client3/rdock/2013.1/src/exe/rbdock.cxx#4 $)

>  <Rbt.Library>
libRbt.so (2013.1, Build901 2013/11/27)

>  <Rbt.Parameter_File>
/export/apps/rDock/src/rDock_2013.1_src/data/scripts/dock_solv.prm

>  <Rbt.Receptor>
prm/pocket_docking_5.prm

>  <SCORE>
-16.7736

>  <SCORE.INTER>
-16.3891

>  <SCORE.INTER.CONST>
1

>  <SCORE.INTER.POLAR>
0

>  <SCORE.INTER.ROT>
4

>  <SCORE.INTER.SOLV>
12.3372

>  <SCORE.INTER.VDW>
-21.3052

>  <SCORE.INTER.norm>
-0.744961

>  <SCORE.INTRA>
-0.384452

>  <SCORE.INTRA.DIHEDRAL>
0.37655

>  <SCORE.INTRA.DIHEDRAL.0>
2.54655

>  <SCORE.INTRA.POLAR>
0

>  <SCORE.INTRA.POLAR.0>
0

>  <SCORE.INTRA.REPUL>
0

>  <SCORE.INTRA.REPUL.0>
0

>  <SCORE.INTRA.SOLV>
-0.52982

>  <SCORE.INTRA.SOLV.lig_0>
-56.4922

>  <SCORE.INTRA.VDW>
-0.307817

>  <SCORE.INTRA.VDW.0>
-0.696801

>  <SCORE.INTRA.norm>
-0.0174751

>  <SCORE.RESTR>
0

>  <SCORE.RESTR.CAVITY>
0

>  <SCORE.RESTR.norm>
0

>  <SCORE.SYSTEM>
0

>  <SCORE.SYSTEM.CONST>
0

>  <SCORE.SYSTEM.DIHEDRAL>
0

>  <SCORE.SYSTEM.SOLV>
0

>  <SCORE.SYSTEM.norm>
0

>  <SCORE.heavy>
22

>  <SCORE.norm>
-0.762436

>  <RMSD>
6.667

$$$$
ligand
 OpenBabel02271912143D
libRbt.so/2013.1/901 2013/11/27
 22 24  0  0  0  0  0  0  0  0999 V2000
   19.7198  -16.2980   20.7773 N   0  0  0  0  0  0  0  0  0  0  0  0
   19.9254  -17.7040   22.7044 N   0  0  0  0  0  0  0  0  0  0  0  0
   19.7217  -16.4740   22.2048 C   0  0  0  0  0  0  0  0  0  0  0  0
   19.5230  -15.4190   22.9854 N   0  0  0  0  0  0  0  0  0  0  0  0
   21.3097  -15.6536   27.0971 O   0  0  0  0  0  0  0  0  0  0  0  0
   19.5222  -15.5623   24.3236 C   0  0  0  0  0  0  0  0  0  0  0  0
   19.7473  -16.8487   24.8883 C   0  0  0  0  0  0  0  0  0  0  0  0
   19.3128  -14.4521   25.1105 O   0  0  0  0  0  0  0  0  0  0  0  0
   19.7524  -17.1561   26.3048 N   0  0  0  0  0  0  0  0  0  0  0  0
   19.1215  -18.4208   26.7042 C   0  0  2  0  0  0  0  0  0  0  0  0
   19.6711  -19.5600   25.9038 C   0  0  0  0  0  0  0  0  0  0  0  0
   19.9363  -17.9078   24.0362 C   0  0  0  0  0  0  0  0  0  0  0  0
   20.1525  -19.1980   24.5721 N   0  0  0  0  0  0  0  0  0  0  0  0
   17.5878  -18.4199   26.5728 C   0  0  0  0  0  0  0  0  0  0  0  0
   17.0270  -19.6409   27.1385 N   0  0  0  0  0  0  0  0  0  0  0  0
   13.0286  -20.8188   26.2861 C   0  0  0  0  0  0  0  0  0  0  0  0
   13.2867  -19.9718   27.3508 C   0  0  0  0  0  0  0  0  0  0  0  0
   14.6078  -19.5774   27.6378 C   0  0  0  0  0  0  0  0  0  0  0  0
   15.6541  -20.0392   26.8536 C   0  0  0  0  0  0  0  0  0  0  0  0
   15.3916  -20.8902   25.7841 C   0  0  0  0  0  0  0  0  0  0  0  0
   14.0800  -21.2789   25.4994 C   0  0  0  0  0  0  0  0  0  0  0  0
   20.3054  -16.3126   27.3085 C   0  0  0  0  0  0  0  0  0  0  0  0
  1  3  1  0  0  0  0
  2  3  2  0  0  0  0
  2 12  1  0  0  0  0
  3  4  1  0  0  0  0
  4  6  1  0  0  0  0
  5 22  1  0  0  0  0
  6  7  1  0  0  0  0
  6  8  2  0  0  0  0
  7 12  2  0  0  0  0
  7  9  1  0  0  0  0
  9 10  1  0  0  0  0
  9 22  1  0  0  0  0
 10 11  1  0  0  0  0
 10 14  1  6  0  0  0
 11 13  1  0  0  0  0
 12 13  1  0  0  0  0
 14 15  1  0  0  0  0
 15 19  1  0  0  0  0
 16 17  2  0  0  0  0
 16 21  1  0  0  0  0
 17 18  1  0  0  0  0
 18 19  2  0  0  0  0
 19 20  1  0  0  0  0
 20 21  2  0  0  0  0
M  END
>  <CHROM.1>
-35.62273227,-173.05313588,-164.79272490,-87.53870575,18.24571896,-17.97119408
25.36316877,0.39145558,-0.63321312,-1.51583588

>  <Name>
ligand

>  <RI>
0

>  <Rbt.Current_Directory>
/home/itssahil/PROJECTS/Mol_Feturizer/Test_systems_manuscript/rnas/3sd3

>  <Rbt.Executable>
rbdock ($Id: //depot/dev/client3/rdock/2013.1/src/exe/rbdock.cxx#4 $)

>  <Rbt.Library>
libRbt.so (2013.1, Build901 2013/11/27)

>  <Rbt.Parameter_File>
/export/apps/rDock/src/rDock_2013.1_src/data/scripts/dock_solv.prm

>  <Rbt.Receptor>
prm/pocket_docking_6.prm

>  <SCORE>
-11.9759

>  <SCORE.INTER>
-11.0118

>  <SCORE.INTER.CONST>
1

>  <SCORE.INTER.POLAR>
0

>  <SCORE.INTER.ROT>
4

>  <SCORE.INTER.SOLV>
4.2022

>  <SCORE.INTER.VDW>
-15.0086

>  <SCORE.INTER.norm>
-0.500537

>  <SCORE.INTRA>
-0.96403

>  <SCORE.INTRA.DIHEDRAL>
-0.579544

>  <SCORE.INTRA.DIHEDRAL.0>
2.54655

>  <SCORE.INTRA.POLAR>
0

>  <SCORE.INTRA.POLAR.0>
0

>  <SCORE.INTRA.REPUL>
0

>  <SCORE.INTRA.REPUL.0>
0

>  <SCORE.INTRA.SOLV>
-0.560586

>  <SCORE.INTRA.SOLV.lig_0>
-56.4922

>  <SCORE.INTRA.VDW>
-0.393965

>  <SCORE.INTRA.VDW.0>
-0.696801

>  <SCORE.INTRA.norm>
-0.0438195

>  <SCORE.RESTR>
0

>  <SCORE.RESTR.CAVITY>
0

>  <SCORE.RESTR.norm>
0

>  <SCORE.SYSTEM>
0

>  <SCORE.SYSTEM.CONST>
0

>  <SCORE.SYSTEM.DIHEDRAL>
0

>  <SCORE.SYSTEM.SOLV>
0

>  <SCORE.SYSTEM.norm>
0

>  <SCORE.heavy>
22

>  <SCORE.norm>
-0.544357

>  <RMSD>
6.667

$$$$
ligand
 OpenBabel02271912143D
libRbt.so/2013.1/901 2013/11/27
 22 24  0  0  0  0  0  0  0  0999 V2000
   22.3105  -23.4378   22.9017 N   0  0  0  0  0  0  0  0  0  0  0  0
   20.5724  -23.3042   24.5431 N   0  0  0  0  0  0  0  0  0  0  0  0
   21.8174  -22.9671   24.1682 C   0  0  0  0  0  0  0  0  0  0  0  0
   22.6043  -22.2155   24.9282 N   0  0  0  0  0  0  0  0  0  0  0  0
   21.5039  -20.5549   29.3512 O   0  0  0  0  0  0  0  0  0  0  0  0
   22.1622  -21.7659   26.1172 C   0  0  0  0  0  0  0  0  0  0  0  0
   20.8530  -22.1138   26.5523 C   0  0  0  0  0  0  0  0  0  0  0  0
   22.9982  -20.9874   26.8857 O   0  0  0  0  0  0  0  0  0  0  0  0
   20.2378  -21.6862   27.7932 N   0  0  0  0  0  0  0  0  0  0  0  0
   18.8151  -21.3269   27.7307 C   0  0  2  0  0  0  0  0  0  0  0  0
   18.0229  -22.4210   27.0858 C   0  0  0  0  0  0  0  0  0  0  0  0
   20.0765  -22.8841   25.7233 C   0  0  0  0  0  0  0  0  0  0  0  0
   18.7684  -23.2355   26.1282 N   0  0  0  0  0  0  0  0  0  0  0  0
   18.5379  -20.0103   26.9828 C   0  0  0  0  0  0  0  0  0  0  0  0
   17.2406  -19.4686   27.3683 N   0  0  0  0  0  0  0  0  0  0  0  0
   13.6422  -21.1619   25.8565 C   0  0  0  0  0  0  0  0  0  0  0  0
   13.6830  -20.6689   27.1499 C   0  0  0  0  0  0  0  0  0  0  0  0
   14.8707  -20.1062   27.6561 C   0  0  0  0  0  0  0  0  0  0  0  0
   16.0035  -20.0469   26.8585 C   0  0  0  0  0  0  0  0  0  0  0  0
   15.9594  -20.5431   25.5589 C   0  0  0  0  0  0  0  0  0  0  0  0
   14.7796  -21.0990   25.0576 C   0  0  0  0  0  0  0  0  0  0  0  0
   20.9234  -21.5800   29.0355 C   0  0  0  0  0  0  0  0  0  0  0  0
  1  3  1  0  0  0  0
  2  3  2  0  0  0  0
  2 12  1  0  0  0  0
  3  4  1  0  0  0  0
  4  6  1  0  0  0  0
  5 22  1  0  0  0  0
  6  7  1  0  0  0  0
  6  8  2  0  0  0  0
  7 12  2  0  0  0  0
  7  9  1  0  0  0  0
  9 10  1  0  0  0  0
  9 22  1  0  0  0  0
 10 11  1  0  0  0  0
 10 14  1  6  0  0  0
 11 13  1  0  0  0  0
 12 13  1  0  0  0  0
 14 15  1  0  0  0  0
 15 19  1  0  0  0  0
 16 17  2  0  0  0  0
 16 21  1  0  0  0  0
 17 18  1  0  0  0  0
 18 19  2  0  0  0  0
 19 20  1  0  0  0  0
 20 21  2  0  0  0  0
M  END
>  <CHROM.1>
87.95787178,-159.06842310,-75.80728668,144.54475594,19.07808678,-21.52998714
26.47232759,0.21220139,0.15426869,-2.04696299

>  <Name>
ligand

>  <RI>
0

>  <Rbt.Current_Directory>
/home/itssahil/PROJECTS/Mol_Feturizer/Test_systems_manuscript/rnas/3sd3

>  <Rbt.Executable>
rbdock ($Id: //depot/dev/client3/rdock/2013.1/src/exe/rbdock.cxx#4 $)

>  <Rbt.Library>
libRbt.so (2013.1, Build901 2013/11/27)

>  <Rbt.Parameter_File>
/export/apps/rDock/src/rDock_2013.1_src/data/scripts/dock_solv.prm

>  <Rbt.Receptor>
prm/pocket_docking_3.prm

>  <SCORE>
-15.9427

>  <SCORE.INTER>
-15.5229

>  <SCORE.INTER.CONST>
1

>  <SCORE.INTER.POLAR>
0

>  <SCORE.INTER.ROT>
4

>  <SCORE.INTER.SOLV>
12.0068

>  <SCORE.INTER.VDW>
-20.6176

>  <SCORE.INTER.norm>
-0.705587

>  <SCORE.INTRA>
-0.419769

>  <SCORE.INTRA.DIHEDRAL>
0.689271

>  <SCORE.INTRA.DIHEDRAL.0>
2.54655

>  <SCORE.INTRA.POLAR>
0

>  <SCORE.INTRA.POLAR.0>
0

>  <SCORE.INTRA.REPUL>
0

>  <SCORE.INTRA.REPUL.0>
0

>  <SCORE.INTRA.SOLV>
-0.554089

>  <SCORE.INTRA.SOLV.lig_0>
-56.4922

>  <SCORE.INTRA.VDW>
-0.487359

>  <SCORE.INTRA.VDW.0>
-0.696801

>  <SCORE.INTRA.norm>
-0.0190804

>  <SCORE.RESTR>
0

>  <SCORE.RESTR.CAVITY>
0

>  <SCORE.RESTR.norm>
0

>  <SCORE.SYSTEM>
0

>  <SCORE.SYSTEM.CONST>
0

>  <SCORE.SYSTEM.DIHEDRAL>
0

>  <SCORE.SYSTEM.SOLV>
0

>  <SCORE.SYSTEM.norm>
0

>  <SCORE.heavy>
22

>  <SCORE.norm>
-0.724667

>  <RMSD>
6.678

$$$$
ligand
 OpenBabel02271912143D
libRbt.so/2013.1/901 2013/11/27
 22 24  0  0  0  0  0  0  0  0999 V2000
   24.7414  -21.6017   25.4783 N   0  0  0  0  0  0  0  0  0  0  0  0
   22.6288  -21.9491   24.4063 N   0  0  0  0  0  0  0  0  0  0  0  0
   23.3169  -21.7881   25.5486 C   0  0  0  0  0  0  0  0  0  0  0  0
   22.7248  -21.7958   26.7365 N   0  0  0  0  0  0  0  0  0  0  0  0
   18.0832  -22.6155   27.5722 O   0  0  0  0  0  0  0  0  0  0  0  0
   21.3932  -21.9699   26.8239 C   0  0  0  0  0  0  0  0  0  0  0  0
   20.6338  -22.1561   25.6351 C   0  0  0  0  0  0  0  0  0  0  0  0
   20.8037  -21.9730   28.0681 O   0  0  0  0  0  0  0  0  0  0  0  0
   19.1963  -22.3325   25.5744 N   0  0  0  0  0  0  0  0  0  0  0  0
   18.4976  -21.6534   24.4754 C   0  0  2  0  0  0  0  0  0  0  0  0
   19.1364  -21.9813   23.1621 C   0  0  0  0  0  0  0  0  0  0  0  0
   21.2937  -22.1285   24.4321 C   0  0  0  0  0  0  0  0  0  0  0  0
   20.5606  -22.3015   23.2357 N   0  0  0  0  0  0  0  0  0  0  0  0
   18.4387  -20.1226   24.6271 C   0  0  0  0  0  0  0  0  0  0  0  0
   17.7777  -19.7591   25.8745 N   0  0  0  0  0  0  0  0  0  0  0  0
   13.6607  -20.6090   26.5296 C   0  0  0  0  0  0  0  0  0  0  0  0
   14.3335  -21.2184   25.4839 C   0  0  0  0  0  0  0  0  0  0  0  0
   15.6966  -20.9422   25.2622 C   0  0  0  0  0  0  0  0  0  0  0  0
   16.3672  -20.0562   26.0916 C   0  0  0  0  0  0  0  0  0  0  0  0
   15.6884  -19.4453   27.1419 C   0  0  0  0  0  0  0  0  0  0  0  0
   14.3367  -19.7222   27.3618 C   0  0  0  0  0  0  0  0  0  0  0  0
   18.4396  -23.0939   26.5085 C   0  0  0  0  0  0  0  0  0  0  0  0
  1  3  1  0  0  0  0
  2  3  2  0  0  0  0
  2 12  1  0  0  0  0
  3  4  1  0  0  0  0
  4  6  1  0  0  0  0
  5 22  1  0  0  0  0
  6  7  1  0  0  0  0
  6  8  2  0  0  0  0
  7 12  2  0  0  0  0
  7  9  1  0  0  0  0
  9 10  1  0  0  0  0
  9 22  1  0  0  0  0
 10 11  1  0  0  0  0
 10 14  1  1  0  0  0
 11 13  1  0  0  0  0
 12 13  1  0  0  0  0
 14 15  1  0  0  0  0
 15 19  1  0  0  0  0
 16 17  2  0  0  0  0
 16 21  1  0  0  0  0
 17 18  1  0  0  0  0
 18 19  2  0  0  0  0
 19 20  1  0  0  0  0
 20 21  2  0  0  0  0
M  END
>  <CHROM.1>
82.91111563,-58.26878893,-65.64379317,14.44307714,19.08666010,-21.45857736
25.74056970,-0.11621825,-0.19505652,1.55010019

>  <Name>
ligand

>  <RI>
0

>  <Rbt.Current_Directory>
/home/itssahil/PROJECTS/Mol_Feturizer/Test_systems_manuscript/rnas/3sd3

>  <Rbt.Executable>
rbdock ($Id: //depot/dev/client3/rdock/2013.1/src/exe/rbdock.cxx#4 $)

>  <Rbt.Library>
libRbt.so (2013.1, Build901 2013/11/27)

>  <Rbt.Parameter_File>
/export/apps/rDock/src/rDock_2013.1_src/data/scripts/dock_solv.prm

>  <Rbt.Receptor>
prm/pocket_docking_4.prm

>  <SCORE>
-16.6359

>  <SCORE.INTER>
-15.6301

>  <SCORE.INTER.CONST>
1

>  <SCORE.INTER.POLAR>
0

>  <SCORE.INTER.ROT>
4

>  <SCORE.INTER.SOLV>
5.69878

>  <SCORE.INTER.VDW>
-18.5863

>  <SCORE.INTER.norm>
-0.710457

>  <SCORE.INTRA>
-1.00584

>  <SCORE.INTRA.DIHEDRAL>
-0.899089

>  <SCORE.INTRA.DIHEDRAL.0>
2.54655

>  <SCORE.INTRA.POLAR>
0

>  <SCORE.INTRA.POLAR.0>
0

>  <SCORE.INTRA.REPUL>
0

>  <SCORE.INTRA.REPUL.0>
0

>  <SCORE.INTRA.SOLV>
0.806825

>  <SCORE.INTRA.SOLV.lig_0>
-56.4922

>  <SCORE.INTRA.VDW>
-0.959713

>  <SCORE.INTRA.VDW.0>
-0.696801

>  <SCORE.INTRA.norm>
-0.0457202

>  <SCORE.RESTR>
0

>  <SCORE.RESTR.CAVITY>
0

>  <SCORE.RESTR.norm>
0

>  <SCORE.SYSTEM>
0

>  <SCORE.SYSTEM.CONST>
0

>  <SCORE.SYSTEM.DIHEDRAL>
0

>  <SCORE.SYSTEM.SOLV>
0

>  <SCORE.SYSTEM.norm>
0

>  <SCORE.heavy>
22

>  <SCORE.norm>
-0.756177

>  <RMSD>
6.681

$$$$
ligand
 OpenBabel02271912143D
libRbt.so/2013.1/901 2013/11/27
 22 24  0  0  0  0  0  0  0  0999 V2000
   23.8597  -21.3303   23.3005 N   0  0  0  0  0  0  0  0  0  0  0  0
   22.0335  -22.1850   24.5917 N   0  0  0  0  0  0  0  0  0  0  0  0
   22.6766  -21.1177   24.0903 C   0  0  0  0  0  0  0  0  0  0  0  0
   22.2555  -19.8767   24.3009 N   0  0  0  0  0  0  0  0  0  0  0  0
   18.3985  -18.6432   27.0629 O   0  0  0  0  0  0  0  0  0  0  0  0
   21.1513  -19.6564   25.0380 C   0  0  0  0  0  0  0  0  0  0  0  0
   20.4516  -20.7628   25.5955 C   0  0  0  0  0  0  0  0  0  0  0  0
   20.7354  -18.3596   25.2405 O   0  0  0  0  0  0  0  0  0  0  0  0
   19.2409  -20.6793   26.3883 N   0  0  0  0  0  0  0  0  0  0  0  0
   18.2209  -21.7059   26.1386 C   0  0  2  0  0  0  0  0  0  0  0  0
   18.8211  -23.0751   26.2146 C   0  0  0  0  0  0  0  0  0  0  0  0
   20.9231  -22.0257   25.3381 C   0  0  0  0  0  0  0  0  0  0  0  0
   20.2404  -23.1423   25.8725 N   0  0  0  0  0  0  0  0  0  0  0  0
   17.5049  -21.5555   24.7842 C   0  0  0  0  0  0  0  0  0  0  0  0
   16.6338  -20.3867   24.7953 N   0  0  0  0  0  0  0  0  0  0  0  0
   13.1454  -20.2840   27.2288 C   0  0  0  0  0  0  0  0  0  0  0  0
   14.2464  -19.5156   27.5677 C   0  0  0  0  0  0  0  0  0  0  0  0
   15.4039  -19.5442   26.7659 C   0  0  0  0  0  0  0  0  0  0  0  0
   15.4428  -20.3453   25.6347 C   0  0  0  0  0  0  0  0  0  0  0  0
   14.3346  -21.1164   25.2966 C   0  0  0  0  0  0  0  0  0  0  0  0
   13.1863  -21.0851   26.0920 C   0  0  0  0  0  0  0  0  0  0  0  0
   18.9838  -19.6713   27.3592 C   0  0  0  0  0  0  0  0  0  0  0  0
  1  3  1  0  0  0  0
  2  3  2  0  0  0  0
  2 12  1  0  0  0  0
  3  4  1  0  0  0  0
  4  6  1  0  0  0  0
  5 22  1  0  0  0  0
  6  7  1  0  0  0  0
  6  8  2  0  0  0  0
  7 12  2  0  0  0  0
  7  9  1  0  0  0  0
  9 10  1  0  0  0  0
  9 22  1  0  0  0  0
 10 11  1  0  0  0  0
 10 14  1  6  0  0  0
 11 13  1  0  0  0  0
 12 13  1  0  0  0  0
 14 15  1  0  0  0  0
 15 19  1  0  0  0  0
 16 17  2  0  0  0  0
 16 21  1  0  0  0  0
 17 18  1  0  0  0  0
 18 19  2  0  0  0  0
 19 20  1  0  0  0  0
 20 21  2  0  0  0  0
M  END
>  <CHROM.1>
91.93534040,-70.35508006,-67.74384283,107.66042793,18.65456642,-20.70919034
25.65967104,0.13900454,-0.21652142,-2.89714828

>  <Name>
ligand

>  <RI>
0

>  <Rbt.Current_Directory>
/home/itssahil/PROJECTS/Mol_Feturizer/Test_systems_manuscript/rnas/3sd3

>  <Rbt.Executable>
rbdock ($Id: //depot/dev/client3/rdock/2013.1/src/exe/rbdock.cxx#4 $)

>  <Rbt.Library>
libRbt.so (2013.1, Build901 2013/11/27)

>  <Rbt.Parameter_File>
/export/apps/rDock/src/rDock_2013.1_src/data/scripts/dock_solv.prm

>  <Rbt.Receptor>
prm/pocket_docking_5.prm

>  <SCORE>
-15.1626

>  <SCORE.INTER>
-13.6258

>  <SCORE.INTER.CONST>
1

>  <SCORE.INTER.POLAR>
0

>  <SCORE.INTER.ROT>
4

>  <SCORE.INTER.SOLV>
8.81075

>  <SCORE.INTER.VDW>
-18.2874

>  <SCORE.INTER.norm>
-0.619353

>  <SCORE.INTRA>
-1.53686

>  <SCORE.INTRA.DIHEDRAL>
-0.528783

>  <SCORE.INTRA.DIHEDRAL.0>
2.54655

>  <SCORE.INTRA.POLAR>
0

>  <SCORE.INTRA.POLAR.0>
0

>  <SCORE.INTRA.REPUL>
0

>  <SCORE.INTRA.REPUL.0>
0

>  <SCORE.INTRA.SOLV>
0.538223

>  <SCORE.INTRA.SOLV.lig_0>
-56.4922

>  <SCORE.INTRA.VDW>
-1.54158

>  <SCORE.INTRA.VDW.0>
-0.696801

>  <SCORE.INTRA.norm>
-0.0698572

>  <SCORE.RESTR>
0

>  <SCORE.RESTR.CAVITY>
0

>  <SCORE.RESTR.norm>
0

>  <SCORE.SYSTEM>
0

>  <SCORE.SYSTEM.CONST>
0

>  <SCORE.SYSTEM.DIHEDRAL>
0

>  <SCORE.SYSTEM.SOLV>
0

>  <SCORE.SYSTEM.norm>
0

>  <SCORE.heavy>
22

>  <SCORE.norm>
-0.68921

>  <RMSD>
6.683

$$$$
ligand
 OpenBabel02271912143D
libRbt.so/2013.1/901 2013/11/27
 22 24  0  0  0  0  0  0  0  0999 V2000
   23.6684  -21.3388   26.0400 N   0  0  0  0  0  0  0  0  0  0  0  0
   22.0104  -19.7337   25.4015 N   0  0  0  0  0  0  0  0  0  0  0  0
   22.3333  -21.0208   25.6095 C   0  0  0  0  0  0  0  0  0  0  0  0
   21.4612  -22.0052   25.4305 N   0  0  0  0  0  0  0  0  0  0  0  0
   17.0162  -21.5728   23.7759 O   0  0  0  0  0  0  0  0  0  0  0  0
   20.2074  -21.7288   25.0270 C   0  0  0  0  0  0  0  0  0  0  0  0
   19.8337  -20.3775   24.7848 C   0  0  0  0  0  0  0  0  0  0  0  0
   19.3221  -22.7683   24.8497 O   0  0  0  0  0  0  0  0  0  0  0  0
   18.5189  -19.9299   24.3698 N   0  0  0  0  0  0  0  0  0  0  0  0
   18.0233  -18.6912   24.9837 C   0  0  2  0  0  0  0  0  0  0  0  0
   19.0332  -17.5947   24.8480 C   0  0  0  0  0  0  0  0  0  0  0  0
   20.7705  -19.3970   24.9958 C   0  0  0  0  0  0  0  0  0  0  0  0
   20.4214  -18.0455   24.7715 N   0  0  0  0  0  0  0  0  0  0  0  0
   17.6517  -18.8387   26.4702 C   0  0  0  0  0  0  0  0  0  0  0  0
   17.0387  -20.1383   26.7158 N   0  0  0  0  0  0  0  0  0  0  0  0
   12.8183  -20.6498   26.5485 C   0  0  0  0  0  0  0  0  0  0  0  0
   13.3783  -19.8493   27.5300 C   0  0  0  0  0  0  0  0  0  0  0  0
   14.7745  -19.6751   27.5903 C   0  0  0  0  0  0  0  0  0  0  0  0
   15.5918  -20.3079   26.6659 C   0  0  0  0  0  0  0  0  0  0  0  0
   15.0260  -21.1117   25.6806 C   0  0  0  0  0  0  0  0  0  0  0  0
   13.6405  -21.2818   25.6209 C   0  0  0  0  0  0  0  0  0  0  0  0
   17.6934  -20.6170   23.4365 C   0  0  0  0  0  0  0  0  0  0  0  0
  1  3  1  0  0  0  0
  2  3  2  0  0  0  0
  2 12  1  0  0  0  0
  3  4  1  0  0  0  0
  4  6  1  0  0  0  0
  5 22  1  0  0  0  0
  6  7  1  0  0  0  0
  6  8  2  0  0  0  0
  7 12  2  0  0  0  0
  7  9  1  0  0  0  0
  9 10  1  0  0  0  0
  9 22  1  0  0  0  0
 10 11  1  0  0  0  0
 10 14  1  1  0  0  0
 11 13  1  0  0  0  0
 12 13  1  0  0  0  0
 14 15  1  0  0  0  0
 15 19  1  0  0  0  0
 16 17  2  0  0  0  0
 16 21  1  0  0  0  0
 17 18  1  0  0  0  0
 18 19  2  0  0  0  0
 19 20  1  0  0  0  0
 20 21  2  0  0  0  0
M  END
>  <CHROM.1>
80.97763877,-37.37688377,-92.67817839,-65.22530135,18.28551584,-20.31789838
25.45779515,0.04948440,-0.14978226,-2.98516934

>  <Name>
ligand

>  <RI>
0

>  <Rbt.Current_Directory>
/home/itssahil/PROJECTS/Mol_Feturizer/Test_systems_manuscript/rnas/3sd3

>  <Rbt.Executable>
rbdock ($Id: //depot/dev/client3/rdock/2013.1/src/exe/rbdock.cxx#4 $)

>  <Rbt.Library>
libRbt.so (2013.1, Build901 2013/11/27)

>  <Rbt.Parameter_File>
/export/apps/rDock/src/rDock_2013.1_src/data/scripts/dock_solv.prm

>  <Rbt.Receptor>
prm/pocket_docking_7.prm

>  <SCORE>
-12.5775

>  <SCORE.INTER>
-12.469

>  <SCORE.INTER.CONST>
1

>  <SCORE.INTER.POLAR>
0

>  <SCORE.INTER.ROT>
4

>  <SCORE.INTER.SOLV>
4.78134

>  <SCORE.INTER.VDW>
-16.1731

>  <SCORE.INTER.norm>
-0.566771

>  <SCORE.INTRA>
-0.108577

>  <SCORE.INTRA.DIHEDRAL>
1.39256

>  <SCORE.INTRA.DIHEDRAL.0>
2.54655

>  <SCORE.INTRA.POLAR>
0

>  <SCORE.INTRA.POLAR.0>
0

>  <SCORE.INTRA.REPUL>
0

>  <SCORE.INTRA.REPUL.0>
0

>  <SCORE.INTRA.SOLV>
1.37371

>  <SCORE.INTRA.SOLV.lig_0>
-56.4922

>  <SCORE.INTRA.VDW>
-1.49171

>  <SCORE.INTRA.VDW.0>
-0.696801

>  <SCORE.INTRA.norm>
-0.0049353

>  <SCORE.RESTR>
0

>  <SCORE.RESTR.CAVITY>
0

>  <SCORE.RESTR.norm>
0

>  <SCORE.SYSTEM>
0

>  <SCORE.SYSTEM.CONST>
0

>  <SCORE.SYSTEM.DIHEDRAL>
0

>  <SCORE.SYSTEM.SOLV>
0

>  <SCORE.SYSTEM.norm>
0

>  <SCORE.heavy>
22

>  <SCORE.norm>
-0.571706

>  <RMSD>
6.696

$$$$
ligand
 OpenBabel02271912143D
libRbt.so/2013.1/901 2013/11/27
 22 24  0  0  0  0  0  0  0  0999 V2000
   24.5771  -20.7540   26.6217 N   0  0  0  0  0  0  0  0  0  0  0  0
   22.5379  -21.8356   25.9853 N   0  0  0  0  0  0  0  0  0  0  0  0
   23.1756  -21.0048   26.8263 C   0  0  0  0  0  0  0  0  0  0  0  0
   22.5544  -20.4102   27.8374 N   0  0  0  0  0  0  0  0  0  0  0  0
   17.8450  -21.0905   29.0385 O   0  0  0  0  0  0  0  0  0  0  0  0
   21.2437  -20.6324   28.0466 C   0  0  0  0  0  0  0  0  0  0  0  0
   20.5388  -21.5166   27.1830 C   0  0  0  0  0  0  0  0  0  0  0  0
   20.6231  -20.0025   29.1019 O   0  0  0  0  0  0  0  0  0  0  0  0
   19.1270  -21.8327   27.2734 N   0  0  0  0  0  0  0  0  0  0  0  0
   18.3972  -21.9454   26.0039 C   0  0  2  0  0  0  0  0  0  0  0  0
   19.1005  -22.8828   25.0727 C   0  0  0  0  0  0  0  0  0  0  0  0
   21.2260  -22.0967   26.1463 C   0  0  0  0  0  0  0  0  0  0  0  0
   20.5462  -22.9716   25.2682 N   0  0  0  0  0  0  0  0  0  0  0  0
   18.1876  -20.6004   25.2850 C   0  0  0  0  0  0  0  0  0  0  0  0
   17.3229  -19.7306   26.0730 N   0  0  0  0  0  0  0  0  0  0  0  0
   13.2274  -20.7120   26.6773 C   0  0  0  0  0  0  0  0  0  0  0  0
   13.8535  -19.8115   27.5226 C   0  0  0  0  0  0  0  0  0  0  0  0
   15.2087  -19.4816   27.3275 C   0  0  0  0  0  0  0  0  0  0  0  0
   15.9194  -20.0610   26.2874 C   0  0  0  0  0  0  0  0  0  0  0  0
   15.2874  -20.9656   25.4393 C   0  0  0  0  0  0  0  0  0  0  0  0
   13.9423  -21.2901   25.6330 C   0  0  0  0  0  0  0  0  0  0  0  0
   18.4213  -22.0178   28.4950 C   0  0  0  0  0  0  0  0  0  0  0  0
  1  3  1  0  0  0  0
  2  3  2  0  0  0  0
  2 12  1  0  0  0  0
  3  4  1  0  0  0  0
  4  6  1  0  0  0  0
  5 22  1  0  0  0  0
  6  7  1  0  0  0  0
  6  8  2  0  0  0  0
  7 12  2  0  0  0  0
  7  9  1  0  0  0  0
  9 10  1  0  0  0  0
  9 22  1  0  0  0  0
 10 11  1  0  0  0  0
 10 14  1  6  0  0  0
 11 13  1  0  0  0  0
 12 13  1  0  0  0  0
 14 15  1  0  0  0  0
 15 19  1  0  0  0  0
 16 17  2  0  0  0  0
 16 21  1  0  0  0  0
 17 18  1  0  0  0  0
 18 19  2  0  0  0  0
 19 20  1  0  0  0  0
 20 21  2  0  0  0  0
M  END
>  <CHROM.1>
92.39485151,-65.19050359,-66.83663923,160.76695983,18.87034239,-21.08658050
26.81803449,-0.00372376,-0.10482025,1.07230294

>  <Name>
ligand

>  <RI>
0

>  <Rbt.Current_Directory>
/home/itssahil/PROJECTS/Mol_Feturizer/Test_systems_manuscript/rnas/3sd3

>  <Rbt.Executable>
rbdock ($Id: //depot/dev/client3/rdock/2013.1/src/exe/rbdock.cxx#4 $)

>  <Rbt.Library>
libRbt.so (2013.1, Build901 2013/11/27)

>  <Rbt.Parameter_File>
/export/apps/rDock/src/rDock_2013.1_src/data/scripts/dock_solv.prm

>  <Rbt.Receptor>
prm/pocket_docking_3.prm

>  <SCORE>
-15.6404

>  <SCORE.INTER>
-14.5333

>  <SCORE.INTER.CONST>
1

>  <SCORE.INTER.POLAR>
0

>  <SCORE.INTER.ROT>
4

>  <SCORE.INTER.SOLV>
7.96556

>  <SCORE.INTER.VDW>
-18.6107

>  <SCORE.INTER.norm>
-0.660606

>  <SCORE.INTRA>
-1.10903

>  <SCORE.INTRA.DIHEDRAL>
-0.812116

>  <SCORE.INTRA.DIHEDRAL.0>
2.54655

>  <SCORE.INTRA.POLAR>
0

>  <SCORE.INTRA.POLAR.0>
0

>  <SCORE.INTRA.REPUL>
0

>  <SCORE.INTRA.REPUL.0>
0

>  <SCORE.INTRA.SOLV>
0.637995

>  <SCORE.INTRA.SOLV.lig_0>
-56.4922

>  <SCORE.INTRA.VDW>
-1.02197

>  <SCORE.INTRA.VDW.0>
-0.696801

>  <SCORE.INTRA.norm>
-0.0504103

>  <SCORE.RESTR>
0.00192014

>  <SCORE.RESTR.CAVITY>
0.00192014

>  <SCORE.RESTR.norm>
8.7279e-05

>  <SCORE.SYSTEM>
0

>  <SCORE.SYSTEM.CONST>
0

>  <SCORE.SYSTEM.DIHEDRAL>
0

>  <SCORE.SYSTEM.SOLV>
0

>  <SCORE.SYSTEM.norm>
0

>  <SCORE.heavy>
22

>  <SCORE.norm>
-0.710929

>  <RMSD>
6.718

$$$$
ligand
 OpenBabel02271912143D
libRbt.so/2013.1/901 2013/11/27
 22 24  0  0  0  0  0  0  0  0999 V2000
   24.5422  -21.1776   27.5851 N   0  0  0  0  0  0  0  0  0  0  0  0
   22.5979  -22.0694   26.5093 N   0  0  0  0  0  0  0  0  0  0  0  0
   23.1212  -21.3969   27.5476 C   0  0  0  0  0  0  0  0  0  0  0  0
   22.3697  -20.9301   28.5372 N   0  0  0  0  0  0  0  0  0  0  0  0
   17.7001  -21.5820   29.0849 O   0  0  0  0  0  0  0  0  0  0  0  0
   21.0383  -21.1257   28.5214 C   0  0  0  0  0  0  0  0  0  0  0  0
   20.4509  -21.8449   27.4434 C   0  0  0  0  0  0  0  0  0  0  0  0
   20.2817  -20.6306   29.5597 O   0  0  0  0  0  0  0  0  0  0  0  0
   19.0352  -22.1118   27.2829 N   0  0  0  0  0  0  0  0  0  0  0  0
   18.4982  -22.0083   25.9199 C   0  0  2  0  0  0  0  0  0  0  0  0
   19.3122  -22.8289   24.9688 C   0  0  0  0  0  0  0  0  0  0  0  0
   21.2716  -22.2963   26.4403 C   0  0  0  0  0  0  0  0  0  0  0  0
   20.7113  -23.0053   25.3532 N   0  0  0  0  0  0  0  0  0  0  0  0
   18.4238  -20.5656   25.3881 C   0  0  0  0  0  0  0  0  0  0  0  0
   17.1207  -20.3108   24.7864 N   0  0  0  0  0  0  0  0  0  0  0  0
   13.5527  -20.4753   27.0979 C   0  0  0  0  0  0  0  0  0  0  0  0
   14.6064  -19.6773   27.5107 C   0  0  0  0  0  0  0  0  0  0  0  0
   15.7899  -19.6177   26.7496 C   0  0  0  0  0  0  0  0  0  0  0  0
   15.9019  -20.3611   25.5845 C   0  0  0  0  0  0  0  0  0  0  0  0
   14.8411  -21.1620   25.1721 C   0  0  0  0  0  0  0  0  0  0  0  0
   13.6668  -21.2184   25.9272 C   0  0  0  0  0  0  0  0  0  0  0  0
   18.1536  -22.4429   28.3497 C   0  0  0  0  0  0  0  0  0  0  0  0
  1  3  1  0  0  0  0
  2  3  2  0  0  0  0
  2 12  1  0  0  0  0
  3  4  1  0  0  0  0
  4  6  1  0  0  0  0
  5 22  1  0  0  0  0
  6  7  1  0  0  0  0
  6  8  2  0  0  0  0
  7 12  2  0  0  0  0
  7  9  1  0  0  0  0
  9 10  1  0  0  0  0
  9 22  1  0  0  0  0
 10 11  1  0  0  0  0
 10 14  1  6  0  0  0
 11 13  1  0  0  0  0
 12 13  1  0  0  0  0
 14 15  1  0  0  0  0
 15 19  1  0  0  0  0
 16 17  2  0  0  0  0
 16 21  1  0  0  0  0
 17 18  1  0  0  0  0
 18 19  2  0  0  0  0
 19 20  1  0  0  0  0
 20 21  2  0  0  0  0
M  END
>  <CHROM.1>
79.69877526,-132.67770714,63.26484021,53.05836732,18.86844177,-21.33277445
26.92013503,0.11935092,-0.17056667,1.30685315

>  <Name>
ligand

>  <RI>
0

>  <Rbt.Current_Directory>
/home/itssahil/PROJECTS/Mol_Feturizer/Test_systems_manuscript/rnas/3sd3

>  <Rbt.Executable>
rbdock ($Id: //depot/dev/client3/rdock/2013.1/src/exe/rbdock.cxx#4 $)

>  <Rbt.Library>
libRbt.so (2013.1, Build901 2013/11/27)

>  <Rbt.Parameter_File>
/export/apps/rDock/src/rDock_2013.1_src/data/scripts/dock_solv.prm

>  <Rbt.Receptor>
prm/pocket_docking_5.prm

>  <SCORE>
-15.2132

>  <SCORE.INTER>
-15.633

>  <SCORE.INTER.CONST>
1

>  <SCORE.INTER.POLAR>
0

>  <SCORE.INTER.ROT>
4

>  <SCORE.INTER.SOLV>
9.18516

>  <SCORE.INTER.VDW>
-19.7504

>  <SCORE.INTER.norm>
-0.710591

>  <SCORE.INTRA>
0.419793

>  <SCORE.INTRA.DIHEDRAL>
3.74363

>  <SCORE.INTRA.DIHEDRAL.0>
2.54655

>  <SCORE.INTRA.POLAR>
0

>  <SCORE.INTRA.POLAR.0>
0

>  <SCORE.INTRA.REPUL>
0

>  <SCORE.INTRA.REPUL.0>
0

>  <SCORE.INTRA.SOLV>
-0.585854

>  <SCORE.INTRA.SOLV.lig_0>
-56.4922

>  <SCORE.INTRA.VDW>
-1.1591

>  <SCORE.INTRA.VDW.0>
-0.696801

>  <SCORE.INTRA.norm>
0.0190815

>  <SCORE.RESTR>
0

>  <SCORE.RESTR.CAVITY>
0

>  <SCORE.RESTR.norm>
0

>  <SCORE.SYSTEM>
0

>  <SCORE.SYSTEM.CONST>
0

>  <SCORE.SYSTEM.DIHEDRAL>
0

>  <SCORE.SYSTEM.SOLV>
0

>  <SCORE.SYSTEM.norm>
0

>  <SCORE.heavy>
22

>  <SCORE.norm>
-0.691509

>  <RMSD>
6.719

$$$$
ligand
 OpenBabel02271912143D
libRbt.so/2013.1/901 2013/11/27
 22 24  0  0  0  0  0  0  0  0999 V2000
   25.3549  -22.2132   26.4255 N   0  0  0  0  0  0  0  0  0  0  0  0
   23.4095  -22.6256   25.0920 N   0  0  0  0  0  0  0  0  0  0  0  0
   23.9250  -22.2676   26.2795 C   0  0  0  0  0  0  0  0  0  0  0  0
   23.1580  -21.9636   27.3193 N   0  0  0  0  0  0  0  0  0  0  0  0
   17.6488  -22.7828   26.4060 O   0  0  0  0  0  0  0  0  0  0  0  0
   21.8180  -22.0094   27.2036 C   0  0  0  0  0  0  0  0  0  0  0  0
   21.2369  -22.3968   25.9640 C   0  0  0  0  0  0  0  0  0  0  0  0
   21.0454  -21.6885   28.2971 O   0  0  0  0  0  0  0  0  0  0  0  0
   19.8158  -22.4697   25.6876 N   0  0  0  0  0  0  0  0  0  0  0  0
   19.3795  -22.0010   24.3659 C   0  0  2  0  0  0  0  0  0  0  0  0
   20.1733  -22.6628   23.2832 C   0  0  0  0  0  0  0  0  0  0  0  0
   22.0750  -22.6901   24.9175 C   0  0  0  0  0  0  0  0  0  0  0  0
   21.5224  -23.0684   23.6725 N   0  0  0  0  0  0  0  0  0  0  0  0
   19.4733  -20.4752   24.1844 C   0  0  0  0  0  0  0  0  0  0  0  0
   18.5923  -19.7948   25.1257 N   0  0  0  0  0  0  0  0  0  0  0  0
   14.5346  -20.9975   25.5611 C   0  0  0  0  0  0  0  0  0  0  0  0
   15.2095  -20.4434   26.6358 C   0  0  0  0  0  0  0  0  0  0  0  0
   16.5524  -20.0423   26.4981 C   0  0  0  0  0  0  0  0  0  0  0  0
   17.2022  -20.2040   25.2838 C   0  0  0  0  0  0  0  0  0  0  0  0
   16.5212  -20.7611   24.2054 C   0  0  0  0  0  0  0  0  0  0  0  0
   15.1882  -21.1565   24.3432 C   0  0  0  0  0  0  0  0  0  0  0  0
   18.8406  -22.9418   26.6100 C   0  0  0  0  0  0  0  0  0  0  0  0
  1  3  1  0  0  0  0
  2  3  2  0  0  0  0
  2 12  1  0  0  0  0
  3  4  1  0  0  0  0
  4  6  1  0  0  0  0
  5 22  1  0  0  0  0
  6  7  1  0  0  0  0
  6  8  2  0  0  0  0
  7 12  2  0  0  0  0
  7  9  1  0  0  0  0
  9 10  1  0  0  0  0
  9 22  1  0  0  0  0
 10 11  1  0  0  0  0
 10 14  1  1  0  0  0
 11 13  1  0  0  0  0
 12 13  1  0  0  0  0
 14 15  1  0  0  0  0
 15 19  1  0  0  0  0
 16 17  2  0  0  0  0
 16 21  1  0  0  0  0
 17 18  1  0  0  0  0
 18 19  2  0  0  0  0
 19 20  1  0  0  0  0
 20 21  2  0  0  0  0
M  END
>  <CHROM.1>
168.15009962,-62.63118340,-48.75461861,150.29519545,19.74872068,-21.74632175
25.62960582,0.06253148,-0.22004108,1.42927957

>  <Name>
ligand

>  <RI>
0

>  <Rbt.Current_Directory>
/home/itssahil/PROJECTS/Mol_Feturizer/Test_systems_manuscript/rnas/3sd3

>  <Rbt.Executable>
rbdock ($Id: //depot/dev/client3/rdock/2013.1/src/exe/rbdock.cxx#4 $)

>  <Rbt.Library>
libRbt.so (2013.1, Build901 2013/11/27)

>  <Rbt.Parameter_File>
/export/apps/rDock/src/rDock_2013.1_src/data/scripts/dock_solv.prm

>  <Rbt.Receptor>
prm/pocket_docking_3.prm

>  <SCORE>
-13.3161

>  <SCORE.INTER>
-12.475

>  <SCORE.INTER.CONST>
1

>  <SCORE.INTER.POLAR>
0

>  <SCORE.INTER.ROT>
4

>  <SCORE.INTER.SOLV>
6.89105

>  <SCORE.INTER.VDW>
-16.8803

>  <SCORE.INTER.norm>
-0.567044

>  <SCORE.INTRA>
-0.84108

>  <SCORE.INTRA.DIHEDRAL>
-0.773341

>  <SCORE.INTRA.DIHEDRAL.0>
2.54655

>  <SCORE.INTRA.POLAR>
0

>  <SCORE.INTRA.POLAR.0>
0

>  <SCORE.INTRA.REPUL>
0

>  <SCORE.INTRA.REPUL.0>
0

>  <SCORE.INTRA.SOLV>
0.800588

>  <SCORE.INTRA.SOLV.lig_0>
-56.4922

>  <SCORE.INTRA.VDW>
-0.854704

>  <SCORE.INTRA.VDW.0>
-0.696801

>  <SCORE.INTRA.norm>
-0.0382309

>  <SCORE.RESTR>
0

>  <SCORE.RESTR.CAVITY>
0

>  <SCORE.RESTR.norm>
0

>  <SCORE.SYSTEM>
0

>  <SCORE.SYSTEM.CONST>
0

>  <SCORE.SYSTEM.DIHEDRAL>
0

>  <SCORE.SYSTEM.SOLV>
0

>  <SCORE.SYSTEM.norm>
0

>  <SCORE.heavy>
22

>  <SCORE.norm>
-0.605275

>  <RMSD>
6.722

$$$$
ligand
 OpenBabel02271912143D
libRbt.so/2013.1/901 2013/11/27
 22 24  0  0  0  0  0  0  0  0999 V2000
   24.5508  -20.6288   26.5435 N   0  0  0  0  0  0  0  0  0  0  0  0
   22.5273  -21.7556   25.9364 N   0  0  0  0  0  0  0  0  0  0  0  0
   23.1574  -20.9075   26.7658 C   0  0  0  0  0  0  0  0  0  0  0  0
   22.5358  -20.3206   27.7812 N   0  0  0  0  0  0  0  0  0  0  0  0
   17.8462  -21.0949   29.0351 O   0  0  0  0  0  0  0  0  0  0  0  0
   21.2325  -20.5689   28.0069 C   0  0  0  0  0  0  0  0  0  0  0  0
   20.5360  -21.4719   27.1560 C   0  0  0  0  0  0  0  0  0  0  0  0
   20.6113  -19.9465   29.0663 O   0  0  0  0  0  0  0  0  0  0  0  0
   19.1323  -21.8168   27.2645 N   0  0  0  0  0  0  0  0  0  0  0  0
   18.3902  -21.9511   26.0043 C   0  0  2  0  0  0  0  0  0  0  0  0
   19.1019  -22.8785   25.0695 C   0  0  0  0  0  0  0  0  0  0  0  0
   21.2230  -22.0430   26.1141 C   0  0  0  0  0  0  0  0  0  0  0  0
   20.5513  -22.9364   25.2485 N   0  0  0  0  0  0  0  0  0  0  0  0
   18.1444  -20.6145   25.2813 C   0  0  0  0  0  0  0  0  0  0  0  0
   17.2896  -19.7497   26.0855 N   0  0  0  0  0  0  0  0  0  0  0  0
   13.1718  -20.6390   26.6803 C   0  0  0  0  0  0  0  0  0  0  0  0
   13.8638  -21.2364   25.6403 C   0  0  0  0  0  0  0  0  0  0  0  0
   15.2273  -20.9471   25.4385 C   0  0  0  0  0  0  0  0  0  0  0  0
   15.8790  -20.0602   26.2819 C   0  0  0  0  0  0  0  0  0  0  0  0
   15.1809  -19.4615   27.3265 C   0  0  0  0  0  0  0  0  0  0  0  0
   13.8288  -19.7513   27.5266 C   0  0  0  0  0  0  0  0  0  0  0  0
   18.4449  -22.0101   28.4953 C   0  0  0  0  0  0  0  0  0  0  0  0
  1  3  1  0  0  0  0
  2  3  2  0  0  0  0
  2 12  1  0  0  0  0
  3  4  1  0  0  0  0
  4  6  1  0  0  0  0
  5 22  1  0  0  0  0
  6  7  1  0  0  0  0
  6  8  2  0  0  0  0
  7 12  2  0  0  0  0
  7  9  1  0  0  0  0
  9 10  1  0  0  0  0
  9 22  1  0  0  0  0
 10 11  1  0  0  0  0
 10 14  1  6  0  0  0
 11 13  1  0  0  0  0
 12 13  1  0  0  0  0
 14 15  1  0  0  0  0
 15 19  1  0  0  0  0
 16 17  2  0  0  0  0
 16 21  1  0  0  0  0
 17 18  1  0  0  0  0
 18 19  2  0  0  0  0
 19 20  1  0  0  0  0
 20 21  2  0  0  0  0
M  END
>  <CHROM.1>
93.03286638,-64.22120937,-70.04954312,-17.93525106,18.85151156,-21.04836036
26.79972349,-0.00787121,-0.09635694,1.06443000

>  <Name>
ligand

>  <RI>
0

>  <Rbt.Current_Directory>
/home/itssahil/PROJECTS/Mol_Feturizer/Test_systems_manuscript/rnas/3sd3

>  <Rbt.Executable>
rbdock ($Id: //depot/dev/client3/rdock/2013.1/src/exe/rbdock.cxx#4 $)

>  <Rbt.Library>
libRbt.so (2013.1, Build901 2013/11/27)

>  <Rbt.Parameter_File>
/export/apps/rDock/src/rDock_2013.1_src/data/scripts/dock_solv.prm

>  <Rbt.Receptor>
prm/pocket_docking_3.prm

>  <SCORE>
-15.5372

>  <SCORE.INTER>
-14.4369

>  <SCORE.INTER.CONST>
1

>  <SCORE.INTER.POLAR>
0

>  <SCORE.INTER.ROT>
4

>  <SCORE.INTER.SOLV>
7.8972

>  <SCORE.INTER.VDW>
-18.5237

>  <SCORE.INTER.norm>
-0.656222

>  <SCORE.INTRA>
-1.10492

>  <SCORE.INTRA.DIHEDRAL>
-0.799075

>  <SCORE.INTRA.DIHEDRAL.0>
2.54655

>  <SCORE.INTRA.POLAR>
0

>  <SCORE.INTRA.POLAR.0>
0

>  <SCORE.INTRA.REPUL>
0

>  <SCORE.INTRA.REPUL.0>
0

>  <SCORE.INTRA.SOLV>
0.645639

>  <SCORE.INTRA.SOLV.lig_0>
-56.4922

>  <SCORE.INTRA.VDW>
-1.02821

>  <SCORE.INTRA.VDW.0>
-0.696801

>  <SCORE.INTRA.norm>
-0.0502238

>  <SCORE.RESTR>
0.00464325

>  <SCORE.RESTR.CAVITY>
0.00464325

>  <SCORE.RESTR.norm>
0.000211057

>  <SCORE.SYSTEM>
0

>  <SCORE.SYSTEM.CONST>
0

>  <SCORE.SYSTEM.DIHEDRAL>
0

>  <SCORE.SYSTEM.SOLV>
0

>  <SCORE.SYSTEM.norm>
0

>  <SCORE.heavy>
22

>  <SCORE.norm>
-0.706235

>  <RMSD>
6.727

$$$$
ligand
 OpenBabel02271912143D
libRbt.so/2013.1/901 2013/11/27
 22 24  0  0  0  0  0  0  0  0999 V2000
   24.8674  -22.0896   25.9773 N   0  0  0  0  0  0  0  0  0  0  0  0
   22.7415  -22.3650   24.9107 N   0  0  0  0  0  0  0  0  0  0  0  0
   23.4320  -22.1524   26.0431 C   0  0  0  0  0  0  0  0  0  0  0  0
   22.8323  -21.9991   27.2173 N   0  0  0  0  0  0  0  0  0  0  0  0
   18.0573  -22.3284   28.0100 O   0  0  0  0  0  0  0  0  0  0  0  0
   21.4903  -22.0556   27.3004 C   0  0  0  0  0  0  0  0  0  0  0  0
   20.7271  -22.2919   26.1230 C   0  0  0  0  0  0  0  0  0  0  0  0
   20.8933  -21.8926   28.5302 O   0  0  0  0  0  0  0  0  0  0  0  0
   19.2805  -22.3562   26.0573 N   0  0  0  0  0  0  0  0  0  0  0  0
   18.6482  -21.7303   24.8887 C   0  0  2  0  0  0  0  0  0  0  0  0
   19.2677  -22.2323   23.6219 C   0  0  0  0  0  0  0  0  0  0  0  0
   21.3960  -22.4324   24.9329 C   0  0  0  0  0  0  0  0  0  0  0  0
   20.6602  -22.6585   23.7472 N   0  0  0  0  0  0  0  0  0  0  0  0
   18.7140  -20.1924   24.8945 C   0  0  0  0  0  0  0  0  0  0  0  0
   17.4155  -19.6253   24.5519 N   0  0  0  0  0  0  0  0  0  0  0  0
   13.9352  -20.6201   26.7879 C   0  0  0  0  0  0  0  0  0  0  0  0
   14.1501  -21.2021   25.5499 C   0  0  0  0  0  0  0  0  0  0  0  0
   15.3006  -20.8779   24.8051 C   0  0  0  0  0  0  0  0  0  0  0  0
   16.2204  -19.9720   25.3112 C   0  0  0  0  0  0  0  0  0  0  0  0
   16.0018  -19.3888   26.5558 C   0  0  0  0  0  0  0  0  0  0  0  0
   14.8609  -19.7133   27.2943 C   0  0  0  0  0  0  0  0  0  0  0  0
   18.4569  -22.9614   27.0473 C   0  0  0  0  0  0  0  0  0  0  0  0
  1  3  1  0  0  0  0
  2  3  2  0  0  0  0
  2 12  1  0  0  0  0
  3  4  1  0  0  0  0
  4  6  1  0  0  0  0
  5 22  1  0  0  0  0
  6  7  1  0  0  0  0
  6  8  2  0  0  0  0
  7 12  2  0  0  0  0
  7  9  1  0  0  0  0
  9 10  1  0  0  0  0
  9 22  1  0  0  0  0
 10 11  1  0  0  0  0
 10 14  1  1  0  0  0
 11 13  1  0  0  0  0
 12 13  1  0  0  0  0
 14 15  1  0  0  0  0
 15 19  1  0  0  0  0
 16 17  2  0  0  0  0
 16 21  1  0  0  0  0
 17 18  1  0  0  0  0
 18 19  2  0  0  0  0
 19 20  1  0  0  0  0
 20 21  2  0  0  0  0
M  END
>  <CHROM.1>
88.00735993,-133.96536889,55.83621806,-102.54308525,19.15810981,-21.54367824
25.94125828,-0.02387587,0.23997740,-1.50238545

>  <Name>
ligand

>  <RI>
0

>  <Rbt.Current_Directory>
/home/itssahil/PROJECTS/Mol_Feturizer/Test_systems_manuscript/rnas/3sd3

>  <Rbt.Executable>
rbdock ($Id: //depot/dev/client3/rdock/2013.1/src/exe/rbdock.cxx#4 $)

>  <Rbt.Library>
libRbt.so (2013.1, Build901 2013/11/27)

>  <Rbt.Parameter_File>
/export/apps/rDock/src/rDock_2013.1_src/data/scripts/dock_solv.prm

>  <Rbt.Receptor>
prm/pocket_docking_3.prm

>  <SCORE>
-14.7912

>  <SCORE.INTER>
-14.9617

>  <SCORE.INTER.CONST>
1

>  <SCORE.INTER.POLAR>
0

>  <SCORE.INTER.ROT>
4

>  <SCORE.INTER.SOLV>
7.8451

>  <SCORE.INTER.VDW>
-18.8561

>  <SCORE.INTER.norm>
-0.680075

>  <SCORE.INTRA>
0.170443

>  <SCORE.INTRA.DIHEDRAL>
3.63375

>  <SCORE.INTRA.DIHEDRAL.0>
2.54655

>  <SCORE.INTRA.POLAR>
0

>  <SCORE.INTRA.POLAR.0>
0

>  <SCORE.INTRA.REPUL>
0

>  <SCORE.INTRA.REPUL.0>
0

>  <SCORE.INTRA.SOLV>
-0.640349

>  <SCORE.INTRA.SOLV.lig_0>
-56.4922

>  <SCORE.INTRA.VDW>
-1.32626

>  <SCORE.INTRA.VDW.0>
-0.696801

>  <SCORE.INTRA.norm>
0.00774741

>  <SCORE.RESTR>
0

>  <SCORE.RESTR.CAVITY>
0

>  <SCORE.RESTR.norm>
0

>  <SCORE.SYSTEM>
0

>  <SCORE.SYSTEM.CONST>
0

>  <SCORE.SYSTEM.DIHEDRAL>
0

>  <SCORE.SYSTEM.SOLV>
0

>  <SCORE.SYSTEM.norm>
0

>  <SCORE.heavy>
22

>  <SCORE.norm>
-0.672328

>  <RMSD>
6.730

$$$$
ligand
 OpenBabel02271912143D
libRbt.so/2013.1/901 2013/11/27
 22 24  0  0  0  0  0  0  0  0999 V2000
   24.8306  -22.1348   25.1675 N   0  0  0  0  0  0  0  0  0  0  0  0
   22.6558  -22.3229   24.1837 N   0  0  0  0  0  0  0  0  0  0  0  0
   23.3998  -22.2066   25.2959 C   0  0  0  0  0  0  0  0  0  0  0  0
   22.8571  -22.1562   26.5062 N   0  0  0  0  0  0  0  0  0  0  0  0
   18.0958  -22.5540   27.4785 O   0  0  0  0  0  0  0  0  0  0  0  0
   21.5205  -22.2230   26.6480 C   0  0  0  0  0  0  0  0  0  0  0  0
   20.7016  -22.3592   25.4924 C   0  0  0  0  0  0  0  0  0  0  0  0
   20.9830  -22.1677   27.9143 O   0  0  0  0  0  0  0  0  0  0  0  0
   19.2534  -22.4212   25.4904 N   0  0  0  0  0  0  0  0  0  0  0  0
   18.5671  -21.6988   24.4114 C   0  0  2  0  0  0  0  0  0  0  0  0
   19.1247  -22.0887   23.0781 C   0  0  0  0  0  0  0  0  0  0  0  0
   21.3128  -22.3953   24.2641 C   0  0  0  0  0  0  0  0  0  0  0  0
   20.5209  -22.5205   23.0997 N   0  0  0  0  0  0  0  0  0  0  0  0
   18.6356  -20.1669   24.5462 C   0  0  0  0  0  0  0  0  0  0  0  0
   17.3139  -19.5796   24.3639 N   0  0  0  0  0  0  0  0  0  0  0  0
   14.0628  -20.6830   26.8766 C   0  0  0  0  0  0  0  0  0  0  0  0
   14.1855  -21.2481   25.6184 C   0  0  0  0  0  0  0  0  0  0  0  0
   15.2598  -20.8879   24.7821 C   0  0  0  0  0  0  0  0  0  0  0  0
   16.1969  -19.9635   25.2181 C   0  0  0  0  0  0  0  0  0  0  0  0
   16.0711  -19.3974   26.4833 C   0  0  0  0  0  0  0  0  0  0  0  0
   15.0058  -19.7575   27.3126 C   0  0  0  0  0  0  0  0  0  0  0  0
   18.4770  -23.1113   26.4628 C   0  0  0  0  0  0  0  0  0  0  0  0
  1  3  1  0  0  0  0
  2  3  2  0  0  0  0
  2 12  1  0  0  0  0
  3  4  1  0  0  0  0
  4  6  1  0  0  0  0
  5 22  1  0  0  0  0
  6  7  1  0  0  0  0
  6  8  2  0  0  0  0
  7 12  2  0  0  0  0
  7  9  1  0  0  0  0
  9 10  1  0  0  0  0
  9 22  1  0  0  0  0
 10 11  1  0  0  0  0
 10 14  1  1  0  0  0
 11 13  1  0  0  0  0
 12 13  1  0  0  0  0
 14 15  1  0  0  0  0
 15 19  1  0  0  0  0
 16 17  2  0  0  0  0
 16 21  1  0  0  0  0
 17 18  1  0  0  0  0
 18 19  2  0  0  0  0
 19 20  1  0  0  0  0
 20 21  2  0  0  0  0
M  END
>  <CHROM.1>
89.91334697,-131.90622603,58.03417855,-99.45196766,19.14257595,-21.58795872
25.49837730,-0.05545119,-0.25571201,1.69800420

>  <Name>
ligand

>  <RI>
0

>  <Rbt.Current_Directory>
/home/itssahil/PROJECTS/Mol_Feturizer/Test_systems_manuscript/rnas/3sd3

>  <Rbt.Executable>
rbdock ($Id: //depot/dev/client3/rdock/2013.1/src/exe/rbdock.cxx#4 $)

>  <Rbt.Library>
libRbt.so (2013.1, Build901 2013/11/27)

>  <Rbt.Parameter_File>
/export/apps/rDock/src/rDock_2013.1_src/data/scripts/dock_solv.prm

>  <Rbt.Receptor>
prm/pocket_docking_3.prm

>  <SCORE>
-15.0226

>  <SCORE.INTER>
-15.2095

>  <SCORE.INTER.CONST>
1

>  <SCORE.INTER.POLAR>
0

>  <SCORE.INTER.ROT>
4

>  <SCORE.INTER.SOLV>
8.06585

>  <SCORE.INTER.VDW>
-19.0949

>  <SCORE.INTER.norm>
-0.69134

>  <SCORE.INTRA>
0.186842

>  <SCORE.INTRA.DIHEDRAL>
3.79651

>  <SCORE.INTRA.DIHEDRAL.0>
2.54655

>  <SCORE.INTRA.POLAR>
0

>  <SCORE.INTRA.POLAR.0>
0

>  <SCORE.INTRA.REPUL>
0

>  <SCORE.INTRA.REPUL.0>
0

>  <SCORE.INTRA.SOLV>
-0.63461

>  <SCORE.INTRA.SOLV.lig_0>
-56.4922

>  <SCORE.INTRA.VDW>
-1.39411

>  <SCORE.INTRA.VDW.0>
-0.696801

>  <SCORE.INTRA.norm>
0.0084928

>  <SCORE.RESTR>
0

>  <SCORE.RESTR.CAVITY>
0

>  <SCORE.RESTR.norm>
0

>  <SCORE.SYSTEM>
0

>  <SCORE.SYSTEM.CONST>
0

>  <SCORE.SYSTEM.DIHEDRAL>
0

>  <SCORE.SYSTEM.SOLV>
0

>  <SCORE.SYSTEM.norm>
0

>  <SCORE.heavy>
22

>  <SCORE.norm>
-0.682848

>  <RMSD>
6.736

$$$$
ligand
 OpenBabel02271912143D
libRbt.so/2013.1/901 2013/11/27
 22 24  0  0  0  0  0  0  0  0999 V2000
   23.0638  -17.4935   23.0490 N   0  0  0  0  0  0  0  0  0  0  0  0
   21.4283  -19.1479   22.4825 N   0  0  0  0  0  0  0  0  0  0  0  0
   22.1652  -18.5491   23.4325 C   0  0  0  0  0  0  0  0  0  0  0  0
   22.0902  -18.9004   24.7103 N   0  0  0  0  0  0  0  0  0  0  0  0
   18.7719  -23.1797   25.8873 O   0  0  0  0  0  0  0  0  0  0  0  0
   21.2564  -19.8864   25.0896 C   0  0  0  0  0  0  0  0  0  0  0  0
   20.4696  -20.5517   24.1084 C   0  0  0  0  0  0  0  0  0  0  0  0
   21.1971  -20.2308   26.4213 O   0  0  0  0  0  0  0  0  0  0  0  0
   19.5167  -21.6117   24.3716 N   0  0  0  0  0  0  0  0  0  0  0  0
   18.2635  -21.5726   23.6068 C   0  0  2  0  0  0  0  0  0  0  0  0
   18.5438  -21.4520   22.1414 C   0  0  0  0  0  0  0  0  0  0  0  0
   20.5771  -20.1420   22.8029 C   0  0  0  0  0  0  0  0  0  0  0  0
   19.7990  -20.7805   21.8102 N   0  0  0  0  0  0  0  0  0  0  0  0
   17.3155  -20.4335   24.0233 C   0  0  0  0  0  0  0  0  0  0  0  0
   17.0549  -20.4857   25.4566 N   0  0  0  0  0  0  0  0  0  0  0  0
   13.0748  -20.3329   26.9523 C   0  0  0  0  0  0  0  0  0  0  0  0
   14.0553  -19.5339   27.5161 C   0  0  0  0  0  0  0  0  0  0  0  0
   15.3744  -19.5790   27.0250 C   0  0  0  0  0  0  0  0  0  0  0  0
   15.6939  -20.4269   25.9753 C   0  0  0  0  0  0  0  0  0  0  0  0
   14.7063  -21.2286   25.4107 C   0  0  0  0  0  0  0  0  0  0  0  0
   13.3975  -21.1811   25.8976 C   0  0  0  0  0  0  0  0  0  0  0  0
   19.7149  -22.6535   25.3205 C   0  0  0  0  0  0  0  0  0  0  0  0
  1  3  1  0  0  0  0
  2  3  2  0  0  0  0
  2 12  1  0  0  0  0
  3  4  1  0  0  0  0
  4  6  1  0  0  0  0
  5 22  1  0  0  0  0
  6  7  1  0  0  0  0
  6  8  2  0  0  0  0
  7 12  2  0  0  0  0
  7  9  1  0  0  0  0
  9 10  1  0  0  0  0
  9 22  1  0  0  0  0
 10 11  1  0  0  0  0
 10 14  1  1  0  0  0
 11 13  1  0  0  0  0
 12 13  1  0  0  0  0
 14 15  1  0  0  0  0
 15 19  1  0  0  0  0
 16 17  2  0  0  0  0
 16 21  1  0  0  0  0
 17 18  1  0  0  0  0
 18 19  2  0  0  0  0
 19 20  1  0  0  0  0
 20 21  2  0  0  0  0
M  END
>  <CHROM.1>
150.72032723,-54.15290141,-130.45605427,-132.80518220,18.64413010,-20.45847452
24.67840277,-0.15595268,0.37612971,0.81204863

>  <Name>
ligand

>  <RI>
0

>  <Rbt.Current_Directory>
/home/itssahil/PROJECTS/Mol_Feturizer/Test_systems_manuscript/rnas/3sd3

>  <Rbt.Executable>
rbdock ($Id: //depot/dev/client3/rdock/2013.1/src/exe/rbdock.cxx#4 $)

>  <Rbt.Library>
libRbt.so (2013.1, Build901 2013/11/27)

>  <Rbt.Parameter_File>
/export/apps/rDock/src/rDock_2013.1_src/data/scripts/dock_solv.prm

>  <Rbt.Receptor>
prm/pocket_docking_8.prm

>  <SCORE>
-14.3351

>  <SCORE.INTER>
-14.3027

>  <SCORE.INTER.CONST>
1

>  <SCORE.INTER.POLAR>
0

>  <SCORE.INTER.ROT>
4

>  <SCORE.INTER.SOLV>
5.8453

>  <SCORE.INTER.VDW>
-17.7502

>  <SCORE.INTER.norm>
-0.650124

>  <SCORE.INTRA>
-0.0323789

>  <SCORE.INTRA.DIHEDRAL>
0.357837

>  <SCORE.INTRA.DIHEDRAL.0>
2.54655

>  <SCORE.INTRA.POLAR>
0

>  <SCORE.INTRA.POLAR.0>
0

>  <SCORE.INTRA.REPUL>
0

>  <SCORE.INTRA.REPUL.0>
0

>  <SCORE.INTRA.SOLV>
0.573709

>  <SCORE.INTRA.SOLV.lig_0>
-56.4922

>  <SCORE.INTRA.VDW>
-0.498152

>  <SCORE.INTRA.VDW.0>
-0.696801

>  <SCORE.INTRA.norm>
-0.00147177

>  <SCORE.RESTR>
0

>  <SCORE.RESTR.CAVITY>
0

>  <SCORE.RESTR.norm>
0

>  <SCORE.SYSTEM>
0

>  <SCORE.SYSTEM.CONST>
0

>  <SCORE.SYSTEM.DIHEDRAL>
0

>  <SCORE.SYSTEM.SOLV>
0

>  <SCORE.SYSTEM.norm>
0

>  <SCORE.heavy>
22

>  <SCORE.norm>
-0.651596

>  <RMSD>
6.736

$$$$
ligand
 OpenBabel02271912143D
libRbt.so/2013.1/901 2013/11/27
 22 24  0  0  0  0  0  0  0  0999 V2000
   23.5005  -21.3782   27.5788 N   0  0  0  0  0  0  0  0  0  0  0  0
   22.0183  -20.0081   26.2908 N   0  0  0  0  0  0  0  0  0  0  0  0
   22.2791  -21.2063   26.8390 C   0  0  0  0  0  0  0  0  0  0  0  0
   21.4470  -22.2335   26.7191 N   0  0  0  0  0  0  0  0  0  0  0  0
   18.6347  -21.6834   22.6806 O   0  0  0  0  0  0  0  0  0  0  0  0
   20.2996  -22.0936   26.0299 C   0  0  0  0  0  0  0  0  0  0  0  0
   19.9965  -20.8420   25.4250 C   0  0  0  0  0  0  0  0  0  0  0  0
   19.4537  -23.1745   25.9214 O   0  0  0  0  0  0  0  0  0  0  0  0
   18.7935  -20.5397   24.6749 N   0  0  0  0  0  0  0  0  0  0  0  0
   18.2023  -19.2126   24.8896 C   0  0  2  0  0  0  0  0  0  0  0  0
   19.2322  -18.1413   24.7102 C   0  0  0  0  0  0  0  0  0  0  0  0
   20.8856  -19.8094   25.5888 C   0  0  0  0  0  0  0  0  0  0  0  0
   20.6032  -18.5529   25.0057 N   0  0  0  0  0  0  0  0  0  0  0  0
   17.5459  -19.0397   26.2712 C   0  0  0  0  0  0  0  0  0  0  0  0
   16.8703  -20.2679   26.6717 N   0  0  0  0  0  0  0  0  0  0  0  0
   12.6274  -20.5708   26.5862 C   0  0  0  0  0  0  0  0  0  0  0  0
   13.2501  -19.8874   27.6171 C   0  0  0  0  0  0  0  0  0  0  0  0
   14.6541  -19.7827   27.6508 C   0  0  0  0  0  0  0  0  0  0  0  0
   15.4161  -20.3667   26.6503 C   0  0  0  0  0  0  0  0  0  0  0  0
   14.7875  -21.0527   25.6154 C   0  0  0  0  0  0  0  0  0  0  0  0
   13.3943  -21.1539   25.5823 C   0  0  0  0  0  0  0  0  0  0  0  0
   18.1580  -21.4423   23.7770 C   0  0  0  0  0  0  0  0  0  0  0  0
  1  3  1  0  0  0  0
  2  3  2  0  0  0  0
  2 12  1  0  0  0  0
  3  4  1  0  0  0  0
  4  6  1  0  0  0  0
  5 22  1  0  0  0  0
  6  7  1  0  0  0  0
  6  8  2  0  0  0  0
  7 12  2  0  0  0  0
  7  9  1  0  0  0  0
  9 10  1  0  0  0  0
  9 22  1  0  0  0  0
 10 11  1  0  0  0  0
 10 14  1  1  0  0  0
 11 13  1  0  0  0  0
 12 13  1  0  0  0  0
 14 15  1  0  0  0  0
 15 19  1  0  0  0  0
 16 17  2  0  0  0  0
 16 21  1  0  0  0  0
 17 18  1  0  0  0  0
 18 19  2  0  0  0  0
 19 20  1  0  0  0  0
 20 21  2  0  0  0  0
M  END
>  <CHROM.1>
-74.12510680,-37.92189273,-106.23692961,-77.12913573,18.38966275,-20.58770074
25.80066351,-0.00729776,-0.08519460,2.03193497

>  <Name>
ligand

>  <RI>
0

>  <Rbt.Current_Directory>
/home/itssahil/PROJECTS/Mol_Feturizer/Test_systems_manuscript/rnas/3sd3

>  <Rbt.Executable>
rbdock ($Id: //depot/dev/client3/rdock/2013.1/src/exe/rbdock.cxx#4 $)

>  <Rbt.Library>
libRbt.so (2013.1, Build901 2013/11/27)

>  <Rbt.Parameter_File>
/export/apps/rDock/src/rDock_2013.1_src/data/scripts/dock_solv.prm

>  <Rbt.Receptor>
prm/pocket_docking_3.prm

>  <SCORE>
-12.2448

>  <SCORE.INTER>
-12.1051

>  <SCORE.INTER.CONST>
1

>  <SCORE.INTER.POLAR>
0

>  <SCORE.INTER.ROT>
4

>  <SCORE.INTER.SOLV>
4.97135

>  <SCORE.INTER.VDW>
-15.9939

>  <SCORE.INTER.norm>
-0.550233

>  <SCORE.INTRA>
-0.14289

>  <SCORE.INTRA.DIHEDRAL>
1.73441

>  <SCORE.INTRA.DIHEDRAL.0>
2.54655

>  <SCORE.INTRA.POLAR>
0

>  <SCORE.INTRA.POLAR.0>
0

>  <SCORE.INTRA.REPUL>
0

>  <SCORE.INTRA.REPUL.0>
0

>  <SCORE.INTRA.SOLV>
0.310617

>  <SCORE.INTRA.SOLV.lig_0>
-56.4922

>  <SCORE.INTRA.VDW>
-1.1654

>  <SCORE.INTRA.VDW.0>
-0.696801

>  <SCORE.INTRA.norm>
-0.00649499

>  <SCORE.RESTR>
0.00317773

>  <SCORE.RESTR.CAVITY>
0.00317773

>  <SCORE.RESTR.norm>
0.000144442

>  <SCORE.SYSTEM>
0

>  <SCORE.SYSTEM.CONST>
0

>  <SCORE.SYSTEM.DIHEDRAL>
0

>  <SCORE.SYSTEM.SOLV>
0

>  <SCORE.SYSTEM.norm>
0

>  <SCORE.heavy>
22

>  <SCORE.norm>
-0.556584

>  <RMSD>
6.741

$$$$
ligand
 OpenBabel02271912143D
libRbt.so/2013.1/901 2013/11/27
 22 24  0  0  0  0  0  0  0  0999 V2000
   23.9807  -21.5077   26.5518 N   0  0  0  0  0  0  0  0  0  0  0  0
   22.2525  -20.0276   25.8065 N   0  0  0  0  0  0  0  0  0  0  0  0
   22.6269  -21.2779   26.1237 C   0  0  0  0  0  0  0  0  0  0  0  0
   21.7888  -22.3048   26.0543 N   0  0  0  0  0  0  0  0  0  0  0  0
   18.4077  -21.8355   23.0723 O   0  0  0  0  0  0  0  0  0  0  0  0
   20.5183  -22.1111   25.6550 C   0  0  0  0  0  0  0  0  0  0  0  0
   20.0901  -20.8017   25.2990 C   0  0  0  0  0  0  0  0  0  0  0  0
   19.6691  -23.1930   25.5926 O   0  0  0  0  0  0  0  0  0  0  0  0
   18.7521  -20.4408   24.8741 N   0  0  0  0  0  0  0  0  0  0  0  0
   18.2223  -19.1693   25.3835 C   0  0  2  0  0  0  0  0  0  0  0  0
   19.1879  -18.0549   25.1263 C   0  0  0  0  0  0  0  0  0  0  0  0
   20.9936  -19.7735   25.3993 C   0  0  0  0  0  0  0  0  0  0  0  0
   20.5903  -18.4615   25.0607 N   0  0  0  0  0  0  0  0  0  0  0  0
   17.8843  -19.1928   26.8851 C   0  0  0  0  0  0  0  0  0  0  0  0
   17.1046  -20.3799   27.2135 N   0  0  0  0  0  0  0  0  0  0  0  0
   12.9304  -20.5459   26.4076 C   0  0  0  0  0  0  0  0  0  0  0  0
   13.8161  -21.2500   25.6093 C   0  0  0  0  0  0  0  0  0  0  0  0
   15.1990  -21.2000   25.8713 C   0  0  0  0  0  0  0  0  0  0  0  0
   15.6761  -20.4426   26.9302 C   0  0  0  0  0  0  0  0  0  0  0  0
   14.7834  -19.7361   27.7309 C   0  0  0  0  0  0  0  0  0  0  0  0
   13.4116  -19.7885   27.4709 C   0  0  0  0  0  0  0  0  0  0  0  0
   17.9353  -21.2394   24.0256 C   0  0  0  0  0  0  0  0  0  0  0  0
  1  3  1  0  0  0  0
  2  3  2  0  0  0  0
  2 12  1  0  0  0  0
  3  4  1  0  0  0  0
  4  6  1  0  0  0  0
  5 22  1  0  0  0  0
  6  7  1  0  0  0  0
  6  8  2  0  0  0  0
  7 12  2  0  0  0  0
  7  9  1  0  0  0  0
  9 10  1  0  0  0  0
  9 22  1  0  0  0  0
 10 11  1  0  0  0  0
 10 14  1  1  0  0  0
 11 13  1  0  0  0  0
 12 13  1  0  0  0  0
 14 15  1  0  0  0  0
 15 19  1  0  0  0  0
 16 17  2  0  0  0  0
 16 21  1  0  0  0  0
 17 18  1  0  0  0  0
 18 19  2  0  0  0  0
 19 20  1  0  0  0  0
 20 21  2  0  0  0  0
M  END
>  <CHROM.1>
-39.73273030,-47.82405851,-78.94200599,105.28641237,18.55406286,-20.60208879
25.77655251,-0.11631606,0.07960953,0.31645384

>  <Name>
ligand

>  <RI>
0

>  <Rbt.Current_Directory>
/home/itssahil/PROJECTS/Mol_Feturizer/Test_systems_manuscript/rnas/3sd3

>  <Rbt.Executable>
rbdock ($Id: //depot/dev/client3/rdock/2013.1/src/exe/rbdock.cxx#4 $)

>  <Rbt.Library>
libRbt.so (2013.1, Build901 2013/11/27)

>  <Rbt.Parameter_File>
/export/apps/rDock/src/rDock_2013.1_src/data/scripts/dock_solv.prm

>  <Rbt.Receptor>
prm/pocket_docking_3.prm

>  <SCORE>
-12.8716

>  <SCORE.INTER>
-11.5675

>  <SCORE.INTER.CONST>
1

>  <SCORE.INTER.POLAR>
0

>  <SCORE.INTER.ROT>
4

>  <SCORE.INTER.SOLV>
5.10249

>  <SCORE.INTER.VDW>
-15.6792

>  <SCORE.INTER.norm>
-0.525798

>  <SCORE.INTRA>
-1.30405

>  <SCORE.INTRA.DIHEDRAL>
-0.138253

>  <SCORE.INTRA.DIHEDRAL.0>
2.54655

>  <SCORE.INTRA.POLAR>
0

>  <SCORE.INTRA.POLAR.0>
0

>  <SCORE.INTRA.REPUL>
0

>  <SCORE.INTRA.REPUL.0>
0

>  <SCORE.INTRA.SOLV>
0.285336

>  <SCORE.INTRA.SOLV.lig_0>
-56.4922

>  <SCORE.INTRA.VDW>
-1.37759

>  <SCORE.INTRA.VDW.0>
-0.696801

>  <SCORE.INTRA.norm>
-0.059275

>  <SCORE.RESTR>
0

>  <SCORE.RESTR.CAVITY>
0

>  <SCORE.RESTR.norm>
0

>  <SCORE.SYSTEM>
0

>  <SCORE.SYSTEM.CONST>
0

>  <SCORE.SYSTEM.DIHEDRAL>
0

>  <SCORE.SYSTEM.SOLV>
0

>  <SCORE.SYSTEM.norm>
0

>  <SCORE.heavy>
22

>  <SCORE.norm>
-0.585073

>  <RMSD>
6.745

$$$$
ligand
 OpenBabel02271912143D
libRbt.so/2013.1/901 2013/11/27
 22 24  0  0  0  0  0  0  0  0999 V2000
   24.3741  -20.9604   24.6705 N   0  0  0  0  0  0  0  0  0  0  0  0
   22.1491  -21.3878   23.8963 N   0  0  0  0  0  0  0  0  0  0  0  0
   22.9972  -21.2833   24.9325 C   0  0  0  0  0  0  0  0  0  0  0  0
   22.6052  -21.4685   26.1871 N   0  0  0  0  0  0  0  0  0  0  0  0
   18.1174  -22.7642   27.5755 O   0  0  0  0  0  0  0  0  0  0  0  0
   21.3215  -21.7724   26.4534 C   0  0  0  0  0  0  0  0  0  0  0  0
   20.3976  -21.9036   25.3793 C   0  0  0  0  0  0  0  0  0  0  0  0
   20.9408  -21.9585   27.7633 O   0  0  0  0  0  0  0  0  0  0  0  0
   18.9862  -22.2042   25.5159 N   0  0  0  0  0  0  0  0  0  0  0  0
   18.0719  -21.4821   24.6217 C   0  0  2  0  0  0  0  0  0  0  0  0
   18.5148  -21.6121   23.1978 C   0  0  0  0  0  0  0  0  0  0  0  0
   20.8525  -21.6909   24.1020 C   0  0  0  0  0  0  0  0  0  0  0  0
   19.9523  -21.8059   23.0180 N   0  0  0  0  0  0  0  0  0  0  0  0
   17.9238  -19.9872   24.9580 C   0  0  0  0  0  0  0  0  0  0  0  0
   17.2393  -19.8172   26.2337 N   0  0  0  0  0  0  0  0  0  0  0  0
   13.0879  -20.6516   26.6470 C   0  0  0  0  0  0  0  0  0  0  0  0
   13.8265  -21.2920   25.6661 C   0  0  0  0  0  0  0  0  0  0  0  0
   15.2012  -21.0210   25.5247 C   0  0  0  0  0  0  0  0  0  0  0  0
   15.8175  -20.1092   26.3682 C   0  0  0  0  0  0  0  0  0  0  0  0
   15.0727  -19.4673   27.3532 C   0  0  0  0  0  0  0  0  0  0  0  0
   13.7093  -19.7389   27.4936 C   0  0  0  0  0  0  0  0  0  0  0  0
   18.4479  -23.1245   26.4582 C   0  0  0  0  0  0  0  0  0  0  0  0
  1  3  1  0  0  0  0
  2  3  2  0  0  0  0
  2 12  1  0  0  0  0
  3  4  1  0  0  0  0
  4  6  1  0  0  0  0
  5 22  1  0  0  0  0
  6  7  1  0  0  0  0
  6  8  2  0  0  0  0
  7 12  2  0  0  0  0
  7  9  1  0  0  0  0
  9 10  1  0  0  0  0
  9 22  1  0  0  0  0
 10 11  1  0  0  0  0
 10 14  1  1  0  0  0
 11 13  1  0  0  0  0
 12 13  1  0  0  0  0
 14 15  1  0  0  0  0
 15 19  1  0  0  0  0
 16 17  2  0  0  0  0
 16 21  1  0  0  0  0
 17 18  1  0  0  0  0
 18 19  2  0  0  0  0
 19 20  1  0  0  0  0
 20 21  2  0  0  0  0
M  END
>  <CHROM.1>
89.69544853,-67.74441572,-71.04869662,26.02811731,18.72800381,-21.28908779
25.64386346,0.17331949,0.15481829,-1.46791177

>  <Name>
ligand

>  <RI>
0

>  <Rbt.Current_Directory>
/home/itssahil/PROJECTS/Mol_Feturizer/Test_systems_manuscript/rnas/3sd3

>  <Rbt.Executable>
rbdock ($Id: //depot/dev/client3/rdock/2013.1/src/exe/rbdock.cxx#4 $)

>  <Rbt.Library>
libRbt.so (2013.1, Build901 2013/11/27)

>  <Rbt.Parameter_File>
/export/apps/rDock/src/rDock_2013.1_src/data/scripts/dock_solv.prm

>  <Rbt.Receptor>
prm/pocket_docking_3.prm

>  <SCORE>
-16.6627

>  <SCORE.INTER>
-15.7323

>  <SCORE.INTER.CONST>
1

>  <SCORE.INTER.POLAR>
0

>  <SCORE.INTER.ROT>
4

>  <SCORE.INTER.SOLV>
6.22266

>  <SCORE.INTER.VDW>
-18.8291

>  <SCORE.INTER.norm>
-0.715103

>  <SCORE.INTRA>
-0.930455

>  <SCORE.INTRA.DIHEDRAL>
-0.640263

>  <SCORE.INTRA.DIHEDRAL.0>
2.54655

>  <SCORE.INTRA.POLAR>
0

>  <SCORE.INTRA.POLAR.0>
0

>  <SCORE.INTRA.REPUL>
0

>  <SCORE.INTRA.REPUL.0>
0

>  <SCORE.INTRA.SOLV>
0.515677

>  <SCORE.INTRA.SOLV.lig_0>
-56.4922

>  <SCORE.INTRA.VDW>
-0.868162

>  <SCORE.INTRA.VDW.0>
-0.696801

>  <SCORE.INTRA.norm>
-0.0422934

>  <SCORE.RESTR>
0

>  <SCORE.RESTR.CAVITY>
0

>  <SCORE.RESTR.norm>
0

>  <SCORE.SYSTEM>
0

>  <SCORE.SYSTEM.CONST>
0

>  <SCORE.SYSTEM.DIHEDRAL>
0

>  <SCORE.SYSTEM.SOLV>
0

>  <SCORE.SYSTEM.norm>
0

>  <SCORE.heavy>
22

>  <SCORE.norm>
-0.757396

>  <RMSD>
6.751

$$$$
ligand
 OpenBabel02271912143D
libRbt.so/2013.1/901 2013/11/27
 22 24  0  0  0  0  0  0  0  0999 V2000
   24.4982  -20.8922   24.8827 N   0  0  0  0  0  0  0  0  0  0  0  0
   22.3056  -21.3321   24.0270 N   0  0  0  0  0  0  0  0  0  0  0  0
   23.1160  -21.2300   25.0933 C   0  0  0  0  0  0  0  0  0  0  0  0
   22.6821  -21.4308   26.3315 N   0  0  0  0  0  0  0  0  0  0  0  0
   18.2241  -22.7951   27.5732 O   0  0  0  0  0  0  0  0  0  0  0  0
   21.3927  -21.7488   26.5498 C   0  0  0  0  0  0  0  0  0  0  0  0
   20.5083  -21.8779   25.4427 C   0  0  0  0  0  0  0  0  0  0  0  0
   20.9682  -21.9511   27.8438 O   0  0  0  0  0  0  0  0  0  0  0  0
   19.0958  -22.1924   25.5270 N   0  0  0  0  0  0  0  0  0  0  0  0
   18.2067  -21.4700   24.6080 C   0  0  2  0  0  0  0  0  0  0  0  0
   18.7003  -21.5822   23.1994 C   0  0  0  0  0  0  0  0  0  0  0  0
   21.0055  -21.6488   24.1842 C   0  0  0  0  0  0  0  0  0  0  0  0
   20.1450  -21.7613   23.0683 N   0  0  0  0  0  0  0  0  0  0  0  0
   18.0330  -19.9798   24.9529 C   0  0  0  0  0  0  0  0  0  0  0  0
   17.3574  -19.8289   26.2358 N   0  0  0  0  0  0  0  0  0  0  0  0
   13.1962  -20.6117   26.6518 C   0  0  0  0  0  0  0  0  0  0  0  0
   13.9210  -21.2423   25.6545 C   0  0  0  0  0  0  0  0  0  0  0  0
   15.2988  -20.9883   25.5120 C   0  0  0  0  0  0  0  0  0  0  0  0
   15.9321  -20.1031   26.3711 C   0  0  0  0  0  0  0  0  0  0  0  0
   15.2011  -19.4709   27.3726 C   0  0  0  0  0  0  0  0  0  0  0  0
   13.8346  -19.7257   27.5140 C   0  0  0  0  0  0  0  0  0  0  0  0
   18.5334  -23.1267   26.4411 C   0  0  0  0  0  0  0  0  0  0  0  0
  1  3  1  0  0  0  0
  2  3  2  0  0  0  0
  2 12  1  0  0  0  0
  3  4  1  0  0  0  0
  4  6  1  0  0  0  0
  5 22  1  0  0  0  0
  6  7  1  0  0  0  0
  6  8  2  0  0  0  0
  7 12  2  0  0  0  0
  7  9  1  0  0  0  0
  9 10  1  0  0  0  0
  9 22  1  0  0  0  0
 10 11  1  0  0  0  0
 10 14  1  1  0  0  0
 11 13  1  0  0  0  0
 12 13  1  0  0  0  0
 14 15  1  0  0  0  0
 15 19  1  0  0  0  0
 16 17  2  0  0  0  0
 16 21  1  0  0  0  0
 17 18  1  0  0  0  0
 18 19  2  0  0  0  0
 19 20  1  0  0  0  0
 20 21  2  0  0  0  0
M  END
>  <CHROM.1>
85.88878367,-65.12106190,-73.26576978,26.16018021,18.84340685,-21.26656327
25.69062087,-0.15862032,-0.14975129,1.67452129

>  <Name>
ligand

>  <RI>
0

>  <Rbt.Current_Directory>
/home/itssahil/PROJECTS/Mol_Feturizer/Test_systems_manuscript/rnas/3sd3

>  <Rbt.Executable>
rbdock ($Id: //depot/dev/client3/rdock/2013.1/src/exe/rbdock.cxx#4 $)

>  <Rbt.Library>
libRbt.so (2013.1, Build901 2013/11/27)

>  <Rbt.Parameter_File>
/export/apps/rDock/src/rDock_2013.1_src/data/scripts/dock_solv.prm

>  <Rbt.Receptor>
prm/pocket_docking_4.prm

>  <SCORE>
-16.5085

>  <SCORE.INTER>
-15.5049

>  <SCORE.INTER.CONST>
1

>  <SCORE.INTER.POLAR>
0

>  <SCORE.INTER.ROT>
4

>  <SCORE.INTER.SOLV>
5.72461

>  <SCORE.INTER.VDW>
-18.5115

>  <SCORE.INTER.norm>
-0.704767

>  <SCORE.INTRA>
-1.00365

>  <SCORE.INTRA.DIHEDRAL>
-0.713442

>  <SCORE.INTRA.DIHEDRAL.0>
2.54655

>  <SCORE.INTRA.POLAR>
0

>  <SCORE.INTRA.POLAR.0>
0

>  <SCORE.INTRA.REPUL>
0

>  <SCORE.INTRA.REPUL.0>
0

>  <SCORE.INTRA.SOLV>
0.555364

>  <SCORE.INTRA.SOLV.lig_0>
-56.4922

>  <SCORE.INTRA.VDW>
-0.924613

>  <SCORE.INTRA.VDW.0>
-0.696801

>  <SCORE.INTRA.norm>
-0.0456205

>  <SCORE.RESTR>
0

>  <SCORE.RESTR.CAVITY>
0

>  <SCORE.RESTR.norm>
0

>  <SCORE.SYSTEM>
0

>  <SCORE.SYSTEM.CONST>
0

>  <SCORE.SYSTEM.DIHEDRAL>
0

>  <SCORE.SYSTEM.SOLV>
0

>  <SCORE.SYSTEM.norm>
0

>  <SCORE.heavy>
22

>  <SCORE.norm>
-0.750388

>  <RMSD>
6.751

$$$$
ligand
 OpenBabel02271912143D
libRbt.so/2013.1/901 2013/11/27
 22 24  0  0  0  0  0  0  0  0999 V2000
   24.8492  -21.6375   25.4945 N   0  0  0  0  0  0  0  0  0  0  0  0
   22.7516  -22.0100   24.4017 N   0  0  0  0  0  0  0  0  0  0  0  0
   23.4254  -21.8341   25.5502 C   0  0  0  0  0  0  0  0  0  0  0  0
   22.8199  -21.8364   26.7314 N   0  0  0  0  0  0  0  0  0  0  0  0
   18.1166  -22.6645   27.4893 O   0  0  0  0  0  0  0  0  0  0  0  0
   21.4887  -22.0198   26.8051 C   0  0  0  0  0  0  0  0  0  0  0  0
   20.7443  -22.2218   25.6095 C   0  0  0  0  0  0  0  0  0  0  0  0
   20.8852  -22.0169   28.0426 O   0  0  0  0  0  0  0  0  0  0  0  0
   19.3090  -22.4095   25.5340 N   0  0  0  0  0  0  0  0  0  0  0  0
   18.6178  -21.7451   24.4214 C   0  0  2  0  0  0  0  0  0  0  0  0
   19.2740  -22.0791   23.1182 C   0  0  0  0  0  0  0  0  0  0  0  0
   21.4177  -22.1993   24.4138 C   0  0  0  0  0  0  0  0  0  0  0  0
   20.6996  -22.3879   23.2107 N   0  0  0  0  0  0  0  0  0  0  0  0
   18.5457  -20.2136   24.5593 C   0  0  0  0  0  0  0  0  0  0  0  0
   17.1936  -19.7406   24.2887 N   0  0  0  0  0  0  0  0  0  0  0  0
   13.9892  -20.5938   26.9543 C   0  0  0  0  0  0  0  0  0  0  0  0
   14.9859  -19.7104   27.3334 C   0  0  0  0  0  0  0  0  0  0  0  0
   16.0489  -19.4229   26.4554 C   0  0  0  0  0  0  0  0  0  0  0  0
   16.0994  -20.0270   25.2083 C   0  0  0  0  0  0  0  0  0  0  0  0
   15.0962  -20.9143   24.8300 C   0  0  0  0  0  0  0  0  0  0  0  0
   14.0411  -21.1968   25.7014 C   0  0  0  0  0  0  0  0  0  0  0  0
   18.5474  -23.1688   26.4658 C   0  0  0  0  0  0  0  0  0  0  0  0
  1  3  1  0  0  0  0
  2  3  2  0  0  0  0
  2 12  1  0  0  0  0
  3  4  1  0  0  0  0
  4  6  1  0  0  0  0
  5 22  1  0  0  0  0
  6  7  1  0  0  0  0
  6  8  2  0  0  0  0
  7 12  2  0  0  0  0
  7  9  1  0  0  0  0
  9 10  1  0  0  0  0
  9 22  1  0  0  0  0
 10 11  1  0  0  0  0
 10 14  1  1  0  0  0
 11 13  1  0  0  0  0
 12 13  1  0  0  0  0
 14 15  1  0  0  0  0
 15 19  1  0  0  0  0
 16 17  2  0  0  0  0
 16 21  1  0  0  0  0
 17 18  1  0  0  0  0
 18 19  2  0  0  0  0
 19 20  1  0  0  0  0
 20 21  2  0  0  0  0
M  END
>  <CHROM.1>
86.74441857,-132.82862924,69.28674048,69.84558126,19.14039737,-21.49835681
25.58590452,-0.04065760,-0.20910253,1.67755854

>  <Name>
ligand

>  <RI>
0

>  <Rbt.Current_Directory>
/home/itssahil/PROJECTS/Mol_Feturizer/Test_systems_manuscript/rnas/3sd3

>  <Rbt.Executable>
rbdock ($Id: //depot/dev/client3/rdock/2013.1/src/exe/rbdock.cxx#4 $)

>  <Rbt.Library>
libRbt.so (2013.1, Build901 2013/11/27)

>  <Rbt.Parameter_File>
/export/apps/rDock/src/rDock_2013.1_src/data/scripts/dock_solv.prm

>  <Rbt.Receptor>
prm/pocket_docking_5.prm

>  <SCORE>
-15.0149

>  <SCORE.INTER>
-15.2828

>  <SCORE.INTER.CONST>
1

>  <SCORE.INTER.POLAR>
0

>  <SCORE.INTER.ROT>
4

>  <SCORE.INTER.SOLV>
7.78332

>  <SCORE.INTER.VDW>
-19.0496

>  <SCORE.INTER.norm>
-0.694671

>  <SCORE.INTRA>
0.267833

>  <SCORE.INTRA.DIHEDRAL>
3.7889

>  <SCORE.INTRA.DIHEDRAL.0>
2.54655

>  <SCORE.INTRA.POLAR>
0

>  <SCORE.INTRA.POLAR.0>
0

>  <SCORE.INTRA.REPUL>
0

>  <SCORE.INTRA.REPUL.0>
0

>  <SCORE.INTRA.SOLV>
-0.651215

>  <SCORE.INTRA.SOLV.lig_0>
-56.4922

>  <SCORE.INTRA.VDW>
-1.30101

>  <SCORE.INTRA.VDW.0>
-0.696801

>  <SCORE.INTRA.norm>
0.0121742

>  <SCORE.RESTR>
0

>  <SCORE.RESTR.CAVITY>
0

>  <SCORE.RESTR.norm>
0

>  <SCORE.SYSTEM>
0

>  <SCORE.SYSTEM.CONST>
0

>  <SCORE.SYSTEM.DIHEDRAL>
0

>  <SCORE.SYSTEM.SOLV>
0

>  <SCORE.SYSTEM.norm>
0

>  <SCORE.heavy>
22

>  <SCORE.norm>
-0.682496

>  <RMSD>
6.751

$$$$
ligand
 OpenBabel02271912143D
libRbt.so/2013.1/901 2013/11/27
 22 24  0  0  0  0  0  0  0  0999 V2000
   20.9045  -24.5633   20.3880 N   0  0  0  0  0  0  0  0  0  0  0  0
   20.8743  -23.5821   22.5718 N   0  0  0  0  0  0  0  0  0  0  0  0
   20.4649  -23.5358   21.2934 C   0  0  0  0  0  0  0  0  0  0  0  0
   19.6699  -22.5738   20.8411 N   0  0  0  0  0  0  0  0  0  0  0  0
   18.0375  -18.7424   23.6848 O   0  0  0  0  0  0  0  0  0  0  0  0
   19.2484  -21.6026   21.6719 C   0  0  0  0  0  0  0  0  0  0  0  0
   19.6724  -21.6127   23.0300 C   0  0  0  0  0  0  0  0  0  0  0  0
   18.4237  -20.6171   21.1776 O   0  0  0  0  0  0  0  0  0  0  0  0
   19.2828  -20.6486   24.0399 N   0  0  0  0  0  0  0  0  0  0  0  0
   19.0068  -21.1786   25.3815 C   0  0  2  0  0  0  0  0  0  0  0  0
   20.1441  -22.0273   25.8574 C   0  0  0  0  0  0  0  0  0  0  0  0
   20.4852  -22.6361   23.4489 C   0  0  0  0  0  0  0  0  0  0  0  0
   20.9126  -22.6744   24.7959 N   0  0  0  0  0  0  0  0  0  0  0  0
   17.7074  -21.9991   25.4712 C   0  0  0  0  0  0  0  0  0  0  0  0
   16.5937  -21.2546   24.8962 N   0  0  0  0  0  0  0  0  0  0  0  0
   13.3454  -19.9657   27.3228 C   0  0  0  0  0  0  0  0  0  0  0  0
   13.1298  -20.8909   26.3153 C   0  0  0  0  0  0  0  0  0  0  0  0
   14.2009  -21.3224   25.5091 C   0  0  0  0  0  0  0  0  0  0  0  0
   15.4750  -20.8187   25.7229 C   0  0  0  0  0  0  0  0  0  0  0  0
   15.6886  -19.8891   26.7364 C   0  0  0  0  0  0  0  0  0  0  0  0
   14.6253  -19.4637   27.5367 C   0  0  0  0  0  0  0  0  0  0  0  0
   19.1387  -19.2525   23.8053 C   0  0  0  0  0  0  0  0  0  0  0  0
  1  3  1  0  0  0  0
  2  3  2  0  0  0  0
  2 12  1  0  0  0  0
  3  4  1  0  0  0  0
  4  6  1  0  0  0  0
  5 22  1  0  0  0  0
  6  7  1  0  0  0  0
  6  8  2  0  0  0  0
  7 12  2  0  0  0  0
  7  9  1  0  0  0  0
  9 10  1  0  0  0  0
  9 22  1  0  0  0  0
 10 11  1  0  0  0  0
 10 14  1  6  0  0  0
 11 13  1  0  0  0  0
 12 13  1  0  0  0  0
 14 15  1  0  0  0  0
 15 19  1  0  0  0  0
 16 17  2  0  0  0  0
 16 21  1  0  0  0  0
 17 18  1  0  0  0  0
 18 19  2  0  0  0  0
 19 20  1  0  0  0  0
 20 21  2  0  0  0  0
M  END
>  <CHROM.1>
103.05120976,-50.73436117,-115.15497801,-115.26880573,18.14322268,-21.39512984
24.08343449,0.63674536,0.40817911,-1.59236085

>  <Name>
ligand

>  <RI>
0

>  <Rbt.Current_Directory>
/home/itssahil/PROJECTS/Mol_Feturizer/Test_systems_manuscript/rnas/3sd3

>  <Rbt.Executable>
rbdock ($Id: //depot/dev/client3/rdock/2013.1/src/exe/rbdock.cxx#4 $)

>  <Rbt.Library>
libRbt.so (2013.1, Build901 2013/11/27)

>  <Rbt.Parameter_File>
/export/apps/rDock/src/rDock_2013.1_src/data/scripts/dock_solv.prm

>  <Rbt.Receptor>
prm/pocket_docking_7.prm

>  <SCORE>
-16.6546

>  <SCORE.INTER>
-16.1607

>  <SCORE.INTER.CONST>
1

>  <SCORE.INTER.POLAR>
0

>  <SCORE.INTER.ROT>
4

>  <SCORE.INTER.SOLV>
14.6469

>  <SCORE.INTER.VDW>
-21.9228

>  <SCORE.INTER.norm>
-0.734579

>  <SCORE.INTRA>
-0.493916

>  <SCORE.INTRA.DIHEDRAL>
0.559742

>  <SCORE.INTRA.DIHEDRAL.0>
2.54655

>  <SCORE.INTRA.POLAR>
0

>  <SCORE.INTRA.POLAR.0>
0

>  <SCORE.INTRA.REPUL>
0

>  <SCORE.INTRA.REPUL.0>
0

>  <SCORE.INTRA.SOLV>
0.829896

>  <SCORE.INTRA.SOLV.lig_0>
-56.4922

>  <SCORE.INTRA.VDW>
-1.18873

>  <SCORE.INTRA.VDW.0>
-0.696801

>  <SCORE.INTRA.norm>
-0.0224507

>  <SCORE.RESTR>
0

>  <SCORE.RESTR.CAVITY>
0

>  <SCORE.RESTR.norm>
0

>  <SCORE.SYSTEM>
0

>  <SCORE.SYSTEM.CONST>
0

>  <SCORE.SYSTEM.DIHEDRAL>
0

>  <SCORE.SYSTEM.SOLV>
0

>  <SCORE.SYSTEM.norm>
0

>  <SCORE.heavy>
22

>  <SCORE.norm>
-0.757029

>  <RMSD>
6.751

$$$$
ligand
 OpenBabel02271912143D
libRbt.so/2013.1/901 2013/11/27
 22 24  0  0  0  0  0  0  0  0999 V2000
   21.2820  -23.1651   21.6053 N   0  0  0  0  0  0  0  0  0  0  0  0
   20.3194  -23.1647   23.7976 N   0  0  0  0  0  0  0  0  0  0  0  0
   21.3729  -22.8842   23.0130 C   0  0  0  0  0  0  0  0  0  0  0  0
   22.4918  -22.3577   23.4952 N   0  0  0  0  0  0  0  0  0  0  0  0
   23.5108  -23.0300   27.6728 O   0  0  0  0  0  0  0  0  0  0  0  0
   22.5974  -22.0885   24.8095 C   0  0  0  0  0  0  0  0  0  0  0  0
   21.5057  -22.3843   25.6728 C   0  0  0  0  0  0  0  0  0  0  0  0
   23.7686  -21.5417   25.2838 O   0  0  0  0  0  0  0  0  0  0  0  0
   21.4686  -22.1296   27.0993 N   0  0  0  0  0  0  0  0  0  0  0  0
   20.1984  -21.6332   27.6445 C   0  0  2  0  0  0  0  0  0  0  0  0
   19.0641  -22.5153   27.2252 C   0  0  0  0  0  0  0  0  0  0  0  0
   20.3678  -22.9177   25.1212 C   0  0  0  0  0  0  0  0  0  0  0  0
   19.2655  -23.2117   25.9561 N   0  0  0  0  0  0  0  0  0  0  0  0
   19.8719  -20.1840   27.2410 C   0  0  0  0  0  0  0  0  0  0  0  0
   18.9160  -19.5985   28.1729 N   0  0  0  0  0  0  0  0  0  0  0  0
   14.7447  -19.6218   27.3356 C   0  0  0  0  0  0  0  0  0  0  0  0
   15.5057  -18.5084   27.0211 C   0  0  0  0  0  0  0  0  0  0  0  0
   16.8872  -18.4946   27.2948 C   0  0  0  0  0  0  0  0  0  0  0  0
   17.4876  -19.5978   27.8825 C   0  0  0  0  0  0  0  0  0  0  0  0
   16.7201  -20.7154   28.1972 C   0  0  0  0  0  0  0  0  0  0  0  0
   15.3501  -20.7282   27.9231 C   0  0  0  0  0  0  0  0  0  0  0  0
   22.5733  -22.3119   27.9775 C   0  0  0  0  0  0  0  0  0  0  0  0
  1  3  1  0  0  0  0
  2  3  2  0  0  0  0
  2 12  1  0  0  0  0
  3  4  1  0  0  0  0
  4  6  1  0  0  0  0
  5 22  1  0  0  0  0
  6  7  1  0  0  0  0
  6  8  2  0  0  0  0
  7 12  2  0  0  0  0
  7  9  1  0  0  0  0
  9 10  1  0  0  0  0
  9 22  1  0  0  0  0
 10 11  1  0  0  0  0
 10 14  1  6  0  0  0
 11 13  1  0  0  0  0
 12 13  1  0  0  0  0
 14 15  1  0  0  0  0
 15 19  1  0  0  0  0
 16 17  2  0  0  0  0
 16 21  1  0  0  0  0
 17 18  1  0  0  0  0
 18 19  2  0  0  0  0
 19 20  1  0  0  0  0
 20 21  2  0  0  0  0
M  END
>  <CHROM.1>
-20.36499186,-158.78071067,-95.74284838,-95.45754436,19.94141087,-21.54833385
26.23371841,0.53494773,0.31719722,-1.86977376

>  <Name>
ligand

>  <RI>
0

>  <Rbt.Current_Directory>
/home/itssahil/PROJECTS/Mol_Feturizer/Test_systems_manuscript/rnas/3sd3

>  <Rbt.Executable>
rbdock ($Id: //depot/dev/client3/rdock/2013.1/src/exe/rbdock.cxx#4 $)

>  <Rbt.Library>
libRbt.so (2013.1, Build901 2013/11/27)

>  <Rbt.Parameter_File>
/export/apps/rDock/src/rDock_2013.1_src/data/scripts/dock_solv.prm

>  <Rbt.Receptor>
prm/pocket_docking_5.prm

>  <SCORE>
-10.402

>  <SCORE.INTER>
-10.0364

>  <SCORE.INTER.CONST>
1

>  <SCORE.INTER.POLAR>
0

>  <SCORE.INTER.ROT>
4

>  <SCORE.INTER.SOLV>
10.6619

>  <SCORE.INTER.VDW>
-16.5116

>  <SCORE.INTER.norm>
-0.456202

>  <SCORE.INTRA>
-0.36551

>  <SCORE.INTRA.DIHEDRAL>
1.31186

>  <SCORE.INTRA.DIHEDRAL.0>
2.54655

>  <SCORE.INTRA.POLAR>
0

>  <SCORE.INTRA.POLAR.0>
0

>  <SCORE.INTRA.REPUL>
0

>  <SCORE.INTRA.REPUL.0>
0

>  <SCORE.INTRA.SOLV>
-0.644769

>  <SCORE.INTRA.SOLV.lig_0>
-56.4922

>  <SCORE.INTRA.VDW>
-0.699057

>  <SCORE.INTRA.VDW.0>
-0.696801

>  <SCORE.INTRA.norm>
-0.0166141

>  <SCORE.RESTR>
0

>  <SCORE.RESTR.CAVITY>
0

>  <SCORE.RESTR.norm>
0

>  <SCORE.SYSTEM>
0

>  <SCORE.SYSTEM.CONST>
0

>  <SCORE.SYSTEM.DIHEDRAL>
0

>  <SCORE.SYSTEM.SOLV>
0

>  <SCORE.SYSTEM.norm>
0

>  <SCORE.heavy>
22

>  <SCORE.norm>
-0.472816

>  <RMSD>
6.754

$$$$
ligand
 OpenBabel02271912143D
libRbt.so/2013.1/901 2013/11/27
 22 24  0  0  0  0  0  0  0  0999 V2000
   24.5278  -20.9731   27.4377 N   0  0  0  0  0  0  0  0  0  0  0  0
   22.5475  -21.9104   26.4720 N   0  0  0  0  0  0  0  0  0  0  0  0
   23.1123  -21.2246   27.4794 C   0  0  0  0  0  0  0  0  0  0  0  0
   22.4066  -20.7733   28.5091 N   0  0  0  0  0  0  0  0  0  0  0  0
   17.8575  -21.5403   29.3613 O   0  0  0  0  0  0  0  0  0  0  0  0
   21.0811  -20.9990   28.5674 C   0  0  0  0  0  0  0  0  0  0  0  0
   20.4511  -21.7330   27.5240 C   0  0  0  0  0  0  0  0  0  0  0  0
   20.3724  -20.5194   29.6460 O   0  0  0  0  0  0  0  0  0  0  0  0
   19.0351  -22.0321   27.4426 N   0  0  0  0  0  0  0  0  0  0  0  0
   18.4211  -21.9431   26.1114 C   0  0  2  0  0  0  0  0  0  0  0  0
   19.1993  -22.7466   25.1169 C   0  0  0  0  0  0  0  0  0  0  0  0
   21.2249  -22.1674   26.4770 C   0  0  0  0  0  0  0  0  0  0  0  0
   20.6212  -22.8906   25.4229 N   0  0  0  0  0  0  0  0  0  0  0  0
   18.2845  -20.5033   25.5841 C   0  0  0  0  0  0  0  0  0  0  0  0
   17.3564  -19.7431   26.4123 N   0  0  0  0  0  0  0  0  0  0  0  0
   13.2230  -20.7457   26.5191 C   0  0  0  0  0  0  0  0  0  0  0  0
   13.7376  -19.8405   27.4321 C   0  0  0  0  0  0  0  0  0  0  0  0
   15.1047  -19.5036   27.4015 C   0  0  0  0  0  0  0  0  0  0  0  0
   15.9390  -20.0807   26.4561 C   0  0  0  0  0  0  0  0  0  0  0  0
   15.4189  -20.9900   25.5398 C   0  0  0  0  0  0  0  0  0  0  0  0
   14.0619  -21.3215   25.5701 C   0  0  0  0  0  0  0  0  0  0  0  0
   18.2219  -22.3814   28.5568 C   0  0  0  0  0  0  0  0  0  0  0  0
  1  3  1  0  0  0  0
  2  3  2  0  0  0  0
  2 12  1  0  0  0  0
  3  4  1  0  0  0  0
  4  6  1  0  0  0  0
  5 22  1  0  0  0  0
  6  7  1  0  0  0  0
  6  8  2  0  0  0  0
  7 12  2  0  0  0  0
  7  9  1  0  0  0  0
  9 10  1  0  0  0  0
  9 22  1  0  0  0  0
 10 11  1  0  0  0  0
 10 14  1  6  0  0  0
 11 13  1  0  0  0  0
 12 13  1  0  0  0  0
 14 15  1  0  0  0  0
 15 19  1  0  0  0  0
 16 17  2  0  0  0  0
 16 21  1  0  0  0  0
 17 18  1  0  0  0  0
 18 19  2  0  0  0  0
 19 20  1  0  0  0  0
 20 21  2  0  0  0  0
M  END
>  <CHROM.1>
75.20871872,-65.27537357,-66.44349288,169.39711776,18.83886633,-21.22637253
27.09424215,0.07166489,-0.15389077,1.21553896

>  <Name>
ligand

>  <RI>
0

>  <Rbt.Current_Directory>
/home/itssahil/PROJECTS/Mol_Feturizer/Test_systems_manuscript/rnas/3sd3

>  <Rbt.Executable>
rbdock ($Id: //depot/dev/client3/rdock/2013.1/src/exe/rbdock.cxx#4 $)

>  <Rbt.Library>
libRbt.so (2013.1, Build901 2013/11/27)

>  <Rbt.Parameter_File>
/export/apps/rDock/src/rDock_2013.1_src/data/scripts/dock_solv.prm

>  <Rbt.Receptor>
prm/pocket_docking_6.prm

>  <SCORE>
-16.927

>  <SCORE.INTER>
-16.0641

>  <SCORE.INTER.CONST>
1

>  <SCORE.INTER.POLAR>
0

>  <SCORE.INTER.ROT>
4

>  <SCORE.INTER.SOLV>
7.96367

>  <SCORE.INTER.VDW>
-19.6306

>  <SCORE.INTER.norm>
-0.730185

>  <SCORE.INTRA>
-0.862975

>  <SCORE.INTRA.DIHEDRAL>
-0.805874

>  <SCORE.INTRA.DIHEDRAL.0>
2.54655

>  <SCORE.INTRA.POLAR>
0

>  <SCORE.INTRA.POLAR.0>
0

>  <SCORE.INTRA.REPUL>
0

>  <SCORE.INTRA.REPUL.0>
0

>  <SCORE.INTRA.SOLV>
0.523901

>  <SCORE.INTRA.SOLV.lig_0>
-56.4922

>  <SCORE.INTRA.VDW>
-0.721988

>  <SCORE.INTRA.VDW.0>
-0.696801

>  <SCORE.INTRA.norm>
-0.0392261

>  <SCORE.RESTR>
0

>  <SCORE.RESTR.CAVITY>
0

>  <SCORE.RESTR.norm>
0

>  <SCORE.SYSTEM>
0

>  <SCORE.SYSTEM.CONST>
0

>  <SCORE.SYSTEM.DIHEDRAL>
0

>  <SCORE.SYSTEM.SOLV>
0

>  <SCORE.SYSTEM.norm>
0

>  <SCORE.heavy>
22

>  <SCORE.norm>
-0.769411

>  <RMSD>
6.759

$$$$
ligand
 OpenBabel02271912143D
libRbt.so/2013.1/901 2013/11/27
 22 24  0  0  0  0  0  0  0  0999 V2000
   24.5992  -21.0843   27.3357 N   0  0  0  0  0  0  0  0  0  0  0  0
   22.6011  -21.9862   26.3730 N   0  0  0  0  0  0  0  0  0  0  0  0
   23.1812  -21.3200   27.3848 C   0  0  0  0  0  0  0  0  0  0  0  0
   22.4884  -20.8740   28.4255 N   0  0  0  0  0  0  0  0  0  0  0  0
   17.9004  -21.5922   29.2777 O   0  0  0  0  0  0  0  0  0  0  0  0
   21.1609  -21.0851   28.4909 C   0  0  0  0  0  0  0  0  0  0  0  0
   20.5147  -21.7983   27.4430 C   0  0  0  0  0  0  0  0  0  0  0  0
   20.4658  -20.6113   29.5808 O   0  0  0  0  0  0  0  0  0  0  0  0
   19.0948  -22.0800   27.3684 N   0  0  0  0  0  0  0  0  0  0  0  0
   18.4720  -21.9667   26.0432 C   0  0  2  0  0  0  0  0  0  0  0  0
   19.2335  -22.7662   25.0325 C   0  0  0  0  0  0  0  0  0  0  0  0
   21.2756  -22.2280   26.3847 C   0  0  0  0  0  0  0  0  0  0  0  0
   20.6559  -22.9306   25.3260 N   0  0  0  0  0  0  0  0  0  0  0  0
   18.3483  -20.5188   25.5354 C   0  0  0  0  0  0  0  0  0  0  0  0
   17.4254  -19.7622   26.3726 N   0  0  0  0  0  0  0  0  0  0  0  0
   13.2901  -20.7449   26.5604 C   0  0  0  0  0  0  0  0  0  0  0  0
   14.0953  -21.3285   25.5967 C   0  0  0  0  0  0  0  0  0  0  0  0
   15.4651  -21.0082   25.5298 C   0  0  0  0  0  0  0  0  0  0  0  0
   16.0097  -20.1047   26.4297 C   0  0  0  0  0  0  0  0  0  0  0  0
   15.1980  -19.5199   27.3972 C   0  0  0  0  0  0  0  0  0  0  0  0
   13.8396  -19.8404   27.4636 C   0  0  0  0  0  0  0  0  0  0  0  0
   18.2859  -22.4342   28.4841 C   0  0  0  0  0  0  0  0  0  0  0  0
  1  3  1  0  0  0  0
  2  3  2  0  0  0  0
  2 12  1  0  0  0  0
  3  4  1  0  0  0  0
  4  6  1  0  0  0  0
  5 22  1  0  0  0  0
  6  7  1  0  0  0  0
  6  8  2  0  0  0  0
  7 12  2  0  0  0  0
  7  9  1  0  0  0  0
  9 10  1  0  0  0  0
  9 22  1  0  0  0  0
 10 11  1  0  0  0  0
 10 14  1  6  0  0  0
 11 13  1  0  0  0  0
 12 13  1  0  0  0  0
 14 15  1  0  0  0  0
 15 19  1  0  0  0  0
 16 17  2  0  0  0  0
 16 21  1  0  0  0  0
 17 18  1  0  0  0  0
 18 19  2  0  0  0  0
 19 20  1  0  0  0  0
 20 21  2  0  0  0  0
M  END
>  <CHROM.1>
77.66725319,-65.81326052,-65.25621069,-10.73291590,18.90210177,-21.27389095
27.03750056,0.05669426,-0.15779958,1.22274105

>  <Name>
ligand

>  <RI>
0

>  <Rbt.Current_Directory>
/home/itssahil/PROJECTS/Mol_Feturizer/Test_systems_manuscript/rnas/3sd3

>  <Rbt.Executable>
rbdock ($Id: //depot/dev/client3/rdock/2013.1/src/exe/rbdock.cxx#4 $)

>  <Rbt.Library>
libRbt.so (2013.1, Build901 2013/11/27)

>  <Rbt.Parameter_File>
/export/apps/rDock/src/rDock_2013.1_src/data/scripts/dock_solv.prm

>  <Rbt.Receptor>
prm/pocket_docking_8.prm

>  <SCORE>
-16.9609

>  <SCORE.INTER>
-15.9853

>  <SCORE.INTER.CONST>
1

>  <SCORE.INTER.POLAR>
0

>  <SCORE.INTER.ROT>
4

>  <SCORE.INTER.SOLV>
7.96785

>  <SCORE.INTER.VDW>
-19.5795

>  <SCORE.INTER.norm>
-0.726605

>  <SCORE.INTRA>
-0.975573

>  <SCORE.INTRA.DIHEDRAL>
-0.798527

>  <SCORE.INTRA.DIHEDRAL.0>
2.54655

>  <SCORE.INTRA.POLAR>
0

>  <SCORE.INTRA.POLAR.0>
0

>  <SCORE.INTRA.REPUL>
0

>  <SCORE.INTRA.REPUL.0>
0

>  <SCORE.INTRA.SOLV>
0.531375

>  <SCORE.INTRA.SOLV.lig_0>
-56.4922

>  <SCORE.INTRA.VDW>
-0.841997

>  <SCORE.INTRA.VDW.0>
-0.696801

>  <SCORE.INTRA.norm>
-0.0443442

>  <SCORE.RESTR>
0

>  <SCORE.RESTR.CAVITY>
0

>  <SCORE.RESTR.norm>
0

>  <SCORE.SYSTEM>
0

>  <SCORE.SYSTEM.CONST>
0

>  <SCORE.SYSTEM.DIHEDRAL>
0

>  <SCORE.SYSTEM.SOLV>
0

>  <SCORE.SYSTEM.norm>
0

>  <SCORE.heavy>
22

>  <SCORE.norm>
-0.770949

>  <RMSD>
6.759

$$$$
ligand
 OpenBabel02271912143D
libRbt.so/2013.1/901 2013/11/27
 22 24  0  0  0  0  0  0  0  0999 V2000
   24.1936  -19.6573   27.4343 N   0  0  0  0  0  0  0  0  0  0  0  0
   22.3139  -19.6773   25.9513 N   0  0  0  0  0  0  0  0  0  0  0  0
   22.8549  -20.0750   27.1146 C   0  0  0  0  0  0  0  0  0  0  0  0
   22.1943  -20.8393   27.9756 N   0  0  0  0  0  0  0  0  0  0  0  0
   19.0162  -23.4877   26.1941 O   0  0  0  0  0  0  0  0  0  0  0  0
   20.9412  -21.2418   27.6947 C   0  0  0  0  0  0  0  0  0  0  0  0
   20.3409  -20.8501   26.4657 C   0  0  0  0  0  0  0  0  0  0  0  0
   20.2778  -22.0334   28.6051 O   0  0  0  0  0  0  0  0  0  0  0  0
   18.9970  -21.1885   26.0405 N   0  0  0  0  0  0  0  0  0  0  0  0
   18.2402  -20.1329   25.3550 C   0  0  2  0  0  0  0  0  0  0  0  0
   19.0363  -19.5642   24.2222 C   0  0  0  0  0  0  0  0  0  0  0  0
   21.0634  -20.0503   25.6160 C   0  0  0  0  0  0  0  0  0  0  0  0
   20.4859  -19.6393   24.3928 N   0  0  0  0  0  0  0  0  0  0  0  0
   17.8028  -18.9812   26.2779 C   0  0  0  0  0  0  0  0  0  0  0  0
   16.8729  -19.4649   27.2910 N   0  0  0  0  0  0  0  0  0  0  0  0
   13.0315  -20.9304   26.1972 C   0  0  0  0  0  0  0  0  0  0  0  0
   13.1565  -20.0403   27.2506 C   0  0  0  0  0  0  0  0  0  0  0  0
   14.4250  -19.5507   27.6171 C   0  0  0  0  0  0  0  0  0  0  0  0
   15.5529  -19.9618   26.9231 C   0  0  0  0  0  0  0  0  0  0  0  0
   15.4241  -20.8564   25.8647 C   0  0  0  0  0  0  0  0  0  0  0  0
   14.1645  -21.3396   25.5009 C   0  0  0  0  0  0  0  0  0  0  0  0
   18.3780  -22.4506   26.2612 C   0  0  0  0  0  0  0  0  0  0  0  0
  1  3  1  0  0  0  0
  2  3  2  0  0  0  0
  2 12  1  0  0  0  0
  3  4  1  0  0  0  0
  4  6  1  0  0  0  0
  5 22  1  0  0  0  0
  6  7  1  0  0  0  0
  6  8  2  0  0  0  0
  7 12  2  0  0  0  0
  7  9  1  0  0  0  0
  9 10  1  0  0  0  0
  9 22  1  0  0  0  0
 10 11  1  0  0  0  0
 10 14  1  1  0  0  0
 11 13  1  0  0  0  0
 12 13  1  0  0  0  0
 14 15  1  0  0  0  0
 15 19  1  0  0  0  0
 16 17  2  0  0  0  0
 16 21  1  0  0  0  0
 17 18  1  0  0  0  0
 18 19  2  0  0  0  0
 19 20  1  0  0  0  0
 20 21  2  0  0  0  0
M  END
>  <CHROM.1>
-37.07032316,-64.00890496,-65.78424120,-133.30736206,18.69763984,-20.58157290
26.47119701,-0.02414166,-0.03736735,-0.70420961

>  <Name>
ligand

>  <RI>
0

>  <Rbt.Current_Directory>
/home/itssahil/PROJECTS/Mol_Feturizer/Test_systems_manuscript/rnas/3sd3

>  <Rbt.Executable>
rbdock ($Id: //depot/dev/client3/rdock/2013.1/src/exe/rbdock.cxx#4 $)

>  <Rbt.Library>
libRbt.so (2013.1, Build901 2013/11/27)

>  <Rbt.Parameter_File>
/export/apps/rDock/src/rDock_2013.1_src/data/scripts/dock_solv.prm

>  <Rbt.Receptor>
prm/pocket_docking_3.prm

>  <SCORE>
-14.3201

>  <SCORE.INTER>
-13.0738

>  <SCORE.INTER.CONST>
1

>  <SCORE.INTER.POLAR>
0

>  <SCORE.INTER.ROT>
4

>  <SCORE.INTER.SOLV>
5.6923

>  <SCORE.INTER.VDW>
-16.88

>  <SCORE.INTER.norm>
-0.594265

>  <SCORE.INTRA>
-1.24623

>  <SCORE.INTRA.DIHEDRAL>
-0.857738

>  <SCORE.INTRA.DIHEDRAL.0>
2.54655

>  <SCORE.INTRA.POLAR>
0

>  <SCORE.INTRA.POLAR.0>
0

>  <SCORE.INTRA.REPUL>
0

>  <SCORE.INTRA.REPUL.0>
0

>  <SCORE.INTRA.SOLV>
-0.00196237

>  <SCORE.INTRA.SOLV.lig_0>
-56.4922

>  <SCORE.INTRA.VDW>
-0.816383

>  <SCORE.INTRA.VDW.0>
-0.696801

>  <SCORE.INTRA.norm>
-0.056647

>  <SCORE.RESTR>
0

>  <SCORE.RESTR.CAVITY>
0

>  <SCORE.RESTR.norm>
0

>  <SCORE.SYSTEM>
0

>  <SCORE.SYSTEM.CONST>
0

>  <SCORE.SYSTEM.DIHEDRAL>
0

>  <SCORE.SYSTEM.SOLV>
0

>  <SCORE.SYSTEM.norm>
0

>  <SCORE.heavy>
22

>  <SCORE.norm>
-0.650912

>  <RMSD>
6.760

$$$$
ligand
 OpenBabel02271912143D
libRbt.so/2013.1/901 2013/11/27
 22 24  0  0  0  0  0  0  0  0999 V2000
   24.4123  -21.5747   26.3503 N   0  0  0  0  0  0  0  0  0  0  0  0
   22.1738  -22.4147   26.2217 N   0  0  0  0  0  0  0  0  0  0  0  0
   23.0235  -21.4999   26.7170 C   0  0  0  0  0  0  0  0  0  0  0  0
   22.6224  -20.5322   27.5322 N   0  0  0  0  0  0  0  0  0  0  0  0
   17.6726  -20.1443   29.0748 O   0  0  0  0  0  0  0  0  0  0  0  0
   21.3275  -20.4455   27.8883 C   0  0  0  0  0  0  0  0  0  0  0  0
   20.4012  -21.4050   27.3927 C   0  0  0  0  0  0  0  0  0  0  0  0
   20.9376  -19.4317   28.7344 O   0  0  0  0  0  0  0  0  0  0  0  0
   18.9790  -21.4235   27.6722 N   0  0  0  0  0  0  0  0  0  0  0  0
   18.0948  -21.7745   26.5533 C   0  0  2  0  0  0  0  0  0  0  0  0
   18.5349  -23.0549   25.9151 C   0  0  0  0  0  0  0  0  0  0  0  0
   20.8661  -22.3784   26.5442 C   0  0  0  0  0  0  0  0  0  0  0  0
   19.9641  -23.3380   26.0303 N   0  0  0  0  0  0  0  0  0  0  0  0
   18.0038  -20.6874   25.4673 C   0  0  0  0  0  0  0  0  0  0  0  0
   17.0616  -19.6482   25.8640 N   0  0  0  0  0  0  0  0  0  0  0  0
   13.0097  -20.6056   26.7398 C   0  0  0  0  0  0  0  0  0  0  0  0
   13.6869  -19.6866   27.5237 C   0  0  0  0  0  0  0  0  0  0  0  0
   15.0280  -19.3646   27.2386 C   0  0  0  0  0  0  0  0  0  0  0  0
   15.6735  -19.9702   26.1712 C   0  0  0  0  0  0  0  0  0  0  0  0
   14.9903  -20.8933   25.3850 C   0  0  0  0  0  0  0  0  0  0  0  0
   13.6592  -21.2100   25.6680 C   0  0  0  0  0  0  0  0  0  0  0  0
   18.4039  -21.1103   28.9355 C   0  0  0  0  0  0  0  0  0  0  0  0
  1  3  1  0  0  0  0
  2  3  2  0  0  0  0
  2 12  1  0  0  0  0
  3  4  1  0  0  0  0
  4  6  1  0  0  0  0
  5 22  1  0  0  0  0
  6  7  1  0  0  0  0
  6  8  2  0  0  0  0
  7 12  2  0  0  0  0
  7  9  1  0  0  0  0
  9 10  1  0  0  0  0
  9 22  1  0  0  0  0
 10 11  1  0  0  0  0
 10 14  1  6  0  0  0
 11 13  1  0  0  0  0
 12 13  1  0  0  0  0
 14 15  1  0  0  0  0
 15 19  1  0  0  0  0
 16 17  2  0  0  0  0
 16 21  1  0  0  0  0
 17 18  1  0  0  0  0
 18 19  2  0  0  0  0
 19 20  1  0  0  0  0
 20 21  2  0  0  0  0
M  END
>  <CHROM.1>
115.83326449,-81.27882222,-57.73263675,139.31738584,18.67716315,-21.02687490
26.93178135,0.05394492,0.14243968,-2.29673872

>  <Name>
ligand

>  <RI>
0

>  <Rbt.Current_Directory>
/home/itssahil/PROJECTS/Mol_Feturizer/Test_systems_manuscript/rnas/3sd3

>  <Rbt.Executable>
rbdock ($Id: //depot/dev/client3/rdock/2013.1/src/exe/rbdock.cxx#4 $)

>  <Rbt.Library>
libRbt.so (2013.1, Build901 2013/11/27)

>  <Rbt.Parameter_File>
/export/apps/rDock/src/rDock_2013.1_src/data/scripts/dock_solv.prm

>  <Rbt.Receptor>
prm/pocket_docking_3.prm

>  <SCORE>
-14.9635

>  <SCORE.INTER>
-14.2676

>  <SCORE.INTER.CONST>
1

>  <SCORE.INTER.POLAR>
0

>  <SCORE.INTER.ROT>
4

>  <SCORE.INTER.SOLV>
9.99232

>  <SCORE.INTER.VDW>
-19.1092

>  <SCORE.INTER.norm>
-0.648528

>  <SCORE.INTRA>
-0.695861

>  <SCORE.INTRA.DIHEDRAL>
0.52209

>  <SCORE.INTRA.DIHEDRAL.0>
2.54655

>  <SCORE.INTRA.POLAR>
0

>  <SCORE.INTRA.POLAR.0>
0

>  <SCORE.INTRA.REPUL>
0

>  <SCORE.INTRA.REPUL.0>
0

>  <SCORE.INTRA.SOLV>
0.352797

>  <SCORE.INTRA.SOLV.lig_0>
-56.4922

>  <SCORE.INTRA.VDW>
-1.1333

>  <SCORE.INTRA.VDW.0>
-0.696801

>  <SCORE.INTRA.norm>
-0.03163

>  <SCORE.RESTR>
0

>  <SCORE.RESTR.CAVITY>
0

>  <SCORE.RESTR.norm>
0

>  <SCORE.SYSTEM>
0

>  <SCORE.SYSTEM.CONST>
0

>  <SCORE.SYSTEM.DIHEDRAL>
0

>  <SCORE.SYSTEM.SOLV>
0

>  <SCORE.SYSTEM.norm>
0

>  <SCORE.heavy>
22

>  <SCORE.norm>
-0.680158

>  <RMSD>
6.761

$$$$
ligand
 OpenBabel02271912143D
libRbt.so/2013.1/901 2013/11/27
 22 24  0  0  0  0  0  0  0  0999 V2000
   20.8357  -24.5208   20.2933 N   0  0  0  0  0  0  0  0  0  0  0  0
   20.7911  -23.5905   22.4991 N   0  0  0  0  0  0  0  0  0  0  0  0
   20.4124  -23.4997   21.2136 C   0  0  0  0  0  0  0  0  0  0  0  0
   19.6621  -22.4997   20.7678 N   0  0  0  0  0  0  0  0  0  0  0  0
   18.1790  -18.6111   24.1097 O   0  0  0  0  0  0  0  0  0  0  0  0
   19.2565  -21.5338   21.6125 C   0  0  0  0  0  0  0  0  0  0  0  0
   19.6493  -21.5908   22.9789 C   0  0  0  0  0  0  0  0  0  0  0  0
   18.4783  -20.5082   21.1246 O   0  0  0  0  0  0  0  0  0  0  0  0
   19.2714  -20.6373   24.0031 N   0  0  0  0  0  0  0  0  0  0  0  0
   18.9469  -21.1883   25.3252 C   0  0  2  0  0  0  0  0  0  0  0  0
   20.0428  -22.0881   25.8049 C   0  0  0  0  0  0  0  0  0  0  0  0
   20.4161  -22.6521   23.3902 C   0  0  0  0  0  0  0  0  0  0  0  0
   20.8116  -22.7371   24.7448 N   0  0  0  0  0  0  0  0  0  0  0  0
   17.6178  -21.9638   25.3671 C   0  0  0  0  0  0  0  0  0  0  0  0
   16.5279  -21.1347   24.8673 N   0  0  0  0  0  0  0  0  0  0  0  0
   13.3024  -19.9855   27.3925 C   0  0  0  0  0  0  0  0  0  0  0  0
   14.5477  -19.4020   27.5545 C   0  0  0  0  0  0  0  0  0  0  0  0
   15.6194  -19.7772   26.7213 C   0  0  0  0  0  0  0  0  0  0  0  0
   15.4285  -20.7349   25.7369 C   0  0  0  0  0  0  0  0  0  0  0  0
   14.1757  -21.3195   25.5763 C   0  0  0  0  0  0  0  0  0  0  0  0
   13.1130  -20.9445   26.4023 C   0  0  0  0  0  0  0  0  0  0  0  0
   19.1818  -19.2318   23.7992 C   0  0  0  0  0  0  0  0  0  0  0  0
  1  3  1  0  0  0  0
  2  3  2  0  0  0  0
  2 12  1  0  0  0  0
  3  4  1  0  0  0  0
  4  6  1  0  0  0  0
  5 22  1  0  0  0  0
  6  7  1  0  0  0  0
  6  8  2  0  0  0  0
  7 12  2  0  0  0  0
  7  9  1  0  0  0  0
  9 10  1  0  0  0  0
  9 22  1  0  0  0  0
 10 11  1  0  0  0  0
 10 14  1  6  0  0  0
 11 13  1  0  0  0  0
 12 13  1  0  0  0  0
 14 15  1  0  0  0  0
 15 19  1  0  0  0  0
 16 17  2  0  0  0  0
 16 21  1  0  0  0  0
 17 18  1  0  0  0  0
 18 19  2  0  0  0  0
 19 20  1  0  0  0  0
 20 21  2  0  0  0  0
M  END
>  <CHROM.1>
128.19146530,-54.44886750,-115.77307565,72.98112835,18.11083058,-21.36181438
24.07597795,0.67131083,0.37277854,-1.64411303

>  <Name>
ligand

>  <RI>
0

>  <Rbt.Current_Directory>
/home/itssahil/PROJECTS/Mol_Feturizer/Test_systems_manuscript/rnas/3sd3

>  <Rbt.Executable>
rbdock ($Id: //depot/dev/client3/rdock/2013.1/src/exe/rbdock.cxx#4 $)

>  <Rbt.Library>
libRbt.so (2013.1, Build901 2013/11/27)

>  <Rbt.Parameter_File>
/export/apps/rDock/src/rDock_2013.1_src/data/scripts/dock_solv.prm

>  <Rbt.Receptor>
prm/pocket_docking_7.prm

>  <SCORE>
-16.7685

>  <SCORE.INTER>
-16.2535

>  <SCORE.INTER.CONST>
1

>  <SCORE.INTER.POLAR>
0

>  <SCORE.INTER.ROT>
4

>  <SCORE.INTER.SOLV>
15.1367

>  <SCORE.INTER.VDW>
-22.1479

>  <SCORE.INTER.norm>
-0.738797

>  <SCORE.INTRA>
-0.514997

>  <SCORE.INTRA.DIHEDRAL>
0.402891

>  <SCORE.INTRA.DIHEDRAL.0>
2.54655

>  <SCORE.INTRA.POLAR>
0

>  <SCORE.INTRA.POLAR.0>
0

>  <SCORE.INTRA.REPUL>
0

>  <SCORE.INTRA.REPUL.0>
0

>  <SCORE.INTRA.SOLV>
0.693823

>  <SCORE.INTRA.SOLV.lig_0>
-56.4922

>  <SCORE.INTRA.VDW>
-1.06335

>  <SCORE.INTRA.VDW.0>
-0.696801

>  <SCORE.INTRA.norm>
-0.0234089

>  <SCORE.RESTR>
0

>  <SCORE.RESTR.CAVITY>
0

>  <SCORE.RESTR.norm>
0

>  <SCORE.SYSTEM>
0

>  <SCORE.SYSTEM.CONST>
0

>  <SCORE.SYSTEM.DIHEDRAL>
0

>  <SCORE.SYSTEM.SOLV>
0

>  <SCORE.SYSTEM.norm>
0

>  <SCORE.heavy>
22

>  <SCORE.norm>
-0.762206

>  <RMSD>
6.761

$$$$
ligand
 OpenBabel02271912143D
libRbt.so/2013.1/901 2013/11/27
 22 24  0  0  0  0  0  0  0  0999 V2000
   24.3239  -21.1568   23.9566 N   0  0  0  0  0  0  0  0  0  0  0  0
   22.0160  -21.4758   23.4046 N   0  0  0  0  0  0  0  0  0  0  0  0
   22.9680  -21.4298   24.3511 C   0  0  0  0  0  0  0  0  0  0  0  0
   22.6968  -21.6281   25.6352 N   0  0  0  0  0  0  0  0  0  0  0  0
   18.2339  -22.7541   27.4232 O   0  0  0  0  0  0  0  0  0  0  0  0
   21.4348  -21.8860   26.0248 C   0  0  0  0  0  0  0  0  0  0  0  0
   20.4026  -21.9547   25.0479 C   0  0  0  0  0  0  0  0  0  0  0  0
   21.1805  -22.0870   27.3629 O   0  0  0  0  0  0  0  0  0  0  0  0
   19.0006  -22.2011   25.3216 N   0  0  0  0  0  0  0  0  0  0  0  0
   18.0324  -21.4221   24.5389 C   0  0  2  0  0  0  0  0  0  0  0  0
   18.3236  -21.5367   23.0752 C   0  0  0  0  0  0  0  0  0  0  0  0
   20.7350  -21.7310   23.7353 C   0  0  0  0  0  0  0  0  0  0  0  0
   19.7261  -21.7842   22.7465 N   0  0  0  0  0  0  0  0  0  0  0  0
   17.9827  -19.9307   24.9169 C   0  0  0  0  0  0  0  0  0  0  0  0
   17.3224  -19.7529   26.2043 N   0  0  0  0  0  0  0  0  0  0  0  0
   13.1764  -20.5957   26.6531 C   0  0  0  0  0  0  0  0  0  0  0  0
   13.7917  -19.6875   27.4982 C   0  0  0  0  0  0  0  0  0  0  0  0
   15.1635  -19.4033   27.3544 C   0  0  0  0  0  0  0  0  0  0  0  0
   15.9015  -20.0356   26.3652 C   0  0  0  0  0  0  0  0  0  0  0  0
   15.2804  -20.9478   25.5173 C   0  0  0  0  0  0  0  0  0  0  0  0
   13.9188  -21.2270   25.6600 C   0  0  0  0  0  0  0  0  0  0  0  0
   18.5213  -23.1206   26.2961 C   0  0  0  0  0  0  0  0  0  0  0  0
  1  3  1  0  0  0  0
  2  3  2  0  0  0  0
  2 12  1  0  0  0  0
  3  4  1  0  0  0  0
  4  6  1  0  0  0  0
  5 22  1  0  0  0  0
  6  7  1  0  0  0  0
  6  8  2  0  0  0  0
  7 12  2  0  0  0  0
  7  9  1  0  0  0  0
  9 10  1  0  0  0  0
  9 22  1  0  0  0  0
 10 11  1  0  0  0  0
 10 14  1  1  0  0  0
 11 13  1  0  0  0  0
 12 13  1  0  0  0  0
 14 15  1  0  0  0  0
 15 19  1  0  0  0  0
 16 17  2  0  0  0  0
 16 21  1  0  0  0  0
 17 18  1  0  0  0  0
 18 19  2  0  0  0  0
 19 20  1  0  0  0  0
 20 21  2  0  0  0  0
M  END
>  <CHROM.1>
94.77314864,-73.12661437,-67.32424696,-154.23888197,18.75252129,-21.30212466
25.41515298,0.22499671,0.19603494,-1.43292001

>  <Name>
ligand

>  <RI>
0

>  <Rbt.Current_Directory>
/home/itssahil/PROJECTS/Mol_Feturizer/Test_systems_manuscript/rnas/3sd3

>  <Rbt.Executable>
rbdock ($Id: //depot/dev/client3/rdock/2013.1/src/exe/rbdock.cxx#4 $)

>  <Rbt.Library>
libRbt.so (2013.1, Build901 2013/11/27)

>  <Rbt.Parameter_File>
/export/apps/rDock/src/rDock_2013.1_src/data/scripts/dock_solv.prm

>  <Rbt.Receptor>
prm/pocket_docking_8.prm

>  <SCORE>
-16.5038

>  <SCORE.INTER>
-15.9147

>  <SCORE.INTER.CONST>
1

>  <SCORE.INTER.POLAR>
0

>  <SCORE.INTER.ROT>
4

>  <SCORE.INTER.SOLV>
6.29231

>  <SCORE.INTER.VDW>
-18.9739

>  <SCORE.INTER.norm>
-0.723394

>  <SCORE.INTRA>
-0.589101

>  <SCORE.INTRA.DIHEDRAL>
-0.31784

>  <SCORE.INTRA.DIHEDRAL.0>
2.54655

>  <SCORE.INTRA.POLAR>
0

>  <SCORE.INTRA.POLAR.0>
0

>  <SCORE.INTRA.REPUL>
0

>  <SCORE.INTRA.REPUL.0>
0

>  <SCORE.INTRA.SOLV>
0.414576

>  <SCORE.INTRA.SOLV.lig_0>
-56.4922

>  <SCORE.INTRA.VDW>
-0.637469

>  <SCORE.INTRA.VDW.0>
-0.696801

>  <SCORE.INTRA.norm>
-0.0267773

>  <SCORE.RESTR>
0

>  <SCORE.RESTR.CAVITY>
0

>  <SCORE.RESTR.norm>
0

>  <SCORE.SYSTEM>
0

>  <SCORE.SYSTEM.CONST>
0

>  <SCORE.SYSTEM.DIHEDRAL>
0

>  <SCORE.SYSTEM.SOLV>
0

>  <SCORE.SYSTEM.norm>
0

>  <SCORE.heavy>
22

>  <SCORE.norm>
-0.750171

>  <RMSD>
6.766

$$$$
ligand
 OpenBabel02271912143D
libRbt.so/2013.1/901 2013/11/27
 22 24  0  0  0  0  0  0  0  0999 V2000
   24.2152  -21.1310   26.0151 N   0  0  0  0  0  0  0  0  0  0  0  0
   22.1972  -21.5546   27.2322 N   0  0  0  0  0  0  0  0  0  0  0  0
   22.8506  -20.8036   26.3304 C   0  0  0  0  0  0  0  0  0  0  0  0
   22.2777  -19.7715   25.7234 N   0  0  0  0  0  0  0  0  0  0  0  0
   18.9889  -17.7166   27.6747 O   0  0  0  0  0  0  0  0  0  0  0  0
   21.0021  -19.4480   26.0053 C   0  0  0  0  0  0  0  0  0  0  0  0
   20.2831  -20.2139   26.9650 C   0  0  0  0  0  0  0  0  0  0  0  0
   20.4313  -18.3735   25.3610 O   0  0  0  0  0  0  0  0  0  0  0  0
   18.9031  -19.9966   27.3514 N   0  0  0  0  0  0  0  0  0  0  0  0
   18.0836  -21.1971   27.5617 C   0  0  2  0  0  0  0  0  0  0  0  0
   18.7640  -22.1418   28.5025 C   0  0  0  0  0  0  0  0  0  0  0  0
   20.9189  -21.2774   27.5551 C   0  0  0  0  0  0  0  0  0  0  0  0
   20.2233  -22.0601   28.5049 N   0  0  0  0  0  0  0  0  0  0  0  0
   17.7423  -21.9527   26.2646 C   0  0  0  0  0  0  0  0  0  0  0  0
   16.7914  -21.1896   25.4655 N   0  0  0  0  0  0  0  0  0  0  0  0
   12.9520  -20.1732   26.9911 C   0  0  0  0  0  0  0  0  0  0  0  0
   14.0821  -19.5520   27.4959 C   0  0  0  0  0  0  0  0  0  0  0  0
   15.3558  -19.8832   26.9946 C   0  0  0  0  0  0  0  0  0  0  0  0
   15.4799  -20.8352   25.9940 C   0  0  0  0  0  0  0  0  0  0  0  0
   14.3424  -21.4576   25.4885 C   0  0  0  0  0  0  0  0  0  0  0  0
   13.0792  -21.1263   25.9855 C   0  0  0  0  0  0  0  0  0  0  0  0
   18.3069  -18.7152   27.5169 C   0  0  0  0  0  0  0  0  0  0  0  0
  1  3  1  0  0  0  0
  2  3  2  0  0  0  0
  2 12  1  0  0  0  0
  3  4  1  0  0  0  0
  4  6  1  0  0  0  0
  5 22  1  0  0  0  0
  6  7  1  0  0  0  0
  6  8  2  0  0  0  0
  7 12  2  0  0  0  0
  7  9  1  0  0  0  0
  9 10  1  0  0  0  0
  9 22  1  0  0  0  0
 10 11  1  0  0  0  0
 10 14  1  6  0  0  0
 11 13  1  0  0  0  0
 12 13  1  0  0  0  0
 14 15  1  0  0  0  0
 15 19  1  0  0  0  0
 16 17  2  0  0  0  0
 16 21  1  0  0  0  0
 17 18  1  0  0  0  0
 18 19  2  0  0  0  0
 19 20  1  0  0  0  0
 20 21  2  0  0  0  0
M  END
>  <CHROM.1>
-18.85784592,-70.66327389,-59.66051579,70.99227651,18.63138392,-20.44505312
26.77888080,-0.00427667,0.00707286,2.94154809

>  <Name>
ligand

>  <RI>
0

>  <Rbt.Current_Directory>
/home/itssahil/PROJECTS/Mol_Feturizer/Test_systems_manuscript/rnas/3sd3

>  <Rbt.Executable>
rbdock ($Id: //depot/dev/client3/rdock/2013.1/src/exe/rbdock.cxx#4 $)

>  <Rbt.Library>
libRbt.so (2013.1, Build901 2013/11/27)

>  <Rbt.Parameter_File>
/export/apps/rDock/src/rDock_2013.1_src/data/scripts/dock_solv.prm

>  <Rbt.Receptor>
prm/pocket_docking_3.prm

>  <SCORE>
-14.0977

>  <SCORE.INTER>
-12.8109

>  <SCORE.INTER.CONST>
1

>  <SCORE.INTER.POLAR>
0

>  <SCORE.INTER.ROT>
4

>  <SCORE.INTER.SOLV>
7.26454

>  <SCORE.INTER.VDW>
-17.2288

>  <SCORE.INTER.norm>
-0.582313

>  <SCORE.INTRA>
-1.28685

>  <SCORE.INTRA.DIHEDRAL>
-0.550909

>  <SCORE.INTRA.DIHEDRAL.0>
2.54655

>  <SCORE.INTRA.POLAR>
0

>  <SCORE.INTRA.POLAR.0>
0

>  <SCORE.INTRA.REPUL>
0

>  <SCORE.INTRA.REPUL.0>
0

>  <SCORE.INTRA.SOLV>
-0.0283793

>  <SCORE.INTRA.SOLV.lig_0>
-56.4922

>  <SCORE.INTRA.VDW>
-0.997208

>  <SCORE.INTRA.VDW.0>
-0.696801

>  <SCORE.INTRA.norm>
-0.0584933

>  <SCORE.RESTR>
0

>  <SCORE.RESTR.CAVITY>
0

>  <SCORE.RESTR.norm>
0

>  <SCORE.SYSTEM>
0

>  <SCORE.SYSTEM.CONST>
0

>  <SCORE.SYSTEM.DIHEDRAL>
0

>  <SCORE.SYSTEM.SOLV>
0

>  <SCORE.SYSTEM.norm>
0

>  <SCORE.heavy>
22

>  <SCORE.norm>
-0.640806

>  <RMSD>
6.769

$$$$
ligand
 OpenBabel02271912143D
libRbt.so/2013.1/901 2013/11/27
 22 24  0  0  0  0  0  0  0  0999 V2000
   24.2690  -21.1484   26.2719 N   0  0  0  0  0  0  0  0  0  0  0  0
   22.1959  -21.5743   27.3915 N   0  0  0  0  0  0  0  0  0  0  0  0
   22.8965  -20.8101   26.5376 C   0  0  0  0  0  0  0  0  0  0  0  0
   22.3631  -19.7555   25.9334 N   0  0  0  0  0  0  0  0  0  0  0  0
   17.7261  -18.1449   26.6773 O   0  0  0  0  0  0  0  0  0  0  0  0
   21.0810  -19.4214   26.1694 C   0  0  0  0  0  0  0  0  0  0  0  0
   20.3121  -20.2010   27.0780 C   0  0  0  0  0  0  0  0  0  0  0  0
   20.5518  -18.3234   25.5292 O   0  0  0  0  0  0  0  0  0  0  0  0
   18.9197  -19.9743   27.4112 N   0  0  0  0  0  0  0  0  0  0  0  0
   18.0768  -21.1683   27.5560 C   0  0  2  0  0  0  0  0  0  0  0  0
   18.7045  -22.1454   28.5003 C   0  0  0  0  0  0  0  0  0  0  0  0
   20.9086  -21.2876   27.6672 C   0  0  0  0  0  0  0  0  0  0  0  0
   20.1632  -22.0840   28.5665 N   0  0  0  0  0  0  0  0  0  0  0  0
   17.7814  -21.8865   26.2269 C   0  0  0  0  0  0  0  0  0  0  0  0
   16.8194  -21.1255   25.4392 N   0  0  0  0  0  0  0  0  0  0  0  0
   12.9744  -20.1855   26.9993 C   0  0  0  0  0  0  0  0  0  0  0  0
   13.0978  -21.1167   25.9818 C   0  0  0  0  0  0  0  0  0  0  0  0
   14.3677  -21.4330   25.4617 C   0  0  0  0  0  0  0  0  0  0  0  0
   15.4981  -20.8096   25.9678 C   0  0  0  0  0  0  0  0  0  0  0  0
   15.3710  -19.8742   26.9905 C   0  0  0  0  0  0  0  0  0  0  0  0
   14.1105  -19.5631   27.5070 C   0  0  0  0  0  0  0  0  0  0  0  0
   18.3334  -18.6894   27.5840 C   0  0  0  0  0  0  0  0  0  0  0  0
  1  3  1  0  0  0  0
  2  3  2  0  0  0  0
  2 12  1  0  0  0  0
  3  4  1  0  0  0  0
  4  6  1  0  0  0  0
  5 22  1  0  0  0  0
  6  7  1  0  0  0  0
  6  8  2  0  0  0  0
  7 12  2  0  0  0  0
  7  9  1  0  0  0  0
  9 10  1  0  0  0  0
  9 22  1  0  0  0  0
 10 11  1  0  0  0  0
 10 14  1  6  0  0  0
 11 13  1  0  0  0  0
 12 13  1  0  0  0  0
 14 15  1  0  0  0  0
 15 19  1  0  0  0  0
 16 17  2  0  0  0  0
 16 21  1  0  0  0  0
 17 18  1  0  0  0  0
 18 19  2  0  0  0  0
 19 20  1  0  0  0  0
 20 21  2  0  0  0  0
M  END
>  <CHROM.1>
96.88041494,-73.71615219,-58.42397738,-108.83465692,18.58571649,-20.45548567
26.79194605,0.02357165,0.02109140,2.76972134

>  <Name>
ligand

>  <RI>
0

>  <Rbt.Current_Directory>
/home/itssahil/PROJECTS/Mol_Feturizer/Test_systems_manuscript/rnas/3sd3

>  <Rbt.Executable>
rbdock ($Id: //depot/dev/client3/rdock/2013.1/src/exe/rbdock.cxx#4 $)

>  <Rbt.Library>
libRbt.so (2013.1, Build901 2013/11/27)

>  <Rbt.Parameter_File>
/export/apps/rDock/src/rDock_2013.1_src/data/scripts/dock_solv.prm

>  <Rbt.Receptor>
prm/pocket_docking_3.prm

>  <SCORE>
-14.2553

>  <SCORE.INTER>
-13.0777

>  <SCORE.INTER.CONST>
1

>  <SCORE.INTER.POLAR>
0

>  <SCORE.INTER.ROT>
4

>  <SCORE.INTER.SOLV>
7.09446

>  <SCORE.INTER.VDW>
-17.35

>  <SCORE.INTER.norm>
-0.594443

>  <SCORE.INTRA>
-1.1776

>  <SCORE.INTRA.DIHEDRAL>
-0.30774

>  <SCORE.INTRA.DIHEDRAL.0>
2.54655

>  <SCORE.INTRA.POLAR>
0

>  <SCORE.INTRA.POLAR.0>
0

>  <SCORE.INTRA.REPUL>
0

>  <SCORE.INTRA.REPUL.0>
0

>  <SCORE.INTRA.SOLV>
0.601993

>  <SCORE.INTRA.SOLV.lig_0>
-56.4922

>  <SCORE.INTRA.VDW>
-1.32473

>  <SCORE.INTRA.VDW.0>
-0.696801

>  <SCORE.INTRA.norm>
-0.0535275

>  <SCORE.RESTR>
0

>  <SCORE.RESTR.CAVITY>
0

>  <SCORE.RESTR.norm>
0

>  <SCORE.SYSTEM>
0

>  <SCORE.SYSTEM.CONST>
0

>  <SCORE.SYSTEM.DIHEDRAL>
0

>  <SCORE.SYSTEM.SOLV>
0

>  <SCORE.SYSTEM.norm>
0

>  <SCORE.heavy>
22

>  <SCORE.norm>
-0.64797

>  <RMSD>
6.771

$$$$
ligand
 OpenBabel02271912143D
libRbt.so/2013.1/901 2013/11/27
 22 24  0  0  0  0  0  0  0  0999 V2000
   20.8413  -24.5007   20.2962 N   0  0  0  0  0  0  0  0  0  0  0  0
   20.8031  -23.5900   22.5103 N   0  0  0  0  0  0  0  0  0  0  0  0
   20.4175  -23.4899   21.2275 C   0  0  0  0  0  0  0  0  0  0  0  0
   19.6599  -22.4898   20.7941 N   0  0  0  0  0  0  0  0  0  0  0  0
   20.1194  -18.6048   23.4273 O   0  0  0  0  0  0  0  0  0  0  0  0
   19.2537  -21.5333   21.6493 C   0  0  0  0  0  0  0  0  0  0  0  0
   19.6536  -21.6003   23.0131 C   0  0  0  0  0  0  0  0  0  0  0  0
   18.4679  -20.5075   21.1742 O   0  0  0  0  0  0  0  0  0  0  0  0
   19.2760  -20.6577   24.0475 N   0  0  0  0  0  0  0  0  0  0  0  0
   18.9609  -21.2219   25.3663 C   0  0  2  0  0  0  0  0  0  0  0  0
   20.0636  -22.1202   25.8327 C   0  0  0  0  0  0  0  0  0  0  0  0
   20.4278  -22.6612   23.4114 C   0  0  0  0  0  0  0  0  0  0  0  0
   20.8305  -22.7560   24.7632 N   0  0  0  0  0  0  0  0  0  0  0  0
   17.6359  -22.0045   25.4080 C   0  0  0  0  0  0  0  0  0  0  0  0
   16.5461  -21.1897   24.8850 N   0  0  0  0  0  0  0  0  0  0  0  0
   13.3192  -19.9714   27.3759 C   0  0  0  0  0  0  0  0  0  0  0  0
   14.5714  -19.4040   27.5415 C   0  0  0  0  0  0  0  0  0  0  0  0
   15.6436  -19.8021   26.7197 C   0  0  0  0  0  0  0  0  0  0  0  0
   15.4462  -20.7663   25.7428 C   0  0  0  0  0  0  0  0  0  0  0  0
   14.1864  -21.3347   25.5786 C   0  0  0  0  0  0  0  0  0  0  0  0
   13.1233  -20.9370   26.3934 C   0  0  0  0  0  0  0  0  0  0  0  0
   19.1783  -19.2510   23.8564 C   0  0  0  0  0  0  0  0  0  0  0  0
  1  3  1  0  0  0  0
  2  3  2  0  0  0  0
  2 12  1  0  0  0  0
  3  4  1  0  0  0  0
  4  6  1  0  0  0  0
  5 22  1  0  0  0  0
  6  7  1  0  0  0  0
  6  8  2  0  0  0  0
  7 12  2  0  0  0  0
  7  9  1  0  0  0  0
  9 10  1  0  0  0  0
  9 22  1  0  0  0  0
 10 11  1  0  0  0  0
 10 14  1  6  0  0  0
 11 13  1  0  0  0  0
 12 13  1  0  0  0  0
 14 15  1  0  0  0  0
 15 19  1  0  0  0  0
 16 17  2  0  0  0  0
 16 21  1  0  0  0  0
 17 18  1  0  0  0  0
 18 19  2  0  0  0  0
 19 20  1  0  0  0  0
 20 21  2  0  0  0  0
M  END
>  <CHROM.1>
-55.46407453,-52.82464864,-114.85844299,71.59522032,18.22694968,-21.37291122
24.05798976,0.68434509,-0.29090263,-2.36851553

>  <Name>
ligand

>  <RI>
0

>  <Rbt.Current_Directory>
/home/itssahil/PROJECTS/Mol_Feturizer/Test_systems_manuscript/rnas/3sd3

>  <Rbt.Executable>
rbdock ($Id: //depot/dev/client3/rdock/2013.1/src/exe/rbdock.cxx#4 $)

>  <Rbt.Library>
libRbt.so (2013.1, Build901 2013/11/27)

>  <Rbt.Parameter_File>
/export/apps/rDock/src/rDock_2013.1_src/data/scripts/dock_solv.prm

>  <Rbt.Receptor>
prm/pocket_docking_6.prm

>  <SCORE>
-16.7346

>  <SCORE.INTER>
-15.9488

>  <SCORE.INTER.CONST>
1

>  <SCORE.INTER.POLAR>
0

>  <SCORE.INTER.ROT>
4

>  <SCORE.INTER.SOLV>
15.058

>  <SCORE.INTER.VDW>
-21.9185

>  <SCORE.INTER.norm>
-0.724944

>  <SCORE.INTRA>
-0.78584

>  <SCORE.INTRA.DIHEDRAL>
0.450643

>  <SCORE.INTRA.DIHEDRAL.0>
2.54655

>  <SCORE.INTRA.POLAR>
0

>  <SCORE.INTRA.POLAR.0>
0

>  <SCORE.INTRA.REPUL>
0

>  <SCORE.INTRA.REPUL.0>
0

>  <SCORE.INTRA.SOLV>
-0.00929439

>  <SCORE.INTRA.SOLV.lig_0>
-56.4922

>  <SCORE.INTRA.VDW>
-1.00651

>  <SCORE.INTRA.VDW.0>
-0.696801

>  <SCORE.INTRA.norm>
-0.03572

>  <SCORE.RESTR>
0

>  <SCORE.RESTR.CAVITY>
0

>  <SCORE.RESTR.norm>
0

>  <SCORE.SYSTEM>
0

>  <SCORE.SYSTEM.CONST>
0

>  <SCORE.SYSTEM.DIHEDRAL>
0

>  <SCORE.SYSTEM.SOLV>
0

>  <SCORE.SYSTEM.norm>
0

>  <SCORE.heavy>
22

>  <SCORE.norm>
-0.760664

>  <RMSD>
6.775

$$$$
ligand
 OpenBabel02271912143D
libRbt.so/2013.1/901 2013/11/27
 22 24  0  0  0  0  0  0  0  0999 V2000
   23.5814  -21.8691   26.8282 N   0  0  0  0  0  0  0  0  0  0  0  0
   22.0151  -20.1927   26.1432 N   0  0  0  0  0  0  0  0  0  0  0  0
   22.3015  -21.4971   26.2876 C   0  0  0  0  0  0  0  0  0  0  0  0
   21.4426  -22.4503   25.9477 N   0  0  0  0  0  0  0  0  0  0  0  0
   18.4737  -21.5357   22.8412 O   0  0  0  0  0  0  0  0  0  0  0  0
   20.2403  -22.1231   25.4392 C   0  0  0  0  0  0  0  0  0  0  0  0
   19.9076  -20.7513   25.2603 C   0  0  0  0  0  0  0  0  0  0  0  0
   19.3677  -23.1310   25.0956 O   0  0  0  0  0  0  0  0  0  0  0  0
   18.6476  -20.2515   24.7467 N   0  0  0  0  0  0  0  0  0  0  0  0
   18.1037  -19.0519   25.3963 C   0  0  2  0  0  0  0  0  0  0  0  0
   19.1333  -17.9666   25.4464 C   0  0  0  0  0  0  0  0  0  0  0  0
   20.8275  -19.8055   25.6383 C   0  0  0  0  0  0  0  0  0  0  0  0
   20.5173  -18.4354   25.4798 N   0  0  0  0  0  0  0  0  0  0  0  0
   17.5785  -19.3000   26.8219 C   0  0  0  0  0  0  0  0  0  0  0  0
   16.8176  -20.5423   26.8757 N   0  0  0  0  0  0  0  0  0  0  0  0
   12.5805  -20.5488   26.4912 C   0  0  0  0  0  0  0  0  0  0  0  0
   13.1737  -19.9352   27.5817 C   0  0  0  0  0  0  0  0  0  0  0  0
   14.5758  -19.9286   27.7144 C   0  0  0  0  0  0  0  0  0  0  0  0
   15.3652  -20.5397   26.7520 C   0  0  0  0  0  0  0  0  0  0  0  0
   14.7660  -21.1555   25.6571 C   0  0  0  0  0  0  0  0  0  0  0  0
   13.3750  -21.1591   25.5258 C   0  0  0  0  0  0  0  0  0  0  0  0
   17.9163  -20.8545   23.6854 C   0  0  0  0  0  0  0  0  0  0  0  0
  1  3  1  0  0  0  0
  2  3  2  0  0  0  0
  2 12  1  0  0  0  0
  3  4  1  0  0  0  0
  4  6  1  0  0  0  0
  5 22  1  0  0  0  0
  6  7  1  0  0  0  0
  6  8  2  0  0  0  0
  7 12  2  0  0  0  0
  7  9  1  0  0  0  0
  9 10  1  0  0  0  0
  9 22  1  0  0  0  0
 10 11  1  0  0  0  0
 10 14  1  1  0  0  0
 11 13  1  0  0  0  0
 12 13  1  0  0  0  0
 14 15  1  0  0  0  0
 15 19  1  0  0  0  0
 16 17  2  0  0  0  0
 16 21  1  0  0  0  0
 17 18  1  0  0  0  0
 18 19  2  0  0  0  0
 19 20  1  0  0  0  0
 20 21  2  0  0  0  0
M  END
>  <CHROM.1>
-25.44956088,-42.88959147,-95.78358923,-64.70354578,18.32702436,-20.61040509
25.74909042,-0.12485044,0.04545820,0.46224529

>  <Name>
ligand

>  <RI>
0

>  <Rbt.Current_Directory>
/home/itssahil/PROJECTS/Mol_Feturizer/Test_systems_manuscript/rnas/3sd3

>  <Rbt.Executable>
rbdock ($Id: //depot/dev/client3/rdock/2013.1/src/exe/rbdock.cxx#4 $)

>  <Rbt.Library>
libRbt.so (2013.1, Build901 2013/11/27)

>  <Rbt.Parameter_File>
/export/apps/rDock/src/rDock_2013.1_src/data/scripts/dock_solv.prm

>  <Rbt.Receptor>
prm/pocket_docking_2.prm

>  <SCORE>
-9.89323

>  <SCORE.INTER>
-10.589

>  <SCORE.INTER.CONST>
1

>  <SCORE.INTER.POLAR>
0

>  <SCORE.INTER.ROT>
4

>  <SCORE.INTER.SOLV>
6.40066

>  <SCORE.INTER.VDW>
-15.4595

>  <SCORE.INTER.norm>
-0.481316

>  <SCORE.INTRA>
-0.562735

>  <SCORE.INTRA.DIHEDRAL>
0.836181

>  <SCORE.INTRA.DIHEDRAL.0>
2.54655

>  <SCORE.INTRA.POLAR>
0

>  <SCORE.INTRA.POLAR.0>
0

>  <SCORE.INTRA.REPUL>
0

>  <SCORE.INTRA.REPUL.0>
0

>  <SCORE.INTRA.SOLV>
0.389249

>  <SCORE.INTRA.SOLV.lig_0>
-56.4922

>  <SCORE.INTRA.VDW>
-1.17545

>  <SCORE.INTRA.VDW.0>
-0.696801

>  <SCORE.INTRA.norm>
-0.0255789

>  <SCORE.RESTR>
1.25846

>  <SCORE.RESTR.CAVITY>
1.25846

>  <SCORE.RESTR.norm>
0.0572028

>  <SCORE.SYSTEM>
0

>  <SCORE.SYSTEM.CONST>
0

>  <SCORE.SYSTEM.DIHEDRAL>
0

>  <SCORE.SYSTEM.SOLV>
0

>  <SCORE.SYSTEM.norm>
0

>  <SCORE.heavy>
22

>  <SCORE.norm>
-0.449692

>  <RMSD>
6.777

$$$$
ligand
 OpenBabel02271912143D
libRbt.so/2013.1/901 2013/11/27
 22 24  0  0  0  0  0  0  0  0999 V2000
   23.3946  -22.7001   22.6407 N   0  0  0  0  0  0  0  0  0  0  0  0
   22.1018  -22.4760   24.6435 N   0  0  0  0  0  0  0  0  0  0  0  0
   22.3614  -22.0459   23.3978 C   0  0  0  0  0  0  0  0  0  0  0  0
   21.6961  -21.0387   22.8457 N   0  0  0  0  0  0  0  0  0  0  0  0
   19.9562  -18.0328   25.6538 O   0  0  0  0  0  0  0  0  0  0  0  0
   20.7264  -20.4126   23.5377 C   0  0  0  0  0  0  0  0  0  0  0  0
   20.4328  -20.8333   24.8649 C   0  0  0  0  0  0  0  0  0  0  0  0
   20.0510  -19.3715   22.9416 O   0  0  0  0  0  0  0  0  0  0  0  0
   19.4054  -20.2695   25.7180 N   0  0  0  0  0  0  0  0  0  0  0  0
   18.6389  -21.2178   26.5366 C   0  0  2  0  0  0  0  0  0  0  0  0
   19.5587  -22.1053   27.3157 C   0  0  0  0  0  0  0  0  0  0  0  0
   21.1428  -21.8867   25.3842 C   0  0  0  0  0  0  0  0  0  0  0  0
   20.8637  -22.3301   26.6972 N   0  0  0  0  0  0  0  0  0  0  0  0
   17.6715  -22.0994   25.7263 C   0  0  0  0  0  0  0  0  0  0  0  0
   16.6521  -21.2795   25.0832 N   0  0  0  0  0  0  0  0  0  0  0  0
   13.1920  -20.0052   27.2058 C   0  0  0  0  0  0  0  0  0  0  0  0
   14.4275  -19.4572   27.5071 C   0  0  0  0  0  0  0  0  0  0  0  0
   15.5766  -19.8739   26.8076 C   0  0  0  0  0  0  0  0  0  0  0  0
   15.4719  -20.8370   25.8154 C   0  0  0  0  0  0  0  0  0  0  0  0
   14.2287  -21.3858   25.5147 C   0  0  0  0  0  0  0  0  0  0  0  0
   13.0894  -20.9696   26.2082 C   0  0  0  0  0  0  0  0  0  0  0  0
   19.0929  -18.8833   25.7914 C   0  0  0  0  0  0  0  0  0  0  0  0
  1  3  1  0  0  0  0
  2  3  2  0  0  0  0
  2 12  1  0  0  0  0
  3  4  1  0  0  0  0
  4  6  1  0  0  0  0
  5 22  1  0  0  0  0
  6  7  1  0  0  0  0
  6  8  2  0  0  0  0
  7 12  2  0  0  0  0
  7  9  1  0  0  0  0
  9 10  1  0  0  0  0
  9 22  1  0  0  0  0
 10 11  1  0  0  0  0
 10 14  1  6  0  0  0
 11 13  1  0  0  0  0
 12 13  1  0  0  0  0
 14 15  1  0  0  0  0
 15 19  1  0  0  0  0
 16 17  2  0  0  0  0
 16 21  1  0  0  0  0
 17 18  1  0  0  0  0
 18 19  2  0  0  0  0
 19 20  1  0  0  0  0
 20 21  2  0  0  0  0
M  END
>  <CHROM.1>
-33.34997322,-63.26965902,-82.14807954,70.99165023,18.74991833,-20.86384150
25.31954862,0.00532274,-0.36776327,2.76486468

>  <Name>
ligand

>  <RI>
0

>  <Rbt.Current_Directory>
/home/itssahil/PROJECTS/Mol_Feturizer/Test_systems_manuscript/rnas/3sd3

>  <Rbt.Executable>
rbdock ($Id: //depot/dev/client3/rdock/2013.1/src/exe/rbdock.cxx#4 $)

>  <Rbt.Library>
libRbt.so (2013.1, Build901 2013/11/27)

>  <Rbt.Parameter_File>
/export/apps/rDock/src/rDock_2013.1_src/data/scripts/dock_solv.prm

>  <Rbt.Receptor>
prm/pocket_docking_5.prm

>  <SCORE>
-13.6502

>  <SCORE.INTER>
-12.1523

>  <SCORE.INTER.CONST>
1

>  <SCORE.INTER.POLAR>
0

>  <SCORE.INTER.ROT>
4

>  <SCORE.INTER.SOLV>
6.44745

>  <SCORE.INTER.VDW>
-16.5173

>  <SCORE.INTER.norm>
-0.552377

>  <SCORE.INTRA>
-1.49787

>  <SCORE.INTRA.DIHEDRAL>
-0.544425

>  <SCORE.INTRA.DIHEDRAL.0>
2.54655

>  <SCORE.INTRA.POLAR>
0

>  <SCORE.INTRA.POLAR.0>
0

>  <SCORE.INTRA.REPUL>
0

>  <SCORE.INTRA.REPUL.0>
0

>  <SCORE.INTRA.SOLV>
-0.0874711

>  <SCORE.INTRA.SOLV.lig_0>
-56.4922

>  <SCORE.INTRA.VDW>
-1.18192

>  <SCORE.INTRA.VDW.0>
-0.696801

>  <SCORE.INTRA.norm>
-0.0680851

>  <SCORE.RESTR>
0

>  <SCORE.RESTR.CAVITY>
0

>  <SCORE.RESTR.norm>
0

>  <SCORE.SYSTEM>
0

>  <SCORE.SYSTEM.CONST>
0

>  <SCORE.SYSTEM.DIHEDRAL>
0

>  <SCORE.SYSTEM.SOLV>
0

>  <SCORE.SYSTEM.norm>
0

>  <SCORE.heavy>
22

>  <SCORE.norm>
-0.620462

>  <RMSD>
6.777

$$$$
ligand
 OpenBabel02271912143D
libRbt.so/2013.1/901 2013/11/27
 22 24  0  0  0  0  0  0  0  0999 V2000
   25.5995  -22.5410   26.5529 N   0  0  0  0  0  0  0  0  0  0  0  0
   23.5918  -22.7778   25.2699 N   0  0  0  0  0  0  0  0  0  0  0  0
   24.1679  -22.4587   26.4406 C   0  0  0  0  0  0  0  0  0  0  0  0
   23.4591  -22.0713   27.4937 N   0  0  0  0  0  0  0  0  0  0  0  0
   17.9427  -22.9994   26.5430 O   0  0  0  0  0  0  0  0  0  0  0  0
   22.1184  -21.9888   27.4096 C   0  0  0  0  0  0  0  0  0  0  0  0
   21.4730  -22.3313   26.1887 C   0  0  0  0  0  0  0  0  0  0  0  0
   21.4069  -21.5835   28.5164 O   0  0  0  0  0  0  0  0  0  0  0  0
   20.0453  -22.2696   25.9459 N   0  0  0  0  0  0  0  0  0  0  0  0
   19.6243  -21.7748   24.6288 C   0  0  2  0  0  0  0  0  0  0  0  0
   20.3245  -22.5214   23.5366 C   0  0  0  0  0  0  0  0  0  0  0  0
   22.2536  -22.7150   25.1270 C   0  0  0  0  0  0  0  0  0  0  0  0
   21.6373  -23.0512   23.8999 N   0  0  0  0  0  0  0  0  0  0  0  0
   19.8601  -20.2672   24.4258 C   0  0  0  0  0  0  0  0  0  0  0  0
   18.7990  -19.4953   25.0609 N   0  0  0  0  0  0  0  0  0  0  0  0
   14.8338  -21.0109   25.3458 C   0  0  0  0  0  0  0  0  0  0  0  0
   15.4881  -21.0143   24.1254 C   0  0  0  0  0  0  0  0  0  0  0  0
   16.8011  -20.5150   24.0245 C   0  0  0  0  0  0  0  0  0  0  0  0
   17.4406  -20.0166   25.1494 C   0  0  0  0  0  0  0  0  0  0  0  0
   16.7805  -20.0146   26.3746 C   0  0  0  0  0  0  0  0  0  0  0  0
   15.4787  -20.5124   26.4734 C   0  0  0  0  0  0  0  0  0  0  0  0
   19.0518  -22.6357   26.8965 C   0  0  0  0  0  0  0  0  0  0  0  0
  1  3  1  0  0  0  0
  2  3  2  0  0  0  0
  2 12  1  0  0  0  0
  3  4  1  0  0  0  0
  4  6  1  0  0  0  0
  5 22  1  0  0  0  0
  6  7  1  0  0  0  0
  6  8  2  0  0  0  0
  7 12  2  0  0  0  0
  7  9  1  0  0  0  0
  9 10  1  0  0  0  0
  9 22  1  0  0  0  0
 10 11  1  0  0  0  0
 10 14  1  1  0  0  0
 11 13  1  0  0  0  0
 12 13  1  0  0  0  0
 14 15  1  0  0  0  0
 15 19  1  0  0  0  0
 16 17  2  0  0  0  0
 16 21  1  0  0  0  0
 17 18  1  0  0  0  0
 18 19  2  0  0  0  0
 19 20  1  0  0  0  0
 20 21  2  0  0  0  0
M  END
>  <CHROM.1>
-154.85789522,-80.25314931,-31.96249426,-50.37039946,19.99936371,-21.69805535
25.73226347,-0.13694282,0.24563278,-1.62204985

>  <Name>
ligand

>  <RI>
0

>  <Rbt.Current_Directory>
/home/itssahil/PROJECTS/Mol_Feturizer/Test_systems_manuscript/rnas/3sd3

>  <Rbt.Executable>
rbdock ($Id: //depot/dev/client3/rdock/2013.1/src/exe/rbdock.cxx#4 $)

>  <Rbt.Library>
libRbt.so (2013.1, Build901 2013/11/27)

>  <Rbt.Parameter_File>
/export/apps/rDock/src/rDock_2013.1_src/data/scripts/dock_solv.prm

>  <Rbt.Receptor>
prm/pocket_docking_2.prm

>  <SCORE>
-9.9629

>  <SCORE.INTER>
-10.5089

>  <SCORE.INTER.CONST>
1

>  <SCORE.INTER.POLAR>
0

>  <SCORE.INTER.ROT>
4

>  <SCORE.INTER.SOLV>
6.29414

>  <SCORE.INTER.VDW>
-15.3707

>  <SCORE.INTER.norm>
-0.477679

>  <SCORE.INTRA>
-0.514844

>  <SCORE.INTRA.DIHEDRAL>
0.911794

>  <SCORE.INTRA.DIHEDRAL.0>
2.54655

>  <SCORE.INTRA.POLAR>
0

>  <SCORE.INTRA.POLAR.0>
0

>  <SCORE.INTRA.REPUL>
0

>  <SCORE.INTRA.REPUL.0>
0

>  <SCORE.INTRA.SOLV>
0.0394517

>  <SCORE.INTRA.SOLV.lig_0>
-56.4922

>  <SCORE.INTRA.VDW>
-0.990466

>  <SCORE.INTRA.VDW.0>
-0.696801

>  <SCORE.INTRA.norm>
-0.023402

>  <SCORE.RESTR>
1.06087

>  <SCORE.RESTR.CAVITY>
1.06087

>  <SCORE.RESTR.norm>
0.0482214

>  <SCORE.SYSTEM>
0

>  <SCORE.SYSTEM.CONST>
0

>  <SCORE.SYSTEM.DIHEDRAL>
0

>  <SCORE.SYSTEM.SOLV>
0

>  <SCORE.SYSTEM.norm>
0

>  <SCORE.heavy>
22

>  <SCORE.norm>
-0.452859

>  <RMSD>
6.781

$$$$
ligand
 OpenBabel02271912143D
libRbt.so/2013.1/901 2013/11/27
 22 24  0  0  0  0  0  0  0  0999 V2000
   22.9301  -22.2081   24.7672 N   0  0  0  0  0  0  0  0  0  0  0  0
   21.8688  -21.7847   26.8713 N   0  0  0  0  0  0  0  0  0  0  0  0
   22.0839  -21.3991   25.6028 C   0  0  0  0  0  0  0  0  0  0  0  0
   21.5415  -20.2978   25.0982 N   0  0  0  0  0  0  0  0  0  0  0  0
   20.5392  -17.0565   27.9624 O   0  0  0  0  0  0  0  0  0  0  0  0
   20.7476  -19.5265   25.8638 C   0  0  0  0  0  0  0  0  0  0  0  0
   20.5078  -19.8976   27.2163 C   0  0  0  0  0  0  0  0  0  0  0  0
   20.1969  -18.3899   25.3157 O   0  0  0  0  0  0  0  0  0  0  0  0
   19.6613  -19.1790   28.1481 N   0  0  0  0  0  0  0  0  0  0  0  0
   18.8282  -19.9946   29.0412 C   0  0  2  0  0  0  0  0  0  0  0  0
   19.6596  -21.0188   29.7485 C   0  0  0  0  0  0  0  0  0  0  0  0
   21.0839  -21.0517   27.6849 C   0  0  0  0  0  0  0  0  0  0  0  0
   20.8534  -21.4475   29.0223 N   0  0  0  0  0  0  0  0  0  0  0  0
   17.6661  -20.7092   28.3280 C   0  0  0  0  0  0  0  0  0  0  0  0
   16.8531  -19.7496   27.5910 N   0  0  0  0  0  0  0  0  0  0  0  0
   13.1179  -20.8889   25.9023 C   0  0  0  0  0  0  0  0  0  0  0  0
   13.1493  -20.1382   27.0655 C   0  0  0  0  0  0  0  0  0  0  0  0
   14.3824  -19.7570   27.6291 C   0  0  0  0  0  0  0  0  0  0  0  0
   15.5689  -20.1355   27.0194 C   0  0  0  0  0  0  0  0  0  0  0  0
   15.5341  -20.8898   25.8503 C   0  0  0  0  0  0  0  0  0  0  0  0
   14.3099  -21.2654   25.2913 C   0  0  0  0  0  0  0  0  0  0  0  0
   19.5806  -17.7608   28.2316 C   0  0  0  0  0  0  0  0  0  0  0  0
  1  3  1  0  0  0  0
  2  3  2  0  0  0  0
  2 12  1  0  0  0  0
  3  4  1  0  0  0  0
  4  6  1  0  0  0  0
  5 22  1  0  0  0  0
  6  7  1  0  0  0  0
  6  8  2  0  0  0  0
  7 12  2  0  0  0  0
  7  9  1  0  0  0  0
  9 10  1  0  0  0  0
  9 22  1  0  0  0  0
 10 11  1  0  0  0  0
 10 14  1  6  0  0  0
 11 13  1  0  0  0  0
 12 13  1  0  0  0  0
 14 15  1  0  0  0  0
 15 19  1  0  0  0  0
 16 17  2  0  0  0  0
 16 21  1  0  0  0  0
 17 18  1  0  0  0  0
 18 19  2  0  0  0  0
 19 20  1  0  0  0  0
 20 21  2  0  0  0  0
M  END
>  <CHROM.1>
-30.63741603,-54.46639206,-169.49444570,103.50162495,18.80023846,-20.15354360
27.08207262,0.01522562,0.00149919,-2.17018562

>  <Name>
ligand

>  <RI>
0

>  <Rbt.Current_Directory>
/home/itssahil/PROJECTS/Mol_Feturizer/Test_systems_manuscript/rnas/3sd3

>  <Rbt.Executable>
rbdock ($Id: //depot/dev/client3/rdock/2013.1/src/exe/rbdock.cxx#4 $)

>  <Rbt.Library>
libRbt.so (2013.1, Build901 2013/11/27)

>  <Rbt.Parameter_File>
/export/apps/rDock/src/rDock_2013.1_src/data/scripts/dock_solv.prm

>  <Rbt.Receptor>
prm/pocket_docking_4.prm

>  <SCORE>
-12.6036

>  <SCORE.INTER>
-11.4297

>  <SCORE.INTER.CONST>
1

>  <SCORE.INTER.POLAR>
0

>  <SCORE.INTER.ROT>
4

>  <SCORE.INTER.SOLV>
6.57886

>  <SCORE.INTER.VDW>
-16.0794

>  <SCORE.INTER.norm>
-0.519533

>  <SCORE.INTRA>
-1.17386

>  <SCORE.INTRA.DIHEDRAL>
-0.735055

>  <SCORE.INTRA.DIHEDRAL.0>
2.54655

>  <SCORE.INTRA.POLAR>
0

>  <SCORE.INTRA.POLAR.0>
0

>  <SCORE.INTRA.REPUL>
0

>  <SCORE.INTRA.REPUL.0>
0

>  <SCORE.INTRA.SOLV>
0.0477252

>  <SCORE.INTRA.SOLV.lig_0>
-56.4922

>  <SCORE.INTRA.VDW>
-0.830193

>  <SCORE.INTRA.VDW.0>
-0.696801

>  <SCORE.INTRA.norm>
-0.0533572

>  <SCORE.RESTR>
0

>  <SCORE.RESTR.CAVITY>
0

>  <SCORE.RESTR.norm>
0

>  <SCORE.SYSTEM>
0

>  <SCORE.SYSTEM.CONST>
0

>  <SCORE.SYSTEM.DIHEDRAL>
0

>  <SCORE.SYSTEM.SOLV>
0

>  <SCORE.SYSTEM.norm>
0

>  <SCORE.heavy>
22

>  <SCORE.norm>
-0.57289

>  <RMSD>
6.782

$$$$
ligand
 OpenBabel02271912143D
libRbt.so/2013.1/901 2013/11/27
 22 24  0  0  0  0  0  0  0  0999 V2000
   20.8859  -24.5430   20.3445 N   0  0  0  0  0  0  0  0  0  0  0  0
   20.8348  -23.5727   22.5329 N   0  0  0  0  0  0  0  0  0  0  0  0
   20.4527  -23.5100   21.2467 C   0  0  0  0  0  0  0  0  0  0  0  0
   19.6901  -22.5271   20.7840 N   0  0  0  0  0  0  0  0  0  0  0  0
   20.1710  -18.5075   23.6622 O   0  0  0  0  0  0  0  0  0  0  0  0
   19.2750  -21.5503   21.6116 C   0  0  0  0  0  0  0  0  0  0  0  0
   19.6710  -21.5777   22.9780 C   0  0  0  0  0  0  0  0  0  0  0  0
   18.4842  -20.5429   21.1065 O   0  0  0  0  0  0  0  0  0  0  0  0
   19.2842  -20.6097   23.9852 N   0  0  0  0  0  0  0  0  0  0  0  0
   18.9685  -21.1399   25.3179 C   0  0  2  0  0  0  0  0  0  0  0  0
   20.0755  -22.0180   25.8119 C   0  0  0  0  0  0  0  0  0  0  0  0
   20.4507  -22.6223   23.4072 C   0  0  0  0  0  0  0  0  0  0  0  0
   20.8497  -22.6777   24.7623 N   0  0  0  0  0  0  0  0  0  0  0  0
   17.6484  -21.9297   25.3769 C   0  0  0  0  0  0  0  0  0  0  0  0
   16.5474  -21.1209   24.8682 N   0  0  0  0  0  0  0  0  0  0  0  0
   13.3104  -20.0017   27.3921 C   0  0  0  0  0  0  0  0  0  0  0  0
   13.1102  -20.9281   26.3825 C   0  0  0  0  0  0  0  0  0  0  0  0
   14.1777  -21.3036   25.5442 C   0  0  0  0  0  0  0  0  0  0  0  0
   15.4327  -20.7433   25.7283 C   0  0  0  0  0  0  0  0  0  0  0  0
   15.6309  -19.8126   26.7439 C   0  0  0  0  0  0  0  0  0  0  0  0
   14.5712  -19.4428   27.5761 C   0  0  0  0  0  0  0  0  0  0  0  0
   19.1780  -19.2094   23.7556 C   0  0  0  0  0  0  0  0  0  0  0  0
  1  3  1  0  0  0  0
  2  3  2  0  0  0  0
  2 12  1  0  0  0  0
  3  4  1  0  0  0  0
  4  6  1  0  0  0  0
  5 22  1  0  0  0  0
  6  7  1  0  0  0  0
  6  8  2  0  0  0  0
  7 12  2  0  0  0  0
  7  9  1  0  0  0  0
  9 10  1  0  0  0  0
  9 22  1  0  0  0  0
 10 11  1  0  0  0  0
 10 14  1  6  0  0  0
 11 13  1  0  0  0  0
 12 13  1  0  0  0  0
 14 15  1  0  0  0  0
 15 19  1  0  0  0  0
 16 17  2  0  0  0  0
 16 21  1  0  0  0  0
 17 18  1  0  0  0  0
 18 19  2  0  0  0  0
 19 20  1  0  0  0  0
 20 21  2  0  0  0  0
M  END
>  <CHROM.1>
-75.31992255,-54.63305965,-117.06387936,-109.25956541,18.24032165,-21.34862411
24.05497279,0.68471394,-0.28406293,-2.36335886

>  <Name>
ligand

>  <RI>
0

>  <Rbt.Current_Directory>
/home/itssahil/PROJECTS/Mol_Feturizer/Test_systems_manuscript/rnas/3sd3

>  <Rbt.Executable>
rbdock ($Id: //depot/dev/client3/rdock/2013.1/src/exe/rbdock.cxx#4 $)

>  <Rbt.Library>
libRbt.so (2013.1, Build901 2013/11/27)

>  <Rbt.Parameter_File>
/export/apps/rDock/src/rDock_2013.1_src/data/scripts/dock_solv.prm

>  <Rbt.Receptor>
prm/pocket_docking_7.prm

>  <SCORE>
-16.8723

>  <SCORE.INTER>
-16.0711

>  <SCORE.INTER.CONST>
1

>  <SCORE.INTER.POLAR>
0

>  <SCORE.INTER.ROT>
4

>  <SCORE.INTER.SOLV>
14.4376

>  <SCORE.INTER.VDW>
-21.7933

>  <SCORE.INTER.norm>
-0.730502

>  <SCORE.INTRA>
-0.801269

>  <SCORE.INTRA.DIHEDRAL>
0.410034

>  <SCORE.INTRA.DIHEDRAL.0>
2.54655

>  <SCORE.INTRA.POLAR>
0

>  <SCORE.INTRA.POLAR.0>
0

>  <SCORE.INTRA.REPUL>
0

>  <SCORE.INTRA.REPUL.0>
0

>  <SCORE.INTRA.SOLV>
-0.130126

>  <SCORE.INTRA.SOLV.lig_0>
-56.4922

>  <SCORE.INTRA.VDW>
-0.941224

>  <SCORE.INTRA.VDW.0>
-0.696801

>  <SCORE.INTRA.norm>
-0.0364213

>  <SCORE.RESTR>
0

>  <SCORE.RESTR.CAVITY>
0

>  <SCORE.RESTR.norm>
0

>  <SCORE.SYSTEM>
0

>  <SCORE.SYSTEM.CONST>
0

>  <SCORE.SYSTEM.DIHEDRAL>
0

>  <SCORE.SYSTEM.SOLV>
0

>  <SCORE.SYSTEM.norm>
0

>  <SCORE.heavy>
22

>  <SCORE.norm>
-0.766924

>  <RMSD>
6.786

$$$$
ligand
 OpenBabel02271912143D
libRbt.so/2013.1/901 2013/11/27
 22 24  0  0  0  0  0  0  0  0999 V2000
   24.9126  -21.6789   24.9007 N   0  0  0  0  0  0  0  0  0  0  0  0
   22.7283  -22.0015   23.9746 N   0  0  0  0  0  0  0  0  0  0  0  0
   23.4960  -21.8628   25.0681 C   0  0  0  0  0  0  0  0  0  0  0  0
   22.9892  -21.8903   26.2945 N   0  0  0  0  0  0  0  0  0  0  0  0
   18.1836  -22.6524   27.3249 O   0  0  0  0  0  0  0  0  0  0  0  0
   21.6664  -22.0624   26.4727 C   0  0  0  0  0  0  0  0  0  0  0  0
   20.8242  -22.2253   25.3375 C   0  0  0  0  0  0  0  0  0  0  0  0
   21.1662  -22.0863   27.7552 O   0  0  0  0  0  0  0  0  0  0  0  0
   19.3854  -22.3967   25.3753 N   0  0  0  0  0  0  0  0  0  0  0  0
   18.6135  -21.6962   24.3407 C   0  0  2  0  0  0  0  0  0  0  0  0
   19.1567  -22.0021   22.9799 C   0  0  0  0  0  0  0  0  0  0  0  0
   21.3977  -22.1778   24.0915 C   0  0  0  0  0  0  0  0  0  0  0  0
   20.5813  -22.3274   22.9470 N   0  0  0  0  0  0  0  0  0  0  0  0
   18.5714  -20.1683   24.5232 C   0  0  0  0  0  0  0  0  0  0  0  0
   17.2240  -19.6639   24.2883 N   0  0  0  0  0  0  0  0  0  0  0  0
   14.0295  -20.6557   26.9174 C   0  0  0  0  0  0  0  0  0  0  0  0
   14.0849  -21.2209   25.6545 C   0  0  0  0  0  0  0  0  0  0  0  0
   15.1401  -20.8975   24.7797 C   0  0  0  0  0  0  0  0  0  0  0  0
   16.1259  -20.0094   25.1825 C   0  0  0  0  0  0  0  0  0  0  0  0
   16.0677  -19.4432   26.4525 C   0  0  0  0  0  0  0  0  0  0  0  0
   15.0212  -19.7667   27.3200 C   0  0  0  0  0  0  0  0  0  0  0  0
   18.6936  -23.1728   26.3469 C   0  0  0  0  0  0  0  0  0  0  0  0
  1  3  1  0  0  0  0
  2  3  2  0  0  0  0
  2 12  1  0  0  0  0
  3  4  1  0  0  0  0
  4  6  1  0  0  0  0
  5 22  1  0  0  0  0
  6  7  1  0  0  0  0
  6  8  2  0  0  0  0
  7 12  2  0  0  0  0
  7  9  1  0  0  0  0
  9 10  1  0  0  0  0
  9 22  1  0  0  0  0
 10 11  1  0  0  0  0
 10 14  1  1  0  0  0
 11 13  1  0  0  0  0
 12 13  1  0  0  0  0
 14 15  1  0  0  0  0
 15 19  1  0  0  0  0
 16 17  2  0  0  0  0
 16 21  1  0  0  0  0
 17 18  1  0  0  0  0
 18 19  2  0  0  0  0
 19 20  1  0  0  0  0
 20 21  2  0  0  0  0
M  END
>  <CHROM.1>
97.56308126,-136.63604114,66.34709251,-107.34874445,19.19279365,-21.49807847
25.38754361,-0.08180329,-0.21684759,1.70981833

>  <Name>
ligand

>  <RI>
0

>  <Rbt.Current_Directory>
/home/itssahil/PROJECTS/Mol_Feturizer/Test_systems_manuscript/rnas/3sd3

>  <Rbt.Executable>
rbdock ($Id: //depot/dev/client3/rdock/2013.1/src/exe/rbdock.cxx#4 $)

>  <Rbt.Library>
libRbt.so (2013.1, Build901 2013/11/27)

>  <Rbt.Parameter_File>
/export/apps/rDock/src/rDock_2013.1_src/data/scripts/dock_solv.prm

>  <Rbt.Receptor>
prm/pocket_docking_3.prm

>  <SCORE>
-14.9167

>  <SCORE.INTER>
-14.9797

>  <SCORE.INTER.CONST>
1

>  <SCORE.INTER.POLAR>
0

>  <SCORE.INTER.ROT>
4

>  <SCORE.INTER.SOLV>
7.58995

>  <SCORE.INTER.VDW>
-18.7831

>  <SCORE.INTER.norm>
-0.680895

>  <SCORE.INTRA>
0.0629972

>  <SCORE.INTRA.DIHEDRAL>
3.39577

>  <SCORE.INTRA.DIHEDRAL.0>
2.54655

>  <SCORE.INTRA.POLAR>
0

>  <SCORE.INTRA.POLAR.0>
0

>  <SCORE.INTRA.REPUL>
0

>  <SCORE.INTRA.REPUL.0>
0

>  <SCORE.INTRA.SOLV>
-0.701909

>  <SCORE.INTRA.SOLV.lig_0>
-56.4922

>  <SCORE.INTRA.VDW>
-1.28393

>  <SCORE.INTRA.VDW.0>
-0.696801

>  <SCORE.INTRA.norm>
0.00286351

>  <SCORE.RESTR>
0

>  <SCORE.RESTR.CAVITY>
0

>  <SCORE.RESTR.norm>
0

>  <SCORE.SYSTEM>
0

>  <SCORE.SYSTEM.CONST>
0

>  <SCORE.SYSTEM.DIHEDRAL>
0

>  <SCORE.SYSTEM.SOLV>
0

>  <SCORE.SYSTEM.norm>
0

>  <SCORE.heavy>
22

>  <SCORE.norm>
-0.678032

>  <RMSD>
6.790

$$$$
ligand
 OpenBabel02271912143D
libRbt.so/2013.1/901 2013/11/27
 22 24  0  0  0  0  0  0  0  0999 V2000
   24.5338  -21.9197   25.7981 N   0  0  0  0  0  0  0  0  0  0  0  0
   22.2148  -22.5152   25.8235 N   0  0  0  0  0  0  0  0  0  0  0  0
   23.2004  -21.7413   26.3071 C   0  0  0  0  0  0  0  0  0  0  0  0
   22.9825  -20.8200   27.2374 N   0  0  0  0  0  0  0  0  0  0  0  0
   18.0833  -20.2086   29.2607 O   0  0  0  0  0  0  0  0  0  0  0  0
   21.7424  -20.6382   27.7274 C   0  0  0  0  0  0  0  0  0  0  0  0
   20.6760  -21.4488   27.2475 C   0  0  0  0  0  0  0  0  0  0  0  0
   21.5434  -19.6753   28.6912 O   0  0  0  0  0  0  0  0  0  0  0  0
   19.2915  -21.3512   27.6654 N   0  0  0  0  0  0  0  0  0  0  0  0
   18.2766  -21.5041   26.6150 C   0  0  2  0  0  0  0  0  0  0  0  0
   18.5151  -22.7558   25.8296 C   0  0  0  0  0  0  0  0  0  0  0  0
   20.9535  -22.3789   26.2772 C   0  0  0  0  0  0  0  0  0  0  0  0
   19.9096  -23.1903   25.7767 N   0  0  0  0  0  0  0  0  0  0  0  0
   18.2063  -20.3153   25.6395 C   0  0  0  0  0  0  0  0  0  0  0  0
   16.9293  -20.3076   24.9365 N   0  0  0  0  0  0  0  0  0  0  0  0
   13.2603  -20.3835   27.0892 C   0  0  0  0  0  0  0  0  0  0  0  0
   13.4125  -21.1656   25.9566 C   0  0  0  0  0  0  0  0  0  0  0  0
   14.6247  -21.1458   25.2400 C   0  0  0  0  0  0  0  0  0  0  0  0
   15.6688  -20.3399   25.6679 C   0  0  0  0  0  0  0  0  0  0  0  0
   15.5130  -19.5551   26.8067 C   0  0  0  0  0  0  0  0  0  0  0  0
   14.3104  -19.5775   27.5177 C   0  0  0  0  0  0  0  0  0  0  0  0
   18.8708  -21.1032   29.0019 C   0  0  0  0  0  0  0  0  0  0  0  0
  1  3  1  0  0  0  0
  2  3  2  0  0  0  0
  2 12  1  0  0  0  0
  3  4  1  0  0  0  0
  4  6  1  0  0  0  0
  5 22  1  0  0  0  0
  6  7  1  0  0  0  0
  6  8  2  0  0  0  0
  7 12  2  0  0  0  0
  7  9  1  0  0  0  0
  9 10  1  0  0  0  0
  9 22  1  0  0  0  0
 10 11  1  0  0  0  0
 10 14  1  6  0  0  0
 11 13  1  0  0  0  0
 12 13  1  0  0  0  0
 14 15  1  0  0  0  0
 15 19  1  0  0  0  0
 16 17  2  0  0  0  0
 16 21  1  0  0  0  0
 17 18  1  0  0  0  0
 18 19  2  0  0  0  0
 19 20  1  0  0  0  0
 20 21  2  0  0  0  0
M  END
>  <CHROM.1>
128.01936821,-160.63594116,53.66101744,-137.40737671,18.87353177,-21.09318467
26.77370594,0.03545607,0.14319627,-2.10591423

>  <Name>
ligand

>  <RI>
0

>  <Rbt.Current_Directory>
/home/itssahil/PROJECTS/Mol_Feturizer/Test_systems_manuscript/rnas/3sd3

>  <Rbt.Executable>
rbdock ($Id: //depot/dev/client3/rdock/2013.1/src/exe/rbdock.cxx#4 $)

>  <Rbt.Library>
libRbt.so (2013.1, Build901 2013/11/27)

>  <Rbt.Parameter_File>
/export/apps/rDock/src/rDock_2013.1_src/data/scripts/dock_solv.prm

>  <Rbt.Receptor>
prm/pocket_docking_3.prm

>  <SCORE>
-15.5895

>  <SCORE.INTER>
-14.895

>  <SCORE.INTER.CONST>
1

>  <SCORE.INTER.POLAR>
0

>  <SCORE.INTER.ROT>
4

>  <SCORE.INTER.SOLV>
9.21019

>  <SCORE.INTER.VDW>
-19.2667

>  <SCORE.INTER.norm>
-0.677046

>  <SCORE.INTRA>
-0.699308

>  <SCORE.INTRA.DIHEDRAL>
0.382116

>  <SCORE.INTRA.DIHEDRAL.0>
2.54655

>  <SCORE.INTRA.POLAR>
0

>  <SCORE.INTRA.POLAR.0>
0

>  <SCORE.INTRA.REPUL>
0

>  <SCORE.INTRA.REPUL.0>
0

>  <SCORE.INTRA.SOLV>
-0.658191

>  <SCORE.INTRA.SOLV.lig_0>
-56.4922

>  <SCORE.INTRA.VDW>
-0.56127

>  <SCORE.INTRA.VDW.0>
-0.696801

>  <SCORE.INTRA.norm>
-0.0317867

>  <SCORE.RESTR>
0.0048529

>  <SCORE.RESTR.CAVITY>
0.0048529

>  <SCORE.RESTR.norm>
0.000220586

>  <SCORE.SYSTEM>
0

>  <SCORE.SYSTEM.CONST>
0

>  <SCORE.SYSTEM.DIHEDRAL>
0

>  <SCORE.SYSTEM.SOLV>
0

>  <SCORE.SYSTEM.norm>
0

>  <SCORE.heavy>
22

>  <SCORE.norm>
-0.708613

>  <RMSD>
6.803

$$$$
ligand
 OpenBabel02271912143D
libRbt.so/2013.1/901 2013/11/27
 22 24  0  0  0  0  0  0  0  0999 V2000
   25.5707  -22.2790   25.9112 N   0  0  0  0  0  0  0  0  0  0  0  0
   23.4859  -22.3923   24.7390 N   0  0  0  0  0  0  0  0  0  0  0  0
   24.1324  -22.2724   25.9103 C   0  0  0  0  0  0  0  0  0  0  0  0
   23.4868  -22.1485   27.0634 N   0  0  0  0  0  0  0  0  0  0  0  0
   17.8954  -22.9906   26.3951 O   0  0  0  0  0  0  0  0  0  0  0  0
   22.1412  -22.1412   27.0842 C   0  0  0  0  0  0  0  0  0  0  0  0
   21.4231  -22.2788   25.8636 C   0  0  0  0  0  0  0  0  0  0  0  0
   21.4961  -22.0105   28.2935 O   0  0  0  0  0  0  0  0  0  0  0  0
   19.9797  -22.2663   25.7309 N   0  0  0  0  0  0  0  0  0  0  0  0
   19.4335  -21.5510   24.5703 C   0  0  2  0  0  0  0  0  0  0  0  0
   20.0864  -22.0191   23.3073 C   0  0  0  0  0  0  0  0  0  0  0  0
   22.1392  -22.3925   24.6983 C   0  0  0  0  0  0  0  0  0  0  0  0
   21.4494  -22.5209   23.4710 N   0  0  0  0  0  0  0  0  0  0  0  0
   19.5731  -20.0206   24.6602 C   0  0  0  0  0  0  0  0  0  0  0  0
   18.5327  -19.4633   25.5158 N   0  0  0  0  0  0  0  0  0  0  0  0
   14.5776  -21.0311   25.4963 C   0  0  0  0  0  0  0  0  0  0  0  0
   15.3130  -20.9985   24.3234 C   0  0  0  0  0  0  0  0  0  0  0  0
   16.6231  -20.4817   24.3233 C   0  0  0  0  0  0  0  0  0  0  0  0
   17.1784  -20.0023   25.5000 C   0  0  0  0  0  0  0  0  0  0  0  0
   16.4368  -20.0365   26.6772 C   0  0  0  0  0  0  0  0  0  0  0  0
   15.1380  -20.5516   26.6761 C   0  0  0  0  0  0  0  0  0  0  0  0
   19.0827  -22.8784   26.6503 C   0  0  0  0  0  0  0  0  0  0  0  0
  1  3  1  0  0  0  0
  2  3  2  0  0  0  0
  2 12  1  0  0  0  0
  3  4  1  0  0  0  0
  4  6  1  0  0  0  0
  5 22  1  0  0  0  0
  6  7  1  0  0  0  0
  6  8  2  0  0  0  0
  7 12  2  0  0  0  0
  7  9  1  0  0  0  0
  9 10  1  0  0  0  0
  9 22  1  0  0  0  0
 10 11  1  0  0  0  0
 10 14  1  1  0  0  0
 11 13  1  0  0  0  0
 12 13  1  0  0  0  0
 14 15  1  0  0  0  0
 15 19  1  0  0  0  0
 16 17  2  0  0  0  0
 16 21  1  0  0  0  0
 17 18  1  0  0  0  0
 18 19  2  0  0  0  0
 19 20  1  0  0  0  0
 20 21  2  0  0  0  0
M  END
>  <CHROM.1>
-170.01525699,-79.67807069,-38.00600787,-34.64607627,19.86772126,-21.61589758
25.60711634,-0.06830494,0.20921264,-1.48664182

>  <Name>
ligand

>  <RI>
0

>  <Rbt.Current_Directory>
/home/itssahil/PROJECTS/Mol_Feturizer/Test_systems_manuscript/rnas/3sd3

>  <Rbt.Executable>
rbdock ($Id: //depot/dev/client3/rdock/2013.1/src/exe/rbdock.cxx#4 $)

>  <Rbt.Library>
libRbt.so (2013.1, Build901 2013/11/27)

>  <Rbt.Parameter_File>
/export/apps/rDock/src/rDock_2013.1_src/data/scripts/dock_solv.prm

>  <Rbt.Receptor>
prm/pocket_docking_2.prm

>  <SCORE>
-10.5115

>  <SCORE.INTER>
-11.219

>  <SCORE.INTER.CONST>
1

>  <SCORE.INTER.POLAR>
0

>  <SCORE.INTER.ROT>
4

>  <SCORE.INTER.SOLV>
5.15061

>  <SCORE.INTER.VDW>
-15.4629

>  <SCORE.INTER.norm>
-0.509955

>  <SCORE.INTRA>
-0.231012

>  <SCORE.INTRA.DIHEDRAL>
0.674659

>  <SCORE.INTRA.DIHEDRAL.0>
2.54655

>  <SCORE.INTRA.POLAR>
0

>  <SCORE.INTRA.POLAR.0>
0

>  <SCORE.INTRA.REPUL>
0

>  <SCORE.INTRA.REPUL.0>
0

>  <SCORE.INTRA.SOLV>
0.17215

>  <SCORE.INTRA.SOLV.lig_0>
-56.4922

>  <SCORE.INTRA.VDW>
-0.654417

>  <SCORE.INTRA.VDW.0>
-0.696801

>  <SCORE.INTRA.norm>
-0.0105006

>  <SCORE.RESTR>
0.938525

>  <SCORE.RESTR.CAVITY>
0.938525

>  <SCORE.RESTR.norm>
0.0426602

>  <SCORE.SYSTEM>
0

>  <SCORE.SYSTEM.CONST>
0

>  <SCORE.SYSTEM.DIHEDRAL>
0

>  <SCORE.SYSTEM.SOLV>
0

>  <SCORE.SYSTEM.norm>
0

>  <SCORE.heavy>
22

>  <SCORE.norm>
-0.477795

>  <RMSD>
6.813

$$$$
ligand
 OpenBabel02271912143D
libRbt.so/2013.1/901 2013/11/27
 22 24  0  0  0  0  0  0  0  0999 V2000
   24.7957  -22.4127   24.8995 N   0  0  0  0  0  0  0  0  0  0  0  0
   22.4266  -22.5395   24.5771 N   0  0  0  0  0  0  0  0  0  0  0  0
   23.4547  -22.2891   25.4045 C   0  0  0  0  0  0  0  0  0  0  0  0
   23.2718  -21.9326   26.6699 N   0  0  0  0  0  0  0  0  0  0  0  0
   17.9638  -22.9891   28.0665 O   0  0  0  0  0  0  0  0  0  0  0  0
   22.0250  -21.8125   27.1620 C   0  0  0  0  0  0  0  0  0  0  0  0
   20.9119  -22.0822   26.3177 C   0  0  0  0  0  0  0  0  0  0  0  0
   21.8629  -21.4404   28.4777 O   0  0  0  0  0  0  0  0  0  0  0  0
   19.5186  -21.9733   26.7023 N   0  0  0  0  0  0  0  0  0  0  0  0
   18.6039  -21.4082   25.7019 C   0  0  2  0  0  0  0  0  0  0  0  0
   18.7473  -22.1214   24.3938 C   0  0  0  0  0  0  0  0  0  0  0  0
   21.1564  -22.4364   25.0145 C   0  0  0  0  0  0  0  0  0  0  0  0
   20.0674  -22.7004   24.1525 N   0  0  0  0  0  0  0  0  0  0  0  0
   18.7958  -19.8993   25.4651 C   0  0  0  0  0  0  0  0  0  0  0  0
   17.5372  -19.2819   25.0653 N   0  0  0  0  0  0  0  0  0  0  0  0
   13.8657  -20.3944   26.9048 C   0  0  0  0  0  0  0  0  0  0  0  0
   14.6647  -19.4258   27.4887 C   0  0  0  0  0  0  0  0  0  0  0  0
   15.8807  -19.0523   26.8844 C   0  0  0  0  0  0  0  0  0  0  0  0
   16.2809  -19.6569   25.7024 C   0  0  0  0  0  0  0  0  0  0  0  0
   15.4756  -20.6299   25.1178 C   0  0  0  0  0  0  0  0  0  0  0  0
   14.2684  -20.9978   25.7175 C   0  0  0  0  0  0  0  0  0  0  0  0
   19.0027  -22.3574   27.9716 C   0  0  0  0  0  0  0  0  0  0  0  0
  1  3  1  0  0  0  0
  2  3  2  0  0  0  0
  2 12  1  0  0  0  0
  3  4  1  0  0  0  0
  4  6  1  0  0  0  0
  5 22  1  0  0  0  0
  6  7  1  0  0  0  0
  6  8  2  0  0  0  0
  7 12  2  0  0  0  0
  7  9  1  0  0  0  0
  9 10  1  0  0  0  0
  9 22  1  0  0  0  0
 10 11  1  0  0  0  0
 10 14  1  6  0  0  0
 11 13  1  0  0  0  0
 12 13  1  0  0  0  0
 14 15  1  0  0  0  0
 15 19  1  0  0  0  0
 16 17  2  0  0  0  0
 16 21  1  0  0  0  0
 17 18  1  0  0  0  0
 18 19  2  0  0  0  0
 19 20  1  0  0  0  0
 20 21  2  0  0  0  0
M  END
>  <CHROM.1>
-136.02678453,-150.54905278,40.88184347,85.14905949,19.22013497,-21.40045014
26.10967589,0.04126990,0.27433380,-1.49148740

>  <Name>
ligand

>  <RI>
0

>  <Rbt.Current_Directory>
/home/itssahil/PROJECTS/Mol_Feturizer/Test_systems_manuscript/rnas/3sd3

>  <Rbt.Executable>
rbdock ($Id: //depot/dev/client3/rdock/2013.1/src/exe/rbdock.cxx#4 $)

>  <Rbt.Library>
libRbt.so (2013.1, Build901 2013/11/27)

>  <Rbt.Parameter_File>
/export/apps/rDock/src/rDock_2013.1_src/data/scripts/dock_solv.prm

>  <Rbt.Receptor>
prm/pocket_docking_3.prm

>  <SCORE>
-13.3258

>  <SCORE.INTER>
-13.1484

>  <SCORE.INTER.CONST>
1

>  <SCORE.INTER.POLAR>
0

>  <SCORE.INTER.ROT>
4

>  <SCORE.INTER.SOLV>
7.84479

>  <SCORE.INTER.VDW>
-17.6472

>  <SCORE.INTER.norm>
-0.597654

>  <SCORE.INTRA>
-0.177463

>  <SCORE.INTRA.DIHEDRAL>
1.89858

>  <SCORE.INTRA.DIHEDRAL.0>
2.54655

>  <SCORE.INTRA.POLAR>
0

>  <SCORE.INTRA.POLAR.0>
0

>  <SCORE.INTRA.REPUL>
0

>  <SCORE.INTRA.REPUL.0>
0

>  <SCORE.INTRA.SOLV>
-0.95917

>  <SCORE.INTRA.SOLV.lig_0>
-56.4922

>  <SCORE.INTRA.VDW>
-0.647169

>  <SCORE.INTRA.VDW.0>
-0.696801

>  <SCORE.INTRA.norm>
-0.0080665

>  <SCORE.RESTR>
0

>  <SCORE.RESTR.CAVITY>
0

>  <SCORE.RESTR.norm>
0

>  <SCORE.SYSTEM>
0

>  <SCORE.SYSTEM.CONST>
0

>  <SCORE.SYSTEM.DIHEDRAL>
0

>  <SCORE.SYSTEM.SOLV>
0

>  <SCORE.SYSTEM.norm>
0

>  <SCORE.heavy>
22

>  <SCORE.norm>
-0.60572

>  <RMSD>
6.814

$$$$
ligand
 OpenBabel02271912143D
libRbt.so/2013.1/901 2013/11/27
 22 24  0  0  0  0  0  0  0  0999 V2000
   25.2178  -21.9452   24.9209 N   0  0  0  0  0  0  0  0  0  0  0  0
   22.9390  -21.9039   24.1870 N   0  0  0  0  0  0  0  0  0  0  0  0
   23.8088  -21.9388   25.2100 C   0  0  0  0  0  0  0  0  0  0  0  0
   23.4095  -21.9675   26.4755 N   0  0  0  0  0  0  0  0  0  0  0  0
   17.8845  -23.0930   26.6428 O   0  0  0  0  0  0  0  0  0  0  0  0
   22.0956  -21.9632   26.7671 C   0  0  0  0  0  0  0  0  0  0  0  0
   21.1454  -21.9394   25.7084 C   0  0  0  0  0  0  0  0  0  0  0  0
   21.7081  -21.9926   28.0879 O   0  0  0  0  0  0  0  0  0  0  0  0
   19.7054  -21.9099   25.8712 N   0  0  0  0  0  0  0  0  0  0  0  0
   18.9578  -21.0485   24.9460 C   0  0  2  0  0  0  0  0  0  0  0  0
   19.3334  -21.3465   23.5281 C   0  0  0  0  0  0  0  0  0  0  0  0
   21.6117  -21.8991   24.4182 C   0  0  0  0  0  0  0  0  0  0  0  0
   20.6880  -21.8652   23.3485 N   0  0  0  0  0  0  0  0  0  0  0  0
   19.1525  -19.5432   25.2022 C   0  0  0  0  0  0  0  0  0  0  0  0
   17.8859  -18.8347   25.0651 N   0  0  0  0  0  0  0  0  0  0  0  0
   14.3179  -20.3552   26.8141 C   0  0  0  0  0  0  0  0  0  0  0  0
   14.7686  -20.8674   25.6091 C   0  0  0  0  0  0  0  0  0  0  0  0
   15.9495  -20.3692   25.0253 C   0  0  0  0  0  0  0  0  0  0  0  0
   16.6625  -19.3617   25.6572 C   0  0  0  0  0  0  0  0  0  0  0  0
   16.2071  -18.8490   26.8683 C   0  0  0  0  0  0  0  0  0  0  0  0
   15.0366  -19.3459   27.4472 C   0  0  0  0  0  0  0  0  0  0  0  0
   18.9938  -22.6377   26.8657 C   0  0  0  0  0  0  0  0  0  0  0  0
  1  3  1  0  0  0  0
  2  3  2  0  0  0  0
  2 12  1  0  0  0  0
  3  4  1  0  0  0  0
  4  6  1  0  0  0  0
  5 22  1  0  0  0  0
  6  7  1  0  0  0  0
  6  8  2  0  0  0  0
  7 12  2  0  0  0  0
  7  9  1  0  0  0  0
  9 10  1  0  0  0  0
  9 22  1  0  0  0  0
 10 11  1  0  0  0  0
 10 14  1  1  0  0  0
 11 13  1  0  0  0  0
 12 13  1  0  0  0  0
 14 15  1  0  0  0  0
 15 19  1  0  0  0  0
 16 17  2  0  0  0  0
 16 21  1  0  0  0  0
 17 18  1  0  0  0  0
 18 19  2  0  0  0  0
 19 20  1  0  0  0  0
 20 21  2  0  0  0  0
M  END
>  <CHROM.1>
-145.65978889,-138.85039840,44.53959365,-80.17895387,19.52450141,-21.18547810
25.67263035,0.00459444,0.28036702,-1.21095230

>  <Name>
ligand

>  <RI>
0

>  <Rbt.Current_Directory>
/home/itssahil/PROJECTS/Mol_Feturizer/Test_systems_manuscript/rnas/3sd3

>  <Rbt.Executable>
rbdock ($Id: //depot/dev/client3/rdock/2013.1/src/exe/rbdock.cxx#4 $)

>  <Rbt.Library>
libRbt.so (2013.1, Build901 2013/11/27)

>  <Rbt.Parameter_File>
/export/apps/rDock/src/rDock_2013.1_src/data/scripts/dock_solv.prm

>  <Rbt.Receptor>
prm/pocket_docking_2.prm

>  <SCORE>
-9.53307

>  <SCORE.INTER>
-11.1402

>  <SCORE.INTER.CONST>
1

>  <SCORE.INTER.POLAR>
0

>  <SCORE.INTER.ROT>
4

>  <SCORE.INTER.SOLV>
4.77047

>  <SCORE.INTER.VDW>
-15.2836

>  <SCORE.INTER.norm>
-0.506374

>  <SCORE.INTRA>
0.382938

>  <SCORE.INTRA.DIHEDRAL>
3.30721

>  <SCORE.INTRA.DIHEDRAL.0>
2.54655

>  <SCORE.INTRA.POLAR>
0

>  <SCORE.INTRA.POLAR.0>
0

>  <SCORE.INTRA.REPUL>
0

>  <SCORE.INTRA.REPUL.0>
0

>  <SCORE.INTRA.SOLV>
-0.928156

>  <SCORE.INTRA.SOLV.lig_0>
-56.4922

>  <SCORE.INTRA.VDW>
-0.806591

>  <SCORE.INTRA.VDW.0>
-0.696801

>  <SCORE.INTRA.norm>
0.0174063

>  <SCORE.RESTR>
1.22422

>  <SCORE.RESTR.CAVITY>
1.22422

>  <SCORE.RESTR.norm>
0.0556464

>  <SCORE.SYSTEM>
0

>  <SCORE.SYSTEM.CONST>
0

>  <SCORE.SYSTEM.DIHEDRAL>
0

>  <SCORE.SYSTEM.SOLV>
0

>  <SCORE.SYSTEM.norm>
0

>  <SCORE.heavy>
22

>  <SCORE.norm>
-0.433321

>  <RMSD>
6.816

$$$$
ligand
 OpenBabel02271912143D
libRbt.so/2013.1/901 2013/11/27
 22 24  0  0  0  0  0  0  0  0999 V2000
   22.1571  -20.7735   32.2363 N   0  0  0  0  0  0  0  0  0  0  0  0
   21.6053  -20.3622   29.9430 N   0  0  0  0  0  0  0  0  0  0  0  0
   21.3019  -20.9772   31.0979 C   0  0  0  0  0  0  0  0  0  0  0  0
   20.2406  -21.7649   31.2207 N   0  0  0  0  0  0  0  0  0  0  0  0
   18.6426  -23.2115   26.2531 O   0  0  0  0  0  0  0  0  0  0  0  0
   19.4285  -21.9693   30.1672 C   0  0  0  0  0  0  0  0  0  0  0  0
   19.7262  -21.3440   28.9243 C   0  0  0  0  0  0  0  0  0  0  0  0
   18.3340  -22.7902   30.3214 O   0  0  0  0  0  0  0  0  0  0  0  0
   18.9333  -21.4547   27.7159 N   0  0  0  0  0  0  0  0  0  0  0  0
   18.7784  -20.2314   26.9181 C   0  0  2  0  0  0  0  0  0  0  0  0
   20.1125  -19.6158   26.6324 C   0  0  0  0  0  0  0  0  0  0  0  0
   20.8294  -20.5305   28.8545 C   0  0  0  0  0  0  0  0  0  0  0  0
   21.1415  -19.8899   27.6335 N   0  0  0  0  0  0  0  0  0  0  0  0
   17.8757  -19.1709   27.5740 C   0  0  0  0  0  0  0  0  0  0  0  0
   16.6696  -19.7894   28.1104 N   0  0  0  0  0  0  0  0  0  0  0  0
   13.4771  -20.9811   25.5631 C   0  0  0  0  0  0  0  0  0  0  0  0
   14.7867  -21.2430   25.1973 C   0  0  0  0  0  0  0  0  0  0  0  0
   15.8480  -20.8520   26.0364 C   0  0  0  0  0  0  0  0  0  0  0  0
   15.5820  -20.2013   27.2316 C   0  0  0  0  0  0  0  0  0  0  0  0
   14.2647  -19.9396   27.5967 C   0  0  0  0  0  0  0  0  0  0  0  0
   13.2128  -20.3300   26.7640 C   0  0  0  0  0  0  0  0  0  0  0  0
   18.2966  -22.6499   27.2790 C   0  0  0  0  0  0  0  0  0  0  0  0
  1  3  1  0  0  0  0
  2  3  2  0  0  0  0
  2 12  1  0  0  0  0
  3  4  1  0  0  0  0
  4  6  1  0  0  0  0
  5 22  1  0  0  0  0
  6  7  1  0  0  0  0
  6  8  2  0  0  0  0
  7 12  2  0  0  0  0
  7  9  1  0  0  0  0
  9 10  1  0  0  0  0
  9 22  1  0  0  0  0
 10 11  1  0  0  0  0
 10 14  1  1  0  0  0
 11 13  1  0  0  0  0
 12 13  1  0  0  0  0
 14 15  1  0  0  0  0
 15 19  1  0  0  0  0
 16 17  2  0  0  0  0
 16 21  1  0  0  0  0
 17 18  1  0  0  0  0
 18 19  2  0  0  0  0
 19 20  1  0  0  0  0
 20 21  2  0  0  0  0
M  END
>  <CHROM.1>
-114.13579281,-44.86070442,-76.00268653,43.02972559,18.33553431,-20.94836234
28.18232705,0.56011790,0.12204059,1.84963628

>  <Name>
ligand

>  <RI>
0

>  <Rbt.Current_Directory>
/home/itssahil/PROJECTS/Mol_Feturizer/Test_systems_manuscript/rnas/3sd3

>  <Rbt.Executable>
rbdock ($Id: //depot/dev/client3/rdock/2013.1/src/exe/rbdock.cxx#4 $)

>  <Rbt.Library>
libRbt.so (2013.1, Build901 2013/11/27)

>  <Rbt.Parameter_File>
/export/apps/rDock/src/rDock_2013.1_src/data/scripts/dock_solv.prm

>  <Rbt.Receptor>
prm/pocket_docking_6.prm

>  <SCORE>
-15.1747

>  <SCORE.INTER>
-14.2554

>  <SCORE.INTER.CONST>
1

>  <SCORE.INTER.POLAR>
0

>  <SCORE.INTER.ROT>
4

>  <SCORE.INTER.SOLV>
8.80789

>  <SCORE.INTER.VDW>
-18.7062

>  <SCORE.INTER.norm>
-0.647971

>  <SCORE.INTRA>
-0.919287

>  <SCORE.INTRA.DIHEDRAL>
0.0894203

>  <SCORE.INTRA.DIHEDRAL.0>
2.54655

>  <SCORE.INTRA.POLAR>
0

>  <SCORE.INTRA.POLAR.0>
0

>  <SCORE.INTRA.REPUL>
0

>  <SCORE.INTRA.REPUL.0>
0

>  <SCORE.INTRA.SOLV>
0.255964

>  <SCORE.INTRA.SOLV.lig_0>
-56.4922

>  <SCORE.INTRA.VDW>
-1.09198

>  <SCORE.INTRA.VDW.0>
-0.696801

>  <SCORE.INTRA.norm>
-0.0417858

>  <SCORE.RESTR>
0

>  <SCORE.RESTR.CAVITY>
0

>  <SCORE.RESTR.norm>
0

>  <SCORE.SYSTEM>
0

>  <SCORE.SYSTEM.CONST>
0

>  <SCORE.SYSTEM.DIHEDRAL>
0

>  <SCORE.SYSTEM.SOLV>
0

>  <SCORE.SYSTEM.norm>
0

>  <SCORE.heavy>
22

>  <SCORE.norm>
-0.689757

>  <RMSD>
6.819

$$$$
ligand
 OpenBabel02271912143D
libRbt.so/2013.1/901 2013/11/27
 22 24  0  0  0  0  0  0  0  0999 V2000
   24.5985  -21.6227   27.1173 N   0  0  0  0  0  0  0  0  0  0  0  0
   22.4383  -22.2848   26.3249 N   0  0  0  0  0  0  0  0  0  0  0  0
   23.1723  -21.7011   27.2865 C   0  0  0  0  0  0  0  0  0  0  0  0
   22.6239  -21.1963   28.3847 N   0  0  0  0  0  0  0  0  0  0  0  0
   17.9874  -21.3965   29.5735 O   0  0  0  0  0  0  0  0  0  0  0  0
   21.2914  -21.2606   28.5626 C   0  0  0  0  0  0  0  0  0  0  0  0
   20.4837  -21.8832   27.5703 C   0  0  0  0  0  0  0  0  0  0  0  0
   20.7479  -20.7286   29.7102 O   0  0  0  0  0  0  0  0  0  0  0  0
   19.0401  -22.0054   27.6162 N   0  0  0  0  0  0  0  0  0  0  0  0
   18.3240  -21.8052   26.3497 C   0  0  2  0  0  0  0  0  0  0  0  0
   18.9038  -22.6694   25.2738 C   0  0  0  0  0  0  0  0  0  0  0  0
   21.1000  -22.3790   26.4488 C   0  0  0  0  0  0  0  0  0  0  0  0
   20.3187  -22.9938   25.4437 N   0  0  0  0  0  0  0  0  0  0  0  0
   18.3194  -20.3454   25.8613 C   0  0  0  0  0  0  0  0  0  0  0  0
   17.2998  -19.5761   26.5638 N   0  0  0  0  0  0  0  0  0  0  0  0
   13.2069  -20.7355   26.4897 C   0  0  0  0  0  0  0  0  0  0  0  0
   14.0919  -21.2673   25.5668 C   0  0  0  0  0  0  0  0  0  0  0  0
   15.4481  -20.8884   25.5866 C   0  0  0  0  0  0  0  0  0  0  0  0
   15.8992  -19.9790   26.5311 C   0  0  0  0  0  0  0  0  0  0  0  0
   15.0075  -19.4464   27.4575 C   0  0  0  0  0  0  0  0  0  0  0  0
   13.6627  -19.8250   27.4379 C   0  0  0  0  0  0  0  0  0  0  0  0
   18.2940  -22.2841   28.7954 C   0  0  0  0  0  0  0  0  0  0  0  0
  1  3  1  0  0  0  0
  2  3  2  0  0  0  0
  2 12  1  0  0  0  0
  3  4  1  0  0  0  0
  4  6  1  0  0  0  0
  5 22  1  0  0  0  0
  6  7  1  0  0  0  0
  6  8  2  0  0  0  0
  7 12  2  0  0  0  0
  7  9  1  0  0  0  0
  9 10  1  0  0  0  0
  9 22  1  0  0  0  0
 10 11  1  0  0  0  0
 10 14  1  6  0  0  0
 11 13  1  0  0  0  0
 12 13  1  0  0  0  0
 14 15  1  0  0  0  0
 15 19  1  0  0  0  0
 16 17  2  0  0  0  0
 16 21  1  0  0  0  0
 17 18  1  0  0  0  0
 18 19  2  0  0  0  0
 19 20  1  0  0  0  0
 20 21  2  0  0  0  0
M  END
>  <CHROM.1>
83.20979136,-80.33074972,-57.41701631,-15.94600717,18.84515477,-21.30434978
27.13946084,-0.04954184,0.19848824,-1.88424474

>  <Name>
ligand

>  <RI>
0

>  <Rbt.Current_Directory>
/home/itssahil/PROJECTS/Mol_Feturizer/Test_systems_manuscript/rnas/3sd3

>  <Rbt.Executable>
rbdock ($Id: //depot/dev/client3/rdock/2013.1/src/exe/rbdock.cxx#4 $)

>  <Rbt.Library>
libRbt.so (2013.1, Build901 2013/11/27)

>  <Rbt.Parameter_File>
/export/apps/rDock/src/rDock_2013.1_src/data/scripts/dock_solv.prm

>  <Rbt.Receptor>
prm/pocket_docking_6.prm

>  <SCORE>
-17.1801

>  <SCORE.INTER>
-16.8134

>  <SCORE.INTER.CONST>
1

>  <SCORE.INTER.POLAR>
0

>  <SCORE.INTER.ROT>
4

>  <SCORE.INTER.SOLV>
8.3913

>  <SCORE.INTER.VDW>
-20.2727

>  <SCORE.INTER.norm>
-0.764244

>  <SCORE.INTRA>
-0.366771

>  <SCORE.INTRA.DIHEDRAL>
0.388937

>  <SCORE.INTRA.DIHEDRAL.0>
2.54655

>  <SCORE.INTRA.POLAR>
0

>  <SCORE.INTRA.POLAR.0>
0

>  <SCORE.INTRA.REPUL>
0

>  <SCORE.INTRA.REPUL.0>
0

>  <SCORE.INTRA.SOLV>
0.217689

>  <SCORE.INTRA.SOLV.lig_0>
-56.4922

>  <SCORE.INTRA.VDW>
-0.670083

>  <SCORE.INTRA.VDW.0>
-0.696801

>  <SCORE.INTRA.norm>
-0.0166714

>  <SCORE.RESTR>
0

>  <SCORE.RESTR.CAVITY>
0

>  <SCORE.RESTR.norm>
0

>  <SCORE.SYSTEM>
0

>  <SCORE.SYSTEM.CONST>
0

>  <SCORE.SYSTEM.DIHEDRAL>
0

>  <SCORE.SYSTEM.SOLV>
0

>  <SCORE.SYSTEM.norm>
0

>  <SCORE.heavy>
22

>  <SCORE.norm>
-0.780916

>  <RMSD>
6.819

$$$$
ligand
 OpenBabel02271912143D
libRbt.so/2013.1/901 2013/11/27
 22 24  0  0  0  0  0  0  0  0999 V2000
   24.6058  -21.6121   27.0966 N   0  0  0  0  0  0  0  0  0  0  0  0
   22.4539  -22.2911   26.2958 N   0  0  0  0  0  0  0  0  0  0  0  0
   23.1804  -21.7079   27.2635 C   0  0  0  0  0  0  0  0  0  0  0  0
   22.6253  -21.2191   28.3656 N   0  0  0  0  0  0  0  0  0  0  0  0
   18.0192  -21.4871   29.5645 O   0  0  0  0  0  0  0  0  0  0  0  0
   21.2935  -21.2999   28.5414 C   0  0  0  0  0  0  0  0  0  0  0  0
   20.4937  -21.9225   27.5427 C   0  0  0  0  0  0  0  0  0  0  0  0
   20.7428  -20.7843   29.6932 O   0  0  0  0  0  0  0  0  0  0  0  0
   19.0515  -22.0612   27.5859 N   0  0  0  0  0  0  0  0  0  0  0  0
   18.3345  -21.8576   26.3205 C   0  0  2  0  0  0  0  0  0  0  0  0
   18.9249  -22.7056   25.2375 C   0  0  0  0  0  0  0  0  0  0  0  0
   21.1166  -22.4013   26.4174 C   0  0  0  0  0  0  0  0  0  0  0  0
   20.3432  -23.0157   25.4060 N   0  0  0  0  0  0  0  0  0  0  0  0
   18.3141  -20.3936   25.8452 C   0  0  0  0  0  0  0  0  0  0  0  0
   17.3075  -19.6342   26.5767 N   0  0  0  0  0  0  0  0  0  0  0  0
   13.1975  -20.7287   26.4721 C   0  0  0  0  0  0  0  0  0  0  0  0
   14.0809  -21.2753   25.5566 C   0  0  0  0  0  0  0  0  0  0  0  0
   15.4428  -20.9180   25.5864 C   0  0  0  0  0  0  0  0  0  0  0  0
   15.9011  -20.0149   26.5336 C   0  0  0  0  0  0  0  0  0  0  0  0
   15.0108  -19.4673   27.4526 C   0  0  0  0  0  0  0  0  0  0  0  0
   13.6603  -19.8245   27.4230 C   0  0  0  0  0  0  0  0  0  0  0  0
   18.3074  -22.3588   28.7617 C   0  0  0  0  0  0  0  0  0  0  0  0
  1  3  1  0  0  0  0
  2  3  2  0  0  0  0
  2 12  1  0  0  0  0
  3  4  1  0  0  0  0
  4  6  1  0  0  0  0
  5 22  1  0  0  0  0
  6  7  1  0  0  0  0
  6  8  2  0  0  0  0
  7 12  2  0  0  0  0
  7  9  1  0  0  0  0
  9 10  1  0  0  0  0
  9 22  1  0  0  0  0
 10 11  1  0  0  0  0
 10 14  1  6  0  0  0
 11 13  1  0  0  0  0
 12 13  1  0  0  0  0
 14 15  1  0  0  0  0
 15 19  1  0  0  0  0
 16 17  2  0  0  0  0
 16 21  1  0  0  0  0
 17 18  1  0  0  0  0
 18 19  2  0  0  0  0
 19 20  1  0  0  0  0
 20 21  2  0  0  0  0
M  END
>  <CHROM.1>
81.32978253,-78.94100859,-59.56629928,-13.81564667,18.85234893,-21.33784469
27.12048859,-0.04884521,0.19744612,-1.87703362

>  <Name>
ligand

>  <RI>
0

>  <Rbt.Current_Directory>
/home/itssahil/PROJECTS/Mol_Feturizer/Test_systems_manuscript/rnas/3sd3

>  <Rbt.Executable>
rbdock ($Id: //depot/dev/client3/rdock/2013.1/src/exe/rbdock.cxx#4 $)

>  <Rbt.Library>
libRbt.so (2013.1, Build901 2013/11/27)

>  <Rbt.Parameter_File>
/export/apps/rDock/src/rDock_2013.1_src/data/scripts/dock_solv.prm

>  <Rbt.Receptor>
prm/pocket_docking_7.prm

>  <SCORE>
-17.2172

>  <SCORE.INTER>
-16.8202

>  <SCORE.INTER.CONST>
1

>  <SCORE.INTER.POLAR>
0

>  <SCORE.INTER.ROT>
4

>  <SCORE.INTER.SOLV>
8.50519

>  <SCORE.INTER.VDW>
-20.3152

>  <SCORE.INTER.norm>
-0.764552

>  <SCORE.INTRA>
-0.397008

>  <SCORE.INTRA.DIHEDRAL>
0.223232

>  <SCORE.INTRA.DIHEDRAL.0>
2.54655

>  <SCORE.INTRA.POLAR>
0

>  <SCORE.INTRA.POLAR.0>
0

>  <SCORE.INTRA.REPUL>
0

>  <SCORE.INTRA.REPUL.0>
0

>  <SCORE.INTRA.SOLV>
0.232795

>  <SCORE.INTRA.SOLV.lig_0>
-56.4922

>  <SCORE.INTRA.VDW>
-0.625022

>  <SCORE.INTRA.VDW.0>
-0.696801

>  <SCORE.INTRA.norm>
-0.0180458

>  <SCORE.RESTR>
0

>  <SCORE.RESTR.CAVITY>
0

>  <SCORE.RESTR.norm>
0

>  <SCORE.SYSTEM>
0

>  <SCORE.SYSTEM.CONST>
0

>  <SCORE.SYSTEM.DIHEDRAL>
0

>  <SCORE.SYSTEM.SOLV>
0

>  <SCORE.SYSTEM.norm>
0

>  <SCORE.heavy>
22

>  <SCORE.norm>
-0.782598

>  <RMSD>
6.826

$$$$
ligand
 OpenBabel02271912143D
libRbt.so/2013.1/901 2013/11/27
 22 24  0  0  0  0  0  0  0  0999 V2000
   23.6982  -23.3896   23.5684 N   0  0  0  0  0  0  0  0  0  0  0  0
   22.3034  -22.7303   25.3994 N   0  0  0  0  0  0  0  0  0  0  0  0
   22.6240  -22.5958   24.1020 C   0  0  0  0  0  0  0  0  0  0  0  0
   21.9823  -21.7554   23.2997 N   0  0  0  0  0  0  0  0  0  0  0  0
   19.2052  -18.1901   26.4269 O   0  0  0  0  0  0  0  0  0  0  0  0
   20.9751  -21.0029   23.7797 C   0  0  0  0  0  0  0  0  0  0  0  0
   20.6163  -21.1099   25.1524 C   0  0  0  0  0  0  0  0  0  0  0  0
   20.3253  -20.1398   22.9261 O   0  0  0  0  0  0  0  0  0  0  0  0
   19.5435  -20.3818   25.8005 N   0  0  0  0  0  0  0  0  0  0  0  0
   18.7414  -21.1278   26.7787 C   0  0  2  0  0  0  0  0  0  0  0  0
   19.6249  -21.7949   27.7861 C   0  0  0  0  0  0  0  0  0  0  0  0
   21.3046  -22.0022   25.9357 C   0  0  0  0  0  0  0  0  0  0  0  0
   20.9611  -22.1343   27.3007 N   0  0  0  0  0  0  0  0  0  0  0  0
   17.8216  -22.1895   26.1492 C   0  0  0  0  0  0  0  0  0  0  0  0
   16.7946  -21.5545   25.3323 N   0  0  0  0  0  0  0  0  0  0  0  0
   13.2625  -19.9803   27.1065 C   0  0  0  0  0  0  0  0  0  0  0  0
   13.1669  -20.9322   26.1054 C   0  0  0  0  0  0  0  0  0  0  0  0
   14.3322  -21.4580   25.5146 C   0  0  0  0  0  0  0  0  0  0  0  0
   15.5792  -21.0206   25.9346 C   0  0  0  0  0  0  0  0  0  0  0  0
   15.6722  -20.0639   26.9411 C   0  0  0  0  0  0  0  0  0  0  0  0
   14.5151  -19.5449   27.5277 C   0  0  0  0  0  0  0  0  0  0  0  0
   19.2201  -19.0217   25.5350 C   0  0  0  0  0  0  0  0  0  0  0  0
  1  3  1  0  0  0  0
  2  3  2  0  0  0  0
  2 12  1  0  0  0  0
  3  4  1  0  0  0  0
  4  6  1  0  0  0  0
  5 22  1  0  0  0  0
  6  7  1  0  0  0  0
  6  8  2  0  0  0  0
  7 12  2  0  0  0  0
  7  9  1  0  0  0  0
  9 10  1  0  0  0  0
  9 22  1  0  0  0  0
 10 11  1  0  0  0  0
 10 14  1  6  0  0  0
 11 13  1  0  0  0  0
 12 13  1  0  0  0  0
 14 15  1  0  0  0  0
 15 19  1  0  0  0  0
 16 17  2  0  0  0  0
 16 21  1  0  0  0  0
 17 18  1  0  0  0  0
 18 19  2  0  0  0  0
 19 20  1  0  0  0  0
 20 21  2  0  0  0  0
M  END
>  <CHROM.1>
-123.14686822,-65.81044258,-82.58870929,-123.16021927,18.85877105,-21.07842534
25.62699223,-0.14683659,-0.31068176,2.03504816

>  <Name>
ligand

>  <RI>
0

>  <Rbt.Current_Directory>
/home/itssahil/PROJECTS/Mol_Feturizer/Test_systems_manuscript/rnas/3sd3

>  <Rbt.Executable>
rbdock ($Id: //depot/dev/client3/rdock/2013.1/src/exe/rbdock.cxx#4 $)

>  <Rbt.Library>
libRbt.so (2013.1, Build901 2013/11/27)

>  <Rbt.Parameter_File>
/export/apps/rDock/src/rDock_2013.1_src/data/scripts/dock_solv.prm

>  <Rbt.Receptor>
prm/pocket_docking_3.prm

>  <SCORE>
-12.949

>  <SCORE.INTER>
-11.6036

>  <SCORE.INTER.CONST>
1

>  <SCORE.INTER.POLAR>
0

>  <SCORE.INTER.ROT>
4

>  <SCORE.INTER.SOLV>
7.97519

>  <SCORE.INTER.VDW>
-16.6608

>  <SCORE.INTER.norm>
-0.527436

>  <SCORE.INTRA>
-1.34546

>  <SCORE.INTRA.DIHEDRAL>
-0.429527

>  <SCORE.INTRA.DIHEDRAL.0>
2.54655

>  <SCORE.INTRA.POLAR>
0

>  <SCORE.INTRA.POLAR.0>
0

>  <SCORE.INTRA.REPUL>
0

>  <SCORE.INTRA.REPUL.0>
0

>  <SCORE.INTRA.SOLV>
-0.31664

>  <SCORE.INTRA.SOLV.lig_0>
-56.4922

>  <SCORE.INTRA.VDW>
-0.97238

>  <SCORE.INTRA.VDW.0>
-0.696801

>  <SCORE.INTRA.norm>
-0.0611575

>  <SCORE.RESTR>
0

>  <SCORE.RESTR.CAVITY>
0

>  <SCORE.RESTR.norm>
0

>  <SCORE.SYSTEM>
0

>  <SCORE.SYSTEM.CONST>
0

>  <SCORE.SYSTEM.DIHEDRAL>
0

>  <SCORE.SYSTEM.SOLV>
0

>  <SCORE.SYSTEM.norm>
0

>  <SCORE.heavy>
22

>  <SCORE.norm>
-0.588593

>  <RMSD>
6.828

$$$$
ligand
 OpenBabel02271912143D
libRbt.so/2013.1/901 2013/11/27
 22 24  0  0  0  0  0  0  0  0999 V2000
   23.0049  -22.5833   25.2308 N   0  0  0  0  0  0  0  0  0  0  0  0
   21.8396  -22.0391   27.2504 N   0  0  0  0  0  0  0  0  0  0  0  0
   22.1398  -21.7139   25.9822 C   0  0  0  0  0  0  0  0  0  0  0  0
   21.6645  -20.6184   25.4029 N   0  0  0  0  0  0  0  0  0  0  0  0
   20.5270  -17.2431   28.7930 O   0  0  0  0  0  0  0  0  0  0  0  0
   20.8544  -19.7913   26.0891 C   0  0  0  0  0  0  0  0  0  0  0  0
   20.5251  -20.0975   27.4390 C   0  0  0  0  0  0  0  0  0  0  0  0
   20.3744  -18.6621   25.4645 O   0  0  0  0  0  0  0  0  0  0  0  0
   19.6512  -19.3144   28.2899 N   0  0  0  0  0  0  0  0  0  0  0  0
   18.7414  -20.0654   29.1647 C   0  0  2  0  0  0  0  0  0  0  0  0
   19.4961  -21.0844   29.9601 C   0  0  0  0  0  0  0  0  0  0  0  0
   21.0344  -21.2484   27.9865 C   0  0  0  0  0  0  0  0  0  0  0  0
   20.7144  -21.5802   29.3229 N   0  0  0  0  0  0  0  0  0  0  0  0
   17.5988  -20.7728   28.4139 C   0  0  0  0  0  0  0  0  0  0  0  0
   16.8378  -19.8133   27.6230 N   0  0  0  0  0  0  0  0  0  0  0  0
   13.1523  -20.9114   25.8028 C   0  0  0  0  0  0  0  0  0  0  0  0
   13.1506  -20.2113   26.9975 C   0  0  0  0  0  0  0  0  0  0  0  0
   14.3670  -19.8439   27.6048 C   0  0  0  0  0  0  0  0  0  0  0  0
   15.5704  -20.1854   27.0064 C   0  0  0  0  0  0  0  0  0  0  0  0
   15.5690  -20.8890   25.8056 C   0  0  0  0  0  0  0  0  0  0  0  0
   14.3612  -21.2508   25.2034 C   0  0  0  0  0  0  0  0  0  0  0  0
   19.6135  -17.8921   28.3116 C   0  0  0  0  0  0  0  0  0  0  0  0
  1  3  1  0  0  0  0
  2  3  2  0  0  0  0
  2 12  1  0  0  0  0
  3  4  1  0  0  0  0
  4  6  1  0  0  0  0
  5 22  1  0  0  0  0
  6  7  1  0  0  0  0
  6  8  2  0  0  0  0
  7 12  2  0  0  0  0
  7  9  1  0  0  0  0
  9 10  1  0  0  0  0
  9 22  1  0  0  0  0
 10 11  1  0  0  0  0
 10 14  1  6  0  0  0
 11 13  1  0  0  0  0
 12 13  1  0  0  0  0
 14 15  1  0  0  0  0
 15 19  1  0  0  0  0
 16 17  2  0  0  0  0
 16 21  1  0  0  0  0
 17 18  1  0  0  0  0
 18 19  2  0  0  0  0
 19 20  1  0  0  0  0
 20 21  2  0  0  0  0
M  END
>  <CHROM.1>
-71.41030646,-56.12395369,-169.23914092,99.25719225,18.80595737,-20.30531613
27.27021004,-0.01431863,0.06065470,-2.18864982

>  <Name>
ligand

>  <RI>
0

>  <Rbt.Current_Directory>
/home/itssahil/PROJECTS/Mol_Feturizer/Test_systems_manuscript/rnas/3sd3

>  <Rbt.Executable>
rbdock ($Id: //depot/dev/client3/rdock/2013.1/src/exe/rbdock.cxx#4 $)

>  <Rbt.Library>
libRbt.so (2013.1, Build901 2013/11/27)

>  <Rbt.Parameter_File>
/export/apps/rDock/src/rDock_2013.1_src/data/scripts/dock_solv.prm

>  <Rbt.Receptor>
prm/pocket_docking_5.prm

>  <SCORE>
-12.822

>  <SCORE.INTER>
-11.5632

>  <SCORE.INTER.CONST>
1

>  <SCORE.INTER.POLAR>
0

>  <SCORE.INTER.ROT>
4

>  <SCORE.INTER.SOLV>
8.27575

>  <SCORE.INTER.VDW>
-16.734

>  <SCORE.INTER.norm>
-0.5256

>  <SCORE.INTRA>
-1.25878

>  <SCORE.INTRA.DIHEDRAL>
-0.744424

>  <SCORE.INTRA.DIHEDRAL.0>
2.54655

>  <SCORE.INTRA.POLAR>
0

>  <SCORE.INTRA.POLAR.0>
0

>  <SCORE.INTRA.REPUL>
0

>  <SCORE.INTRA.REPUL.0>
0

>  <SCORE.INTRA.SOLV>
-0.164392

>  <SCORE.INTRA.SOLV.lig_0>
-56.4922

>  <SCORE.INTRA.VDW>
-0.80437

>  <SCORE.INTRA.VDW.0>
-0.696801

>  <SCORE.INTRA.norm>
-0.0572172

>  <SCORE.RESTR>
0

>  <SCORE.RESTR.CAVITY>
0

>  <SCORE.RESTR.norm>
0

>  <SCORE.SYSTEM>
0

>  <SCORE.SYSTEM.CONST>
0

>  <SCORE.SYSTEM.DIHEDRAL>
0

>  <SCORE.SYSTEM.SOLV>
0

>  <SCORE.SYSTEM.norm>
0

>  <SCORE.heavy>
22

>  <SCORE.norm>
-0.582817

>  <RMSD>
6.828

$$$$
ligand
 OpenBabel02271912143D
libRbt.so/2013.1/901 2013/11/27
 22 24  0  0  0  0  0  0  0  0999 V2000
   24.3812  -21.7996   26.3418 N   0  0  0  0  0  0  0  0  0  0  0  0
   22.0830  -22.4589   26.2134 N   0  0  0  0  0  0  0  0  0  0  0  0
   23.0093  -21.6444   26.7450 C   0  0  0  0  0  0  0  0  0  0  0  0
   22.6987  -20.7036   27.6284 N   0  0  0  0  0  0  0  0  0  0  0  0
   18.9989  -21.5054   30.0952 O   0  0  0  0  0  0  0  0  0  0  0  0
   21.4211  -20.5428   28.0196 C   0  0  0  0  0  0  0  0  0  0  0  0
   20.4150  -21.3962   27.4867 C   0  0  0  0  0  0  0  0  0  0  0  0
   21.1257  -19.5591   28.9364 O   0  0  0  0  0  0  0  0  0  0  0  0
   19.0010  -21.3257   27.7978 N   0  0  0  0  0  0  0  0  0  0  0  0
   18.0718  -21.5366   26.6803 C   0  0  2  0  0  0  0  0  0  0  0  0
   18.4007  -22.8028   25.9529 C   0  0  0  0  0  0  0  0  0  0  0  0
   20.7882  -22.3453   26.5683 C   0  0  0  0  0  0  0  0  0  0  0  0
   19.8060  -23.1994   26.0166 N   0  0  0  0  0  0  0  0  0  0  0  0
   18.0440  -20.3782   25.6668 C   0  0  0  0  0  0  0  0  0  0  0  0
   16.7715  -20.3533   24.9560 N   0  0  0  0  0  0  0  0  0  0  0  0
   13.0898  -20.3171   27.0880 C   0  0  0  0  0  0  0  0  0  0  0  0
   13.2195  -21.0917   25.9474 C   0  0  0  0  0  0  0  0  0  0  0  0
   14.4358  -21.1089   25.2377 C   0  0  0  0  0  0  0  0  0  0  0  0
   15.5065  -20.3470   25.6803 C   0  0  0  0  0  0  0  0  0  0  0  0
   15.3732  -19.5696   26.8270 C   0  0  0  0  0  0  0  0  0  0  0  0
   14.1665  -19.5554   27.5312 C   0  0  0  0  0  0  0  0  0  0  0  0
   18.4753  -21.0519   29.0915 C   0  0  0  0  0  0  0  0  0  0  0  0
  1  3  1  0  0  0  0
  2  3  2  0  0  0  0
  2 12  1  0  0  0  0
  3  4  1  0  0  0  0
  4  6  1  0  0  0  0
  5 22  1  0  0  0  0
  6  7  1  0  0  0  0
  6  8  2  0  0  0  0
  7 12  2  0  0  0  0
  7  9  1  0  0  0  0
  9 10  1  0  0  0  0
  9 22  1  0  0  0  0
 10 11  1  0  0  0  0
 10 14  1  6  0  0  0
 11 13  1  0  0  0  0
 12 13  1  0  0  0  0
 14 15  1  0  0  0  0
 15 19  1  0  0  0  0
 16 17  2  0  0  0  0
 16 21  1  0  0  0  0
 17 18  1  0  0  0  0
 18 19  2  0  0  0  0
 19 20  1  0  0  0  0
 20 21  2  0  0  0  0
M  END
>  <CHROM.1>
-38.42429553,-155.46065857,52.53603127,-139.13945808,18.72562032,-21.13082887
26.98341044,-0.05369661,0.16602848,-1.97100905

>  <Name>
ligand

>  <RI>
0

>  <Rbt.Current_Directory>
/home/itssahil/PROJECTS/Mol_Feturizer/Test_systems_manuscript/rnas/3sd3

>  <Rbt.Executable>
rbdock ($Id: //depot/dev/client3/rdock/2013.1/src/exe/rbdock.cxx#4 $)

>  <Rbt.Library>
libRbt.so (2013.1, Build901 2013/11/27)

>  <Rbt.Parameter_File>
/export/apps/rDock/src/rDock_2013.1_src/data/scripts/dock_solv.prm

>  <Rbt.Receptor>
prm/pocket_docking_4.prm

>  <SCORE>
-15.9098

>  <SCORE.INTER>
-15.4844

>  <SCORE.INTER.CONST>
1

>  <SCORE.INTER.POLAR>
0

>  <SCORE.INTER.ROT>
4

>  <SCORE.INTER.SOLV>
9.45581

>  <SCORE.INTER.VDW>
-19.7415

>  <SCORE.INTER.norm>
-0.703835

>  <SCORE.INTRA>
-0.425412

>  <SCORE.INTRA.DIHEDRAL>
1.00152

>  <SCORE.INTRA.DIHEDRAL.0>
2.54655

>  <SCORE.INTRA.POLAR>
0

>  <SCORE.INTRA.POLAR.0>
0

>  <SCORE.INTRA.REPUL>
0

>  <SCORE.INTRA.REPUL.0>
0

>  <SCORE.INTRA.SOLV>
-0.749633

>  <SCORE.INTRA.SOLV.lig_0>
-56.4922

>  <SCORE.INTRA.VDW>
-0.551353

>  <SCORE.INTRA.VDW.0>
-0.696801

>  <SCORE.INTRA.norm>
-0.0193369

>  <SCORE.RESTR>
0

>  <SCORE.RESTR.CAVITY>
0

>  <SCORE.RESTR.norm>
0

>  <SCORE.SYSTEM>
0

>  <SCORE.SYSTEM.CONST>
0

>  <SCORE.SYSTEM.DIHEDRAL>
0

>  <SCORE.SYSTEM.SOLV>
0

>  <SCORE.SYSTEM.norm>
0

>  <SCORE.heavy>
22

>  <SCORE.norm>
-0.723172

>  <RMSD>
6.837

$$$$
ligand
 OpenBabel02271912143D
libRbt.so/2013.1/901 2013/11/27
 22 24  0  0  0  0  0  0  0  0999 V2000
   23.9680  -18.2669   27.8870 N   0  0  0  0  0  0  0  0  0  0  0  0
   22.4431  -18.8934   26.1506 N   0  0  0  0  0  0  0  0  0  0  0  0
   22.8963  -19.0928   27.3992 C   0  0  0  0  0  0  0  0  0  0  0  0
   22.3874  -20.0259   28.1943 N   0  0  0  0  0  0  0  0  0  0  0  0
   18.4994  -23.2885   25.8232 O   0  0  0  0  0  0  0  0  0  0  0  0
   21.3849  -20.8099   27.7566 C   0  0  0  0  0  0  0  0  0  0  0  0
   20.8881  -20.6353   26.4348 C   0  0  0  0  0  0  0  0  0  0  0  0
   20.8744  -21.7695   28.6016 O   0  0  0  0  0  0  0  0  0  0  0  0
   19.8026  -21.3881   25.8380 N   0  0  0  0  0  0  0  0  0  0  0  0
   18.8657  -20.6332   24.9959 C   0  0  2  0  0  0  0  0  0  0  0  0
   19.6052  -19.8429   23.9620 C   0  0  0  0  0  0  0  0  0  0  0  0
   21.4420  -19.6487   25.6580 C   0  0  0  0  0  0  0  0  0  0  0  0
   20.9596  -19.4486   24.3443 N   0  0  0  0  0  0  0  0  0  0  0  0
   17.9499  -19.6796   25.7843 C   0  0  0  0  0  0  0  0  0  0  0  0
   17.1654  -20.4206   26.7644 N   0  0  0  0  0  0  0  0  0  0  0  0
   12.9197  -20.5483   26.5215 C   0  0  0  0  0  0  0  0  0  0  0  0
   13.5326  -19.7719   27.4906 C   0  0  0  0  0  0  0  0  0  0  0  0
   14.9376  -19.7245   27.5758 C   0  0  0  0  0  0  0  0  0  0  0  0
   15.7101  -20.4583   26.6884 C   0  0  0  0  0  0  0  0  0  0  0  0
   15.0912  -21.2376   25.7154 C   0  0  0  0  0  0  0  0  0  0  0  0
   13.6973  -21.2818   25.6309 C   0  0  0  0  0  0  0  0  0  0  0  0
   19.5886  -22.7814   26.0324 C   0  0  0  0  0  0  0  0  0  0  0  0
  1  3  1  0  0  0  0
  2  3  2  0  0  0  0
  2 12  1  0  0  0  0
  3  4  1  0  0  0  0
  4  6  1  0  0  0  0
  5 22  1  0  0  0  0
  6  7  1  0  0  0  0
  6  8  2  0  0  0  0
  7 12  2  0  0  0  0
  7  9  1  0  0  0  0
  9 10  1  0  0  0  0
  9 22  1  0  0  0  0
 10 11  1  0  0  0  0
 10 14  1  1  0  0  0
 11 13  1  0  0  0  0
 12 13  1  0  0  0  0
 14 15  1  0  0  0  0
 15 19  1  0  0  0  0
 16 17  2  0  0  0  0
 16 21  1  0  0  0  0
 17 18  1  0  0  0  0
 18 19  2  0  0  0  0
 19 20  1  0  0  0  0
 20 21  2  0  0  0  0
M  END
>  <CHROM.1>
159.88650947,-58.72904067,-117.51866976,-105.62905588,18.96671191,-20.47461338
26.41755872,0.11432781,0.08172246,1.09827294

>  <Name>
ligand

>  <RI>
0

>  <Rbt.Current_Directory>
/home/itssahil/PROJECTS/Mol_Feturizer/Test_systems_manuscript/rnas/3sd3

>  <Rbt.Executable>
rbdock ($Id: //depot/dev/client3/rdock/2013.1/src/exe/rbdock.cxx#4 $)

>  <Rbt.Library>
libRbt.so (2013.1, Build901 2013/11/27)

>  <Rbt.Parameter_File>
/export/apps/rDock/src/rDock_2013.1_src/data/scripts/dock_solv.prm

>  <Rbt.Receptor>
prm/pocket_docking_4.prm

>  <SCORE>
-11.1668

>  <SCORE.INTER>
-10.8042

>  <SCORE.INTER.CONST>
1

>  <SCORE.INTER.POLAR>
0

>  <SCORE.INTER.ROT>
4

>  <SCORE.INTER.SOLV>
4.76918

>  <SCORE.INTER.VDW>
-15.0592

>  <SCORE.INTER.norm>
-0.491099

>  <SCORE.INTRA>
-0.362622

>  <SCORE.INTRA.DIHEDRAL>
0.314942

>  <SCORE.INTRA.DIHEDRAL.0>
2.54655

>  <SCORE.INTRA.POLAR>
0

>  <SCORE.INTRA.POLAR.0>
0

>  <SCORE.INTRA.REPUL>
0

>  <SCORE.INTRA.REPUL.0>
0

>  <SCORE.INTRA.SOLV>
0.430104

>  <SCORE.INTRA.SOLV.lig_0>
-56.4922

>  <SCORE.INTRA.VDW>
-0.735145

>  <SCORE.INTRA.VDW.0>
-0.696801

>  <SCORE.INTRA.norm>
-0.0164828

>  <SCORE.RESTR>
0

>  <SCORE.RESTR.CAVITY>
0

>  <SCORE.RESTR.norm>
0

>  <SCORE.SYSTEM>
0

>  <SCORE.SYSTEM.CONST>
0

>  <SCORE.SYSTEM.DIHEDRAL>
0

>  <SCORE.SYSTEM.SOLV>
0

>  <SCORE.SYSTEM.norm>
0

>  <SCORE.heavy>
22

>  <SCORE.norm>
-0.507582

>  <RMSD>
6.837

$$$$
ligand
 OpenBabel02271912143D
libRbt.so/2013.1/901 2013/11/27
 22 24  0  0  0  0  0  0  0  0999 V2000
   24.8619  -21.8890   25.0693 N   0  0  0  0  0  0  0  0  0  0  0  0
   22.5250  -22.2537   24.6965 N   0  0  0  0  0  0  0  0  0  0  0  0
   23.5029  -21.8846   25.5402 C   0  0  0  0  0  0  0  0  0  0  0  0
   23.2545  -21.5172   26.7913 N   0  0  0  0  0  0  0  0  0  0  0  0
   17.9975  -22.9905   28.0964 O   0  0  0  0  0  0  0  0  0  0  0  0
   21.9899  -21.5073   27.2516 C   0  0  0  0  0  0  0  0  0  0  0  0
   20.9298  -21.9043   26.3895 C   0  0  0  0  0  0  0  0  0  0  0  0
   21.7595  -21.1213   28.5529 O   0  0  0  0  0  0  0  0  0  0  0  0
   19.5233  -21.9224   26.7393 N   0  0  0  0  0  0  0  0  0  0  0  0
   18.5836  -21.4733   25.7038 C   0  0  2  0  0  0  0  0  0  0  0  0
   18.8284  -22.2004   24.4185 C   0  0  0  0  0  0  0  0  0  0  0  0
   21.2402  -22.2643   25.1020 C   0  0  0  0  0  0  0  0  0  0  0  0
   20.2040  -22.6536   24.2227 N   0  0  0  0  0  0  0  0  0  0  0  0
   18.6346  -19.9590   25.4316 C   0  0  0  0  0  0  0  0  0  0  0  0
   17.3546  -19.4907   24.9144 N   0  0  0  0  0  0  0  0  0  0  0  0
   13.6976  -20.5339   26.8221 C   0  0  0  0  0  0  0  0  0  0  0  0
   14.5371  -19.5986   27.4034 C   0  0  0  0  0  0  0  0  0  0  0  0
   15.7486  -19.2481   26.7766 C   0  0  0  0  0  0  0  0  0  0  0  0
   16.1036  -19.8421   25.5750 C   0  0  0  0  0  0  0  0  0  0  0  0
   15.2577  -20.7817   24.9931 C   0  0  0  0  0  0  0  0  0  0  0  0
   14.0551  -21.1267   25.6151 C   0  0  0  0  0  0  0  0  0  0  0  0
   19.0151  -22.3243   28.0062 C   0  0  0  0  0  0  0  0  0  0  0  0
  1  3  1  0  0  0  0
  2  3  2  0  0  0  0
  2 12  1  0  0  0  0
  3  4  1  0  0  0  0
  4  6  1  0  0  0  0
  5 22  1  0  0  0  0
  6  7  1  0  0  0  0
  6  8  2  0  0  0  0
  7 12  2  0  0  0  0
  7  9  1  0  0  0  0
  9 10  1  0  0  0  0
  9 22  1  0  0  0  0
 10 11  1  0  0  0  0
 10 14  1  6  0  0  0
 11 13  1  0  0  0  0
 12 13  1  0  0  0  0
 14 15  1  0  0  0  0
 15 19  1  0  0  0  0
 16 17  2  0  0  0  0
 16 21  1  0  0  0  0
 17 18  1  0  0  0  0
 18 19  2  0  0  0  0
 19 20  1  0  0  0  0
 20 21  2  0  0  0  0
M  END
>  <CHROM.1>
-140.12734210,-153.79072919,49.08599430,73.66344098,19.17921904,-21.33388908
26.12428829,0.02222555,0.20172758,-1.51779156

>  <Name>
ligand

>  <RI>
0

>  <Rbt.Current_Directory>
/home/itssahil/PROJECTS/Mol_Feturizer/Test_systems_manuscript/rnas/3sd3

>  <Rbt.Executable>
rbdock ($Id: //depot/dev/client3/rdock/2013.1/src/exe/rbdock.cxx#4 $)

>  <Rbt.Library>
libRbt.so (2013.1, Build901 2013/11/27)

>  <Rbt.Parameter_File>
/export/apps/rDock/src/rDock_2013.1_src/data/scripts/dock_solv.prm

>  <Rbt.Receptor>
prm/pocket_docking_3.prm

>  <SCORE>
-13.471

>  <SCORE.INTER>
-12.9808

>  <SCORE.INTER.CONST>
1

>  <SCORE.INTER.POLAR>
0

>  <SCORE.INTER.ROT>
4

>  <SCORE.INTER.SOLV>
7.68914

>  <SCORE.INTER.VDW>
-17.4836

>  <SCORE.INTER.norm>
-0.590037

>  <SCORE.INTRA>
-0.49023

>  <SCORE.INTRA.DIHEDRAL>
1.27462

>  <SCORE.INTRA.DIHEDRAL.0>
2.54655

>  <SCORE.INTRA.POLAR>
0

>  <SCORE.INTRA.POLAR.0>
0

>  <SCORE.INTRA.REPUL>
0

>  <SCORE.INTRA.REPUL.0>
0

>  <SCORE.INTRA.SOLV>
-0.929729

>  <SCORE.INTRA.SOLV.lig_0>
-56.4922

>  <SCORE.INTRA.VDW>
-0.662676

>  <SCORE.INTRA.VDW.0>
-0.696801

>  <SCORE.INTRA.norm>
-0.0222832

>  <SCORE.RESTR>
0

>  <SCORE.RESTR.CAVITY>
0

>  <SCORE.RESTR.norm>
0

>  <SCORE.SYSTEM>
0

>  <SCORE.SYSTEM.CONST>
0

>  <SCORE.SYSTEM.DIHEDRAL>
0

>  <SCORE.SYSTEM.SOLV>
0

>  <SCORE.SYSTEM.norm>
0

>  <SCORE.heavy>
22

>  <SCORE.norm>
-0.61232

>  <RMSD>
6.838

$$$$
ligand
 OpenBabel02271912143D
libRbt.so/2013.1/901 2013/11/27
 22 24  0  0  0  0  0  0  0  0999 V2000
   24.6169  -21.5223   27.0290 N   0  0  0  0  0  0  0  0  0  0  0  0
   22.4685  -22.2421   26.2550 N   0  0  0  0  0  0  0  0  0  0  0  0
   23.1958  -21.6456   27.2138 C   0  0  0  0  0  0  0  0  0  0  0  0
   22.6453  -21.1681   28.3232 N   0  0  0  0  0  0  0  0  0  0  0  0
   18.0299  -21.5200   29.5623 O   0  0  0  0  0  0  0  0  0  0  0  0
   21.3176  -21.2745   28.5157 C   0  0  0  0  0  0  0  0  0  0  0  0
   20.5175  -21.9119   27.5267 C   0  0  0  0  0  0  0  0  0  0  0  0
   20.7717  -20.7702   29.6747 O   0  0  0  0  0  0  0  0  0  0  0  0
   19.0788  -22.0784   27.5879 N   0  0  0  0  0  0  0  0  0  0  0  0
   18.3421  -21.8880   26.3318 C   0  0  2  0  0  0  0  0  0  0  0  0
   18.9351  -22.7239   25.2409 C   0  0  0  0  0  0  0  0  0  0  0  0
   21.1352  -22.3781   26.3933 C   0  0  0  0  0  0  0  0  0  0  0  0
   20.3611  -23.0068   25.3912 N   0  0  0  0  0  0  0  0  0  0  0  0
   18.2876  -20.4244   25.8579 C   0  0  0  0  0  0  0  0  0  0  0  0
   17.2843  -19.6818   26.6108 N   0  0  0  0  0  0  0  0  0  0  0  0
   13.1682  -20.7489   26.4675 C   0  0  0  0  0  0  0  0  0  0  0  0
   14.0559  -21.2985   25.5579 C   0  0  0  0  0  0  0  0  0  0  0  0
   15.4198  -20.9503   25.6005 C   0  0  0  0  0  0  0  0  0  0  0  0
   15.8758  -20.0531   26.5545 C   0  0  0  0  0  0  0  0  0  0  0  0
   14.9812  -19.5024   27.4675 C   0  0  0  0  0  0  0  0  0  0  0  0
   13.6287  -19.8507   27.4251 C   0  0  0  0  0  0  0  0  0  0  0  0
   18.3555  -22.3907   28.7728 C   0  0  0  0  0  0  0  0  0  0  0  0
  1  3  1  0  0  0  0
  2  3  2  0  0  0  0
  2 12  1  0  0  0  0
  3  4  1  0  0  0  0
  4  6  1  0  0  0  0
  5 22  1  0  0  0  0
  6  7  1  0  0  0  0
  6  8  2  0  0  0  0
  7 12  2  0  0  0  0
  7  9  1  0  0  0  0
  9 10  1  0  0  0  0
  9 22  1  0  0  0  0
 10 11  1  0  0  0  0
 10 14  1  6  0  0  0
 11 13  1  0  0  0  0
 12 13  1  0  0  0  0
 14 15  1  0  0  0  0
 15 19  1  0  0  0  0
 16 17  2  0  0  0  0
 16 21  1  0  0  0  0
 17 18  1  0  0  0  0
 18 19  2  0  0  0  0
 19 20  1  0  0  0  0
 20 21  2  0  0  0  0
M  END
>  <CHROM.1>
83.29826370,-78.43323539,-62.05365483,-12.19970479,18.85625995,-21.33991320
27.11218555,-0.04590754,0.18560001,-1.87715540

>  <Name>
ligand

>  <RI>
0

>  <Rbt.Current_Directory>
/home/itssahil/PROJECTS/Mol_Feturizer/Test_systems_manuscript/rnas/3sd3

>  <Rbt.Executable>
rbdock ($Id: //depot/dev/client3/rdock/2013.1/src/exe/rbdock.cxx#4 $)

>  <Rbt.Library>
libRbt.so (2013.1, Build901 2013/11/27)

>  <Rbt.Parameter_File>
/export/apps/rDock/src/rDock_2013.1_src/data/scripts/dock_solv.prm

>  <Rbt.Receptor>
prm/pocket_docking_4.prm

>  <SCORE>
-17.2052

>  <SCORE.INTER>
-16.7619

>  <SCORE.INTER.CONST>
1

>  <SCORE.INTER.POLAR>
0

>  <SCORE.INTER.ROT>
4

>  <SCORE.INTER.SOLV>
8.47479

>  <SCORE.INTER.VDW>
-20.2662

>  <SCORE.INTER.norm>
-0.761905

>  <SCORE.INTRA>
-0.443282

>  <SCORE.INTRA.DIHEDRAL>
0.168339

>  <SCORE.INTRA.DIHEDRAL.0>
2.54655

>  <SCORE.INTRA.POLAR>
0

>  <SCORE.INTRA.POLAR.0>
0

>  <SCORE.INTRA.REPUL>
0

>  <SCORE.INTRA.REPUL.0>
0

>  <SCORE.INTRA.SOLV>
0.243377

>  <SCORE.INTRA.SOLV.lig_0>
-56.4922

>  <SCORE.INTRA.VDW>
-0.649141

>  <SCORE.INTRA.VDW.0>
-0.696801

>  <SCORE.INTRA.norm>
-0.0201492

>  <SCORE.RESTR>
0

>  <SCORE.RESTR.CAVITY>
0

>  <SCORE.RESTR.norm>
0

>  <SCORE.SYSTEM>
0

>  <SCORE.SYSTEM.CONST>
0

>  <SCORE.SYSTEM.DIHEDRAL>
0

>  <SCORE.SYSTEM.SOLV>
0

>  <SCORE.SYSTEM.norm>
0

>  <SCORE.heavy>
22

>  <SCORE.norm>
-0.782054

>  <RMSD>
6.838

$$$$
ligand
 OpenBabel02271912143D
libRbt.so/2013.1/901 2013/11/27
 22 24  0  0  0  0  0  0  0  0999 V2000
   23.6583  -22.8372   24.5698 N   0  0  0  0  0  0  0  0  0  0  0  0
   21.3353  -22.8755   25.1488 N   0  0  0  0  0  0  0  0  0  0  0  0
   22.5923  -22.5485   25.4912 C   0  0  0  0  0  0  0  0  0  0  0  0
   22.8801  -21.9691   26.6502 N   0  0  0  0  0  0  0  0  0  0  0  0
   18.5411  -22.5887   30.0158 O   0  0  0  0  0  0  0  0  0  0  0  0
   21.8972  -21.6916   27.5266 C   0  0  0  0  0  0  0  0  0  0  0  0
   20.5551  -22.0355   27.2027 C   0  0  0  0  0  0  0  0  0  0  0  0
   22.2226  -21.0896   28.7213 O   0  0  0  0  0  0  0  0  0  0  0  0
   19.3967  -21.7788   28.0353 N   0  0  0  0  0  0  0  0  0  0  0  0
   18.1765  -21.3406   27.3453 C   0  0  2  0  0  0  0  0  0  0  0  0
   17.8389  -22.2757   26.2263 C   0  0  0  0  0  0  0  0  0  0  0  0
   20.3108  -22.6228   25.9865 C   0  0  0  0  0  0  0  0  0  0  0  0
   18.9846  -22.9655   25.6367 N   0  0  0  0  0  0  0  0  0  0  0  0
   18.2585  -19.9093   26.7847 C   0  0  0  0  0  0  0  0  0  0  0  0
   17.0130  -19.1931   27.0317 N   0  0  0  0  0  0  0  0  0  0  0  0
   13.2622  -20.9553   26.0686 C   0  0  0  0  0  0  0  0  0  0  0  0
   13.4253  -20.2947   27.2747 C   0  0  0  0  0  0  0  0  0  0  0  0
   14.6640  -19.7084   27.5992 C   0  0  0  0  0  0  0  0  0  0  0  0
   15.7244  -19.7939   26.7099 C   0  0  0  0  0  0  0  0  0  0  0  0
   15.5575  -20.4582   25.4984 C   0  0  0  0  0  0  0  0  0  0  0  0
   14.3273  -21.0375   25.1771 C   0  0  0  0  0  0  0  0  0  0  0  0
   19.3810  -21.9071   29.4524 C   0  0  0  0  0  0  0  0  0  0  0  0
  1  3  1  0  0  0  0
  2  3  2  0  0  0  0
  2 12  1  0  0  0  0
  3  4  1  0  0  0  0
  4  6  1  0  0  0  0
  5 22  1  0  0  0  0
  6  7  1  0  0  0  0
  6  8  2  0  0  0  0
  7 12  2  0  0  0  0
  7  9  1  0  0  0  0
  9 10  1  0  0  0  0
  9 22  1  0  0  0  0
 10 11  1  0  0  0  0
 10 14  1  6  0  0  0
 11 13  1  0  0  0  0
 12 13  1  0  0  0  0
 14 15  1  0  0  0  0
 15 19  1  0  0  0  0
 16 17  2  0  0  0  0
 16 21  1  0  0  0  0
 17 18  1  0  0  0  0
 18 19  2  0  0  0  0
 19 20  1  0  0  0  0
 20 21  2  0  0  0  0
M  END
>  <CHROM.1>
-126.93715127,-137.86124059,-48.68451821,135.92917697,18.75816925,-21.47754846
26.88379982,0.05313403,0.24483562,-1.72539326

>  <Name>
ligand

>  <RI>
0

>  <Rbt.Current_Directory>
/home/itssahil/PROJECTS/Mol_Feturizer/Test_systems_manuscript/rnas/3sd3

>  <Rbt.Executable>
rbdock ($Id: //depot/dev/client3/rdock/2013.1/src/exe/rbdock.cxx#4 $)

>  <Rbt.Library>
libRbt.so (2013.1, Build901 2013/11/27)

>  <Rbt.Parameter_File>
/export/apps/rDock/src/rDock_2013.1_src/data/scripts/dock_solv.prm

>  <Rbt.Receptor>
prm/pocket_docking_8.prm

>  <SCORE>
-16.4803

>  <SCORE.INTER>
-17.5736

>  <SCORE.INTER.CONST>
1

>  <SCORE.INTER.POLAR>
0

>  <SCORE.INTER.ROT>
4

>  <SCORE.INTER.SOLV>
10.6071

>  <SCORE.INTER.VDW>
-21.5181

>  <SCORE.INTER.norm>
-0.798799

>  <SCORE.INTRA>
1.09327

>  <SCORE.INTRA.DIHEDRAL>
3.35122

>  <SCORE.INTRA.DIHEDRAL.0>
2.54655

>  <SCORE.INTRA.POLAR>
0

>  <SCORE.INTRA.POLAR.0>
0

>  <SCORE.INTRA.REPUL>
0

>  <SCORE.INTRA.REPUL.0>
0

>  <SCORE.INTRA.SOLV>
-0.968606

>  <SCORE.INTRA.SOLV.lig_0>
-56.4922

>  <SCORE.INTRA.VDW>
-0.0980405

>  <SCORE.INTRA.VDW.0>
-0.696801

>  <SCORE.INTRA.norm>
0.049694

>  <SCORE.RESTR>
0

>  <SCORE.RESTR.CAVITY>
0

>  <SCORE.RESTR.norm>
0

>  <SCORE.SYSTEM>
0

>  <SCORE.SYSTEM.CONST>
0

>  <SCORE.SYSTEM.DIHEDRAL>
0

>  <SCORE.SYSTEM.SOLV>
0

>  <SCORE.SYSTEM.norm>
0

>  <SCORE.heavy>
22

>  <SCORE.norm>
-0.749105

>  <RMSD>
6.843

$$$$
ligand
 OpenBabel02271912143D
libRbt.so/2013.1/901 2013/11/27
 22 24  0  0  0  0  0  0  0  0999 V2000
   24.5570  -21.4939   27.3933 N   0  0  0  0  0  0  0  0  0  0  0  0
   22.4475  -22.2321   26.5342 N   0  0  0  0  0  0  0  0  0  0  0  0
   23.1263  -21.5943   27.5020 C   0  0  0  0  0  0  0  0  0  0  0  0
   22.5195  -21.0558   28.5525 N   0  0  0  0  0  0  0  0  0  0  0  0
   18.6986  -22.6059   29.8556 O   0  0  0  0  0  0  0  0  0  0  0  0
   21.1817  -21.1398   28.6735 C   0  0  0  0  0  0  0  0  0  0  0  0
   20.4314  -21.8191   27.6735 C   0  0  0  0  0  0  0  0  0  0  0  0
   20.5770  -20.5720   29.7723 O   0  0  0  0  0  0  0  0  0  0  0  0
   18.9897  -21.9688   27.6602 N   0  0  0  0  0  0  0  0  0  0  0  0
   18.3281  -21.8357   26.3558 C   0  0  2  0  0  0  0  0  0  0  0  0
   18.9719  -22.7316   25.3442 C   0  0  0  0  0  0  0  0  0  0  0  0
   21.1069  -22.3483   26.6023 C   0  0  0  0  0  0  0  0  0  0  0  0
   20.3834  -23.0199   25.5903 N   0  0  0  0  0  0  0  0  0  0  0  0
   18.3187  -20.3977   25.8065 C   0  0  0  0  0  0  0  0  0  0  0  0
   17.3107  -19.5973   26.4909 N   0  0  0  0  0  0  0  0  0  0  0  0
   13.2130  -20.7418   26.5120 C   0  0  0  0  0  0  0  0  0  0  0  0
   14.0697  -21.2604   25.5556 C   0  0  0  0  0  0  0  0  0  0  0  0
   15.4274  -20.8864   25.5437 C   0  0  0  0  0  0  0  0  0  0  0  0
   15.9083  -19.9950   26.4907 C   0  0  0  0  0  0  0  0  0  0  0  0
   15.0449  -19.4756   27.4508 C   0  0  0  0  0  0  0  0  0  0  0  0
   13.6986  -19.8494   27.4625 C   0  0  0  0  0  0  0  0  0  0  0  0
   18.1963  -22.2136   28.8158 C   0  0  0  0  0  0  0  0  0  0  0  0
  1  3  1  0  0  0  0
  2  3  2  0  0  0  0
  2 12  1  0  0  0  0
  3  4  1  0  0  0  0
  4  6  1  0  0  0  0
  5 22  1  0  0  0  0
  6  7  1  0  0  0  0
  6  8  2  0  0  0  0
  7 12  2  0  0  0  0
  7  9  1  0  0  0  0
  9 10  1  0  0  0  0
  9 22  1  0  0  0  0
 10 11  1  0  0  0  0
 10 14  1  6  0  0  0
 11 13  1  0  0  0  0
 12 13  1  0  0  0  0
 14 15  1  0  0  0  0
 15 19  1  0  0  0  0
 16 17  2  0  0  0  0
 16 21  1  0  0  0  0
 17 18  1  0  0  0  0
 18 19  2  0  0  0  0
 19 20  1  0  0  0  0
 20 21  2  0  0  0  0
M  END
>  <CHROM.1>
-16.44727053,-76.70458899,-57.69173804,-19.28480107,18.86179201,-21.34016603
27.21925203,-0.10820921,0.19366879,-1.79634994

>  <Name>
ligand

>  <RI>
0

>  <Rbt.Current_Directory>
/home/itssahil/PROJECTS/Mol_Feturizer/Test_systems_manuscript/rnas/3sd3

>  <Rbt.Executable>
rbdock ($Id: //depot/dev/client3/rdock/2013.1/src/exe/rbdock.cxx#4 $)

>  <Rbt.Library>
libRbt.so (2013.1, Build901 2013/11/27)

>  <Rbt.Parameter_File>
/export/apps/rDock/src/rDock_2013.1_src/data/scripts/dock_solv.prm

>  <Rbt.Receptor>
prm/pocket_docking_6.prm

>  <SCORE>
-17.1793

>  <SCORE.INTER>
-16.5975

>  <SCORE.INTER.CONST>
1

>  <SCORE.INTER.POLAR>
0

>  <SCORE.INTER.ROT>
4

>  <SCORE.INTER.SOLV>
8.98437

>  <SCORE.INTER.VDW>
-20.3265

>  <SCORE.INTER.norm>
-0.754432

>  <SCORE.INTRA>
-0.581776

>  <SCORE.INTRA.DIHEDRAL>
-0.0110712

>  <SCORE.INTRA.DIHEDRAL.0>
2.54655

>  <SCORE.INTRA.POLAR>
0

>  <SCORE.INTRA.POLAR.0>
0

>  <SCORE.INTRA.REPUL>
0

>  <SCORE.INTRA.REPUL.0>
0

>  <SCORE.INTRA.SOLV>
-0.196189

>  <SCORE.INTRA.SOLV.lig_0>
-56.4922

>  <SCORE.INTRA.VDW>
-0.478146

>  <SCORE.INTRA.VDW.0>
-0.696801

>  <SCORE.INTRA.norm>
-0.0264444

>  <SCORE.RESTR>
0

>  <SCORE.RESTR.CAVITY>
0

>  <SCORE.RESTR.norm>
0

>  <SCORE.SYSTEM>
0

>  <SCORE.SYSTEM.CONST>
0

>  <SCORE.SYSTEM.DIHEDRAL>
0

>  <SCORE.SYSTEM.SOLV>
0

>  <SCORE.SYSTEM.norm>
0

>  <SCORE.heavy>
22

>  <SCORE.norm>
-0.780876

>  <RMSD>
6.844

$$$$
ligand
 OpenBabel02271912143D
libRbt.so/2013.1/901 2013/11/27
 22 24  0  0  0  0  0  0  0  0999 V2000
   23.6973  -22.7533   24.7652 N   0  0  0  0  0  0  0  0  0  0  0  0
   21.3640  -22.7987   25.3006 N   0  0  0  0  0  0  0  0  0  0  0  0
   22.6146  -22.4781   25.6712 C   0  0  0  0  0  0  0  0  0  0  0  0
   22.8814  -21.9173   26.8443 N   0  0  0  0  0  0  0  0  0  0  0  0
   18.4582  -22.5547   30.1219 O   0  0  0  0  0  0  0  0  0  0  0  0
   21.8827  -21.6527   27.7067 C   0  0  0  0  0  0  0  0  0  0  0  0
   20.5466  -21.9903   27.3527 C   0  0  0  0  0  0  0  0  0  0  0  0
   22.1864  -21.0698   28.9165 O   0  0  0  0  0  0  0  0  0  0  0  0
   19.3732  -21.7457   28.1678 N   0  0  0  0  0  0  0  0  0  0  0  0
   18.1662  -21.2956   27.4624 C   0  0  2  0  0  0  0  0  0  0  0  0
   17.8487  -22.2127   26.3228 C   0  0  0  0  0  0  0  0  0  0  0  0
   20.3244  -22.5583   26.1232 C   0  0  0  0  0  0  0  0  0  0  0  0
   19.0047  -22.8942   25.7437 N   0  0  0  0  0  0  0  0  0  0  0  0
   18.2594  -19.8558   26.9260 C   0  0  0  0  0  0  0  0  0  0  0  0
   16.9905  -19.1613   27.1072 N   0  0  0  0  0  0  0  0  0  0  0  0
   13.3019  -20.9789   26.0157 C   0  0  0  0  0  0  0  0  0  0  0  0
   14.3783  -21.0251   25.1458 C   0  0  0  0  0  0  0  0  0  0  0  0
   15.6023  -20.4263   25.5014 C   0  0  0  0  0  0  0  0  0  0  0  0
   15.7305  -19.7868   26.7251 C   0  0  0  0  0  0  0  0  0  0  0  0
   14.6469  -19.7420   27.5973 C   0  0  0  0  0  0  0  0  0  0  0  0
   13.4339  -20.3386   27.2439 C   0  0  0  0  0  0  0  0  0  0  0  0
   19.3313  -21.8962   29.5822 C   0  0  0  0  0  0  0  0  0  0  0  0
  1  3  1  0  0  0  0
  2  3  2  0  0  0  0
  2 12  1  0  0  0  0
  3  4  1  0  0  0  0
  4  6  1  0  0  0  0
  5 22  1  0  0  0  0
  6  7  1  0  0  0  0
  6  8  2  0  0  0  0
  7 12  2  0  0  0  0
  7  9  1  0  0  0  0
  9 10  1  0  0  0  0
  9 22  1  0  0  0  0
 10 11  1  0  0  0  0
 10 14  1  6  0  0  0
 11 13  1  0  0  0  0
 12 13  1  0  0  0  0
 14 15  1  0  0  0  0
 15 19  1  0  0  0  0
 16 17  2  0  0  0  0
 16 21  1  0  0  0  0
 17 18  1  0  0  0  0
 18 19  2  0  0  0  0
 19 20  1  0  0  0  0
 20 21  2  0  0  0  0
M  END
>  <CHROM.1>
-129.05004379,-140.39685042,-47.49505513,-46.10924574,18.75740080,-21.44268617
26.98707414,0.02269753,0.24091988,-1.70680444

>  <Name>
ligand

>  <RI>
0

>  <Rbt.Current_Directory>
/home/itssahil/PROJECTS/Mol_Feturizer/Test_systems_manuscript/rnas/3sd3

>  <Rbt.Executable>
rbdock ($Id: //depot/dev/client3/rdock/2013.1/src/exe/rbdock.cxx#4 $)

>  <Rbt.Library>
libRbt.so (2013.1, Build901 2013/11/27)

>  <Rbt.Parameter_File>
/export/apps/rDock/src/rDock_2013.1_src/data/scripts/dock_solv.prm

>  <Rbt.Receptor>
prm/pocket_docking_5.prm

>  <SCORE>
-16.483

>  <SCORE.INTER>
-17.4901

>  <SCORE.INTER.CONST>
1

>  <SCORE.INTER.POLAR>
0

>  <SCORE.INTER.ROT>
4

>  <SCORE.INTER.SOLV>
10.4922

>  <SCORE.INTER.VDW>
-21.4241

>  <SCORE.INTER.norm>
-0.795002

>  <SCORE.INTRA>
1.00708

>  <SCORE.INTRA.DIHEDRAL>
3.08151

>  <SCORE.INTRA.DIHEDRAL.0>
2.54655

>  <SCORE.INTRA.POLAR>
0

>  <SCORE.INTRA.POLAR.0>
0

>  <SCORE.INTRA.REPUL>
0

>  <SCORE.INTRA.REPUL.0>
0

>  <SCORE.INTRA.SOLV>
-0.975494

>  <SCORE.INTRA.SOLV.lig_0>
-56.4922

>  <SCORE.INTRA.VDW>
-0.0459291

>  <SCORE.INTRA.VDW.0>
-0.696801

>  <SCORE.INTRA.norm>
0.0457762

>  <SCORE.RESTR>
0

>  <SCORE.RESTR.CAVITY>
0

>  <SCORE.RESTR.norm>
0

>  <SCORE.SYSTEM>
0

>  <SCORE.SYSTEM.CONST>
0

>  <SCORE.SYSTEM.DIHEDRAL>
0

>  <SCORE.SYSTEM.SOLV>
0

>  <SCORE.SYSTEM.norm>
0

>  <SCORE.heavy>
22

>  <SCORE.norm>
-0.749226

>  <RMSD>
6.846

$$$$
ligand
 OpenBabel02271912143D
libRbt.so/2013.1/901 2013/11/27
 22 24  0  0  0  0  0  0  0  0999 V2000
   21.1391  -24.6701   20.4191 N   0  0  0  0  0  0  0  0  0  0  0  0
   20.9832  -23.5551   22.5323 N   0  0  0  0  0  0  0  0  0  0  0  0
   20.6403  -23.5952   21.2342 C   0  0  0  0  0  0  0  0  0  0  0  0
   19.8579  -22.6760   20.6821 N   0  0  0  0  0  0  0  0  0  0  0  0
   18.0456  -18.6341   23.4634 O   0  0  0  0  0  0  0  0  0  0  0  0
   19.3817  -21.6616   21.4273 C   0  0  0  0  0  0  0  0  0  0  0  0
   19.7345  -21.5802   22.8032 C   0  0  0  0  0  0  0  0  0  0  0  0
   18.5715  -20.7220   20.8303 O   0  0  0  0  0  0  0  0  0  0  0  0
   19.2810  -20.5612   23.7290 N   0  0  0  0  0  0  0  0  0  0  0  0
   18.9423  -21.0107   25.0855 C   0  0  2  0  0  0  0  0  0  0  0  0
   20.0639  -21.8100   25.6715 C   0  0  0  0  0  0  0  0  0  0  0  0
   20.5373  -22.5625   23.3268 C   0  0  0  0  0  0  0  0  0  0  0  0
   20.8946  -22.5098   24.6936 N   0  0  0  0  0  0  0  0  0  0  0  0
   17.6504  -21.8444   25.1604 C   0  0  0  0  0  0  0  0  0  0  0  0
   16.5087  -21.0566   24.7121 N   0  0  0  0  0  0  0  0  0  0  0  0
   13.3825  -20.0131   27.4028 C   0  0  0  0  0  0  0  0  0  0  0  0
   13.1495  -20.9385   26.3994 C   0  0  0  0  0  0  0  0  0  0  0  0
   14.1803  -21.2890   25.5061 C   0  0  0  0  0  0  0  0  0  0  0  0
   15.4319  -20.7050   25.6296 C   0  0  0  0  0  0  0  0  0  0  0  0
   15.6631  -19.7754   26.6392 C   0  0  0  0  0  0  0  0  0  0  0  0
   14.6400  -19.4304   27.5260 C   0  0  0  0  0  0  0  0  0  0  0  0
   19.1318  -19.1849   23.3996 C   0  0  0  0  0  0  0  0  0  0  0  0
  1  3  1  0  0  0  0
  2  3  2  0  0  0  0
  2 12  1  0  0  0  0
  3  4  1  0  0  0  0
  4  6  1  0  0  0  0
  5 22  1  0  0  0  0
  6  7  1  0  0  0  0
  6  8  2  0  0  0  0
  7 12  2  0  0  0  0
  7  9  1  0  0  0  0
  9 10  1  0  0  0  0
  9 22  1  0  0  0  0
 10 11  1  0  0  0  0
 10 14  1  6  0  0  0
 11 13  1  0  0  0  0
 12 13  1  0  0  0  0
 14 15  1  0  0  0  0
 15 19  1  0  0  0  0
 16 17  2  0  0  0  0
 16 21  1  0  0  0  0
 17 18  1  0  0  0  0
 18 19  2  0  0  0  0
 19 20  1  0  0  0  0
 20 21  2  0  0  0  0
M  END
>  <CHROM.1>
118.51524374,-61.40374496,-115.03800211,-109.34611711,18.17919345,-21.34567597
23.93015741,-0.51922364,-0.55970069,1.81548001

>  <Name>
ligand

>  <RI>
0

>  <Rbt.Current_Directory>
/home/itssahil/PROJECTS/Mol_Feturizer/Test_systems_manuscript/rnas/3sd3

>  <Rbt.Executable>
rbdock ($Id: //depot/dev/client3/rdock/2013.1/src/exe/rbdock.cxx#4 $)

>  <Rbt.Library>
libRbt.so (2013.1, Build901 2013/11/27)

>  <Rbt.Parameter_File>
/export/apps/rDock/src/rDock_2013.1_src/data/scripts/dock_solv.prm

>  <Rbt.Receptor>
prm/pocket_docking_7.prm

>  <SCORE>
-16.521

>  <SCORE.INTER>
-15.8766

>  <SCORE.INTER.CONST>
1

>  <SCORE.INTER.POLAR>
0

>  <SCORE.INTER.ROT>
4

>  <SCORE.INTER.SOLV>
13.2695

>  <SCORE.INTER.VDW>
-21.2742

>  <SCORE.INTER.norm>
-0.721661

>  <SCORE.INTRA>
-0.644447

>  <SCORE.INTRA.DIHEDRAL>
0.272237

>  <SCORE.INTRA.DIHEDRAL.0>
2.54655

>  <SCORE.INTRA.POLAR>
0

>  <SCORE.INTRA.POLAR.0>
0

>  <SCORE.INTRA.REPUL>
0

>  <SCORE.INTRA.REPUL.0>
0

>  <SCORE.INTRA.SOLV>
0.573413

>  <SCORE.INTRA.SOLV.lig_0>
-56.4922

>  <SCORE.INTRA.VDW>
-1.06727

>  <SCORE.INTRA.VDW.0>
-0.696801

>  <SCORE.INTRA.norm>
-0.0292931

>  <SCORE.RESTR>
0

>  <SCORE.RESTR.CAVITY>
0

>  <SCORE.RESTR.norm>
0

>  <SCORE.SYSTEM>
0

>  <SCORE.SYSTEM.CONST>
0

>  <SCORE.SYSTEM.DIHEDRAL>
0

>  <SCORE.SYSTEM.SOLV>
0

>  <SCORE.SYSTEM.norm>
0

>  <SCORE.heavy>
22

>  <SCORE.norm>
-0.750954

>  <RMSD>
6.847

$$$$
ligand
 OpenBabel02271912143D
libRbt.so/2013.1/901 2013/11/27
 22 24  0  0  0  0  0  0  0  0999 V2000
   24.4993  -20.6988   27.2094 N   0  0  0  0  0  0  0  0  0  0  0  0
   22.4994  -21.8146   26.5107 N   0  0  0  0  0  0  0  0  0  0  0  0
   23.1056  -21.0032   27.3929 C   0  0  0  0  0  0  0  0  0  0  0  0
   22.4603  -20.4754   28.4257 N   0  0  0  0  0  0  0  0  0  0  0  0
   17.9128  -21.3357   29.6523 O   0  0  0  0  0  0  0  0  0  0  0  0
   21.1563  -20.7487   28.6158 C   0  0  0  0  0  0  0  0  0  0  0  0
   20.4847  -21.6144   27.7081 C   0  0  0  0  0  0  0  0  0  0  0  0
   20.5103  -20.1877   29.6945 O   0  0  0  0  0  0  0  0  0  0  0  0
   19.0834  -21.9792   27.7745 N   0  0  0  0  0  0  0  0  0  0  0  0
   18.3642  -22.0569   26.4964 C   0  0  2  0  0  0  0  0  0  0  0  0
   19.1022  -22.9279   25.5282 C   0  0  0  0  0  0  0  0  0  0  0  0
   21.1956  -22.1244   26.6508 C   0  0  0  0  0  0  0  0  0  0  0  0
   20.5489  -22.9795   25.7293 N   0  0  0  0  0  0  0  0  0  0  0  0
   18.1154  -20.6878   25.8380 C   0  0  0  0  0  0  0  0  0  0  0  0
   17.1970  -19.8937   26.6449 N   0  0  0  0  0  0  0  0  0  0  0  0
   13.0143  -20.6681   26.5659 C   0  0  0  0  0  0  0  0  0  0  0  0
   13.5404  -19.8144   27.5209 C   0  0  0  0  0  0  0  0  0  0  0  0
   14.9239  -19.5531   27.5519 C   0  0  0  0  0  0  0  0  0  0  0  0
   15.7627  -20.1533   26.6251 C   0  0  0  0  0  0  0  0  0  0  0  0
   15.2310  -21.0106   25.6664 C   0  0  0  0  0  0  0  0  0  0  0  0
   13.8579  -21.2671   25.6357 C   0  0  0  0  0  0  0  0  0  0  0  0
   18.3775  -22.2423   28.9817 C   0  0  0  0  0  0  0  0  0  0  0  0
  1  3  1  0  0  0  0
  2  3  2  0  0  0  0
  2 12  1  0  0  0  0
  3  4  1  0  0  0  0
  4  6  1  0  0  0  0
  5 22  1  0  0  0  0
  6  7  1  0  0  0  0
  6  8  2  0  0  0  0
  7 12  2  0  0  0  0
  7  9  1  0  0  0  0
  9 10  1  0  0  0  0
  9 22  1  0  0  0  0
 10 11  1  0  0  0  0
 10 14  1  6  0  0  0
 11 13  1  0  0  0  0
 12 13  1  0  0  0  0
 14 15  1  0  0  0  0
 15 19  1  0  0  0  0
 16 17  2  0  0  0  0
 16 21  1  0  0  0  0
 17 18  1  0  0  0  0
 18 19  2  0  0  0  0
 19 20  1  0  0  0  0
 20 21  2  0  0  0  0
M  END
>  <CHROM.1>
82.98886245,-66.37628700,-77.50489167,169.16170603,18.78706544,-21.16301651
27.25123238,-0.05820349,0.12972306,-2.00365942

>  <Name>
ligand

>  <RI>
0

>  <Rbt.Current_Directory>
/home/itssahil/PROJECTS/Mol_Feturizer/Test_systems_manuscript/rnas/3sd3

>  <Rbt.Executable>
rbdock ($Id: //depot/dev/client3/rdock/2013.1/src/exe/rbdock.cxx#4 $)

>  <Rbt.Library>
libRbt.so (2013.1, Build901 2013/11/27)

>  <Rbt.Parameter_File>
/export/apps/rDock/src/rDock_2013.1_src/data/scripts/dock_solv.prm

>  <Rbt.Receptor>
prm/pocket_docking_5.prm

>  <SCORE>
-16.8429

>  <SCORE.INTER>
-16.0881

>  <SCORE.INTER.CONST>
1

>  <SCORE.INTER.POLAR>
0

>  <SCORE.INTER.ROT>
4

>  <SCORE.INTER.SOLV>
8.73514

>  <SCORE.INTER.VDW>
-19.9038

>  <SCORE.INTER.norm>
-0.731277

>  <SCORE.INTRA>
-0.754806

>  <SCORE.INTRA.DIHEDRAL>
-0.566983

>  <SCORE.INTRA.DIHEDRAL.0>
2.54655

>  <SCORE.INTRA.POLAR>
0

>  <SCORE.INTRA.POLAR.0>
0

>  <SCORE.INTRA.REPUL>
0

>  <SCORE.INTRA.REPUL.0>
0

>  <SCORE.INTRA.SOLV>
0.481676

>  <SCORE.INTRA.SOLV.lig_0>
-56.4922

>  <SCORE.INTRA.VDW>
-0.712153

>  <SCORE.INTRA.VDW.0>
-0.696801

>  <SCORE.INTRA.norm>
-0.0343094

>  <SCORE.RESTR>
0

>  <SCORE.RESTR.CAVITY>
0

>  <SCORE.RESTR.norm>
0

>  <SCORE.SYSTEM>
0

>  <SCORE.SYSTEM.CONST>
0

>  <SCORE.SYSTEM.DIHEDRAL>
0

>  <SCORE.SYSTEM.SOLV>
0

>  <SCORE.SYSTEM.norm>
0

>  <SCORE.heavy>
22

>  <SCORE.norm>
-0.765586

>  <RMSD>
6.848

$$$$
ligand
 OpenBabel02271912143D
libRbt.so/2013.1/901 2013/11/27
 22 24  0  0  0  0  0  0  0  0999 V2000
   24.5452  -21.6454   27.3549 N   0  0  0  0  0  0  0  0  0  0  0  0
   22.4019  -22.2966   26.5093 N   0  0  0  0  0  0  0  0  0  0  0  0
   23.1136  -21.7026   27.4813 C   0  0  0  0  0  0  0  0  0  0  0  0
   22.5383  -21.1686   28.5516 N   0  0  0  0  0  0  0  0  0  0  0  0
   18.6874  -22.6239   29.8739 O   0  0  0  0  0  0  0  0  0  0  0  0
   21.2003  -21.2127   28.6894 C   0  0  0  0  0  0  0  0  0  0  0  0
   20.4154  -21.8453   27.6853 C   0  0  0  0  0  0  0  0  0  0  0  0
   20.6287  -20.6506   29.8087 O   0  0  0  0  0  0  0  0  0  0  0  0
   18.9696  -21.9486   27.6888 N   0  0  0  0  0  0  0  0  0  0  0  0
   18.2954  -21.7654   26.3970 C   0  0  2  0  0  0  0  0  0  0  0  0
   18.8966  -22.6585   25.3571 C   0  0  0  0  0  0  0  0  0  0  0  0
   21.0593  -22.3716   26.5935 C   0  0  0  0  0  0  0  0  0  0  0  0
   20.3013  -22.9970   25.5772 N   0  0  0  0  0  0  0  0  0  0  0  0
   18.3249  -20.3159   25.8795 C   0  0  0  0  0  0  0  0  0  0  0  0
   17.2859  -19.5230   26.5251 N   0  0  0  0  0  0  0  0  0  0  0  0
   13.2091  -20.7378   26.4563 C   0  0  0  0  0  0  0  0  0  0  0  0
   14.0898  -21.2220   25.5038 C   0  0  0  0  0  0  0  0  0  0  0  0
   15.4408  -20.8246   25.5215 C   0  0  0  0  0  0  0  0  0  0  0  0
   15.8908  -19.9446   26.4940 C   0  0  0  0  0  0  0  0  0  0  0  0
   15.0033  -19.4597   27.4502 C   0  0  0  0  0  0  0  0  0  0  0  0
   13.6638  -19.8567   27.4324 C   0  0  0  0  0  0  0  0  0  0  0  0
   18.1840  -22.1938   28.8497 C   0  0  0  0  0  0  0  0  0  0  0  0
  1  3  1  0  0  0  0
  2  3  2  0  0  0  0
  2 12  1  0  0  0  0
  3  4  1  0  0  0  0
  4  6  1  0  0  0  0
  5 22  1  0  0  0  0
  6  7  1  0  0  0  0
  6  8  2  0  0  0  0
  7 12  2  0  0  0  0
  7  9  1  0  0  0  0
  9 10  1  0  0  0  0
  9 22  1  0  0  0  0
 10 11  1  0  0  0  0
 10 14  1  6  0  0  0
 11 13  1  0  0  0  0
 12 13  1  0  0  0  0
 14 15  1  0  0  0  0
 15 19  1  0  0  0  0
 16 17  2  0  0  0  0
 16 21  1  0  0  0  0
 17 18  1  0  0  0  0
 18 19  2  0  0  0  0
 19 20  1  0  0  0  0
 20 21  2  0  0  0  0
M  END
>  <CHROM.1>
-16.37949968,-80.87837586,-54.71839584,-21.37656288,18.84563625,-21.34686089
27.22260746,-0.11560254,0.20505250,-1.76421672

>  <Name>
ligand

>  <RI>
0

>  <Rbt.Current_Directory>
/home/itssahil/PROJECTS/Mol_Feturizer/Test_systems_manuscript/rnas/3sd3

>  <Rbt.Executable>
rbdock ($Id: //depot/dev/client3/rdock/2013.1/src/exe/rbdock.cxx#4 $)

>  <Rbt.Library>
libRbt.so (2013.1, Build901 2013/11/27)

>  <Rbt.Parameter_File>
/export/apps/rDock/src/rDock_2013.1_src/data/scripts/dock_solv.prm

>  <Rbt.Receptor>
prm/pocket_docking_6.prm

>  <SCORE>
-17.126

>  <SCORE.INTER>
-16.8007

>  <SCORE.INTER.CONST>
1

>  <SCORE.INTER.POLAR>
0

>  <SCORE.INTER.ROT>
4

>  <SCORE.INTER.SOLV>
8.95411

>  <SCORE.INTER.VDW>
-20.4519

>  <SCORE.INTER.norm>
-0.76367

>  <SCORE.INTRA>
-0.325241

>  <SCORE.INTRA.DIHEDRAL>
0.477598

>  <SCORE.INTRA.DIHEDRAL.0>
2.54655

>  <SCORE.INTRA.POLAR>
0

>  <SCORE.INTRA.POLAR.0>
0

>  <SCORE.INTRA.REPUL>
0

>  <SCORE.INTRA.REPUL.0>
0

>  <SCORE.INTRA.SOLV>
-0.239626

>  <SCORE.INTRA.SOLV.lig_0>
-56.4922

>  <SCORE.INTRA.VDW>
-0.444227

>  <SCORE.INTRA.VDW.0>
-0.696801

>  <SCORE.INTRA.norm>
-0.0147837

>  <SCORE.RESTR>
0

>  <SCORE.RESTR.CAVITY>
0

>  <SCORE.RESTR.norm>
0

>  <SCORE.SYSTEM>
0

>  <SCORE.SYSTEM.CONST>
0

>  <SCORE.SYSTEM.DIHEDRAL>
0

>  <SCORE.SYSTEM.SOLV>
0

>  <SCORE.SYSTEM.norm>
0

>  <SCORE.heavy>
22

>  <SCORE.norm>
-0.778453

>  <RMSD>
6.850

$$$$
ligand
 OpenBabel02271912143D
libRbt.so/2013.1/901 2013/11/27
 22 24  0  0  0  0  0  0  0  0999 V2000
   23.7179  -22.7686   24.6342 N   0  0  0  0  0  0  0  0  0  0  0  0
   21.3867  -22.8275   25.1771 N   0  0  0  0  0  0  0  0  0  0  0  0
   22.6371  -22.5032   25.5453 C   0  0  0  0  0  0  0  0  0  0  0  0
   22.9052  -21.9473   26.7204 N   0  0  0  0  0  0  0  0  0  0  0  0
   18.4947  -22.6206   30.0095 O   0  0  0  0  0  0  0  0  0  0  0  0
   21.9082  -21.6919   27.5875 C   0  0  0  0  0  0  0  0  0  0  0  0
   20.5725  -22.0337   27.2362 C   0  0  0  0  0  0  0  0  0  0  0  0
   22.2133  -21.1140   28.7994 O   0  0  0  0  0  0  0  0  0  0  0  0
   19.4007  -21.7988   28.0565 N   0  0  0  0  0  0  0  0  0  0  0  0
   18.1893  -21.3506   27.3575 C   0  0  2  0  0  0  0  0  0  0  0  0
   17.8722  -22.2631   26.2141 C   0  0  0  0  0  0  0  0  0  0  0  0
   20.3488  -22.5962   26.0045 C   0  0  0  0  0  0  0  0  0  0  0  0
   19.0293  -22.9362   25.6275 N   0  0  0  0  0  0  0  0  0  0  0  0
   18.2741  -19.9075   26.8284 C   0  0  0  0  0  0  0  0  0  0  0  0
   17.0186  -19.2044   27.0621 N   0  0  0  0  0  0  0  0  0  0  0  0
   13.2805  -20.9544   26.0300 C   0  0  0  0  0  0  0  0  0  0  0  0
   14.3486  -21.0402   25.1528 C   0  0  0  0  0  0  0  0  0  0  0  0
   15.5889  -20.4639   25.4888 C   0  0  0  0  0  0  0  0  0  0  0  0
   15.7415  -19.8069   26.7004 C   0  0  0  0  0  0  0  0  0  0  0  0
   14.6663  -19.7225   27.5800 C   0  0  0  0  0  0  0  0  0  0  0  0
   13.4371  -20.2967   27.2461 C   0  0  0  0  0  0  0  0  0  0  0  0
   19.3643  -21.9570   29.4702 C   0  0  0  0  0  0  0  0  0  0  0  0
  1  3  1  0  0  0  0
  2  3  2  0  0  0  0
  2 12  1  0  0  0  0
  3  4  1  0  0  0  0
  4  6  1  0  0  0  0
  5 22  1  0  0  0  0
  6  7  1  0  0  0  0
  6  8  2  0  0  0  0
  7 12  2  0  0  0  0
  7  9  1  0  0  0  0
  9 10  1  0  0  0  0
  9 22  1  0  0  0  0
 10 11  1  0  0  0  0
 10 14  1  6  0  0  0
 11 13  1  0  0  0  0
 12 13  1  0  0  0  0
 14 15  1  0  0  0  0
 15 19  1  0  0  0  0
 16 17  2  0  0  0  0
 16 21  1  0  0  0  0
 17 18  1  0  0  0  0
 18 19  2  0  0  0  0
 19 20  1  0  0  0  0
 20 21  2  0  0  0  0
M  END
>  <CHROM.1>
-129.17116055,-138.30727800,-48.63316123,-43.37313600,18.77519911,-21.47470568
26.90205459,0.03892014,0.24240088,-1.70480877

>  <Name>
ligand

>  <RI>
0

>  <Rbt.Current_Directory>
/home/itssahil/PROJECTS/Mol_Feturizer/Test_systems_manuscript/rnas/3sd3

>  <Rbt.Executable>
rbdock ($Id: //depot/dev/client3/rdock/2013.1/src/exe/rbdock.cxx#4 $)

>  <Rbt.Library>
libRbt.so (2013.1, Build901 2013/11/27)

>  <Rbt.Parameter_File>
/export/apps/rDock/src/rDock_2013.1_src/data/scripts/dock_solv.prm

>  <Rbt.Receptor>
prm/pocket_docking_8.prm

>  <SCORE>
-16.5908

>  <SCORE.INTER>
-17.6875

>  <SCORE.INTER.CONST>
1

>  <SCORE.INTER.POLAR>
0

>  <SCORE.INTER.ROT>
4

>  <SCORE.INTER.SOLV>
10.3517

>  <SCORE.INTER.VDW>
-21.5089

>  <SCORE.INTER.norm>
-0.803975

>  <SCORE.INTRA>
1.09669

>  <SCORE.INTRA.DIHEDRAL>
3.3008

>  <SCORE.INTRA.DIHEDRAL.0>
2.54655

>  <SCORE.INTRA.POLAR>
0

>  <SCORE.INTRA.POLAR.0>
0

>  <SCORE.INTRA.REPUL>
0

>  <SCORE.INTRA.REPUL.0>
0

>  <SCORE.INTRA.SOLV>
-0.968512

>  <SCORE.INTRA.SOLV.lig_0>
-56.4922

>  <SCORE.INTRA.VDW>
-0.0694503

>  <SCORE.INTRA.VDW.0>
-0.696801

>  <SCORE.INTRA.norm>
0.0498497

>  <SCORE.RESTR>
0

>  <SCORE.RESTR.CAVITY>
0

>  <SCORE.RESTR.norm>
0

>  <SCORE.SYSTEM>
0

>  <SCORE.SYSTEM.CONST>
0

>  <SCORE.SYSTEM.DIHEDRAL>
0

>  <SCORE.SYSTEM.SOLV>
0

>  <SCORE.SYSTEM.norm>
0

>  <SCORE.heavy>
22

>  <SCORE.norm>
-0.754125

>  <RMSD>
6.850

$$$$
ligand
 OpenBabel02271912143D
libRbt.so/2013.1/901 2013/11/27
 22 24  0  0  0  0  0  0  0  0999 V2000
   20.8268  -24.6412   20.2960 N   0  0  0  0  0  0  0  0  0  0  0  0
   20.7603  -23.6602   22.4791 N   0  0  0  0  0  0  0  0  0  0  0  0
   20.4368  -23.5744   21.1783 C   0  0  0  0  0  0  0  0  0  0  0  0
   19.7706  -22.5385   20.6834 N   0  0  0  0  0  0  0  0  0  0  0  0
   20.4382  -18.5683   23.4895 O   0  0  0  0  0  0  0  0  0  0  0  0
   19.3975  -21.5295   21.4920 C   0  0  0  0  0  0  0  0  0  0  0  0
   19.7342  -21.5807   22.8735 C   0  0  0  0  0  0  0  0  0  0  0  0
   18.7067  -20.4672   20.9536 O   0  0  0  0  0  0  0  0  0  0  0  0
   19.3812  -20.5817   23.8628 N   0  0  0  0  0  0  0  0  0  0  0  0
   18.9720  -21.0806   25.1821 C   0  0  2  0  0  0  0  0  0  0  0  0
   19.9881  -22.0379   25.7222 C   0  0  0  0  0  0  0  0  0  0  0  0
   20.4141  -22.6795   23.3358 C   0  0  0  0  0  0  0  0  0  0  0  0
   20.7522  -22.7590   24.7062 N   0  0  0  0  0  0  0  0  0  0  0  0
   17.5945  -21.7677   25.1879 C   0  0  0  0  0  0  0  0  0  0  0  0
   16.5530  -20.8248   24.7987 N   0  0  0  0  0  0  0  0  0  0  0  0
   13.1911  -20.1182   27.3085 C   0  0  0  0  0  0  0  0  0  0  0  0
   13.0752  -20.9699   26.2229 C   0  0  0  0  0  0  0  0  0  0  0  0
   14.1844  -21.2089   25.3887 C   0  0  0  0  0  0  0  0  0  0  0  0
   15.3960  -20.5885   25.6533 C   0  0  0  0  0  0  0  0  0  0  0  0
   15.5095  -19.7331   26.7453 C   0  0  0  0  0  0  0  0  0  0  0  0
   14.4086  -19.4989   27.5732 C   0  0  0  0  0  0  0  0  0  0  0  0
   19.3912  -19.1784   23.6272 C   0  0  0  0  0  0  0  0  0  0  0  0
  1  3  1  0  0  0  0
  2  3  2  0  0  0  0
  2 12  1  0  0  0  0
  3  4  1  0  0  0  0
  4  6  1  0  0  0  0
  5 22  1  0  0  0  0
  6  7  1  0  0  0  0
  6  8  2  0  0  0  0
  7 12  2  0  0  0  0
  7  9  1  0  0  0  0
  9 10  1  0  0  0  0
  9 22  1  0  0  0  0
 10 11  1  0  0  0  0
 10 14  1  6  0  0  0
 11 13  1  0  0  0  0
 12 13  1  0  0  0  0
 14 15  1  0  0  0  0
 15 19  1  0  0  0  0
 16 17  2  0  0  0  0
 16 21  1  0  0  0  0
 17 18  1  0  0  0  0
 18 19  2  0  0  0  0
 19 20  1  0  0  0  0
 20 21  2  0  0  0  0
M  END
>  <CHROM.1>
-70.63615052,-62.03313246,-124.94966958,-99.63767650,18.25469951,-21.33416589
23.95512911,0.63212894,-0.38284081,-2.50062789

>  <Name>
ligand

>  <RI>
0

>  <Rbt.Current_Directory>
/home/itssahil/PROJECTS/Mol_Feturizer/Test_systems_manuscript/rnas/3sd3

>  <Rbt.Executable>
rbdock ($Id: //depot/dev/client3/rdock/2013.1/src/exe/rbdock.cxx#4 $)

>  <Rbt.Library>
libRbt.so (2013.1, Build901 2013/11/27)

>  <Rbt.Parameter_File>
/export/apps/rDock/src/rDock_2013.1_src/data/scripts/dock_solv.prm

>  <Rbt.Receptor>
prm/pocket_docking_8.prm

>  <SCORE>
-16.6025

>  <SCORE.INTER>
-15.7435

>  <SCORE.INTER.CONST>
1

>  <SCORE.INTER.POLAR>
0

>  <SCORE.INTER.ROT>
4

>  <SCORE.INTER.SOLV>
14.9674

>  <SCORE.INTER.VDW>
-21.7515

>  <SCORE.INTER.norm>
-0.715614

>  <SCORE.INTRA>
-0.858951

>  <SCORE.INTRA.DIHEDRAL>
0.294939

>  <SCORE.INTRA.DIHEDRAL.0>
2.54655

>  <SCORE.INTRA.POLAR>
0

>  <SCORE.INTRA.POLAR.0>
0

>  <SCORE.INTRA.REPUL>
0

>  <SCORE.INTRA.REPUL.0>
0

>  <SCORE.INTRA.SOLV>
-0.246155

>  <SCORE.INTRA.SOLV.lig_0>
-56.4922

>  <SCORE.INTRA.VDW>
-0.883343

>  <SCORE.INTRA.VDW.0>
-0.696801

>  <SCORE.INTRA.norm>
-0.0390432

>  <SCORE.RESTR>
0

>  <SCORE.RESTR.CAVITY>
0

>  <SCORE.RESTR.norm>
0

>  <SCORE.SYSTEM>
0

>  <SCORE.SYSTEM.CONST>
0

>  <SCORE.SYSTEM.DIHEDRAL>
0

>  <SCORE.SYSTEM.SOLV>
0

>  <SCORE.SYSTEM.norm>
0

>  <SCORE.heavy>
22

>  <SCORE.norm>
-0.754657

>  <RMSD>
6.851

$$$$
ligand
 OpenBabel02271912143D
libRbt.so/2013.1/901 2013/11/27
 22 24  0  0  0  0  0  0  0  0999 V2000
   24.5654  -21.4372   27.1070 N   0  0  0  0  0  0  0  0  0  0  0  0
   22.4160  -22.2313   26.4124 N   0  0  0  0  0  0  0  0  0  0  0  0
   23.1474  -21.5581   27.3157 C   0  0  0  0  0  0  0  0  0  0  0  0
   22.6038  -21.0030   28.3919 N   0  0  0  0  0  0  0  0  0  0  0  0
   18.0002  -21.2988   29.7009 O   0  0  0  0  0  0  0  0  0  0  0  0
   21.2791  -21.1057   28.6060 C   0  0  0  0  0  0  0  0  0  0  0  0
   20.4749  -21.8225   27.6764 C   0  0  0  0  0  0  0  0  0  0  0  0
   20.7403  -20.5201   29.7295 O   0  0  0  0  0  0  0  0  0  0  0  0
   19.0386  -21.9959   27.7654 N   0  0  0  0  0  0  0  0  0  0  0  0
   18.2876  -21.9069   26.5064 C   0  0  2  0  0  0  0  0  0  0  0  0
   18.8772  -22.8177   25.4752 C   0  0  0  0  0  0  0  0  0  0  0  0
   21.0855  -22.3676   26.5748 C   0  0  0  0  0  0  0  0  0  0  0  0
   20.3072  -23.0765   25.6312 N   0  0  0  0  0  0  0  0  0  0  0  0
   18.2150  -20.4837   25.9243 C   0  0  0  0  0  0  0  0  0  0  0  0
   17.2165  -19.6932   26.6337 N   0  0  0  0  0  0  0  0  0  0  0  0
   13.0880  -20.7141   26.5126 C   0  0  0  0  0  0  0  0  0  0  0  0
   13.9622  -21.2629   25.5895 C   0  0  0  0  0  0  0  0  0  0  0  0
   15.3301  -20.9298   25.6247 C   0  0  0  0  0  0  0  0  0  0  0  0
   15.8036  -20.0486   26.5849 C   0  0  0  0  0  0  0  0  0  0  0  0
   14.9226  -19.4988   27.5115 C   0  0  0  0  0  0  0  0  0  0  0  0
   13.5662  -19.8319   27.4765 C   0  0  0  0  0  0  0  0  0  0  0  0
   18.3300  -22.2241   28.9781 C   0  0  0  0  0  0  0  0  0  0  0  0
  1  3  1  0  0  0  0
  2  3  2  0  0  0  0
  2 12  1  0  0  0  0
  3  4  1  0  0  0  0
  4  6  1  0  0  0  0
  5 22  1  0  0  0  0
  6  7  1  0  0  0  0
  6  8  2  0  0  0  0
  7 12  2  0  0  0  0
  7  9  1  0  0  0  0
  9 10  1  0  0  0  0
  9 22  1  0  0  0  0
 10 11  1  0  0  0  0
 10 14  1  6  0  0  0
 11 13  1  0  0  0  0
 12 13  1  0  0  0  0
 14 15  1  0  0  0  0
 15 19  1  0  0  0  0
 16 17  2  0  0  0  0
 16 21  1  0  0  0  0
 17 18  1  0  0  0  0
 18 19  2  0  0  0  0
 19 20  1  0  0  0  0
 20 21  2  0  0  0  0
M  END
>  <CHROM.1>
83.56613266,-78.18818274,-64.37691425,-15.69824030,18.80193882,-21.28205307
27.22173537,-0.04771844,0.18242757,-1.93780143

>  <Name>
ligand

>  <RI>
0

>  <Rbt.Current_Directory>
/home/itssahil/PROJECTS/Mol_Feturizer/Test_systems_manuscript/rnas/3sd3

>  <Rbt.Executable>
rbdock ($Id: //depot/dev/client3/rdock/2013.1/src/exe/rbdock.cxx#4 $)

>  <Rbt.Library>
libRbt.so (2013.1, Build901 2013/11/27)

>  <Rbt.Parameter_File>
/export/apps/rDock/src/rDock_2013.1_src/data/scripts/dock_solv.prm

>  <Rbt.Receptor>
prm/pocket_docking_7.prm

>  <SCORE>
-17.177

>  <SCORE.INTER>
-16.6962

>  <SCORE.INTER.CONST>
1

>  <SCORE.INTER.POLAR>
0

>  <SCORE.INTER.ROT>
4

>  <SCORE.INTER.SOLV>
8.9429

>  <SCORE.INTER.VDW>
-20.3784

>  <SCORE.INTER.norm>
-0.758917

>  <SCORE.INTRA>
-0.480857

>  <SCORE.INTRA.DIHEDRAL>
0.153328

>  <SCORE.INTRA.DIHEDRAL.0>
2.54655

>  <SCORE.INTRA.POLAR>
0

>  <SCORE.INTRA.POLAR.0>
0

>  <SCORE.INTRA.REPUL>
0

>  <SCORE.INTRA.REPUL.0>
0

>  <SCORE.INTRA.SOLV>
0.241938

>  <SCORE.INTRA.SOLV.lig_0>
-56.4922

>  <SCORE.INTRA.VDW>
-0.67849

>  <SCORE.INTRA.VDW.0>
-0.696801

>  <SCORE.INTRA.norm>
-0.0218571

>  <SCORE.RESTR>
0

>  <SCORE.RESTR.CAVITY>
0

>  <SCORE.RESTR.norm>
0

>  <SCORE.SYSTEM>
0

>  <SCORE.SYSTEM.CONST>
0

>  <SCORE.SYSTEM.DIHEDRAL>
0

>  <SCORE.SYSTEM.SOLV>
0

>  <SCORE.SYSTEM.norm>
0

>  <SCORE.heavy>
22

>  <SCORE.norm>
-0.780775

>  <RMSD>
6.855

$$$$
ligand
 OpenBabel02271912143D
libRbt.so/2013.1/901 2013/11/27
 22 24  0  0  0  0  0  0  0  0999 V2000
   24.5821  -21.4888   27.0692 N   0  0  0  0  0  0  0  0  0  0  0  0
   22.4166  -22.2554   26.3941 N   0  0  0  0  0  0  0  0  0  0  0  0
   23.1651  -21.5938   27.2920 C   0  0  0  0  0  0  0  0  0  0  0  0
   22.6389  -21.0359   28.3754 N   0  0  0  0  0  0  0  0  0  0  0  0
   17.9383  -21.2784   29.6696 O   0  0  0  0  0  0  0  0  0  0  0  0
   21.3154  -21.1238   28.6028 C   0  0  0  0  0  0  0  0  0  0  0  0
   20.4935  -21.8280   27.6792 C   0  0  0  0  0  0  0  0  0  0  0  0
   20.7950  -20.5355   29.7336 O   0  0  0  0  0  0  0  0  0  0  0  0
   19.0561  -21.9848   27.7823 N   0  0  0  0  0  0  0  0  0  0  0  0
   18.2934  -21.8829   26.5314 C   0  0  2  0  0  0  0  0  0  0  0  0
   18.8617  -22.7971   25.4913 C   0  0  0  0  0  0  0  0  0  0  0  0
   21.0863  -22.3766   26.5697 C   0  0  0  0  0  0  0  0  0  0  0  0
   20.2901  -23.0732   25.6319 N   0  0  0  0  0  0  0  0  0  0  0  0
   18.2317  -20.4570   25.9546 C   0  0  0  0  0  0  0  0  0  0  0  0
   17.2216  -19.6691   26.6503 N   0  0  0  0  0  0  0  0  0  0  0  0
   13.1007  -20.7154   26.4942 C   0  0  0  0  0  0  0  0  0  0  0  0
   13.9865  -21.2608   25.5801 C   0  0  0  0  0  0  0  0  0  0  0  0
   15.3520  -20.9193   25.6270 C   0  0  0  0  0  0  0  0  0  0  0  0
   15.8114  -20.0332   26.5895 C   0  0  0  0  0  0  0  0  0  0  0  0
   14.9188  -19.4868   27.5069 C   0  0  0  0  0  0  0  0  0  0  0  0
   13.5647  -19.8283   27.4604 C   0  0  0  0  0  0  0  0  0  0  0  0
   18.3573  -22.2087   29.0015 C   0  0  0  0  0  0  0  0  0  0  0  0
  1  3  1  0  0  0  0
  2  3  2  0  0  0  0
  2 12  1  0  0  0  0
  3  4  1  0  0  0  0
  4  6  1  0  0  0  0
  5 22  1  0  0  0  0
  6  7  1  0  0  0  0
  6  8  2  0  0  0  0
  7 12  2  0  0  0  0
  7  9  1  0  0  0  0
  9 10  1  0  0  0  0
  9 22  1  0  0  0  0
 10 11  1  0  0  0  0
 10 14  1  6  0  0  0
 11 13  1  0  0  0  0
 12 13  1  0  0  0  0
 14 15  1  0  0  0  0
 15 19  1  0  0  0  0
 16 17  2  0  0  0  0
 16 21  1  0  0  0  0
 17 18  1  0  0  0  0
 18 19  2  0  0  0  0
 19 20  1  0  0  0  0
 20 21  2  0  0  0  0
M  END
>  <CHROM.1>
90.35916130,-79.88313141,-63.59019106,-15.86544299,18.81153595,-21.28212826
27.21994032,-0.04507570,0.18540952,-1.93551006

>  <Name>
ligand

>  <RI>
0

>  <Rbt.Current_Directory>
/home/itssahil/PROJECTS/Mol_Feturizer/Test_systems_manuscript/rnas/3sd3

>  <Rbt.Executable>
rbdock ($Id: //depot/dev/client3/rdock/2013.1/src/exe/rbdock.cxx#4 $)

>  <Rbt.Library>
libRbt.so (2013.1, Build901 2013/11/27)

>  <Rbt.Parameter_File>
/export/apps/rDock/src/rDock_2013.1_src/data/scripts/dock_solv.prm

>  <Rbt.Receptor>
prm/pocket_docking_8.prm

>  <SCORE>
-17.1986

>  <SCORE.INTER>
-16.772

>  <SCORE.INTER.CONST>
1

>  <SCORE.INTER.POLAR>
0

>  <SCORE.INTER.ROT>
4

>  <SCORE.INTER.SOLV>
8.91728

>  <SCORE.INTER.VDW>
-20.4204

>  <SCORE.INTER.norm>
-0.762362

>  <SCORE.INTRA>
-0.426653

>  <SCORE.INTRA.DIHEDRAL>
0.339754

>  <SCORE.INTRA.DIHEDRAL.0>
2.54655

>  <SCORE.INTRA.POLAR>
0

>  <SCORE.INTRA.POLAR.0>
0

>  <SCORE.INTRA.REPUL>
0

>  <SCORE.INTRA.REPUL.0>
0

>  <SCORE.INTRA.SOLV>
0.23236

>  <SCORE.INTRA.SOLV.lig_0>
-56.4922

>  <SCORE.INTRA.VDW>
-0.71271

>  <SCORE.INTRA.VDW.0>
-0.696801

>  <SCORE.INTRA.norm>
-0.0193933

>  <SCORE.RESTR>
0

>  <SCORE.RESTR.CAVITY>
0

>  <SCORE.RESTR.norm>
0

>  <SCORE.SYSTEM>
0

>  <SCORE.SYSTEM.CONST>
0

>  <SCORE.SYSTEM.DIHEDRAL>
0

>  <SCORE.SYSTEM.SOLV>
0

>  <SCORE.SYSTEM.norm>
0

>  <SCORE.heavy>
22

>  <SCORE.norm>
-0.781756

>  <RMSD>
6.859

$$$$
ligand
 OpenBabel02271912143D
libRbt.so/2013.1/901 2013/11/27
 22 24  0  0  0  0  0  0  0  0999 V2000
   24.5217  -21.3372   27.1666 N   0  0  0  0  0  0  0  0  0  0  0  0
   22.3997  -22.1757   26.4407 N   0  0  0  0  0  0  0  0  0  0  0  0
   23.1002  -21.4678   27.3420 C   0  0  0  0  0  0  0  0  0  0  0  0
   22.5227  -20.8870   28.3865 N   0  0  0  0  0  0  0  0  0  0  0  0
   18.7996  -22.4891   29.9279 O   0  0  0  0  0  0  0  0  0  0  0  0
   21.1940  -20.9982   28.5693 C   0  0  0  0  0  0  0  0  0  0  0  0
   20.4220  -21.7512   27.6412 C   0  0  0  0  0  0  0  0  0  0  0  0
   20.6198  -20.3854   29.6604 O   0  0  0  0  0  0  0  0  0  0  0  0
   18.9857  -21.9380   27.6981 N   0  0  0  0  0  0  0  0  0  0  0  0
   18.2671  -21.8950   26.4180 C   0  0  2  0  0  0  0  0  0  0  0  0
   18.8930  -22.8293   25.4303 C   0  0  0  0  0  0  0  0  0  0  0  0
   21.0669  -22.3221   26.5726 C   0  0  0  0  0  0  0  0  0  0  0  0
   20.3210  -23.0674   25.6309 N   0  0  0  0  0  0  0  0  0  0  0  0
   18.1949  -20.4906   25.7917 C   0  0  0  0  0  0  0  0  0  0  0  0
   17.2221  -19.6666   26.4987 N   0  0  0  0  0  0  0  0  0  0  0  0
   13.0849  -20.6583   26.5288 C   0  0  0  0  0  0  0  0  0  0  0  0
   13.9161  -21.1938   25.5594 C   0  0  0  0  0  0  0  0  0  0  0  0
   15.2867  -20.8704   25.5444 C   0  0  0  0  0  0  0  0  0  0  0  0
   15.8059  -20.0119   26.5015 C   0  0  0  0  0  0  0  0  0  0  0  0
   14.9681  -19.4753   27.4747 C   0  0  0  0  0  0  0  0  0  0  0  0
   13.6089  -19.7990   27.4895 C   0  0  0  0  0  0  0  0  0  0  0  0
   18.2480  -22.1380   28.8984 C   0  0  0  0  0  0  0  0  0  0  0  0
  1  3  1  0  0  0  0
  2  3  2  0  0  0  0
  2 12  1  0  0  0  0
  3  4  1  0  0  0  0
  4  6  1  0  0  0  0
  5 22  1  0  0  0  0
  6  7  1  0  0  0  0
  6  8  2  0  0  0  0
  7 12  2  0  0  0  0
  7  9  1  0  0  0  0
  9 10  1  0  0  0  0
  9 22  1  0  0  0  0
 10 11  1  0  0  0  0
 10 14  1  6  0  0  0
 11 13  1  0  0  0  0
 12 13  1  0  0  0  0
 14 15  1  0  0  0  0
 15 19  1  0  0  0  0
 16 17  2  0  0  0  0
 16 21  1  0  0  0  0
 17 18  1  0  0  0  0
 18 19  2  0  0  0  0
 19 20  1  0  0  0  0
 20 21  2  0  0  0  0
M  END
>  <CHROM.1>
-18.19045467,-75.05553537,-64.03579812,-19.04400281,18.81727717,-21.29428188
27.19800674,-0.08624597,0.18249410,-1.84398885

>  <Name>
ligand

>  <RI>
0

>  <Rbt.Current_Directory>
/home/itssahil/PROJECTS/Mol_Feturizer/Test_systems_manuscript/rnas/3sd3

>  <Rbt.Executable>
rbdock ($Id: //depot/dev/client3/rdock/2013.1/src/exe/rbdock.cxx#4 $)

>  <Rbt.Library>
libRbt.so (2013.1, Build901 2013/11/27)

>  <Rbt.Parameter_File>
/export/apps/rDock/src/rDock_2013.1_src/data/scripts/dock_solv.prm

>  <Rbt.Receptor>
prm/pocket_docking_7.prm

>  <SCORE>
-17.1983

>  <SCORE.INTER>
-16.5003

>  <SCORE.INTER.CONST>
1

>  <SCORE.INTER.POLAR>
0

>  <SCORE.INTER.ROT>
4

>  <SCORE.INTER.SOLV>
9.17834

>  <SCORE.INTER.VDW>
-20.3263

>  <SCORE.INTER.norm>
-0.750014

>  <SCORE.INTRA>
-0.697997

>  <SCORE.INTRA.DIHEDRAL>
-0.168483

>  <SCORE.INTRA.DIHEDRAL.0>
2.54655

>  <SCORE.INTRA.POLAR>
0

>  <SCORE.INTRA.POLAR.0>
0

>  <SCORE.INTRA.REPUL>
0

>  <SCORE.INTRA.REPUL.0>
0

>  <SCORE.INTRA.SOLV>
-0.194974

>  <SCORE.INTRA.SOLV.lig_0>
-56.4922

>  <SCORE.INTRA.VDW>
-0.516268

>  <SCORE.INTRA.VDW.0>
-0.696801

>  <SCORE.INTRA.norm>
-0.0317271

>  <SCORE.RESTR>
0

>  <SCORE.RESTR.CAVITY>
0

>  <SCORE.RESTR.norm>
0

>  <SCORE.SYSTEM>
0

>  <SCORE.SYSTEM.CONST>
0

>  <SCORE.SYSTEM.DIHEDRAL>
0

>  <SCORE.SYSTEM.SOLV>
0

>  <SCORE.SYSTEM.norm>
0

>  <SCORE.heavy>
22

>  <SCORE.norm>
-0.781742

>  <RMSD>
6.864

$$$$
ligand
 OpenBabel02271912143D
libRbt.so/2013.1/901 2013/11/27
 22 24  0  0  0  0  0  0  0  0999 V2000
   23.6965  -22.7468   24.8052 N   0  0  0  0  0  0  0  0  0  0  0  0
   21.3507  -22.8293   25.2782 N   0  0  0  0  0  0  0  0  0  0  0  0
   22.5846  -22.4793   25.6775 C   0  0  0  0  0  0  0  0  0  0  0  0
   22.8087  -21.8961   26.8486 N   0  0  0  0  0  0  0  0  0  0  0  0
   18.4344  -22.7110   30.0092 O   0  0  0  0  0  0  0  0  0  0  0  0
   21.7820  -21.6382   27.6797 C   0  0  0  0  0  0  0  0  0  0  0  0
   20.4627  -22.0066   27.2950 C   0  0  0  0  0  0  0  0  0  0  0  0
   22.0417  -21.0317   28.8881 O   0  0  0  0  0  0  0  0  0  0  0  0
   19.2631  -21.7727   28.0745 N   0  0  0  0  0  0  0  0  0  0  0  0
   18.0675  -21.3565   27.3300 C   0  0  2  0  0  0  0  0  0  0  0  0
   17.7985  -22.2962   26.1964 C   0  0  0  0  0  0  0  0  0  0  0  0
   20.2848  -22.5969   26.0688 C   0  0  0  0  0  0  0  0  0  0  0  0
   18.9825  -22.9638   25.6591 N   0  0  0  0  0  0  0  0  0  0  0  0
   18.1480  -19.9232   26.7743 C   0  0  0  0  0  0  0  0  0  0  0  0
   16.9123  -19.2000   27.0486 N   0  0  0  0  0  0  0  0  0  0  0  0
   13.1315  -20.9493   26.1847 C   0  0  0  0  0  0  0  0  0  0  0  0
   13.3045  -20.2191   27.3485 C   0  0  0  0  0  0  0  0  0  0  0  0
   14.5532  -19.6367   27.6399 C   0  0  0  0  0  0  0  0  0  0  0  0
   15.6135  -19.7958   26.7606 C   0  0  0  0  0  0  0  0  0  0  0  0
   15.4365  -20.5301   25.5916 C   0  0  0  0  0  0  0  0  0  0  0  0
   14.1964  -21.1054   25.3029 C   0  0  0  0  0  0  0  0  0  0  0  0
   19.1857  -21.9031   29.4893 C   0  0  0  0  0  0  0  0  0  0  0  0
  1  3  1  0  0  0  0
  2  3  2  0  0  0  0
  2 12  1  0  0  0  0
  3  4  1  0  0  0  0
  4  6  1  0  0  0  0
  5 22  1  0  0  0  0
  6  7  1  0  0  0  0
  6  8  2  0  0  0  0
  7 12  2  0  0  0  0
  7  9  1  0  0  0  0
  9 10  1  0  0  0  0
  9 22  1  0  0  0  0
 10 11  1  0  0  0  0
 10 14  1  6  0  0  0
 11 13  1  0  0  0  0
 12 13  1  0  0  0  0
 14 15  1  0  0  0  0
 15 19  1  0  0  0  0
 16 17  2  0  0  0  0
 16 21  1  0  0  0  0
 17 18  1  0  0  0  0
 18 19  2  0  0  0  0
 19 20  1  0  0  0  0
 20 21  2  0  0  0  0
M  END
>  <CHROM.1>
-118.74034332,-133.87507934,-48.11901208,139.63830832,18.66875315,-21.46534025
26.96443545,0.04156161,0.23910677,-1.71761081

>  <Name>
ligand

>  <RI>
0

>  <Rbt.Current_Directory>
/home/itssahil/PROJECTS/Mol_Feturizer/Test_systems_manuscript/rnas/3sd3

>  <Rbt.Executable>
rbdock ($Id: //depot/dev/client3/rdock/2013.1/src/exe/rbdock.cxx#4 $)

>  <Rbt.Library>
libRbt.so (2013.1, Build901 2013/11/27)

>  <Rbt.Parameter_File>
/export/apps/rDock/src/rDock_2013.1_src/data/scripts/dock_solv.prm

>  <Rbt.Receptor>
prm/pocket_docking_7.prm

>  <SCORE>
-16.401

>  <SCORE.INTER>
-17.7291

>  <SCORE.INTER.CONST>
1

>  <SCORE.INTER.POLAR>
0

>  <SCORE.INTER.ROT>
4

>  <SCORE.INTER.SOLV>
11.0216

>  <SCORE.INTER.VDW>
-21.7599

>  <SCORE.INTER.norm>
-0.805866

>  <SCORE.INTRA>
1.32808

>  <SCORE.INTRA.DIHEDRAL>
3.7706

>  <SCORE.INTRA.DIHEDRAL.0>
2.54655

>  <SCORE.INTRA.POLAR>
0

>  <SCORE.INTRA.POLAR.0>
0

>  <SCORE.INTRA.REPUL>
0

>  <SCORE.INTRA.REPUL.0>
0

>  <SCORE.INTRA.SOLV>
-0.956892

>  <SCORE.INTRA.SOLV.lig_0>
-56.4922

>  <SCORE.INTRA.VDW>
-0.0787757

>  <SCORE.INTRA.VDW.0>
-0.696801

>  <SCORE.INTRA.norm>
0.0603673

>  <SCORE.RESTR>
0

>  <SCORE.RESTR.CAVITY>
0

>  <SCORE.RESTR.norm>
0

>  <SCORE.SYSTEM>
0

>  <SCORE.SYSTEM.CONST>
0

>  <SCORE.SYSTEM.DIHEDRAL>
0

>  <SCORE.SYSTEM.SOLV>
0

>  <SCORE.SYSTEM.norm>
0

>  <SCORE.heavy>
22

>  <SCORE.norm>
-0.745499

>  <RMSD>
6.866

$$$$
ligand
 OpenBabel02271912143D
libRbt.so/2013.1/901 2013/11/27
 22 24  0  0  0  0  0  0  0  0999 V2000
   24.0328  -22.6730   23.8943 N   0  0  0  0  0  0  0  0  0  0  0  0
   21.8411  -22.9826   24.8072 N   0  0  0  0  0  0  0  0  0  0  0  0
   22.9583  -22.2394   24.7465 C   0  0  0  0  0  0  0  0  0  0  0  0
   23.1010  -21.1209   25.4467 N   0  0  0  0  0  0  0  0  0  0  0  0
   20.8573  -20.5741   29.1034 O   0  0  0  0  0  0  0  0  0  0  0  0
   22.1079  -20.6986   26.2508 C   0  0  0  0  0  0  0  0  0  0  0  0
   20.9147  -21.4674   26.3496 C   0  0  0  0  0  0  0  0  0  0  0  0
   22.2811  -19.5347   26.9656 O   0  0  0  0  0  0  0  0  0  0  0  0
   19.7585  -21.1260   27.1544 N   0  0  0  0  0  0  0  0  0  0  0  0
   18.4426  -21.3855   26.5560 C   0  0  2  0  0  0  0  0  0  0  0  0
   18.3572  -22.7957   26.0614 C   0  0  0  0  0  0  0  0  0  0  0  0
   20.8142  -22.6099   25.5959 C   0  0  0  0  0  0  0  0  0  0  0  0
   19.6351  -23.3864   25.6688 N   0  0  0  0  0  0  0  0  0  0  0  0
   18.0864  -20.4344   25.3993 C   0  0  0  0  0  0  0  0  0  0  0  0
   16.7638  -20.7464   24.8717 N   0  0  0  0  0  0  0  0  0  0  0  0
   13.2581  -20.1997   27.2196 C   0  0  0  0  0  0  0  0  0  0  0  0
   14.3995  -19.4685   27.5027 C   0  0  0  0  0  0  0  0  0  0  0  0
   15.5629  -19.6440   26.7287 C   0  0  0  0  0  0  0  0  0  0  0  0
   15.5671  -20.5526   25.6813 C   0  0  0  0  0  0  0  0  0  0  0  0
   14.4184  -21.2860   25.3991 C   0  0  0  0  0  0  0  0  0  0  0  0
   13.2643  -21.1090   26.1665 C   0  0  0  0  0  0  0  0  0  0  0  0
   19.8253  -20.5502   28.4540 C   0  0  0  0  0  0  0  0  0  0  0  0
  1  3  1  0  0  0  0
  2  3  2  0  0  0  0
  2 12  1  0  0  0  0
  3  4  1  0  0  0  0
  4  6  1  0  0  0  0
  5 22  1  0  0  0  0
  6  7  1  0  0  0  0
  6  8  2  0  0  0  0
  7 12  2  0  0  0  0
  7  9  1  0  0  0  0
  9 10  1  0  0  0  0
  9 22  1  0  0  0  0
 10 11  1  0  0  0  0
 10 14  1  6  0  0  0
 11 13  1  0  0  0  0
 12 13  1  0  0  0  0
 14 15  1  0  0  0  0
 15 19  1  0  0  0  0
 16 17  2  0  0  0  0
 16 21  1  0  0  0  0
 17 18  1  0  0  0  0
 18 19  2  0  0  0  0
 19 20  1  0  0  0  0
 20 21  2  0  0  0  0
M  END
>  <CHROM.1>
-16.51996102,-179.34527413,66.08952291,24.10263532,19.06741898,-21.21127310
26.20834907,0.17086029,0.06905492,-2.20012837

>  <Name>
ligand

>  <RI>
0

>  <Rbt.Current_Directory>
/home/itssahil/PROJECTS/Mol_Feturizer/Test_systems_manuscript/rnas/3sd3

>  <Rbt.Executable>
rbdock ($Id: //depot/dev/client3/rdock/2013.1/src/exe/rbdock.cxx#4 $)

>  <Rbt.Library>
libRbt.so (2013.1, Build901 2013/11/27)

>  <Rbt.Parameter_File>
/export/apps/rDock/src/rDock_2013.1_src/data/scripts/dock_solv.prm

>  <Rbt.Receptor>
prm/pocket_docking_3.prm

>  <SCORE>
-14.5017

>  <SCORE.INTER>
-13.9217

>  <SCORE.INTER.CONST>
1

>  <SCORE.INTER.POLAR>
0

>  <SCORE.INTER.ROT>
4

>  <SCORE.INTER.SOLV>
9.47688

>  <SCORE.INTER.VDW>
-18.7068

>  <SCORE.INTER.norm>
-0.632805

>  <SCORE.INTRA>
-0.583386

>  <SCORE.INTRA.DIHEDRAL>
-0.900009

>  <SCORE.INTRA.DIHEDRAL.0>
2.54655

>  <SCORE.INTRA.POLAR>
0

>  <SCORE.INTRA.POLAR.0>
0

>  <SCORE.INTRA.REPUL>
0

>  <SCORE.INTRA.REPUL.0>
0

>  <SCORE.INTRA.SOLV>
-0.359244

>  <SCORE.INTRA.SOLV.lig_0>
-56.4922

>  <SCORE.INTRA.VDW>
0.0462403

>  <SCORE.INTRA.VDW.0>
-0.696801

>  <SCORE.INTRA.norm>
-0.0265176

>  <SCORE.RESTR>
0.00335994

>  <SCORE.RESTR.CAVITY>
0.00335994

>  <SCORE.RESTR.norm>
0.000152725

>  <SCORE.SYSTEM>
0

>  <SCORE.SYSTEM.CONST>
0

>  <SCORE.SYSTEM.DIHEDRAL>
0

>  <SCORE.SYSTEM.SOLV>
0

>  <SCORE.SYSTEM.norm>
0

>  <SCORE.heavy>
22

>  <SCORE.norm>
-0.659169

>  <RMSD>
6.868

$$$$
ligand
 OpenBabel02271912143D
libRbt.so/2013.1/901 2013/11/27
 22 24  0  0  0  0  0  0  0  0999 V2000
   22.9435  -21.1058   26.8525 N   0  0  0  0  0  0  0  0  0  0  0  0
   21.1580  -20.1345   25.5870 N   0  0  0  0  0  0  0  0  0  0  0  0
   21.9784  -21.1788   25.7886 C   0  0  0  0  0  0  0  0  0  0  0  0
   21.9262  -22.2726   25.0384 N   0  0  0  0  0  0  0  0  0  0  0  0
   19.6835  -21.0828   20.5297 O   0  0  0  0  0  0  0  0  0  0  0  0
   21.0312  -22.3602   24.0373 C   0  0  0  0  0  0  0  0  0  0  0  0
   20.1545  -21.2679   23.7867 C   0  0  0  0  0  0  0  0  0  0  0  0
   20.9974  -23.5061   23.2747 O   0  0  0  0  0  0  0  0  0  0  0  0
   19.1301  -21.2297   22.7618 N   0  0  0  0  0  0  0  0  0  0  0  0
   17.8547  -20.6025   23.1319 C   0  0  2  0  0  0  0  0  0  0  0  0
   18.0850  -19.2430   23.7141 C   0  0  0  0  0  0  0  0  0  0  0  0
   20.2426  -20.1652   24.5989 C   0  0  0  0  0  0  0  0  0  0  0  0
   19.3763  -19.0703   24.3767 N   0  0  0  0  0  0  0  0  0  0  0  0
   17.0195  -21.4300   24.1256 C   0  0  0  0  0  0  0  0  0  0  0  0
   15.6237  -21.0107   24.0910 N   0  0  0  0  0  0  0  0  0  0  0  0
   13.5834  -19.9426   27.6684 C   0  0  0  0  0  0  0  0  0  0  0  0
   12.9604  -20.7527   26.7340 C   0  0  0  0  0  0  0  0  0  0  0  0
   13.6306  -21.1107   25.5482 C   0  0  0  0  0  0  0  0  0  0  0  0
   14.9172  -20.6498   25.3139 C   0  0  0  0  0  0  0  0  0  0  0  0
   15.5408  -19.8359   26.2550 C   0  0  0  0  0  0  0  0  0  0  0  0
   14.8753  -19.4834   27.4319 C   0  0  0  0  0  0  0  0  0  0  0  0
   19.2810  -21.7693   21.4538 C   0  0  0  0  0  0  0  0  0  0  0  0
  1  3  1  0  0  0  0
  2  3  2  0  0  0  0
  2 12  1  0  0  0  0
  3  4  1  0  0  0  0
  4  6  1  0  0  0  0
  5 22  1  0  0  0  0
  6  7  1  0  0  0  0
  6  8  2  0  0  0  0
  7 12  2  0  0  0  0
  7  9  1  0  0  0  0
  9 10  1  0  0  0  0
  9 22  1  0  0  0  0
 10 11  1  0  0  0  0
 10 14  1  1  0  0  0
 11 13  1  0  0  0  0
 12 13  1  0  0  0  0
 14 15  1  0  0  0  0
 15 19  1  0  0  0  0
 16 17  2  0  0  0  0
 16 21  1  0  0  0  0
 17 18  1  0  0  0  0
 18 19  2  0  0  0  0
 19 20  1  0  0  0  0
 20 21  2  0  0  0  0
M  END
>  <CHROM.1>
-92.00552833,-160.34224325,-127.72240950,-135.53841389,18.39675051,-20.90686554
24.53454075,-0.32673443,-0.11053932,1.37258286

>  <Name>
ligand

>  <RI>
0

>  <Rbt.Current_Directory>
/home/itssahil/PROJECTS/Mol_Feturizer/Test_systems_manuscript/rnas/3sd3

>  <Rbt.Executable>
rbdock ($Id: //depot/dev/client3/rdock/2013.1/src/exe/rbdock.cxx#4 $)

>  <Rbt.Library>
libRbt.so (2013.1, Build901 2013/11/27)

>  <Rbt.Parameter_File>
/export/apps/rDock/src/rDock_2013.1_src/data/scripts/dock_solv.prm

>  <Rbt.Receptor>
prm/pocket_docking_8.prm

>  <SCORE>
-12.6514

>  <SCORE.INTER>
-12.5102

>  <SCORE.INTER.CONST>
1

>  <SCORE.INTER.POLAR>
0

>  <SCORE.INTER.ROT>
4

>  <SCORE.INTER.SOLV>
10.6576

>  <SCORE.INTER.VDW>
-18.1594

>  <SCORE.INTER.norm>
-0.568647

>  <SCORE.INTRA>
-0.141194

>  <SCORE.INTRA.DIHEDRAL>
1.55129

>  <SCORE.INTRA.DIHEDRAL.0>
2.54655

>  <SCORE.INTRA.POLAR>
0

>  <SCORE.INTRA.POLAR.0>
0

>  <SCORE.INTRA.REPUL>
0

>  <SCORE.INTRA.REPUL.0>
0

>  <SCORE.INTRA.SOLV>
-0.902465

>  <SCORE.INTRA.SOLV.lig_0>
-56.4922

>  <SCORE.INTRA.VDW>
-0.465605

>  <SCORE.INTRA.VDW.0>
-0.696801

>  <SCORE.INTRA.norm>
-0.00641792

>  <SCORE.RESTR>
0

>  <SCORE.RESTR.CAVITY>
0

>  <SCORE.RESTR.norm>
0

>  <SCORE.SYSTEM>
0

>  <SCORE.SYSTEM.CONST>
0

>  <SCORE.SYSTEM.DIHEDRAL>
0

>  <SCORE.SYSTEM.SOLV>
0

>  <SCORE.SYSTEM.norm>
0

>  <SCORE.heavy>
22

>  <SCORE.norm>
-0.575065

>  <RMSD>
6.870

$$$$
ligand
 OpenBabel02271912143D
libRbt.so/2013.1/901 2013/11/27
 22 24  0  0  0  0  0  0  0  0999 V2000
   24.5546  -22.2629   25.4424 N   0  0  0  0  0  0  0  0  0  0  0  0
   22.1864  -22.5952   25.3239 N   0  0  0  0  0  0  0  0  0  0  0  0
   23.2423  -22.1398   26.0181 C   0  0  0  0  0  0  0  0  0  0  0  0
   23.1125  -21.5817   27.2153 N   0  0  0  0  0  0  0  0  0  0  0  0
   18.0620  -22.8001   29.1702 O   0  0  0  0  0  0  0  0  0  0  0  0
   21.8934  -21.4582   27.7719 C   0  0  0  0  0  0  0  0  0  0  0  0
   20.7534  -21.9409   27.0707 C   0  0  0  0  0  0  0  0  0  0  0  0
   21.7863  -20.8748   29.0144 O   0  0  0  0  0  0  0  0  0  0  0  0
   19.3827  -21.8565   27.5344 N   0  0  0  0  0  0  0  0  0  0  0  0
   18.3668  -21.5332   26.5243 C   0  0  2  0  0  0  0  0  0  0  0  0
   18.4818  -22.4517   25.3480 C   0  0  0  0  0  0  0  0  0  0  0  0
   20.9419  -22.4994   25.8313 C   0  0  0  0  0  0  0  0  0  0  0  0
   19.8243  -22.9780   25.1098 N   0  0  0  0  0  0  0  0  0  0  0  0
   18.4285  -20.0791   26.0228 C   0  0  0  0  0  0  0  0  0  0  0  0
   17.2277  -19.7501   25.2645 N   0  0  0  0  0  0  0  0  0  0  0  0
   13.3605  -20.5740   26.8353 C   0  0  0  0  0  0  0  0  0  0  0  0
   13.7921  -21.2202   25.6891 C   0  0  0  0  0  0  0  0  0  0  0  0
   15.0714  -20.9527   25.1646 C   0  0  0  0  0  0  0  0  0  0  0  0
   15.9012  -20.0385   25.7957 C   0  0  0  0  0  0  0  0  0  0  0  0
   15.4647  -19.3907   26.9476 C   0  0  0  0  0  0  0  0  0  0  0  0
   14.1960  -19.6588   27.4679 C   0  0  0  0  0  0  0  0  0  0  0  0
   18.9779  -22.0469   28.8852 C   0  0  0  0  0  0  0  0  0  0  0  0
  1  3  1  0  0  0  0
  2  3  2  0  0  0  0
  2 12  1  0  0  0  0
  3  4  1  0  0  0  0
  4  6  1  0  0  0  0
  5 22  1  0  0  0  0
  6  7  1  0  0  0  0
  6  8  2  0  0  0  0
  7 12  2  0  0  0  0
  7  9  1  0  0  0  0
  9 10  1  0  0  0  0
  9 22  1  0  0  0  0
 10 11  1  0  0  0  0
 10 14  1  6  0  0  0
 11 13  1  0  0  0  0
 12 13  1  0  0  0  0
 14 15  1  0  0  0  0
 15 19  1  0  0  0  0
 16 17  2  0  0  0  0
 16 21  1  0  0  0  0
 17 18  1  0  0  0  0
 18 19  2  0  0  0  0
 19 20  1  0  0  0  0
 20 21  2  0  0  0  0
M  END
>  <CHROM.1>
-130.27890950,-167.27503628,49.42064912,-115.58404539,18.97626346,-21.42823131
26.65594683,-0.01869232,0.20701339,-1.61445559

>  <Name>
ligand

>  <RI>
0

>  <Rbt.Current_Directory>
/home/itssahil/PROJECTS/Mol_Feturizer/Test_systems_manuscript/rnas/3sd3

>  <Rbt.Executable>
rbdock ($Id: //depot/dev/client3/rdock/2013.1/src/exe/rbdock.cxx#4 $)

>  <Rbt.Library>
libRbt.so (2013.1, Build901 2013/11/27)

>  <Rbt.Parameter_File>
/export/apps/rDock/src/rDock_2013.1_src/data/scripts/dock_solv.prm

>  <Rbt.Receptor>
prm/pocket_docking_4.prm

>  <SCORE>
-16.6774

>  <SCORE.INTER>
-15.7129

>  <SCORE.INTER.CONST>
1

>  <SCORE.INTER.POLAR>
0

>  <SCORE.INTER.ROT>
4

>  <SCORE.INTER.SOLV>
9.59987

>  <SCORE.INTER.VDW>
-19.9419

>  <SCORE.INTER.norm>
-0.714221

>  <SCORE.INTRA>
-0.966705

>  <SCORE.INTRA.DIHEDRAL>
-0.263688

>  <SCORE.INTRA.DIHEDRAL.0>
2.54655

>  <SCORE.INTRA.POLAR>
0

>  <SCORE.INTRA.POLAR.0>
0

>  <SCORE.INTRA.REPUL>
0

>  <SCORE.INTRA.REPUL.0>
0

>  <SCORE.INTRA.SOLV>
-0.795389

>  <SCORE.INTRA.SOLV.lig_0>
-56.4922

>  <SCORE.INTRA.VDW>
-0.437166

>  <SCORE.INTRA.VDW.0>
-0.696801

>  <SCORE.INTRA.norm>
-0.0439411

>  <SCORE.RESTR>
0.00214111

>  <SCORE.RESTR.CAVITY>
0.00214111

>  <SCORE.RESTR.norm>
9.73233e-05

>  <SCORE.SYSTEM>
0

>  <SCORE.SYSTEM.CONST>
0

>  <SCORE.SYSTEM.DIHEDRAL>
0

>  <SCORE.SYSTEM.SOLV>
0

>  <SCORE.SYSTEM.norm>
0

>  <SCORE.heavy>
22

>  <SCORE.norm>
-0.758064

>  <RMSD>
6.878

$$$$
ligand
 OpenBabel02271912143D
libRbt.so/2013.1/901 2013/11/27
 22 24  0  0  0  0  0  0  0  0999 V2000
   21.7015  -24.8104   20.8375 N   0  0  0  0  0  0  0  0  0  0  0  0
   21.4140  -23.5361   22.8441 N   0  0  0  0  0  0  0  0  0  0  0  0
   21.0735  -23.7372   21.5604 C   0  0  0  0  0  0  0  0  0  0  0  0
   20.1784  -22.9782   20.9403 N   0  0  0  0  0  0  0  0  0  0  0  0
   19.7349  -18.7867   22.5441 O   0  0  0  0  0  0  0  0  0  0  0  0
   19.5802  -21.9683   21.5987 C   0  0  0  0  0  0  0  0  0  0  0  0
   19.9257  -21.7181   22.9561 C   0  0  0  0  0  0  0  0  0  0  0  0
   18.6547  -21.1968   20.9326 O   0  0  0  0  0  0  0  0  0  0  0  0
   19.3503  -20.6843   23.7936 N   0  0  0  0  0  0  0  0  0  0  0  0
   19.0771  -21.0475   25.1902 C   0  0  2  0  0  0  0  0  0  0  0  0
   20.2937  -21.6422   25.8280 C   0  0  0  0  0  0  0  0  0  0  0  0
   20.8490  -22.5394   23.5531 C   0  0  0  0  0  0  0  0  0  0  0  0
   21.2024  -22.3178   24.9039 N   0  0  0  0  0  0  0  0  0  0  0  0
   17.9019  -22.0272   25.3600 C   0  0  0  0  0  0  0  0  0  0  0  0
   16.6771  -21.4531   24.8166 N   0  0  0  0  0  0  0  0  0  0  0  0
   13.5908  -20.0153   27.3678 C   0  0  0  0  0  0  0  0  0  0  0  0
   14.9064  -19.6532   27.6040 C   0  0  0  0  0  0  0  0  0  0  0  0
   15.9326  -20.1249   26.7627 C   0  0  0  0  0  0  0  0  0  0  0  0
   15.6261  -20.9558   25.6957 C   0  0  0  0  0  0  0  0  0  0  0  0
   14.3029  -21.3179   25.4608 C   0  0  0  0  0  0  0  0  0  0  0  0
   13.2858  -20.8473   26.2951 C   0  0  0  0  0  0  0  0  0  0  0  0
   19.0260  -19.3737   23.3443 C   0  0  0  0  0  0  0  0  0  0  0  0
  1  3  1  0  0  0  0
  2  3  2  0  0  0  0
  2 12  1  0  0  0  0
  3  4  1  0  0  0  0
  4  6  1  0  0  0  0
  5 22  1  0  0  0  0
  6  7  1  0  0  0  0
  6  8  2  0  0  0  0
  7 12  2  0  0  0  0
  7  9  1  0  0  0  0
  9 10  1  0  0  0  0
  9 22  1  0  0  0  0
 10 11  1  0  0  0  0
 10 14  1  6  0  0  0
 11 13  1  0  0  0  0
 12 13  1  0  0  0  0
 14 15  1  0  0  0  0
 15 19  1  0  0  0  0
 16 17  2  0  0  0  0
 16 21  1  0  0  0  0
 17 18  1  0  0  0  0
 18 19  2  0  0  0  0
 19 20  1  0  0  0  0
 20 21  2  0  0  0  0
M  END
>  <CHROM.1>
-37.60011608,-59.34212850,-105.87776864,47.43456518,18.48624639,-21.48241020
24.00980525,-0.56223350,-0.44813267,1.68571975

>  <Name>
ligand

>  <RI>
0

>  <Rbt.Current_Directory>
/home/itssahil/PROJECTS/Mol_Feturizer/Test_systems_manuscript/rnas/3sd3

>  <Rbt.Executable>
rbdock ($Id: //depot/dev/client3/rdock/2013.1/src/exe/rbdock.cxx#4 $)

>  <Rbt.Library>
libRbt.so (2013.1, Build901 2013/11/27)

>  <Rbt.Parameter_File>
/export/apps/rDock/src/rDock_2013.1_src/data/scripts/dock_solv.prm

>  <Rbt.Receptor>
prm/pocket_docking_8.prm

>  <SCORE>
-15.8726

>  <SCORE.INTER>
-15.0463

>  <SCORE.INTER.CONST>
1

>  <SCORE.INTER.POLAR>
0

>  <SCORE.INTER.ROT>
4

>  <SCORE.INTER.SOLV>
10.3527

>  <SCORE.INTER.VDW>
-19.7484

>  <SCORE.INTER.norm>
-0.683922

>  <SCORE.INTRA>
-0.826271

>  <SCORE.INTRA.DIHEDRAL>
0.108038

>  <SCORE.INTRA.DIHEDRAL.0>
2.54655

>  <SCORE.INTRA.POLAR>
0

>  <SCORE.INTRA.POLAR.0>
0

>  <SCORE.INTRA.REPUL>
0

>  <SCORE.INTRA.REPUL.0>
0

>  <SCORE.INTRA.SOLV>
-0.0608832

>  <SCORE.INTRA.SOLV.lig_0>
-56.4922

>  <SCORE.INTRA.VDW>
-0.849849

>  <SCORE.INTRA.VDW.0>
-0.696801

>  <SCORE.INTRA.norm>
-0.0375578

>  <SCORE.RESTR>
0

>  <SCORE.RESTR.CAVITY>
0

>  <SCORE.RESTR.norm>
0

>  <SCORE.SYSTEM>
0

>  <SCORE.SYSTEM.CONST>
0

>  <SCORE.SYSTEM.DIHEDRAL>
0

>  <SCORE.SYSTEM.SOLV>
0

>  <SCORE.SYSTEM.norm>
0

>  <SCORE.heavy>
22

>  <SCORE.norm>
-0.72148

>  <RMSD>
6.878

$$$$
ligand
 OpenBabel02271912143D
libRbt.so/2013.1/901 2013/11/27
 22 24  0  0  0  0  0  0  0  0999 V2000
   24.5430  -21.4312   27.2601 N   0  0  0  0  0  0  0  0  0  0  0  0
   22.4079  -22.2114   26.5081 N   0  0  0  0  0  0  0  0  0  0  0  0
   23.1193  -21.5437   27.4312 C   0  0  0  0  0  0  0  0  0  0  0  0
   22.5509  -20.9864   28.4933 N   0  0  0  0  0  0  0  0  0  0  0  0
   18.8030  -22.5608   29.9873 O   0  0  0  0  0  0  0  0  0  0  0  0
   21.2204  -21.0813   28.6724 C   0  0  0  0  0  0  0  0  0  0  0  0
   20.4367  -21.7921   27.7211 C   0  0  0  0  0  0  0  0  0  0  0  0
   20.6558  -20.4936   29.7821 O   0  0  0  0  0  0  0  0  0  0  0  0
   18.9974  -21.9568   27.7720 N   0  0  0  0  0  0  0  0  0  0  0  0
   18.2804  -21.8619   26.4938 C   0  0  2  0  0  0  0  0  0  0  0  0
   18.8914  -22.7751   25.4774 C   0  0  0  0  0  0  0  0  0  0  0  0
   21.0727  -22.3398   26.6352 C   0  0  0  0  0  0  0  0  0  0  0  0
   20.3152  -23.0428   25.6706 N   0  0  0  0  0  0  0  0  0  0  0  0
   18.2318  -20.4376   25.9118 C   0  0  0  0  0  0  0  0  0  0  0  0
   17.2218  -19.6409   26.5976 N   0  0  0  0  0  0  0  0  0  0  0  0
   13.1149  -20.7410   26.4411 C   0  0  0  0  0  0  0  0  0  0  0  0
   13.5692  -19.9110   27.4522 C   0  0  0  0  0  0  0  0  0  0  0  0
   14.9273  -19.5423   27.5092 C   0  0  0  0  0  0  0  0  0  0  0  0
   15.8131  -20.0127   26.5517 C   0  0  0  0  0  0  0  0  0  0  0  0
   15.3535  -20.8465   25.5366 C   0  0  0  0  0  0  0  0  0  0  0  0
   14.0054  -21.2096   25.4803 C   0  0  0  0  0  0  0  0  0  0  0  0
   18.2558  -22.1820   28.9654 C   0  0  0  0  0  0  0  0  0  0  0  0
  1  3  1  0  0  0  0
  2  3  2  0  0  0  0
  2 12  1  0  0  0  0
  3  4  1  0  0  0  0
  4  6  1  0  0  0  0
  5 22  1  0  0  0  0
  6  7  1  0  0  0  0
  6  8  2  0  0  0  0
  7 12  2  0  0  0  0
  7  9  1  0  0  0  0
  9 10  1  0  0  0  0
  9 22  1  0  0  0  0
 10 11  1  0  0  0  0
 10 14  1  6  0  0  0
 11 13  1  0  0  0  0
 12 13  1  0  0  0  0
 14 15  1  0  0  0  0
 15 19  1  0  0  0  0
 16 17  2  0  0  0  0
 16 21  1  0  0  0  0
 17 18  1  0  0  0  0
 18 19  2  0  0  0  0
 19 20  1  0  0  0  0
 20 21  2  0  0  0  0
M  END
>  <CHROM.1>
-17.41043360,-78.06487846,-62.25907411,159.40455609,18.83253241,-21.32861868
27.25427250,-0.10882478,0.18517493,-1.79924855

>  <Name>
ligand

>  <RI>
0

>  <Rbt.Current_Directory>
/home/itssahil/PROJECTS/Mol_Feturizer/Test_systems_manuscript/rnas/3sd3

>  <Rbt.Executable>
rbdock ($Id: //depot/dev/client3/rdock/2013.1/src/exe/rbdock.cxx#4 $)

>  <Rbt.Library>
libRbt.so (2013.1, Build901 2013/11/27)

>  <Rbt.Parameter_File>
/export/apps/rDock/src/rDock_2013.1_src/data/scripts/dock_solv.prm

>  <Rbt.Receptor>
prm/pocket_docking_8.prm

>  <SCORE>
-17.1759

>  <SCORE.INTER>
-16.7021

>  <SCORE.INTER.CONST>
1

>  <SCORE.INTER.POLAR>
0

>  <SCORE.INTER.ROT>
4

>  <SCORE.INTER.SOLV>
9.12009

>  <SCORE.INTER.VDW>
-20.4415

>  <SCORE.INTER.norm>
-0.759188

>  <SCORE.INTRA>
-0.47378

>  <SCORE.INTRA.DIHEDRAL>
0.132381

>  <SCORE.INTRA.DIHEDRAL.0>
2.54655

>  <SCORE.INTRA.POLAR>
0

>  <SCORE.INTRA.POLAR.0>
0

>  <SCORE.INTRA.REPUL>
0

>  <SCORE.INTRA.REPUL.0>
0

>  <SCORE.INTRA.SOLV>
-0.229902

>  <SCORE.INTRA.SOLV.lig_0>
-56.4922

>  <SCORE.INTRA.VDW>
-0.425019

>  <SCORE.INTRA.VDW.0>
-0.696801

>  <SCORE.INTRA.norm>
-0.0215354

>  <SCORE.RESTR>
0

>  <SCORE.RESTR.CAVITY>
0

>  <SCORE.RESTR.norm>
0

>  <SCORE.SYSTEM>
0

>  <SCORE.SYSTEM.CONST>
0

>  <SCORE.SYSTEM.DIHEDRAL>
0

>  <SCORE.SYSTEM.SOLV>
0

>  <SCORE.SYSTEM.norm>
0

>  <SCORE.heavy>
22

>  <SCORE.norm>
-0.780724

>  <RMSD>
6.881

$$$$
ligand
 OpenBabel02271912143D
libRbt.so/2013.1/901 2013/11/27
 22 24  0  0  0  0  0  0  0  0999 V2000
   24.5004  -21.0652   27.1201 N   0  0  0  0  0  0  0  0  0  0  0  0
   22.4135  -22.0339   26.4572 N   0  0  0  0  0  0  0  0  0  0  0  0
   23.0903  -21.2625   27.3238 C   0  0  0  0  0  0  0  0  0  0  0  0
   22.4999  -20.6787   28.3593 N   0  0  0  0  0  0  0  0  0  0  0  0
   18.8785  -22.4928   29.9954 O   0  0  0  0  0  0  0  0  0  0  0  0
   21.1817  -20.8516   28.5682 C   0  0  0  0  0  0  0  0  0  0  0  0
   20.4353  -21.6725   27.6774 C   0  0  0  0  0  0  0  0  0  0  0  0
   20.5936  -20.2342   29.6492 O   0  0  0  0  0  0  0  0  0  0  0  0
   19.0116  -21.9305   27.7647 N   0  0  0  0  0  0  0  0  0  0  0  0
   18.2720  -21.9653   26.4963 C   0  0  2  0  0  0  0  0  0  0  0  0
   18.9299  -22.8978   25.5278 C   0  0  0  0  0  0  0  0  0  0  0  0
   21.0922  -22.2438   26.6164 C   0  0  0  0  0  0  0  0  0  0  0  0
   20.3713  -23.0560   25.7114 N   0  0  0  0  0  0  0  0  0  0  0  0
   18.1179  -20.5874   25.8277 C   0  0  0  0  0  0  0  0  0  0  0  0
   17.1694  -19.7646   26.5685 N   0  0  0  0  0  0  0  0  0  0  0  0
   13.0156  -20.6846   26.5424 C   0  0  0  0  0  0  0  0  0  0  0  0
   13.5263  -19.8253   27.5006 C   0  0  0  0  0  0  0  0  0  0  0  0
   14.9002  -19.5159   27.5142 C   0  0  0  0  0  0  0  0  0  0  0  0
   15.7450  -20.0742   26.5669 C   0  0  0  0  0  0  0  0  0  0  0  0
   15.2288  -20.9374   25.6050 C   0  0  0  0  0  0  0  0  0  0  0  0
   13.8651  -21.2416   25.5916 C   0  0  0  0  0  0  0  0  0  0  0  0
   18.3038  -22.1291   28.9830 C   0  0  0  0  0  0  0  0  0  0  0  0
  1  3  1  0  0  0  0
  2  3  2  0  0  0  0
  2 12  1  0  0  0  0
  3  4  1  0  0  0  0
  4  6  1  0  0  0  0
  5 22  1  0  0  0  0
  6  7  1  0  0  0  0
  6  8  2  0  0  0  0
  7 12  2  0  0  0  0
  7  9  1  0  0  0  0
  9 10  1  0  0  0  0
  9 22  1  0  0  0  0
 10 11  1  0  0  0  0
 10 14  1  6  0  0  0
 11 13  1  0  0  0  0
 12 13  1  0  0  0  0
 14 15  1  0  0  0  0
 15 19  1  0  0  0  0
 16 17  2  0  0  0  0
 16 21  1  0  0  0  0
 17 18  1  0  0  0  0
 18 19  2  0  0  0  0
 19 20  1  0  0  0  0
 20 21  2  0  0  0  0
M  END
>  <CHROM.1>
-22.43154838,-71.91769068,-70.19809736,163.81947350,18.80543515,-21.26089858
27.23445562,-0.08392486,0.15755804,-1.87338536

>  <Name>
ligand

>  <RI>
0

>  <Rbt.Current_Directory>
/home/itssahil/PROJECTS/Mol_Feturizer/Test_systems_manuscript/rnas/3sd3

>  <Rbt.Executable>
rbdock ($Id: //depot/dev/client3/rdock/2013.1/src/exe/rbdock.cxx#4 $)

>  <Rbt.Library>
libRbt.so (2013.1, Build901 2013/11/27)

>  <Rbt.Parameter_File>
/export/apps/rDock/src/rDock_2013.1_src/data/scripts/dock_solv.prm

>  <Rbt.Receptor>
prm/pocket_docking_6.prm

>  <SCORE>
-17.032

>  <SCORE.INTER>
-16.3007

>  <SCORE.INTER.CONST>
1

>  <SCORE.INTER.POLAR>
0

>  <SCORE.INTER.ROT>
4

>  <SCORE.INTER.SOLV>
9.20619

>  <SCORE.INTER.VDW>
-20.2025

>  <SCORE.INTER.norm>
-0.740941

>  <SCORE.INTRA>
-0.731317

>  <SCORE.INTRA.DIHEDRAL>
-0.376674

>  <SCORE.INTRA.DIHEDRAL.0>
2.54655

>  <SCORE.INTRA.POLAR>
0

>  <SCORE.INTRA.POLAR.0>
0

>  <SCORE.INTRA.REPUL>
0

>  <SCORE.INTRA.REPUL.0>
0

>  <SCORE.INTRA.SOLV>
-0.171326

>  <SCORE.INTRA.SOLV.lig_0>
-56.4922

>  <SCORE.INTRA.VDW>
-0.457317

>  <SCORE.INTRA.VDW.0>
-0.696801

>  <SCORE.INTRA.norm>
-0.0332417

>  <SCORE.RESTR>
0

>  <SCORE.RESTR.CAVITY>
0

>  <SCORE.RESTR.norm>
0

>  <SCORE.SYSTEM>
0

>  <SCORE.SYSTEM.CONST>
0

>  <SCORE.SYSTEM.DIHEDRAL>
0

>  <SCORE.SYSTEM.SOLV>
0

>  <SCORE.SYSTEM.norm>
0

>  <SCORE.heavy>
22

>  <SCORE.norm>
-0.774183

>  <RMSD>
6.884

$$$$
ligand
 OpenBabel02271912143D
libRbt.so/2013.1/901 2013/11/27
 22 24  0  0  0  0  0  0  0  0999 V2000
   24.5816  -21.6456   26.1520 N   0  0  0  0  0  0  0  0  0  0  0  0
   22.3116  -22.3800   25.9504 N   0  0  0  0  0  0  0  0  0  0  0  0
   23.2118  -21.6147   26.5894 C   0  0  0  0  0  0  0  0  0  0  0  0
   22.8772  -20.8336   27.6090 N   0  0  0  0  0  0  0  0  0  0  0  0
   18.1427  -22.5518   29.5483 O   0  0  0  0  0  0  0  0  0  0  0  0
   21.6011  -20.7912   28.0343 C   0  0  0  0  0  0  0  0  0  0  0  0
   20.6228  -21.5982   27.3890 C   0  0  0  0  0  0  0  0  0  0  0  0
   21.2805  -19.9720   29.0933 O   0  0  0  0  0  0  0  0  0  0  0  0
   19.2129  -21.6389   27.7230 N   0  0  0  0  0  0  0  0  0  0  0  0
   18.2738  -21.7195   26.5967 C   0  0  2  0  0  0  0  0  0  0  0  0
   18.6432  -22.8449   25.6816 C   0  0  0  0  0  0  0  0  0  0  0  0
   21.0197  -22.3795   26.3328 C   0  0  0  0  0  0  0  0  0  0  0  0
   20.0650  -23.1832   25.6686 N   0  0  0  0  0  0  0  0  0  0  0  0
   18.1787  -20.4233   25.7717 C   0  0  0  0  0  0  0  0  0  0  0  0
   17.1858  -19.5244   26.3473 N   0  0  0  0  0  0  0  0  0  0  0  0
   13.0945  -20.6688   26.5776 C   0  0  0  0  0  0  0  0  0  0  0  0
   13.6156  -19.7790   27.5019 C   0  0  0  0  0  0  0  0  0  0  0  0
   14.9688  -19.3954   27.4307 C   0  0  0  0  0  0  0  0  0  0  0  0
   15.7830  -19.9110   26.4337 C   0  0  0  0  0  0  0  0  0  0  0  0
   15.2565  -20.8049   25.5060 C   0  0  0  0  0  0  0  0  0  0  0  0
   13.9132  -21.1828   25.5768 C   0  0  0  0  0  0  0  0  0  0  0  0
   18.6991  -21.5882   29.0490 C   0  0  0  0  0  0  0  0  0  0  0  0
  1  3  1  0  0  0  0
  2  3  2  0  0  0  0
  2 12  1  0  0  0  0
  3  4  1  0  0  0  0
  4  6  1  0  0  0  0
  5 22  1  0  0  0  0
  6  7  1  0  0  0  0
  6  8  2  0  0  0  0
  7 12  2  0  0  0  0
  7  9  1  0  0  0  0
  9 10  1  0  0  0  0
  9 22  1  0  0  0  0
 10 11  1  0  0  0  0
 10 14  1  6  0  0  0
 11 13  1  0  0  0  0
 12 13  1  0  0  0  0
 14 15  1  0  0  0  0
 15 19  1  0  0  0  0
 16 17  2  0  0  0  0
 16 21  1  0  0  0  0
 17 18  1  0  0  0  0
 18 19  2  0  0  0  0
 19 20  1  0  0  0  0
 20 21  2  0  0  0  0
M  END
>  <CHROM.1>
-112.28371112,-87.16031735,-62.09376024,151.90897118,18.86537871,-21.22720346
26.98199812,0.01154728,0.15789984,-1.94723773

>  <Name>
ligand

>  <RI>
0

>  <Rbt.Current_Directory>
/home/itssahil/PROJECTS/Mol_Feturizer/Test_systems_manuscript/rnas/3sd3

>  <Rbt.Executable>
rbdock ($Id: //depot/dev/client3/rdock/2013.1/src/exe/rbdock.cxx#4 $)

>  <Rbt.Library>
libRbt.so (2013.1, Build901 2013/11/27)

>  <Rbt.Parameter_File>
/export/apps/rDock/src/rDock_2013.1_src/data/scripts/dock_solv.prm

>  <Rbt.Receptor>
prm/pocket_docking_4.prm

>  <SCORE>
-15.9442

>  <SCORE.INTER>
-15.7845

>  <SCORE.INTER.CONST>
1

>  <SCORE.INTER.POLAR>
0

>  <SCORE.INTER.ROT>
4

>  <SCORE.INTER.SOLV>
9.60849

>  <SCORE.INTER.VDW>
-19.9925

>  <SCORE.INTER.norm>
-0.717479

>  <SCORE.INTRA>
-0.159717

>  <SCORE.INTRA.DIHEDRAL>
1.29895

>  <SCORE.INTRA.DIHEDRAL.0>
2.54655

>  <SCORE.INTRA.POLAR>
0

>  <SCORE.INTRA.POLAR.0>
0

>  <SCORE.INTRA.REPUL>
0

>  <SCORE.INTRA.REPUL.0>
0

>  <SCORE.INTRA.SOLV>
-0.611079

>  <SCORE.INTRA.SOLV.lig_0>
-56.4922

>  <SCORE.INTRA.VDW>
-0.503655

>  <SCORE.INTRA.VDW.0>
-0.696801

>  <SCORE.INTRA.norm>
-0.00725985

>  <SCORE.RESTR>
0

>  <SCORE.RESTR.CAVITY>
0

>  <SCORE.RESTR.norm>
0

>  <SCORE.SYSTEM>
0

>  <SCORE.SYSTEM.CONST>
0

>  <SCORE.SYSTEM.DIHEDRAL>
0

>  <SCORE.SYSTEM.SOLV>
0

>  <SCORE.SYSTEM.norm>
0

>  <SCORE.heavy>
22

>  <SCORE.norm>
-0.724738

>  <RMSD>
6.889

$$$$
ligand
 OpenBabel02271912143D
libRbt.so/2013.1/901 2013/11/27
 22 24  0  0  0  0  0  0  0  0999 V2000
   22.5230  -21.6394   30.8212 N   0  0  0  0  0  0  0  0  0  0  0  0
   21.6087  -19.8312   29.5454 N   0  0  0  0  0  0  0  0  0  0  0  0
   21.8759  -21.1445   29.6358 C   0  0  0  0  0  0  0  0  0  0  0  0
   21.5623  -21.9969   28.6679 N   0  0  0  0  0  0  0  0  0  0  0  0
   21.2455  -19.6192   24.3408 O   0  0  0  0  0  0  0  0  0  0  0  0
   20.9574  -21.5538   27.5503 C   0  0  0  0  0  0  0  0  0  0  0  0
   20.6705  -20.1668   27.4147 C   0  0  0  0  0  0  0  0  0  0  0  0
   20.6422  -22.4589   26.5620 O   0  0  0  0  0  0  0  0  0  0  0  0
   20.0062  -19.5522   26.2824 N   0  0  0  0  0  0  0  0  0  0  0  0
   19.0393  -18.4893   26.5864 C   0  0  2  0  0  0  0  0  0  0  0  0
   19.6552  -17.4550   27.4760 C   0  0  0  0  0  0  0  0  0  0  0  0
   21.0056  -19.3302   28.4497 C   0  0  0  0  0  0  0  0  0  0  0  0
   20.7224  -17.9492   28.3437 N   0  0  0  0  0  0  0  0  0  0  0  0
   17.7429  -18.9966   27.2432 C   0  0  0  0  0  0  0  0  0  0  0  0
   17.1082  -20.0065   26.4051 N   0  0  0  0  0  0  0  0  0  0  0  0
   12.9068  -20.6510   26.5903 C   0  0  0  0  0  0  0  0  0  0  0  0
   13.6614  -21.2914   25.6218 C   0  0  0  0  0  0  0  0  0  0  0  0
   15.0527  -21.0831   25.5556 C   0  0  0  0  0  0  0  0  0  0  0  0
   15.6693  -20.2332   26.4613 C   0  0  0  0  0  0  0  0  0  0  0  0
   14.9083  -19.5911   27.4337 C   0  0  0  0  0  0  0  0  0  0  0  0
   13.5284  -19.8005   27.4992 C   0  0  0  0  0  0  0  0  0  0  0  0
   20.2199  -19.9247   24.9258 C   0  0  0  0  0  0  0  0  0  0  0  0
  1  3  1  0  0  0  0
  2  3  2  0  0  0  0
  2 12  1  0  0  0  0
  3  4  1  0  0  0  0
  4  6  1  0  0  0  0
  5 22  1  0  0  0  0
  6  7  1  0  0  0  0
  6  8  2  0  0  0  0
  7 12  2  0  0  0  0
  7  9  1  0  0  0  0
  9 10  1  0  0  0  0
  9 22  1  0  0  0  0
 10 11  1  0  0  0  0
 10 14  1  1  0  0  0
 11 13  1  0  0  0  0
 12 13  1  0  0  0  0
 14 15  1  0  0  0  0
 15 19  1  0  0  0  0
 16 17  2  0  0  0  0
 16 21  1  0  0  0  0
 17 18  1  0  0  0  0
 18 19  2  0  0  0  0
 19 20  1  0  0  0  0
 20 21  2  0  0  0  0
M  END
>  <CHROM.1>
-73.78525002,-56.32863518,-153.54727266,172.52850708,18.88840058,-20.11884813
27.22524207,0.25757996,0.08809533,1.99118301

>  <Name>
ligand

>  <RI>
0

>  <Rbt.Current_Directory>
/home/itssahil/PROJECTS/Mol_Feturizer/Test_systems_manuscript/rnas/3sd3

>  <Rbt.Executable>
rbdock ($Id: //depot/dev/client3/rdock/2013.1/src/exe/rbdock.cxx#4 $)

>  <Rbt.Library>
libRbt.so (2013.1, Build901 2013/11/27)

>  <Rbt.Parameter_File>
/export/apps/rDock/src/rDock_2013.1_src/data/scripts/dock_solv.prm

>  <Rbt.Receptor>
prm/pocket_docking_5.prm

>  <SCORE>
-12.0687

>  <SCORE.INTER>
-11.6458

>  <SCORE.INTER.CONST>
1

>  <SCORE.INTER.POLAR>
0

>  <SCORE.INTER.ROT>
4

>  <SCORE.INTER.SOLV>
3.87883

>  <SCORE.INTER.VDW>
-15.3235

>  <SCORE.INTER.norm>
-0.529354

>  <SCORE.INTRA>
-0.422915

>  <SCORE.INTRA.DIHEDRAL>
-0.35152

>  <SCORE.INTRA.DIHEDRAL.0>
2.54655

>  <SCORE.INTRA.POLAR>
0

>  <SCORE.INTRA.POLAR.0>
0

>  <SCORE.INTRA.REPUL>
0

>  <SCORE.INTRA.REPUL.0>
0

>  <SCORE.INTRA.SOLV>
-0.17423

>  <SCORE.INTRA.SOLV.lig_0>
-56.4922

>  <SCORE.INTRA.VDW>
-0.16004

>  <SCORE.INTRA.VDW.0>
-0.696801

>  <SCORE.INTRA.norm>
-0.0192234

>  <SCORE.RESTR>
0

>  <SCORE.RESTR.CAVITY>
0

>  <SCORE.RESTR.norm>
0

>  <SCORE.SYSTEM>
0

>  <SCORE.SYSTEM.CONST>
0

>  <SCORE.SYSTEM.DIHEDRAL>
0

>  <SCORE.SYSTEM.SOLV>
0

>  <SCORE.SYSTEM.norm>
0

>  <SCORE.heavy>
22

>  <SCORE.norm>
-0.548577

>  <RMSD>
6.891

$$$$
ligand
 OpenBabel02271912143D
libRbt.so/2013.1/901 2013/11/27
 22 24  0  0  0  0  0  0  0  0999 V2000
   24.1043  -22.1174   26.0946 N   0  0  0  0  0  0  0  0  0  0  0  0
   21.7325  -22.3653   25.8796 N   0  0  0  0  0  0  0  0  0  0  0  0
   22.7836  -22.0716   26.6626 C   0  0  0  0  0  0  0  0  0  0  0  0
   22.6416  -21.7418   27.9404 N   0  0  0  0  0  0  0  0  0  0  0  0
   18.2591  -21.6077   30.3259 O   0  0  0  0  0  0  0  0  0  0  0  0
   21.4146  -21.6943   28.4911 C   0  0  0  0  0  0  0  0  0  0  0  0
   20.2790  -22.0115   27.6948 C   0  0  0  0  0  0  0  0  0  0  0  0
   21.2950  -21.3485   29.8184 O   0  0  0  0  0  0  0  0  0  0  0  0
   18.9014  -21.9817   28.1447 N   0  0  0  0  0  0  0  0  0  0  0  0
   17.9126  -21.4528   27.1963 C   0  0  2  0  0  0  0  0  0  0  0  0
   18.0319  -22.1403   25.8720 C   0  0  0  0  0  0  0  0  0  0  0  0
   20.4805  -22.3354   26.3764 C   0  0  0  0  0  0  0  0  0  0  0  0
   19.3678  -22.6453   25.5613 N   0  0  0  0  0  0  0  0  0  0  0  0
   18.0141  -19.9329   26.9742 C   0  0  0  0  0  0  0  0  0  0  0  0
   16.9309  -19.4698   26.1155 N   0  0  0  0  0  0  0  0  0  0  0  0
   12.9403  -20.8305   26.6857 C   0  0  0  0  0  0  0  0  0  0  0  0
   13.4559  -19.8405   27.5054 C   0  0  0  0  0  0  0  0  0  0  0  0
   14.7758  -19.3850   27.3213 C   0  0  0  0  0  0  0  0  0  0  0  0
   15.5626  -19.9299   26.3180 C   0  0  0  0  0  0  0  0  0  0  0  0
   15.0417  -20.9246   25.4957 C   0  0  0  0  0  0  0  0  0  0  0  0
   13.7313  -21.3739   25.6783 C   0  0  0  0  0  0  0  0  0  0  0  0
   18.4662  -22.4091   29.4302 C   0  0  0  0  0  0  0  0  0  0  0  0
  1  3  1  0  0  0  0
  2  3  2  0  0  0  0
  2 12  1  0  0  0  0
  3  4  1  0  0  0  0
  4  6  1  0  0  0  0
  5 22  1  0  0  0  0
  6  7  1  0  0  0  0
  6  8  2  0  0  0  0
  7 12  2  0  0  0  0
  7  9  1  0  0  0  0
  9 10  1  0  0  0  0
  9 22  1  0  0  0  0
 10 11  1  0  0  0  0
 10 14  1  6  0  0  0
 11 13  1  0  0  0  0
 12 13  1  0  0  0  0
 14 15  1  0  0  0  0
 15 19  1  0  0  0  0
 16 17  2  0  0  0  0
 16 21  1  0  0  0  0
 17 18  1  0  0  0  0
 18 19  2  0  0  0  0
 19 20  1  0  0  0  0
 20 21  2  0  0  0  0
M  END
>  <CHROM.1>
98.98355950,-175.04783186,44.38714435,78.89145765,18.57681784,-21.36836770
27.22588813,-0.08745573,0.21412541,-1.61881806

>  <Name>
ligand

>  <RI>
0

>  <Rbt.Current_Directory>
/home/itssahil/PROJECTS/Mol_Feturizer/Test_systems_manuscript/rnas/3sd3

>  <Rbt.Executable>
rbdock ($Id: //depot/dev/client3/rdock/2013.1/src/exe/rbdock.cxx#4 $)

>  <Rbt.Library>
libRbt.so (2013.1, Build901 2013/11/27)

>  <Rbt.Parameter_File>
/export/apps/rDock/src/rDock_2013.1_src/data/scripts/dock_solv.prm

>  <Rbt.Receptor>
prm/pocket_docking_6.prm

>  <SCORE>
-18.5554

>  <SCORE.INTER>
-17.5636

>  <SCORE.INTER.CONST>
1

>  <SCORE.INTER.POLAR>
0

>  <SCORE.INTER.ROT>
4

>  <SCORE.INTER.SOLV>
9.47333

>  <SCORE.INTER.VDW>
-21.1335

>  <SCORE.INTER.norm>
-0.798347

>  <SCORE.INTRA>
-0.991726

>  <SCORE.INTRA.DIHEDRAL>
-0.652786

>  <SCORE.INTRA.DIHEDRAL.0>
2.54655

>  <SCORE.INTRA.POLAR>
0

>  <SCORE.INTRA.POLAR.0>
0

>  <SCORE.INTRA.REPUL>
0

>  <SCORE.INTRA.REPUL.0>
0

>  <SCORE.INTRA.SOLV>
-0.410522

>  <SCORE.INTRA.SOLV.lig_0>
-56.4922

>  <SCORE.INTRA.VDW>
-0.460072

>  <SCORE.INTRA.VDW.0>
-0.696801

>  <SCORE.INTRA.norm>
-0.0450784

>  <SCORE.RESTR>
0

>  <SCORE.RESTR.CAVITY>
0

>  <SCORE.RESTR.norm>
0

>  <SCORE.SYSTEM>
0

>  <SCORE.SYSTEM.CONST>
0

>  <SCORE.SYSTEM.DIHEDRAL>
0

>  <SCORE.SYSTEM.SOLV>
0

>  <SCORE.SYSTEM.norm>
0

>  <SCORE.heavy>
22

>  <SCORE.norm>
-0.843426

>  <RMSD>
6.893

$$$$
ligand
 OpenBabel02271912143D
libRbt.so/2013.1/901 2013/11/27
 22 24  0  0  0  0  0  0  0  0999 V2000
   24.4007  -21.4878   27.3594 N   0  0  0  0  0  0  0  0  0  0  0  0
   22.2032  -21.7558   28.2717 N   0  0  0  0  0  0  0  0  0  0  0  0
   23.0345  -21.0552   27.4829 C   0  0  0  0  0  0  0  0  0  0  0  0
   22.6355  -19.9791   26.8160 N   0  0  0  0  0  0  0  0  0  0  0  0
   19.2048  -17.7212   28.5352 O   0  0  0  0  0  0  0  0  0  0  0  0
   21.3617  -19.5573   26.9190 C   0  0  0  0  0  0  0  0  0  0  0  0
   20.4562  -20.2677   27.7556 C   0  0  0  0  0  0  0  0  0  0  0  0
   20.9733  -18.4389   26.2162 O   0  0  0  0  0  0  0  0  0  0  0  0
   19.0561  -19.9440   27.9456 N   0  0  0  0  0  0  0  0  0  0  0  0
   18.1247  -21.0771   28.0198 C   0  0  2  0  0  0  0  0  0  0  0  0
   18.5890  -22.0757   29.0335 C   0  0  0  0  0  0  0  0  0  0  0  0
   20.9172  -21.3801   28.4142 C   0  0  0  0  0  0  0  0  0  0  0  0
   20.0349  -22.1090   29.2441 N   0  0  0  0  0  0  0  0  0  0  0  0
   17.9143  -21.7988   26.6765 C   0  0  0  0  0  0  0  0  0  0  0  0
   17.0603  -21.0062   25.8003 N   0  0  0  0  0  0  0  0  0  0  0  0
   12.9995  -20.2418   26.8138 C   0  0  0  0  0  0  0  0  0  0  0  0
   13.3011  -21.1203   25.7867 C   0  0  0  0  0  0  0  0  0  0  0  0
   14.6432  -21.3784   25.4469 C   0  0  0  0  0  0  0  0  0  0  0  0
   15.6662  -20.7503   26.1409 C   0  0  0  0  0  0  0  0  0  0  0  0
   15.3600  -19.8680   27.1728 C   0  0  0  0  0  0  0  0  0  0  0  0
   14.0280  -19.6147   27.5101 C   0  0  0  0  0  0  0  0  0  0  0  0
   18.5433  -18.6203   28.0437 C   0  0  0  0  0  0  0  0  0  0  0  0
  1  3  1  0  0  0  0
  2  3  2  0  0  0  0
  2 12  1  0  0  0  0
  3  4  1  0  0  0  0
  4  6  1  0  0  0  0
  5 22  1  0  0  0  0
  6  7  1  0  0  0  0
  6  8  2  0  0  0  0
  7 12  2  0  0  0  0
  7  9  1  0  0  0  0
  9 10  1  0  0  0  0
  9 22  1  0  0  0  0
 10 11  1  0  0  0  0
 10 14  1  6  0  0  0
 11 13  1  0  0  0  0
 12 13  1  0  0  0  0
 14 15  1  0  0  0  0
 15 19  1  0  0  0  0
 16 17  2  0  0  0  0
 16 21  1  0  0  0  0
 17 18  1  0  0  0  0
 18 19  2  0  0  0  0
 19 20  1  0  0  0  0
 20 21  2  0  0  0  0
M  END
>  <CHROM.1>
-31.91459934,-75.14885194,-65.28932695,-107.70875509,18.78237987,-20.47530629
27.36179252,0.03061380,0.13553020,3.02069160

>  <Name>
ligand

>  <RI>
0

>  <Rbt.Current_Directory>
/home/itssahil/PROJECTS/Mol_Feturizer/Test_systems_manuscript/rnas/3sd3

>  <Rbt.Executable>
rbdock ($Id: //depot/dev/client3/rdock/2013.1/src/exe/rbdock.cxx#4 $)

>  <Rbt.Library>
libRbt.so (2013.1, Build901 2013/11/27)

>  <Rbt.Parameter_File>
/export/apps/rDock/src/rDock_2013.1_src/data/scripts/dock_solv.prm

>  <Rbt.Receptor>
prm/pocket_docking_4.prm

>  <SCORE>
-15.0978

>  <SCORE.INTER>
-13.8285

>  <SCORE.INTER.CONST>
1

>  <SCORE.INTER.POLAR>
0

>  <SCORE.INTER.ROT>
4

>  <SCORE.INTER.SOLV>
7.2121

>  <SCORE.INTER.VDW>
-17.8897

>  <SCORE.INTER.norm>
-0.628569

>  <SCORE.INTRA>
-1.26928

>  <SCORE.INTRA.DIHEDRAL>
-0.156239

>  <SCORE.INTRA.DIHEDRAL.0>
2.54655

>  <SCORE.INTRA.POLAR>
0

>  <SCORE.INTRA.POLAR.0>
0

>  <SCORE.INTRA.REPUL>
0

>  <SCORE.INTRA.REPUL.0>
0

>  <SCORE.INTRA.SOLV>
-0.213826

>  <SCORE.INTRA.SOLV.lig_0>
-56.4922

>  <SCORE.INTRA.VDW>
-1.08425

>  <SCORE.INTRA.VDW.0>
-0.696801

>  <SCORE.INTRA.norm>
-0.0576946

>  <SCORE.RESTR>
0

>  <SCORE.RESTR.CAVITY>
0

>  <SCORE.RESTR.norm>
0

>  <SCORE.SYSTEM>
0

>  <SCORE.SYSTEM.CONST>
0

>  <SCORE.SYSTEM.DIHEDRAL>
0

>  <SCORE.SYSTEM.SOLV>
0

>  <SCORE.SYSTEM.norm>
0

>  <SCORE.heavy>
22

>  <SCORE.norm>
-0.686263

>  <RMSD>
6.896

$$$$
ligand
 OpenBabel02271912143D
libRbt.so/2013.1/901 2013/11/27
 22 24  0  0  0  0  0  0  0  0999 V2000
   22.0166  -24.7187   21.2739 N   0  0  0  0  0  0  0  0  0  0  0  0
   21.4608  -23.3617   23.1667 N   0  0  0  0  0  0  0  0  0  0  0  0
   21.2563  -23.6541   21.8717 C   0  0  0  0  0  0  0  0  0  0  0  0
   20.3772  -22.9929   21.1290 N   0  0  0  0  0  0  0  0  0  0  0  0
   19.4946  -18.3753   23.3276 O   0  0  0  0  0  0  0  0  0  0  0  0
   19.6566  -21.9927   21.6692 C   0  0  0  0  0  0  0  0  0  0  0  0
   19.8560  -21.6470   23.0349 C   0  0  0  0  0  0  0  0  0  0  0  0
   18.7509  -21.3235   20.8772 O   0  0  0  0  0  0  0  0  0  0  0  0
   19.1396  -20.6120   23.7537 N   0  0  0  0  0  0  0  0  0  0  0  0
   18.7597  -20.9179   25.1390 C   0  0  2  0  0  0  0  0  0  0  0  0
   19.9460  -21.3924   25.9186 C   0  0  0  0  0  0  0  0  0  0  0  0
   20.7693  -22.3698   23.7610 C   0  0  0  0  0  0  0  0  0  0  0  0
   20.9790  -22.0524   25.1225 N   0  0  0  0  0  0  0  0  0  0  0  0
   17.6384  -21.9656   25.2599 C   0  0  0  0  0  0  0  0  0  0  0  0
   16.3779  -21.4222   24.7690 N   0  0  0  0  0  0  0  0  0  0  0  0
   13.5110  -19.8007   27.4621 C   0  0  0  0  0  0  0  0  0  0  0  0
   13.1077  -20.6813   26.4724 C   0  0  0  0  0  0  0  0  0  0  0  0
   14.0518  -21.2223   25.5784 C   0  0  0  0  0  0  0  0  0  0  0  0
   15.3889  -20.8715   25.6874 C   0  0  0  0  0  0  0  0  0  0  0  0
   15.7912  -19.9864   26.6832 C   0  0  0  0  0  0  0  0  0  0  0  0
   14.8536  -19.4522   27.5708 C   0  0  0  0  0  0  0  0  0  0  0  0
   18.7765  -19.3527   23.1995 C   0  0  0  0  0  0  0  0  0  0  0  0
  1  3  1  0  0  0  0
  2  3  2  0  0  0  0
  2 12  1  0  0  0  0
  3  4  1  0  0  0  0
  4  6  1  0  0  0  0
  5 22  1  0  0  0  0
  6  7  1  0  0  0  0
  6  8  2  0  0  0  0
  7 12  2  0  0  0  0
  7  9  1  0  0  0  0
  9 10  1  0  0  0  0
  9 22  1  0  0  0  0
 10 11  1  0  0  0  0
 10 14  1  6  0  0  0
 11 13  1  0  0  0  0
 12 13  1  0  0  0  0
 14 15  1  0  0  0  0
 15 19  1  0  0  0  0
 16 17  2  0  0  0  0
 16 21  1  0  0  0  0
 17 18  1  0  0  0  0
 18 19  2  0  0  0  0
 19 20  1  0  0  0  0
 20 21  2  0  0  0  0
M  END
>  <CHROM.1>
-93.30864090,-68.58372601,-97.61380916,-133.05637502,18.38013559,-21.36570108
24.13059947,-0.43196562,-0.53843851,1.87945425

>  <Name>
ligand

>  <RI>
0

>  <Rbt.Current_Directory>
/home/itssahil/PROJECTS/Mol_Feturizer/Test_systems_manuscript/rnas/3sd3

>  <Rbt.Executable>
rbdock ($Id: //depot/dev/client3/rdock/2013.1/src/exe/rbdock.cxx#4 $)

>  <Rbt.Library>
libRbt.so (2013.1, Build901 2013/11/27)

>  <Rbt.Parameter_File>
/export/apps/rDock/src/rDock_2013.1_src/data/scripts/dock_solv.prm

>  <Rbt.Receptor>
prm/pocket_docking_6.prm

>  <SCORE>
-15.3103

>  <SCORE.INTER>
-14.452

>  <SCORE.INTER.CONST>
1

>  <SCORE.INTER.POLAR>
0

>  <SCORE.INTER.ROT>
4

>  <SCORE.INTER.SOLV>
9.90002

>  <SCORE.INTER.VDW>
-19.2014

>  <SCORE.INTER.norm>
-0.65691

>  <SCORE.INTRA>
-0.858316

>  <SCORE.INTRA.DIHEDRAL>
0.198301

>  <SCORE.INTRA.DIHEDRAL.0>
2.54655

>  <SCORE.INTRA.POLAR>
0

>  <SCORE.INTRA.POLAR.0>
0

>  <SCORE.INTRA.REPUL>
0

>  <SCORE.INTRA.REPUL.0>
0

>  <SCORE.INTRA.SOLV>
-0.389175

>  <SCORE.INTRA.SOLV.lig_0>
-56.4922

>  <SCORE.INTRA.VDW>
-0.762879

>  <SCORE.INTRA.VDW.0>
-0.696801

>  <SCORE.INTRA.norm>
-0.0390144

>  <SCORE.RESTR>
0

>  <SCORE.RESTR.CAVITY>
0

>  <SCORE.RESTR.norm>
0

>  <SCORE.SYSTEM>
0

>  <SCORE.SYSTEM.CONST>
0

>  <SCORE.SYSTEM.DIHEDRAL>
0

>  <SCORE.SYSTEM.SOLV>
0

>  <SCORE.SYSTEM.norm>
0

>  <SCORE.heavy>
22

>  <SCORE.norm>
-0.695924

>  <RMSD>
6.901

$$$$
ligand
 OpenBabel02271912143D
libRbt.so/2013.1/901 2013/11/27
 22 24  0  0  0  0  0  0  0  0999 V2000
   23.9959  -22.4487   26.4524 N   0  0  0  0  0  0  0  0  0  0  0  0
   21.6056  -22.5493   26.3571 N   0  0  0  0  0  0  0  0  0  0  0  0
   22.7080  -22.2222   27.0513 C   0  0  0  0  0  0  0  0  0  0  0  0
   22.6457  -21.6984   28.2693 N   0  0  0  0  0  0  0  0  0  0  0  0
   19.0446  -22.6643   30.6872 O   0  0  0  0  0  0  0  0  0  0  0  0
   21.4504  -21.4796   28.8478 C   0  0  0  0  0  0  0  0  0  0  0  0
   20.2616  -21.8256   28.1468 C   0  0  0  0  0  0  0  0  0  0  0  0
   21.4137  -20.9344   30.1115 O   0  0  0  0  0  0  0  0  0  0  0  0
   18.9105  -21.6280   28.6334 N   0  0  0  0  0  0  0  0  0  0  0  0
   17.9190  -21.1727   27.6503 C   0  0  2  0  0  0  0  0  0  0  0  0
   17.9322  -22.0545   26.4409 C   0  0  0  0  0  0  0  0  0  0  0  0
   20.3818  -22.3539   26.8858 C   0  0  0  0  0  0  0  0  0  0  0  0
   19.2154  -22.6972   26.1645 N   0  0  0  0  0  0  0  0  0  0  0  0
   18.1139  -19.7137   27.1995 C   0  0  0  0  0  0  0  0  0  0  0  0
   16.8314  -19.0235   27.1382 N   0  0  0  0  0  0  0  0  0  0  0  0
   13.3017  -21.0844   25.9570 C   0  0  0  0  0  0  0  0  0  0  0  0
   13.3416  -20.4252   27.1741 C   0  0  0  0  0  0  0  0  0  0  0  0
   14.5066  -19.7404   27.5707 C   0  0  0  0  0  0  0  0  0  0  0  0
   15.6179  -19.7270   26.7415 C   0  0  0  0  0  0  0  0  0  0  0  0
   15.5747  -20.3902   25.5187 C   0  0  0  0  0  0  0  0  0  0  0  0
   14.4174  -21.0674   25.1258 C   0  0  0  0  0  0  0  0  0  0  0  0
   18.5047  -21.8281   29.9824 C   0  0  0  0  0  0  0  0  0  0  0  0
  1  3  1  0  0  0  0
  2  3  2  0  0  0  0
  2 12  1  0  0  0  0
  3  4  1  0  0  0  0
  4  6  1  0  0  0  0
  5 22  1  0  0  0  0
  6  7  1  0  0  0  0
  6  8  2  0  0  0  0
  7 12  2  0  0  0  0
  7  9  1  0  0  0  0
  9 10  1  0  0  0  0
  9 22  1  0  0  0  0
 10 11  1  0  0  0  0
 10 14  1  6  0  0  0
 11 13  1  0  0  0  0
 12 13  1  0  0  0  0
 14 15  1  0  0  0  0
 15 19  1  0  0  0  0
 16 17  2  0  0  0  0
 16 21  1  0  0  0  0
 17 18  1  0  0  0  0
 18 19  2  0  0  0  0
 19 20  1  0  0  0  0
 20 21  2  0  0  0  0
M  END
>  <CHROM.1>
-31.03100955,-137.08721602,-34.29455872,124.05258387,18.65105627,-21.33182612
27.53724013,-0.17491800,0.23867135,-1.64791489

>  <Name>
ligand

>  <RI>
0

>  <Rbt.Current_Directory>
/home/itssahil/PROJECTS/Mol_Feturizer/Test_systems_manuscript/rnas/3sd3

>  <Rbt.Executable>
rbdock ($Id: //depot/dev/client3/rdock/2013.1/src/exe/rbdock.cxx#4 $)

>  <Rbt.Library>
libRbt.so (2013.1, Build901 2013/11/27)

>  <Rbt.Parameter_File>
/export/apps/rDock/src/rDock_2013.1_src/data/scripts/dock_solv.prm

>  <Rbt.Receptor>
prm/pocket_docking_6.prm

>  <SCORE>
-15.828

>  <SCORE.INTER>
-17.1034

>  <SCORE.INTER.CONST>
1

>  <SCORE.INTER.POLAR>
0

>  <SCORE.INTER.ROT>
4

>  <SCORE.INTER.SOLV>
11.0872

>  <SCORE.INTER.VDW>
-21.3646

>  <SCORE.INTER.norm>
-0.777427

>  <SCORE.INTRA>
1.27537

>  <SCORE.INTRA.DIHEDRAL>
3.77975

>  <SCORE.INTRA.DIHEDRAL.0>
2.54655

>  <SCORE.INTRA.POLAR>
0

>  <SCORE.INTRA.POLAR.0>
0

>  <SCORE.INTRA.REPUL>
0

>  <SCORE.INTRA.REPUL.0>
0

>  <SCORE.INTRA.SOLV>
-0.746854

>  <SCORE.INTRA.SOLV.lig_0>
-56.4922

>  <SCORE.INTRA.VDW>
-0.241078

>  <SCORE.INTRA.VDW.0>
-0.696801

>  <SCORE.INTRA.norm>
0.0579714

>  <SCORE.RESTR>
0

>  <SCORE.RESTR.CAVITY>
0

>  <SCORE.RESTR.norm>
0

>  <SCORE.SYSTEM>
0

>  <SCORE.SYSTEM.CONST>
0

>  <SCORE.SYSTEM.DIHEDRAL>
0

>  <SCORE.SYSTEM.SOLV>
0

>  <SCORE.SYSTEM.norm>
0

>  <SCORE.heavy>
22

>  <SCORE.norm>
-0.719455

>  <RMSD>
6.906

$$$$
ligand
 OpenBabel02271912143D
libRbt.so/2013.1/901 2013/11/27
 22 24  0  0  0  0  0  0  0  0999 V2000
   24.5532  -21.4857   26.8290 N   0  0  0  0  0  0  0  0  0  0  0  0
   22.3429  -22.2390   26.3001 N   0  0  0  0  0  0  0  0  0  0  0  0
   23.1551  -21.5896   27.1502 C   0  0  0  0  0  0  0  0  0  0  0  0
   22.7087  -21.0428   28.2743 N   0  0  0  0  0  0  0  0  0  0  0  0
   18.0152  -21.2959   29.8472 O   0  0  0  0  0  0  0  0  0  0  0  0
   21.4043  -21.1299   28.5937 C   0  0  0  0  0  0  0  0  0  0  0  0
   20.5168  -21.8214   27.7227 C   0  0  0  0  0  0  0  0  0  0  0  0
   20.9671  -20.5533   29.7650 O   0  0  0  0  0  0  0  0  0  0  0  0
   19.0898  -21.9758   27.9254 N   0  0  0  0  0  0  0  0  0  0  0  0
   18.2410  -21.8577   26.7328 C   0  0  2  0  0  0  0  0  0  0  0  0
   18.7313  -22.7614   25.6450 C   0  0  0  0  0  0  0  0  0  0  0  0
   21.0279  -22.3589   26.5680 C   0  0  0  0  0  0  0  0  0  0  0  0
   20.1651  -23.0427   25.6811 N   0  0  0  0  0  0  0  0  0  0  0  0
   18.1433  -20.4252   26.1778 C   0  0  0  0  0  0  0  0  0  0  0  0
   17.0914  -19.6839   26.8627 N   0  0  0  0  0  0  0  0  0  0  0  0
   12.9964  -20.7653   26.4591 C   0  0  0  0  0  0  0  0  0  0  0  0
   13.9369  -21.2850   25.5857 C   0  0  0  0  0  0  0  0  0  0  0  0
   15.2942  -20.9319   25.7145 C   0  0  0  0  0  0  0  0  0  0  0  0
   15.6906  -20.0599   26.7171 C   0  0  0  0  0  0  0  0  0  0  0  0
   14.7430  -19.5392   27.5934 C   0  0  0  0  0  0  0  0  0  0  0  0
   13.3972  -19.8923   27.4657 C   0  0  0  0  0  0  0  0  0  0  0  0
   18.4782  -22.2119   29.1884 C   0  0  0  0  0  0  0  0  0  0  0  0
  1  3  1  0  0  0  0
  2  3  2  0  0  0  0
  2 12  1  0  0  0  0
  3  4  1  0  0  0  0
  4  6  1  0  0  0  0
  5 22  1  0  0  0  0
  6  7  1  0  0  0  0
  6  8  2  0  0  0  0
  7 12  2  0  0  0  0
  7  9  1  0  0  0  0
  9 10  1  0  0  0  0
  9 22  1  0  0  0  0
 10 11  1  0  0  0  0
 10 14  1  6  0  0  0
 11 13  1  0  0  0  0
 12 13  1  0  0  0  0
 14 15  1  0  0  0  0
 15 19  1  0  0  0  0
 16 17  2  0  0  0  0
 16 21  1  0  0  0  0
 17 18  1  0  0  0  0
 18 19  2  0  0  0  0
 19 20  1  0  0  0  0
 20 21  2  0  0  0  0
M  END
>  <CHROM.1>
96.23077551,-85.65843996,-66.25889693,-14.02995646,18.77985245,-21.28659730
27.27303754,-0.04027487,0.17258350,-1.90809865

>  <Name>
ligand

>  <RI>
0

>  <Rbt.Current_Directory>
/home/itssahil/PROJECTS/Mol_Feturizer/Test_systems_manuscript/rnas/3sd3

>  <Rbt.Executable>
rbdock ($Id: //depot/dev/client3/rdock/2013.1/src/exe/rbdock.cxx#4 $)

>  <Rbt.Library>
libRbt.so (2013.1, Build901 2013/11/27)

>  <Rbt.Parameter_File>
/export/apps/rDock/src/rDock_2013.1_src/data/scripts/dock_solv.prm

>  <Rbt.Receptor>
prm/pocket_docking_8.prm

>  <SCORE>
-17.1316

>  <SCORE.INTER>
-17.1435

>  <SCORE.INTER.CONST>
1

>  <SCORE.INTER.POLAR>
0

>  <SCORE.INTER.ROT>
4

>  <SCORE.INTER.SOLV>
9.07559

>  <SCORE.INTER.VDW>
-20.7209

>  <SCORE.INTER.norm>
-0.77925

>  <SCORE.INTRA>
0.0118798

>  <SCORE.INTRA.DIHEDRAL>
1.08919

>  <SCORE.INTRA.DIHEDRAL.0>
2.54655

>  <SCORE.INTRA.POLAR>
0

>  <SCORE.INTRA.POLAR.0>
0

>  <SCORE.INTRA.REPUL>
0

>  <SCORE.INTRA.REPUL.0>
0

>  <SCORE.INTRA.SOLV>
0.140732

>  <SCORE.INTRA.SOLV.lig_0>
-56.4922

>  <SCORE.INTRA.VDW>
-0.603083

>  <SCORE.INTRA.VDW.0>
-0.696801

>  <SCORE.INTRA.norm>
0.00053999

>  <SCORE.RESTR>
0

>  <SCORE.RESTR.CAVITY>
0

>  <SCORE.RESTR.norm>
0

>  <SCORE.SYSTEM>
0

>  <SCORE.SYSTEM.CONST>
0

>  <SCORE.SYSTEM.DIHEDRAL>
0

>  <SCORE.SYSTEM.SOLV>
0

>  <SCORE.SYSTEM.norm>
0

>  <SCORE.heavy>
22

>  <SCORE.norm>
-0.77871

>  <RMSD>
6.912

$$$$
ligand
 OpenBabel02271912143D
libRbt.so/2013.1/901 2013/11/27
 22 24  0  0  0  0  0  0  0  0999 V2000
   24.4950  -21.7029   26.8224 N   0  0  0  0  0  0  0  0  0  0  0  0
   22.2406  -22.3136   26.2955 N   0  0  0  0  0  0  0  0  0  0  0  0
   23.0979  -21.7478   27.1611 C   0  0  0  0  0  0  0  0  0  0  0  0
   22.6968  -21.2308   28.3159 N   0  0  0  0  0  0  0  0  0  0  0  0
   18.0470  -21.3076   29.9652 O   0  0  0  0  0  0  0  0  0  0  0  0
   21.3940  -21.2638   28.6520 C   0  0  0  0  0  0  0  0  0  0  0  0
   20.4591  -21.8666   27.7649 C   0  0  0  0  0  0  0  0  0  0  0  0
   21.0043  -20.7197   29.8552 O   0  0  0  0  0  0  0  0  0  0  0  0
   19.0288  -21.9549   27.9834 N   0  0  0  0  0  0  0  0  0  0  0  0
   18.1712  -21.7372   26.8112 C   0  0  2  0  0  0  0  0  0  0  0  0
   18.5977  -22.6142   25.6757 C   0  0  0  0  0  0  0  0  0  0  0  0
   20.9249  -22.3763   26.5788 C   0  0  0  0  0  0  0  0  0  0  0  0
   20.0148  -22.9719   25.6758 N   0  0  0  0  0  0  0  0  0  0  0  0
   18.1425  -20.2774   26.3236 C   0  0  0  0  0  0  0  0  0  0  0  0
   17.0307  -19.5581   26.9332 N   0  0  0  0  0  0  0  0  0  0  0  0
   13.0029  -20.7952   26.3437 C   0  0  0  0  0  0  0  0  0  0  0  0
   13.9882  -21.2093   25.4632 C   0  0  0  0  0  0  0  0  0  0  0  0
   15.3235  -20.8042   25.6532 C   0  0  0  0  0  0  0  0  0  0  0  0
   15.6534  -19.9868   26.7236 C   0  0  0  0  0  0  0  0  0  0  0  0
   14.6610  -19.5723   27.6070 C   0  0  0  0  0  0  0  0  0  0  0  0
   13.3370  -19.9769   27.4183 C   0  0  0  0  0  0  0  0  0  0  0  0
   18.4228  -22.2165   29.2440 C   0  0  0  0  0  0  0  0  0  0  0  0
  1  3  1  0  0  0  0
  2  3  2  0  0  0  0
  2 12  1  0  0  0  0
  3  4  1  0  0  0  0
  4  6  1  0  0  0  0
  5 22  1  0  0  0  0
  6  7  1  0  0  0  0
  6  8  2  0  0  0  0
  7 12  2  0  0  0  0
  7  9  1  0  0  0  0
  9 10  1  0  0  0  0
  9 22  1  0  0  0  0
 10 11  1  0  0  0  0
 10 14  1  6  0  0  0
 11 13  1  0  0  0  0
 12 13  1  0  0  0  0
 14 15  1  0  0  0  0
 15 19  1  0  0  0  0
 16 17  2  0  0  0  0
 16 21  1  0  0  0  0
 17 18  1  0  0  0  0
 18 19  2  0  0  0  0
 19 20  1  0  0  0  0
 20 21  2  0  0  0  0
M  END
>  <CHROM.1>
94.48226917,-92.89737257,-60.45407510,-19.63477395,18.73679422,-21.29893557
27.29813102,-0.05866264,0.19172961,-1.84976257

>  <Name>
ligand

>  <RI>
0

>  <Rbt.Current_Directory>
/home/itssahil/PROJECTS/Mol_Feturizer/Test_systems_manuscript/rnas/3sd3

>  <Rbt.Executable>
rbdock ($Id: //depot/dev/client3/rdock/2013.1/src/exe/rbdock.cxx#4 $)

>  <Rbt.Library>
libRbt.so (2013.1, Build901 2013/11/27)

>  <Rbt.Parameter_File>
/export/apps/rDock/src/rDock_2013.1_src/data/scripts/dock_solv.prm

>  <Rbt.Receptor>
prm/pocket_docking_6.prm

>  <SCORE>
-17.1099

>  <SCORE.INTER>
-17.5308

>  <SCORE.INTER.CONST>
1

>  <SCORE.INTER.POLAR>
0

>  <SCORE.INTER.ROT>
4

>  <SCORE.INTER.SOLV>
8.97261

>  <SCORE.INTER.VDW>
-20.9448

>  <SCORE.INTER.norm>
-0.796856

>  <SCORE.INTRA>
0.420922

>  <SCORE.INTRA.DIHEDRAL>
2.03703

>  <SCORE.INTRA.DIHEDRAL.0>
2.54655

>  <SCORE.INTRA.POLAR>
0

>  <SCORE.INTRA.POLAR.0>
0

>  <SCORE.INTRA.REPUL>
0

>  <SCORE.INTRA.REPUL.0>
0

>  <SCORE.INTRA.SOLV>
0.0087682

>  <SCORE.INTRA.SOLV.lig_0>
-56.4922

>  <SCORE.INTRA.VDW>
-0.601975

>  <SCORE.INTRA.VDW.0>
-0.696801

>  <SCORE.INTRA.norm>
0.0191328

>  <SCORE.RESTR>
0

>  <SCORE.RESTR.CAVITY>
0

>  <SCORE.RESTR.norm>
0

>  <SCORE.SYSTEM>
0

>  <SCORE.SYSTEM.CONST>
0

>  <SCORE.SYSTEM.DIHEDRAL>
0

>  <SCORE.SYSTEM.SOLV>
0

>  <SCORE.SYSTEM.norm>
0

>  <SCORE.heavy>
22

>  <SCORE.norm>
-0.777723

>  <RMSD>
6.913

$$$$
ligand
 OpenBabel02271912143D
libRbt.so/2013.1/901 2013/11/27
 22 24  0  0  0  0  0  0  0  0999 V2000
   24.1022  -22.1948   26.1842 N   0  0  0  0  0  0  0  0  0  0  0  0
   21.7288  -22.4755   26.0388 N   0  0  0  0  0  0  0  0  0  0  0  0
   22.7925  -22.1091   26.7726 C   0  0  0  0  0  0  0  0  0  0  0  0
   22.6727  -21.6719   28.0201 N   0  0  0  0  0  0  0  0  0  0  0  0
   18.2657  -21.3608   30.4516 O   0  0  0  0  0  0  0  0  0  0  0  0
   21.4563  -21.5853   28.5893 C   0  0  0  0  0  0  0  0  0  0  0  0
   20.3080  -21.9769   27.8460 C   0  0  0  0  0  0  0  0  0  0  0  0
   21.3597  -21.1279   29.8843 O   0  0  0  0  0  0  0  0  0  0  0  0
   18.9392  -21.9175   28.3192 N   0  0  0  0  0  0  0  0  0  0  0  0
   17.9279  -21.4782   27.3491 C   0  0  2  0  0  0  0  0  0  0  0  0
   18.0270  -22.2758   26.0864 C   0  0  0  0  0  0  0  0  0  0  0  0
   20.4864  -22.4112   26.5563 C   0  0  0  0  0  0  0  0  0  0  0  0
   19.3606  -22.7970   25.7933 N   0  0  0  0  0  0  0  0  0  0  0  0
   18.0127  -19.9823   26.9959 C   0  0  0  0  0  0  0  0  0  0  0  0
   16.9758  -19.6259   26.0351 N   0  0  0  0  0  0  0  0  0  0  0  0
   12.9112  -20.7041   26.6811 C   0  0  0  0  0  0  0  0  0  0  0  0
   13.5227  -19.7847   27.5168 C   0  0  0  0  0  0  0  0  0  0  0  0
   14.8675  -19.4228   27.3078 C   0  0  0  0  0  0  0  0  0  0  0  0
   15.5828  -19.9894   26.2638 C   0  0  0  0  0  0  0  0  0  0  0  0
   14.9655  -20.9131   25.4254 C   0  0  0  0  0  0  0  0  0  0  0  0
   13.6305  -21.2694   25.6328 C   0  0  0  0  0  0  0  0  0  0  0  0
   18.5326  -22.2360   29.6451 C   0  0  0  0  0  0  0  0  0  0  0  0
  1  3  1  0  0  0  0
  2  3  2  0  0  0  0
  2 12  1  0  0  0  0
  3  4  1  0  0  0  0
  4  6  1  0  0  0  0
  5 22  1  0  0  0  0
  6  7  1  0  0  0  0
  6  8  2  0  0  0  0
  7 12  2  0  0  0  0
  7  9  1  0  0  0  0
  9 10  1  0  0  0  0
  9 22  1  0  0  0  0
 10 11  1  0  0  0  0
 10 14  1  6  0  0  0
 11 13  1  0  0  0  0
 12 13  1  0  0  0  0
 14 15  1  0  0  0  0
 15 19  1  0  0  0  0
 16 17  2  0  0  0  0
 16 21  1  0  0  0  0
 17 18  1  0  0  0  0
 18 19  2  0  0  0  0
 19 20  1  0  0  0  0
 20 21  2  0  0  0  0
M  END
>  <CHROM.1>
103.04509128,-179.77233399,50.45680143,66.69685423,18.59155193,-21.35222741
27.31141028,-0.09388719,0.22138850,-1.68809838

>  <Name>
ligand

>  <RI>
0

>  <Rbt.Current_Directory>
/home/itssahil/PROJECTS/Mol_Feturizer/Test_systems_manuscript/rnas/3sd3

>  <Rbt.Executable>
rbdock ($Id: //depot/dev/client3/rdock/2013.1/src/exe/rbdock.cxx#4 $)

>  <Rbt.Library>
libRbt.so (2013.1, Build901 2013/11/27)

>  <Rbt.Parameter_File>
/export/apps/rDock/src/rDock_2013.1_src/data/scripts/dock_solv.prm

>  <Rbt.Receptor>
prm/pocket_docking_5.prm

>  <SCORE>
-18.722

>  <SCORE.INTER>
-17.7039

>  <SCORE.INTER.CONST>
1

>  <SCORE.INTER.POLAR>
0

>  <SCORE.INTER.ROT>
4

>  <SCORE.INTER.SOLV>
9.87448

>  <SCORE.INTER.VDW>
-21.3607

>  <SCORE.INTER.norm>
-0.804721

>  <SCORE.INTRA>
-1.01816

>  <SCORE.INTRA.DIHEDRAL>
-0.858541

>  <SCORE.INTRA.DIHEDRAL.0>
2.54655

>  <SCORE.INTRA.POLAR>
0

>  <SCORE.INTRA.POLAR.0>
0

>  <SCORE.INTRA.REPUL>
0

>  <SCORE.INTRA.REPUL.0>
0

>  <SCORE.INTRA.SOLV>
-0.348305

>  <SCORE.INTRA.SOLV.lig_0>
-56.4922

>  <SCORE.INTRA.VDW>
-0.414738

>  <SCORE.INTRA.VDW.0>
-0.696801

>  <SCORE.INTRA.norm>
-0.04628

>  <SCORE.RESTR>
0

>  <SCORE.RESTR.CAVITY>
0

>  <SCORE.RESTR.norm>
0

>  <SCORE.SYSTEM>
0

>  <SCORE.SYSTEM.CONST>
0

>  <SCORE.SYSTEM.DIHEDRAL>
0

>  <SCORE.SYSTEM.SOLV>
0

>  <SCORE.SYSTEM.norm>
0

>  <SCORE.heavy>
22

>  <SCORE.norm>
-0.851001

>  <RMSD>
6.914

$$$$
ligand
 OpenBabel02271912143D
libRbt.so/2013.1/901 2013/11/27
 22 24  0  0  0  0  0  0  0  0999 V2000
   20.9145  -24.3510   20.0533 N   0  0  0  0  0  0  0  0  0  0  0  0
   20.1544  -23.3890   22.1099 N   0  0  0  0  0  0  0  0  0  0  0  0
   20.3644  -23.2456   20.7910 C   0  0  0  0  0  0  0  0  0  0  0  0
   20.0811  -22.1187   20.1495 N   0  0  0  0  0  0  0  0  0  0  0  0
   18.1711  -17.9319   22.9518 O   0  0  0  0  0  0  0  0  0  0  0  0
   19.5668  -21.0723   20.8217 C   0  0  0  0  0  0  0  0  0  0  0  0
   19.3428  -21.1841   22.2223 C   0  0  0  0  0  0  0  0  0  0  0  0
   19.2811  -19.9153   20.1323 O   0  0  0  0  0  0  0  0  0  0  0  0
   18.7768  -20.1522   23.0685 N   0  0  0  0  0  0  0  0  0  0  0  0
   17.8341  -20.5961   24.1035 C   0  0  2  0  0  0  0  0  0  0  0  0
   18.4308  -21.6973   24.9230 C   0  0  0  0  0  0  0  0  0  0  0  0
   19.6427  -22.3751   22.8348 C   0  0  0  0  0  0  0  0  0  0  0  0
   19.4203  -22.5149   24.2239 N   0  0  0  0  0  0  0  0  0  0  0  0
   16.4795  -21.0723   23.5485 C   0  0  0  0  0  0  0  0  0  0  0  0
   15.7221  -21.7687   24.5812 N   0  0  0  0  0  0  0  0  0  0  0  0
   13.6214  -19.6012   27.5796 C   0  0  0  0  0  0  0  0  0  0  0  0
   12.9376  -20.4797   26.7561 C   0  0  0  0  0  0  0  0  0  0  0  0
   13.6272  -21.2009   25.7622 C   0  0  0  0  0  0  0  0  0  0  0  0
   14.9943  -21.0303   25.6059 C   0  0  0  0  0  0  0  0  0  0  0  0
   15.6789  -20.1467   26.4352 C   0  0  0  0  0  0  0  0  0  0  0  0
   14.9936  -19.4336   27.4222 C   0  0  0  0  0  0  0  0  0  0  0  0
   19.0628  -18.7639   22.9438 C   0  0  0  0  0  0  0  0  0  0  0  0
  1  3  1  0  0  0  0
  2  3  2  0  0  0  0
  2 12  1  0  0  0  0
  3  4  1  0  0  0  0
  4  6  1  0  0  0  0
  5 22  1  0  0  0  0
  6  7  1  0  0  0  0
  6  8  2  0  0  0  0
  7 12  2  0  0  0  0
  7  9  1  0  0  0  0
  9 10  1  0  0  0  0
  9 22  1  0  0  0  0
 10 11  1  0  0  0  0
 10 14  1  6  0  0  0
 11 13  1  0  0  0  0
 12 13  1  0  0  0  0
 14 15  1  0  0  0  0
 15 19  1  0  0  0  0
 16 17  2  0  0  0  0
 16 21  1  0  0  0  0
 17 18  1  0  0  0  0
 18 19  2  0  0  0  0
 19 20  1  0  0  0  0
 20 21  2  0  0  0  0
M  END
>  <CHROM.1>
133.10284274,167.24477331,79.15798463,121.79260901,17.78295479,-21.07257873
23.49141214,0.15574471,-0.78471704,3.01539756

>  <Name>
ligand

>  <RI>
0

>  <Rbt.Current_Directory>
/home/itssahil/PROJECTS/Mol_Feturizer/Test_systems_manuscript/rnas/3sd3

>  <Rbt.Executable>
rbdock ($Id: //depot/dev/client3/rdock/2013.1/src/exe/rbdock.cxx#4 $)

>  <Rbt.Library>
libRbt.so (2013.1, Build901 2013/11/27)

>  <Rbt.Parameter_File>
/export/apps/rDock/src/rDock_2013.1_src/data/scripts/dock_solv.prm

>  <Rbt.Receptor>
prm/pocket_docking_8.prm

>  <SCORE>
-16.1314

>  <SCORE.INTER>
-16.2474

>  <SCORE.INTER.CONST>
1

>  <SCORE.INTER.POLAR>
0

>  <SCORE.INTER.ROT>
4

>  <SCORE.INTER.SOLV>
17.5891

>  <SCORE.INTER.VDW>
-22.9613

>  <SCORE.INTER.norm>
-0.73852

>  <SCORE.INTRA>
0.116005

>  <SCORE.INTRA.DIHEDRAL>
-0.0705177

>  <SCORE.INTRA.DIHEDRAL.0>
2.54655

>  <SCORE.INTRA.POLAR>
0

>  <SCORE.INTRA.POLAR.0>
0

>  <SCORE.INTRA.REPUL>
0

>  <SCORE.INTRA.REPUL.0>
0

>  <SCORE.INTRA.SOLV>
-0.200975

>  <SCORE.INTRA.SOLV.lig_0>
-56.4922

>  <SCORE.INTRA.VDW>
0.251751

>  <SCORE.INTRA.VDW.0>
-0.696801

>  <SCORE.INTRA.norm>
0.00527295

>  <SCORE.RESTR>
0

>  <SCORE.RESTR.CAVITY>
0

>  <SCORE.RESTR.norm>
0

>  <SCORE.SYSTEM>
0

>  <SCORE.SYSTEM.CONST>
0

>  <SCORE.SYSTEM.DIHEDRAL>
0

>  <SCORE.SYSTEM.SOLV>
0

>  <SCORE.SYSTEM.norm>
0

>  <SCORE.heavy>
22

>  <SCORE.norm>
-0.733247

>  <RMSD>
6.917

$$$$
ligand
 OpenBabel02271912143D
libRbt.so/2013.1/901 2013/11/27
 22 24  0  0  0  0  0  0  0  0999 V2000
   24.1786  -22.0795   26.1920 N   0  0  0  0  0  0  0  0  0  0  0  0
   21.8223  -22.4389   25.9648 N   0  0  0  0  0  0  0  0  0  0  0  0
   22.8483  -22.0469   26.7379 C   0  0  0  0  0  0  0  0  0  0  0  0
   22.6730  -21.6318   27.9865 N   0  0  0  0  0  0  0  0  0  0  0  0
   18.0425  -21.5230   30.2241 O   0  0  0  0  0  0  0  0  0  0  0  0
   21.4365  -21.5949   28.5163 C   0  0  0  0  0  0  0  0  0  0  0  0
   20.3272  -22.0148   27.7305 C   0  0  0  0  0  0  0  0  0  0  0  0
   21.2822  -21.1595   29.8133 O   0  0  0  0  0  0  0  0  0  0  0  0
   18.9425  -22.0088   28.1591 N   0  0  0  0  0  0  0  0  0  0  0  0
   17.9486  -21.5905   27.1620 C   0  0  2  0  0  0  0  0  0  0  0  0
   18.1162  -22.3663   25.8929 C   0  0  0  0  0  0  0  0  0  0  0  0
   20.5623  -22.4243   26.4418 C   0  0  0  0  0  0  0  0  0  0  0  0
   19.4759  -22.8374   25.6371 N   0  0  0  0  0  0  0  0  0  0  0  0
   17.9931  -20.0877   26.8314 C   0  0  0  0  0  0  0  0  0  0  0  0
   16.9094  -19.7334   25.9232 N   0  0  0  0  0  0  0  0  0  0  0  0
   12.8795  -20.7544   26.8280 C   0  0  0  0  0  0  0  0  0  0  0  0
   13.5266  -21.3698   25.7697 C   0  0  0  0  0  0  0  0  0  0  0  0
   14.8608  -21.0371   25.4655 C   0  0  0  0  0  0  0  0  0  0  0  0
   15.5286  -20.0894   26.2261 C   0  0  0  0  0  0  0  0  0  0  0  0
   14.8757  -19.4726   27.2893 C   0  0  0  0  0  0  0  0  0  0  0  0
   13.5527  -19.8055   27.5911 C   0  0  0  0  0  0  0  0  0  0  0  0
   18.5043  -22.3598   29.4666 C   0  0  0  0  0  0  0  0  0  0  0  0
  1  3  1  0  0  0  0
  2  3  2  0  0  0  0
  2 12  1  0  0  0  0
  3  4  1  0  0  0  0
  4  6  1  0  0  0  0
  5 22  1  0  0  0  0
  6  7  1  0  0  0  0
  6  8  2  0  0  0  0
  7 12  2  0  0  0  0
  7  9  1  0  0  0  0
  9 10  1  0  0  0  0
  9 22  1  0  0  0  0
 10 11  1  0  0  0  0
 10 14  1  6  0  0  0
 11 13  1  0  0  0  0
 12 13  1  0  0  0  0
 14 15  1  0  0  0  0
 15 19  1  0  0  0  0
 16 17  2  0  0  0  0
 16 21  1  0  0  0  0
 17 18  1  0  0  0  0
 18 19  2  0  0  0  0
 19 20  1  0  0  0  0
 20 21  2  0  0  0  0
M  END
>  <CHROM.1>
111.22471020,-175.27162078,52.33325668,-111.58192546,18.58348396,-21.40385956
27.23558600,-0.07639669,0.20320923,-1.66885692

>  <Name>
ligand

>  <RI>
0

>  <Rbt.Current_Directory>
/home/itssahil/PROJECTS/Mol_Feturizer/Test_systems_manuscript/rnas/3sd3

>  <Rbt.Executable>
rbdock ($Id: //depot/dev/client3/rdock/2013.1/src/exe/rbdock.cxx#4 $)

>  <Rbt.Library>
libRbt.so (2013.1, Build901 2013/11/27)

>  <Rbt.Parameter_File>
/export/apps/rDock/src/rDock_2013.1_src/data/scripts/dock_solv.prm

>  <Rbt.Receptor>
prm/pocket_docking_4.prm

>  <SCORE>
-18.7424

>  <SCORE.INTER>
-17.6095

>  <SCORE.INTER.CONST>
1

>  <SCORE.INTER.POLAR>
0

>  <SCORE.INTER.ROT>
4

>  <SCORE.INTER.SOLV>
9.92499

>  <SCORE.INTER.VDW>
-21.3146

>  <SCORE.INTER.norm>
-0.80043

>  <SCORE.INTRA>
-1.13291

>  <SCORE.INTRA.DIHEDRAL>
-0.790308

>  <SCORE.INTRA.DIHEDRAL.0>
2.54655

>  <SCORE.INTRA.POLAR>
0

>  <SCORE.INTRA.POLAR.0>
0

>  <SCORE.INTRA.REPUL>
0

>  <SCORE.INTRA.REPUL.0>
0

>  <SCORE.INTRA.SOLV>
-0.452863

>  <SCORE.INTRA.SOLV.lig_0>
-56.4922

>  <SCORE.INTRA.VDW>
-0.511323

>  <SCORE.INTRA.VDW.0>
-0.696801

>  <SCORE.INTRA.norm>
-0.0514958

>  <SCORE.RESTR>
0

>  <SCORE.RESTR.CAVITY>
0

>  <SCORE.RESTR.norm>
0

>  <SCORE.SYSTEM>
0

>  <SCORE.SYSTEM.CONST>
0

>  <SCORE.SYSTEM.DIHEDRAL>
0

>  <SCORE.SYSTEM.SOLV>
0

>  <SCORE.SYSTEM.norm>
0

>  <SCORE.heavy>
22

>  <SCORE.norm>
-0.851926

>  <RMSD>
6.920

$$$$
ligand
 OpenBabel02271912143D
libRbt.so/2013.1/901 2013/11/27
 22 24  0  0  0  0  0  0  0  0999 V2000
   24.1191  -22.1474   26.0959 N   0  0  0  0  0  0  0  0  0  0  0  0
   21.7477  -22.4510   25.9649 N   0  0  0  0  0  0  0  0  0  0  0  0
   22.8140  -22.0904   26.6978 C   0  0  0  0  0  0  0  0  0  0  0  0
   22.7008  -21.6846   27.9565 N   0  0  0  0  0  0  0  0  0  0  0  0
   18.1811  -21.4928   30.3914 O   0  0  0  0  0  0  0  0  0  0  0  0
   21.4887  -21.6252   28.5383 C   0  0  0  0  0  0  0  0  0  0  0  0
   20.3381  -22.0117   27.7960 C   0  0  0  0  0  0  0  0  0  0  0  0
   21.3990  -21.2000   29.8447 O   0  0  0  0  0  0  0  0  0  0  0  0
   18.9731  -21.9789   28.2826 N   0  0  0  0  0  0  0  0  0  0  0  0
   17.9482  -21.5278   27.3323 C   0  0  2  0  0  0  0  0  0  0  0  0
   18.0445  -22.2938   26.0500 C   0  0  0  0  0  0  0  0  0  0  0  0
   20.5095  -22.4130   26.4947 C   0  0  0  0  0  0  0  0  0  0  0  0
   19.3810  -22.7929   25.7326 N   0  0  0  0  0  0  0  0  0  0  0  0
   18.0134  -20.0230   27.0144 C   0  0  0  0  0  0  0  0  0  0  0  0
   16.9784  -19.6596   26.0542 N   0  0  0  0  0  0  0  0  0  0  0  0
   12.9145  -20.7336   26.7118 C   0  0  0  0  0  0  0  0  0  0  0  0
   13.6319  -21.3374   25.6928 C   0  0  0  0  0  0  0  0  0  0  0  0
   14.9777  -20.9871   25.4704 C   0  0  0  0  0  0  0  0  0  0  0  0
   15.5865  -20.0337   26.2724 C   0  0  0  0  0  0  0  0  0  0  0  0
   14.8630  -19.4287   27.2959 C   0  0  0  0  0  0  0  0  0  0  0  0
   13.5285  -19.7790   27.5165 C   0  0  0  0  0  0  0  0  0  0  0  0
   18.5821  -22.3335   29.6040 C   0  0  0  0  0  0  0  0  0  0  0  0
  1  3  1  0  0  0  0
  2  3  2  0  0  0  0
  2 12  1  0  0  0  0
  3  4  1  0  0  0  0
  4  6  1  0  0  0  0
  5 22  1  0  0  0  0
  6  7  1  0  0  0  0
  6  8  2  0  0  0  0
  7 12  2  0  0  0  0
  7  9  1  0  0  0  0
  9 10  1  0  0  0  0
  9 22  1  0  0  0  0
 10 11  1  0  0  0  0
 10 14  1  6  0  0  0
 11 13  1  0  0  0  0
 12 13  1  0  0  0  0
 14 15  1  0  0  0  0
 15 19  1  0  0  0  0
 16 17  2  0  0  0  0
 16 21  1  0  0  0  0
 17 18  1  0  0  0  0
 18 19  2  0  0  0  0
 19 20  1  0  0  0  0
 20 21  2  0  0  0  0
M  END
>  <CHROM.1>
110.68395328,179.25860534,51.26207973,-110.54867680,18.60435733,-21.38599566
27.28336632,-0.08589620,0.21358785,-1.66265347

>  <Name>
ligand

>  <RI>
0

>  <Rbt.Current_Directory>
/home/itssahil/PROJECTS/Mol_Feturizer/Test_systems_manuscript/rnas/3sd3

>  <Rbt.Executable>
rbdock ($Id: //depot/dev/client3/rdock/2013.1/src/exe/rbdock.cxx#4 $)

>  <Rbt.Library>
libRbt.so (2013.1, Build901 2013/11/27)

>  <Rbt.Parameter_File>
/export/apps/rDock/src/rDock_2013.1_src/data/scripts/dock_solv.prm

>  <Rbt.Receptor>
prm/pocket_docking_8.prm

>  <SCORE>
-18.6934

>  <SCORE.INTER>
-17.7484

>  <SCORE.INTER.CONST>
1

>  <SCORE.INTER.POLAR>
0

>  <SCORE.INTER.ROT>
4

>  <SCORE.INTER.SOLV>
9.7862

>  <SCORE.INTER.VDW>
-21.361

>  <SCORE.INTER.norm>
-0.806744

>  <SCORE.INTRA>
-0.944987

>  <SCORE.INTRA.DIHEDRAL>
-0.861218

>  <SCORE.INTRA.DIHEDRAL.0>
2.54655

>  <SCORE.INTRA.POLAR>
0

>  <SCORE.INTRA.POLAR.0>
0

>  <SCORE.INTRA.REPUL>
0

>  <SCORE.INTRA.REPUL.0>
0

>  <SCORE.INTRA.SOLV>
-0.356306

>  <SCORE.INTRA.SOLV.lig_0>
-56.4922

>  <SCORE.INTRA.VDW>
-0.336225

>  <SCORE.INTRA.VDW.0>
-0.696801

>  <SCORE.INTRA.norm>
-0.0429539

>  <SCORE.RESTR>
0

>  <SCORE.RESTR.CAVITY>
0

>  <SCORE.RESTR.norm>
0

>  <SCORE.SYSTEM>
0

>  <SCORE.SYSTEM.CONST>
0

>  <SCORE.SYSTEM.DIHEDRAL>
0

>  <SCORE.SYSTEM.SOLV>
0

>  <SCORE.SYSTEM.norm>
0

>  <SCORE.heavy>
22

>  <SCORE.norm>
-0.849698

>  <RMSD>
6.920

$$$$
ligand
 OpenBabel02271912143D
libRbt.so/2013.1/901 2013/11/27
 22 24  0  0  0  0  0  0  0  0999 V2000
   23.6227  -21.4107   25.5395 N   0  0  0  0  0  0  0  0  0  0  0  0
   22.2784  -20.0339   26.9644 N   0  0  0  0  0  0  0  0  0  0  0  0
   22.5388  -20.4837   25.7258 C   0  0  0  0  0  0  0  0  0  0  0  0
   21.8292  -20.1000   24.6718 N   0  0  0  0  0  0  0  0  0  0  0  0
   18.2614  -16.8630   24.6977 O   0  0  0  0  0  0  0  0  0  0  0  0
   20.8117  -19.2325   24.8248 C   0  0  0  0  0  0  0  0  0  0  0  0
   20.5152  -18.7255   26.1207 C   0  0  0  0  0  0  0  0  0  0  0  0
   20.0910  -18.8515   23.7153 O   0  0  0  0  0  0  0  0  0  0  0  0
   19.4403  -17.8064   26.4385 N   0  0  0  0  0  0  0  0  0  0  0  0
   18.7120  -18.0556   27.6892 C   0  0  2  0  0  0  0  0  0  0  0  0
   19.6642  -18.1881   28.8365 C   0  0  0  0  0  0  0  0  0  0  0  0
   21.2728  -19.1631   27.1781 C   0  0  0  0  0  0  0  0  0  0  0  0
   20.9923  -18.6817   28.4774 N   0  0  0  0  0  0  0  0  0  0  0  0
   17.8127  -19.3043   27.6475 C   0  0  0  0  0  0  0  0  0  0  0  0
   16.9493  -19.2716   26.4734 N   0  0  0  0  0  0  0  0  0  0  0  0
   12.9884  -20.8193   26.6034 C   0  0  0  0  0  0  0  0  0  0  0  0
   13.3946  -19.8827   27.5390 C   0  0  0  0  0  0  0  0  0  0  0  0
   14.7041  -19.3657   27.5009 C   0  0  0  0  0  0  0  0  0  0  0  0
   15.5904  -19.7965   26.5254 C   0  0  0  0  0  0  0  0  0  0  0  0
   15.1792  -20.7378   25.5864 C   0  0  0  0  0  0  0  0  0  0  0  0
   13.8790  -21.2481   25.6242 C   0  0  0  0  0  0  0  0  0  0  0  0
   19.0486  -16.7126   25.6169 C   0  0  0  0  0  0  0  0  0  0  0  0
  1  3  1  0  0  0  0
  2  3  2  0  0  0  0
  2 12  1  0  0  0  0
  3  4  1  0  0  0  0
  4  6  1  0  0  0  0
  5 22  1  0  0  0  0
  6  7  1  0  0  0  0
  6  8  2  0  0  0  0
  7 12  2  0  0  0  0
  7  9  1  0  0  0  0
  9 10  1  0  0  0  0
  9 22  1  0  0  0  0
 10 11  1  0  0  0  0
 10 14  1  6  0  0  0
 11 13  1  0  0  0  0
 12 13  1  0  0  0  0
 14 15  1  0  0  0  0
 15 19  1  0  0  0  0
 16 17  2  0  0  0  0
 16 21  1  0  0  0  0
 17 18  1  0  0  0  0
 18 19  2  0  0  0  0
 19 20  1  0  0  0  0
 20 21  2  0  0  0  0
M  END
>  <CHROM.1>
85.32930777,-51.16592779,-144.72994315,53.04329884,18.72930988,-19.24644763
26.33247168,0.03259345,-0.10147005,-2.21955275

>  <Name>
ligand

>  <RI>
0

>  <Rbt.Current_Directory>
/home/itssahil/PROJECTS/Mol_Feturizer/Test_systems_manuscript/rnas/3sd3

>  <Rbt.Executable>
rbdock ($Id: //depot/dev/client3/rdock/2013.1/src/exe/rbdock.cxx#4 $)

>  <Rbt.Library>
libRbt.so (2013.1, Build901 2013/11/27)

>  <Rbt.Parameter_File>
/export/apps/rDock/src/rDock_2013.1_src/data/scripts/dock_solv.prm

>  <Rbt.Receptor>
prm/pocket_docking_4.prm

>  <SCORE>
-12.1349

>  <SCORE.INTER>
-11.7176

>  <SCORE.INTER.CONST>
1

>  <SCORE.INTER.POLAR>
0

>  <SCORE.INTER.ROT>
4

>  <SCORE.INTER.SOLV>
4.42282

>  <SCORE.INTER.VDW>
-15.5527

>  <SCORE.INTER.norm>
-0.532618

>  <SCORE.INTRA>
-0.417329

>  <SCORE.INTRA.DIHEDRAL>
0.108969

>  <SCORE.INTRA.DIHEDRAL.0>
2.54655

>  <SCORE.INTRA.POLAR>
0

>  <SCORE.INTRA.POLAR.0>
0

>  <SCORE.INTRA.REPUL>
0

>  <SCORE.INTRA.REPUL.0>
0

>  <SCORE.INTRA.SOLV>
0.795996

>  <SCORE.INTRA.SOLV.lig_0>
-56.4922

>  <SCORE.INTRA.VDW>
-0.869812

>  <SCORE.INTRA.VDW.0>
-0.696801

>  <SCORE.INTRA.norm>
-0.0189695

>  <SCORE.RESTR>
0

>  <SCORE.RESTR.CAVITY>
0

>  <SCORE.RESTR.norm>
0

>  <SCORE.SYSTEM>
0

>  <SCORE.SYSTEM.CONST>
0

>  <SCORE.SYSTEM.DIHEDRAL>
0

>  <SCORE.SYSTEM.SOLV>
0

>  <SCORE.SYSTEM.norm>
0

>  <SCORE.heavy>
22

>  <SCORE.norm>
-0.551588

>  <RMSD>
6.922

$$$$
ligand
 OpenBabel02271912143D
libRbt.so/2013.1/901 2013/11/27
 22 24  0  0  0  0  0  0  0  0999 V2000
   24.5187  -21.6797   26.7839 N   0  0  0  0  0  0  0  0  0  0  0  0
   22.2613  -22.3098   26.2938 N   0  0  0  0  0  0  0  0  0  0  0  0
   23.1267  -21.7309   27.1424 C   0  0  0  0  0  0  0  0  0  0  0  0
   22.7382  -21.2065   28.2982 N   0  0  0  0  0  0  0  0  0  0  0  0
   18.0964  -21.3003   30.0052 O   0  0  0  0  0  0  0  0  0  0  0  0
   21.4405  -21.2451   28.6527 C   0  0  0  0  0  0  0  0  0  0  0  0
   20.4974  -21.8618   27.7840 C   0  0  0  0  0  0  0  0  0  0  0  0
   21.0639  -20.6932   29.8565 O   0  0  0  0  0  0  0  0  0  0  0  0
   19.0709  -21.9576   28.0232 N   0  0  0  0  0  0  0  0  0  0  0  0
   18.1956  -21.7557   26.8612 C   0  0  2  0  0  0  0  0  0  0  0  0
   18.6122  -22.6398   25.7274 C   0  0  0  0  0  0  0  0  0  0  0  0
   20.9501  -22.3787   26.5960 C   0  0  0  0  0  0  0  0  0  0  0  0
   20.0315  -22.9882   25.7109 N   0  0  0  0  0  0  0  0  0  0  0  0
   18.1504  -20.3005   26.3614 C   0  0  0  0  0  0  0  0  0  0  0  0
   17.0374  -19.5856   26.9740 N   0  0  0  0  0  0  0  0  0  0  0  0
   13.0257  -20.8390   26.3133 C   0  0  0  0  0  0  0  0  0  0  0  0
   13.3292  -20.0425   27.4046 C   0  0  0  0  0  0  0  0  0  0  0  0
   14.6550  -19.6233   27.6285 C   0  0  0  0  0  0  0  0  0  0  0  0
   15.6602  -20.0103   26.7553 C   0  0  0  0  0  0  0  0  0  0  0  0
   15.3521  -20.8108   25.6593 C   0  0  0  0  0  0  0  0  0  0  0  0
   14.0360  -21.2240   25.4374 C   0  0  0  0  0  0  0  0  0  0  0  0
   18.4843  -22.2122   29.2943 C   0  0  0  0  0  0  0  0  0  0  0  0
  1  3  1  0  0  0  0
  2  3  2  0  0  0  0
  2 12  1  0  0  0  0
  3  4  1  0  0  0  0
  4  6  1  0  0  0  0
  5 22  1  0  0  0  0
  6  7  1  0  0  0  0
  6  8  2  0  0  0  0
  7 12  2  0  0  0  0
  7  9  1  0  0  0  0
  9 10  1  0  0  0  0
  9 22  1  0  0  0  0
 10 11  1  0  0  0  0
 10 14  1  6  0  0  0
 11 13  1  0  0  0  0
 12 13  1  0  0  0  0
 14 15  1  0  0  0  0
 15 19  1  0  0  0  0
 16 17  2  0  0  0  0
 16 21  1  0  0  0  0
 17 18  1  0  0  0  0
 18 19  2  0  0  0  0
 19 20  1  0  0  0  0
 20 21  2  0  0  0  0
M  END
>  <CHROM.1>
95.45615352,-93.24938886,-61.81904810,159.88645456,18.76470782,-21.30670225
27.31246001,-0.06023031,0.18551608,-1.85150507

>  <Name>
ligand

>  <RI>
0

>  <Rbt.Current_Directory>
/home/itssahil/PROJECTS/Mol_Feturizer/Test_systems_manuscript/rnas/3sd3

>  <Rbt.Executable>
rbdock ($Id: //depot/dev/client3/rdock/2013.1/src/exe/rbdock.cxx#4 $)

>  <Rbt.Library>
libRbt.so (2013.1, Build901 2013/11/27)

>  <Rbt.Parameter_File>
/export/apps/rDock/src/rDock_2013.1_src/data/scripts/dock_solv.prm

>  <Rbt.Receptor>
prm/pocket_docking_6.prm

>  <SCORE>
-17.122

>  <SCORE.INTER>
-17.608

>  <SCORE.INTER.CONST>
1

>  <SCORE.INTER.POLAR>
0

>  <SCORE.INTER.ROT>
4

>  <SCORE.INTER.SOLV>
8.97694

>  <SCORE.INTER.VDW>
-20.9976

>  <SCORE.INTER.norm>
-0.800363

>  <SCORE.INTRA>
0.486002

>  <SCORE.INTRA.DIHEDRAL>
2.08657

>  <SCORE.INTRA.DIHEDRAL.0>
2.54655

>  <SCORE.INTRA.POLAR>
0

>  <SCORE.INTRA.POLAR.0>
0

>  <SCORE.INTRA.REPUL>
0

>  <SCORE.INTRA.REPUL.0>
0

>  <SCORE.INTRA.SOLV>
0.00482829

>  <SCORE.INTRA.SOLV.lig_0>
-56.4922

>  <SCORE.INTRA.VDW>
-0.559697

>  <SCORE.INTRA.VDW.0>
-0.696801

>  <SCORE.INTRA.norm>
0.022091

>  <SCORE.RESTR>
0

>  <SCORE.RESTR.CAVITY>
0

>  <SCORE.RESTR.norm>
0

>  <SCORE.SYSTEM>
0

>  <SCORE.SYSTEM.CONST>
0

>  <SCORE.SYSTEM.DIHEDRAL>
0

>  <SCORE.SYSTEM.SOLV>
0

>  <SCORE.SYSTEM.norm>
0

>  <SCORE.heavy>
22

>  <SCORE.norm>
-0.778272

>  <RMSD>
6.922

$$$$
ligand
 OpenBabel02271912143D
libRbt.so/2013.1/901 2013/11/27
 22 24  0  0  0  0  0  0  0  0999 V2000
   24.1856  -22.1458   26.1485 N   0  0  0  0  0  0  0  0  0  0  0  0
   21.8207  -22.4738   25.9688 N   0  0  0  0  0  0  0  0  0  0  0  0
   22.8667  -22.0915   26.7197 C   0  0  0  0  0  0  0  0  0  0  0  0
   22.7213  -21.6668   27.9688 N   0  0  0  0  0  0  0  0  0  0  0  0
   18.1880  -21.4727   30.3127 O   0  0  0  0  0  0  0  0  0  0  0  0
   21.4959  -21.6097   28.5221 C   0  0  0  0  0  0  0  0  0  0  0  0
   20.3659  -22.0188   27.7603 C   0  0  0  0  0  0  0  0  0  0  0  0
   21.3726  -21.1646   29.8191 O   0  0  0  0  0  0  0  0  0  0  0  0
   18.9900  -21.9911   28.2155 N   0  0  0  0  0  0  0  0  0  0  0  0
   17.9829  -21.5650   27.2352 C   0  0  2  0  0  0  0  0  0  0  0  0
   18.1152  -22.3504   25.9678 C   0  0  0  0  0  0  0  0  0  0  0  0
   20.5705  -22.4391   26.4699 C   0  0  0  0  0  0  0  0  0  0  0  0
   19.4631  -22.8418   25.6888 N   0  0  0  0  0  0  0  0  0  0  0  0
   18.0416  -20.0649   26.8945 C   0  0  0  0  0  0  0  0  0  0  0  0
   16.9784  -19.7121   25.9617 N   0  0  0  0  0  0  0  0  0  0  0  0
   12.9188  -20.6885   26.7789 C   0  0  0  0  0  0  0  0  0  0  0  0
   13.5735  -19.7499   27.5586 C   0  0  0  0  0  0  0  0  0  0  0  0
   14.9170  -19.4215   27.2928 C   0  0  0  0  0  0  0  0  0  0  0  0
   15.5875  -20.0405   26.2488 C   0  0  0  0  0  0  0  0  0  0  0  0
   14.9268  -20.9833   25.4667 C   0  0  0  0  0  0  0  0  0  0  0  0
   13.5933  -21.3064   25.7304 C   0  0  0  0  0  0  0  0  0  0  0  0
   18.5723  -22.3284   29.5333 C   0  0  0  0  0  0  0  0  0  0  0  0
  1  3  1  0  0  0  0
  2  3  2  0  0  0  0
  2 12  1  0  0  0  0
  3  4  1  0  0  0  0
  4  6  1  0  0  0  0
  5 22  1  0  0  0  0
  6  7  1  0  0  0  0
  6  8  2  0  0  0  0
  7 12  2  0  0  0  0
  7  9  1  0  0  0  0
  9 10  1  0  0  0  0
  9 22  1  0  0  0  0
 10 11  1  0  0  0  0
 10 14  1  6  0  0  0
 11 13  1  0  0  0  0
 12 13  1  0  0  0  0
 14 15  1  0  0  0  0
 15 19  1  0  0  0  0
 16 17  2  0  0  0  0
 16 21  1  0  0  0  0
 17 18  1  0  0  0  0
 18 19  2  0  0  0  0
 19 20  1  0  0  0  0
 20 21  2  0  0  0  0
M  END
>  <CHROM.1>
108.20802456,-177.60803092,53.31266910,67.39699683,18.62834006,-21.39098727
27.25622721,-0.07848241,0.21512156,-1.67650955

>  <Name>
ligand

>  <RI>
0

>  <Rbt.Current_Directory>
/home/itssahil/PROJECTS/Mol_Feturizer/Test_systems_manuscript/rnas/3sd3

>  <Rbt.Executable>
rbdock ($Id: //depot/dev/client3/rdock/2013.1/src/exe/rbdock.cxx#4 $)

>  <Rbt.Library>
libRbt.so (2013.1, Build901 2013/11/27)

>  <Rbt.Parameter_File>
/export/apps/rDock/src/rDock_2013.1_src/data/scripts/dock_solv.prm

>  <Rbt.Receptor>
prm/pocket_docking_8.prm

>  <SCORE>
-18.824

>  <SCORE.INTER>
-17.7419

>  <SCORE.INTER.CONST>
1

>  <SCORE.INTER.POLAR>
0

>  <SCORE.INTER.ROT>
4

>  <SCORE.INTER.SOLV>
9.80827

>  <SCORE.INTER.VDW>
-21.364

>  <SCORE.INTER.norm>
-0.806449

>  <SCORE.INTRA>
-1.08211

>  <SCORE.INTRA.DIHEDRAL>
-0.866925

>  <SCORE.INTRA.DIHEDRAL.0>
2.54655

>  <SCORE.INTRA.POLAR>
0

>  <SCORE.INTRA.POLAR.0>
0

>  <SCORE.INTRA.REPUL>
0

>  <SCORE.INTRA.REPUL.0>
0

>  <SCORE.INTRA.SOLV>
-0.406199

>  <SCORE.INTRA.SOLV.lig_0>
-56.4922

>  <SCORE.INTRA.VDW>
-0.445551

>  <SCORE.INTRA.VDW.0>
-0.696801

>  <SCORE.INTRA.norm>
-0.049187

>  <SCORE.RESTR>
0

>  <SCORE.RESTR.CAVITY>
0

>  <SCORE.RESTR.norm>
0

>  <SCORE.SYSTEM>
0

>  <SCORE.SYSTEM.CONST>
0

>  <SCORE.SYSTEM.DIHEDRAL>
0

>  <SCORE.SYSTEM.SOLV>
0

>  <SCORE.SYSTEM.norm>
0

>  <SCORE.heavy>
22

>  <SCORE.norm>
-0.855636

>  <RMSD>
6.926

$$$$
ligand
 OpenBabel02271912143D
libRbt.so/2013.1/901 2013/11/27
 22 24  0  0  0  0  0  0  0  0999 V2000
   24.1671  -22.1398   26.1183 N   0  0  0  0  0  0  0  0  0  0  0  0
   21.8008  -22.4731   25.9679 N   0  0  0  0  0  0  0  0  0  0  0  0
   22.8550  -22.0863   26.7050 C   0  0  0  0  0  0  0  0  0  0  0  0
   22.7236  -21.6579   27.9544 N   0  0  0  0  0  0  0  0  0  0  0  0
   18.1583  -21.4750   30.3308 O   0  0  0  0  0  0  0  0  0  0  0  0
   21.5047  -21.6013   28.5221 C   0  0  0  0  0  0  0  0  0  0  0  0
   20.3666  -22.0151   27.7751 C   0  0  0  0  0  0  0  0  0  0  0  0
   21.3959  -21.1524   29.8191 O   0  0  0  0  0  0  0  0  0  0  0  0
   18.9961  -21.9887   28.2465 N   0  0  0  0  0  0  0  0  0  0  0  0
   17.9766  -21.5676   27.2769 C   0  0  2  0  0  0  0  0  0  0  0  0
   18.0954  -22.3568   26.0106 C   0  0  0  0  0  0  0  0  0  0  0  0
   20.5566  -22.4391   26.4837 C   0  0  0  0  0  0  0  0  0  0  0  0
   19.4409  -22.8465   25.7171 N   0  0  0  0  0  0  0  0  0  0  0  0
   18.0282  -20.0686   26.9308 C   0  0  0  0  0  0  0  0  0  0  0  0
   16.9765  -19.7283   25.9805 N   0  0  0  0  0  0  0  0  0  0  0  0
   12.9105  -20.7171   26.7492 C   0  0  0  0  0  0  0  0  0  0  0  0
   13.5521  -19.7744   27.5349 C   0  0  0  0  0  0  0  0  0  0  0  0
   14.8976  -19.4419   27.2851 C   0  0  0  0  0  0  0  0  0  0  0  0
   15.5833  -20.0609   26.2509 C   0  0  0  0  0  0  0  0  0  0  0  0
   14.9357  -21.0078   25.4629 C   0  0  0  0  0  0  0  0  0  0  0  0
   13.6001  -21.3350   25.7107 C   0  0  0  0  0  0  0  0  0  0  0  0
   18.5948  -22.3225   29.5702 C   0  0  0  0  0  0  0  0  0  0  0  0
  1  3  1  0  0  0  0
  2  3  2  0  0  0  0
  2 12  1  0  0  0  0
  3  4  1  0  0  0  0
  4  6  1  0  0  0  0
  5 22  1  0  0  0  0
  6  7  1  0  0  0  0
  6  8  2  0  0  0  0
  7 12  2  0  0  0  0
  7  9  1  0  0  0  0
  9 10  1  0  0  0  0
  9 22  1  0  0  0  0
 10 11  1  0  0  0  0
 10 14  1  6  0  0  0
 11 13  1  0  0  0  0
 12 13  1  0  0  0  0
 14 15  1  0  0  0  0
 15 19  1  0  0  0  0
 16 17  2  0  0  0  0
 16 21  1  0  0  0  0
 17 18  1  0  0  0  0
 18 19  2  0  0  0  0
 19 20  1  0  0  0  0
 20 21  2  0  0  0  0
M  END
>  <CHROM.1>
111.71974204,-179.19927538,53.62415453,67.04654953,18.62236373,-21.39625855
27.26341367,-0.08000739,0.21144125,-1.67735074

>  <Name>
ligand

>  <RI>
0

>  <Rbt.Current_Directory>
/home/itssahil/PROJECTS/Mol_Feturizer/Test_systems_manuscript/rnas/3sd3

>  <Rbt.Executable>
rbdock ($Id: //depot/dev/client3/rdock/2013.1/src/exe/rbdock.cxx#4 $)

>  <Rbt.Library>
libRbt.so (2013.1, Build901 2013/11/27)

>  <Rbt.Parameter_File>
/export/apps/rDock/src/rDock_2013.1_src/data/scripts/dock_solv.prm

>  <Rbt.Receptor>
prm/pocket_docking_7.prm

>  <SCORE>
-18.8084

>  <SCORE.INTER>
-17.771

>  <SCORE.INTER.CONST>
1

>  <SCORE.INTER.POLAR>
0

>  <SCORE.INTER.ROT>
4

>  <SCORE.INTER.SOLV>
9.8279

>  <SCORE.INTER.VDW>
-21.39

>  <SCORE.INTER.norm>
-0.807773

>  <SCORE.INTRA>
-1.03735

>  <SCORE.INTRA.DIHEDRAL>
-0.885763

>  <SCORE.INTRA.DIHEDRAL.0>
2.54655

>  <SCORE.INTRA.POLAR>
0

>  <SCORE.INTRA.POLAR.0>
0

>  <SCORE.INTRA.REPUL>
0

>  <SCORE.INTRA.REPUL.0>
0

>  <SCORE.INTRA.SOLV>
-0.389294

>  <SCORE.INTRA.SOLV.lig_0>
-56.4922

>  <SCORE.INTRA.VDW>
-0.399825

>  <SCORE.INTRA.VDW.0>
-0.696801

>  <SCORE.INTRA.norm>
-0.0471524

>  <SCORE.RESTR>
0

>  <SCORE.RESTR.CAVITY>
0

>  <SCORE.RESTR.norm>
0

>  <SCORE.SYSTEM>
0

>  <SCORE.SYSTEM.CONST>
0

>  <SCORE.SYSTEM.DIHEDRAL>
0

>  <SCORE.SYSTEM.SOLV>
0

>  <SCORE.SYSTEM.norm>
0

>  <SCORE.heavy>
22

>  <SCORE.norm>
-0.854926

>  <RMSD>
6.927

$$$$
ligand
 OpenBabel02271912143D
libRbt.so/2013.1/901 2013/11/27
 22 24  0  0  0  0  0  0  0  0999 V2000
   24.1807  -22.1181   26.1526 N   0  0  0  0  0  0  0  0  0  0  0  0
   21.8175  -22.4620   25.9792 N   0  0  0  0  0  0  0  0  0  0  0  0
   22.8625  -22.0691   26.7260 C   0  0  0  0  0  0  0  0  0  0  0  0
   22.7167  -21.6385   27.9731 N   0  0  0  0  0  0  0  0  0  0  0  0
   18.1922  -21.4595   30.3263 O   0  0  0  0  0  0  0  0  0  0  0  0
   21.4919  -21.5861   28.5283 C   0  0  0  0  0  0  0  0  0  0  0  0
   20.3632  -22.0064   27.7709 C   0  0  0  0  0  0  0  0  0  0  0  0
   21.3682  -21.1348   29.8232 O   0  0  0  0  0  0  0  0  0  0  0  0
   18.9880  -21.9850   28.2284 N   0  0  0  0  0  0  0  0  0  0  0  0
   17.9764  -21.5705   27.2477 C   0  0  2  0  0  0  0  0  0  0  0  0
   18.1114  -22.3619   25.9844 C   0  0  0  0  0  0  0  0  0  0  0  0
   20.5681  -22.4324   26.4824 C   0  0  0  0  0  0  0  0  0  0  0  0
   19.4618  -22.8463   25.7055 N   0  0  0  0  0  0  0  0  0  0  0  0
   18.0250  -20.0719   26.8989 C   0  0  0  0  0  0  0  0  0  0  0  0
   16.9639  -19.7328   25.9587 N   0  0  0  0  0  0  0  0  0  0  0  0
   12.9020  -20.6940   26.7823 C   0  0  0  0  0  0  0  0  0  0  0  0
   13.5628  -19.7612   27.5638 C   0  0  0  0  0  0  0  0  0  0  0  0
   14.9070  -19.4378   27.2959 C   0  0  0  0  0  0  0  0  0  0  0  0
   15.5722  -20.0560   26.2480 C   0  0  0  0  0  0  0  0  0  0  0  0
   14.9054  -20.9930   25.4642 C   0  0  0  0  0  0  0  0  0  0  0  0
   13.5711  -21.3111   25.7300 C   0  0  0  0  0  0  0  0  0  0  0  0
   18.5748  -22.3177   29.5488 C   0  0  0  0  0  0  0  0  0  0  0  0
  1  3  1  0  0  0  0
  2  3  2  0  0  0  0
  2 12  1  0  0  0  0
  3  4  1  0  0  0  0
  4  6  1  0  0  0  0
  5 22  1  0  0  0  0
  6  7  1  0  0  0  0
  6  8  2  0  0  0  0
  7 12  2  0  0  0  0
  7  9  1  0  0  0  0
  9 10  1  0  0  0  0
  9 22  1  0  0  0  0
 10 11  1  0  0  0  0
 10 14  1  6  0  0  0
 11 13  1  0  0  0  0
 12 13  1  0  0  0  0
 14 15  1  0  0  0  0
 15 19  1  0  0  0  0
 16 17  2  0  0  0  0
 16 21  1  0  0  0  0
 17 18  1  0  0  0  0
 18 19  2  0  0  0  0
 19 20  1  0  0  0  0
 20 21  2  0  0  0  0
M  END
>  <CHROM.1>
107.87438769,-178.01620447,54.06667047,66.26601657,18.62118976,-21.38683765
27.26348466,-0.07929676,0.21118707,-1.68030339

>  <Name>
ligand

>  <RI>
0

>  <Rbt.Current_Directory>
/home/itssahil/PROJECTS/Mol_Feturizer/Test_systems_manuscript/rnas/3sd3

>  <Rbt.Executable>
rbdock ($Id: //depot/dev/client3/rdock/2013.1/src/exe/rbdock.cxx#4 $)

>  <Rbt.Library>
libRbt.so (2013.1, Build901 2013/11/27)

>  <Rbt.Parameter_File>
/export/apps/rDock/src/rDock_2013.1_src/data/scripts/dock_solv.prm

>  <Rbt.Receptor>
prm/pocket_docking_8.prm

>  <SCORE>
-18.8346

>  <SCORE.INTER>
-17.7548

>  <SCORE.INTER.CONST>
1

>  <SCORE.INTER.POLAR>
0

>  <SCORE.INTER.ROT>
4

>  <SCORE.INTER.SOLV>
9.76728

>  <SCORE.INTER.VDW>
-21.3589

>  <SCORE.INTER.norm>
-0.807035

>  <SCORE.INTRA>
-1.07978

>  <SCORE.INTRA.DIHEDRAL>
-0.881908

>  <SCORE.INTRA.DIHEDRAL.0>
2.54655

>  <SCORE.INTRA.POLAR>
0

>  <SCORE.INTRA.POLAR.0>
0

>  <SCORE.INTRA.REPUL>
0

>  <SCORE.INTRA.REPUL.0>
0

>  <SCORE.INTRA.SOLV>
-0.3982

>  <SCORE.INTRA.SOLV.lig_0>
-56.4922

>  <SCORE.INTRA.VDW>
-0.439723

>  <SCORE.INTRA.VDW.0>
-0.696801

>  <SCORE.INTRA.norm>
-0.0490808

>  <SCORE.RESTR>
0

>  <SCORE.RESTR.CAVITY>
0

>  <SCORE.RESTR.norm>
0

>  <SCORE.SYSTEM>
0

>  <SCORE.SYSTEM.CONST>
0

>  <SCORE.SYSTEM.DIHEDRAL>
0

>  <SCORE.SYSTEM.SOLV>
0

>  <SCORE.SYSTEM.norm>
0

>  <SCORE.heavy>
22

>  <SCORE.norm>
-0.856116

>  <RMSD>
6.929

$$$$
ligand
 OpenBabel02271912143D
libRbt.so/2013.1/901 2013/11/27
 22 24  0  0  0  0  0  0  0  0999 V2000
   24.3144  -22.0519   26.1617 N   0  0  0  0  0  0  0  0  0  0  0  0
   21.9723  -22.4977   25.9409 N   0  0  0  0  0  0  0  0  0  0  0  0
   22.9791  -22.0274   26.6956 C   0  0  0  0  0  0  0  0  0  0  0  0
   22.7803  -21.5426   27.9151 N   0  0  0  0  0  0  0  0  0  0  0  0
   18.1607  -21.4340   30.1223 O   0  0  0  0  0  0  0  0  0  0  0  0
   21.5386  -21.5119   28.4332 C   0  0  0  0  0  0  0  0  0  0  0  0
   20.4496  -22.0133   27.6671 C   0  0  0  0  0  0  0  0  0  0  0  0
   21.3597  -21.0031   29.7000 O   0  0  0  0  0  0  0  0  0  0  0  0
   19.0617  -22.0243   28.0851 N   0  0  0  0  0  0  0  0  0  0  0  0
   18.0642  -21.6988   27.0575 C   0  0  2  0  0  0  0  0  0  0  0  0
   18.2665  -22.5451   25.8395 C   0  0  0  0  0  0  0  0  0  0  0  0
   20.7084  -22.4933   26.4076 C   0  0  0  0  0  0  0  0  0  0  0  0
   19.6422  -22.9884   25.6223 N   0  0  0  0  0  0  0  0  0  0  0  0
   18.0655  -20.2184   26.6356 C   0  0  0  0  0  0  0  0  0  0  0  0
   16.9691  -19.9504   25.7130 N   0  0  0  0  0  0  0  0  0  0  0  0
   12.9302  -20.6205   26.8703 C   0  0  0  0  0  0  0  0  0  0  0  0
   13.4769  -21.3422   25.8225 C   0  0  0  0  0  0  0  0  0  0  0  0
   14.8135  -21.1259   25.4351 C   0  0  0  0  0  0  0  0  0  0  0  0
   15.5845  -20.1865   26.1028 C   0  0  0  0  0  0  0  0  0  0  0  0
   15.0323  -19.4628   27.1556 C   0  0  0  0  0  0  0  0  0  0  0  0
   13.7067  -19.6802   27.5401 C   0  0  0  0  0  0  0  0  0  0  0  0
   18.6230  -22.3083   29.4086 C   0  0  0  0  0  0  0  0  0  0  0  0
  1  3  1  0  0  0  0
  2  3  2  0  0  0  0
  2 12  1  0  0  0  0
  3  4  1  0  0  0  0
  4  6  1  0  0  0  0
  5 22  1  0  0  0  0
  6  7  1  0  0  0  0
  6  8  2  0  0  0  0
  7 12  2  0  0  0  0
  7  9  1  0  0  0  0
  9 10  1  0  0  0  0
  9 22  1  0  0  0  0
 10 11  1  0  0  0  0
 10 14  1  6  0  0  0
 11 13  1  0  0  0  0
 12 13  1  0  0  0  0
 14 15  1  0  0  0  0
 15 19  1  0  0  0  0
 16 17  2  0  0  0  0
 16 21  1  0  0  0  0
 17 18  1  0  0  0  0
 18 19  2  0  0  0  0
 19 20  1  0  0  0  0
 20 21  2  0  0  0  0
M  END
>  <CHROM.1>
109.33155561,-174.56072819,59.28811533,-117.09922748,18.68522721,-21.41728760
27.16465686,-0.06284123,0.20230898,-1.72348614

>  <Name>
ligand

>  <RI>
0

>  <Rbt.Current_Directory>
/home/itssahil/PROJECTS/Mol_Feturizer/Test_systems_manuscript/rnas/3sd3

>  <Rbt.Executable>
rbdock ($Id: //depot/dev/client3/rdock/2013.1/src/exe/rbdock.cxx#4 $)

>  <Rbt.Library>
libRbt.so (2013.1, Build901 2013/11/27)

>  <Rbt.Parameter_File>
/export/apps/rDock/src/rDock_2013.1_src/data/scripts/dock_solv.prm

>  <Rbt.Receptor>
prm/pocket_docking_7.prm

>  <SCORE>
-18.6817

>  <SCORE.INTER>
-17.5054

>  <SCORE.INTER.CONST>
1

>  <SCORE.INTER.POLAR>
0

>  <SCORE.INTER.ROT>
4

>  <SCORE.INTER.SOLV>
9.94177

>  <SCORE.INTER.VDW>
-21.2509

>  <SCORE.INTER.norm>
-0.7957

>  <SCORE.INTRA>
-1.17633

>  <SCORE.INTRA.DIHEDRAL>
-0.813566

>  <SCORE.INTRA.DIHEDRAL.0>
2.54655

>  <SCORE.INTRA.POLAR>
0

>  <SCORE.INTRA.POLAR.0>
0

>  <SCORE.INTRA.REPUL>
0

>  <SCORE.INTRA.REPUL.0>
0

>  <SCORE.INTRA.SOLV>
-0.460958

>  <SCORE.INTRA.SOLV.lig_0>
-56.4922

>  <SCORE.INTRA.VDW>
-0.539064

>  <SCORE.INTRA.VDW.0>
-0.696801

>  <SCORE.INTRA.norm>
-0.0534694

>  <SCORE.RESTR>
0

>  <SCORE.RESTR.CAVITY>
0

>  <SCORE.RESTR.norm>
0

>  <SCORE.SYSTEM>
0

>  <SCORE.SYSTEM.CONST>
0

>  <SCORE.SYSTEM.DIHEDRAL>
0

>  <SCORE.SYSTEM.SOLV>
0

>  <SCORE.SYSTEM.norm>
0

>  <SCORE.heavy>
22

>  <SCORE.norm>
-0.84917

>  <RMSD>
6.933

$$$$
ligand
 OpenBabel02271912143D
libRbt.so/2013.1/901 2013/11/27
 22 24  0  0  0  0  0  0  0  0999 V2000
   24.4388  -21.8433   26.2878 N   0  0  0  0  0  0  0  0  0  0  0  0
   22.1251  -22.4078   26.0412 N   0  0  0  0  0  0  0  0  0  0  0  0
   23.0903  -21.8467   26.7880 C   0  0  0  0  0  0  0  0  0  0  0  0
   22.8388  -21.2971   27.9698 N   0  0  0  0  0  0  0  0  0  0  0  0
   18.0984  -21.2842   30.0321 O   0  0  0  0  0  0  0  0  0  0  0  0
   21.5840  -21.2909   28.4560 C   0  0  0  0  0  0  0  0  0  0  0  0
   20.5383  -21.8876   27.6978 C   0  0  0  0  0  0  0  0  0  0  0  0
   21.3501  -20.7136   29.6839 O   0  0  0  0  0  0  0  0  0  0  0  0
   19.1418  -21.9357   28.0834 N   0  0  0  0  0  0  0  0  0  0  0  0
   18.1580  -21.7199   27.0146 C   0  0  2  0  0  0  0  0  0  0  0  0
   18.4288  -22.6295   25.8571 C   0  0  0  0  0  0  0  0  0  0  0  0
   20.8505  -22.4320   26.4773 C   0  0  0  0  0  0  0  0  0  0  0  0
   19.8278  -23.0225   25.7001 N   0  0  0  0  0  0  0  0  0  0  0  0
   18.1053  -20.2697   26.5008 C   0  0  0  0  0  0  0  0  0  0  0  0
   16.9881  -20.0953   25.5808 N   0  0  0  0  0  0  0  0  0  0  0  0
   12.9743  -20.5623   26.9124 C   0  0  0  0  0  0  0  0  0  0  0  0
   13.4429  -21.3210   25.8529 C   0  0  0  0  0  0  0  0  0  0  0  0
   14.7707  -21.1719   25.4079 C   0  0  0  0  0  0  0  0  0  0  0  0
   15.6115  -20.2618   26.0304 C   0  0  0  0  0  0  0  0  0  0  0  0
   15.1378  -19.5008   27.0951 C   0  0  0  0  0  0  0  0  0  0  0  0
   13.8208  -19.6515   27.5368 C   0  0  0  0  0  0  0  0  0  0  0  0
   18.6818  -22.1572   29.4117 C   0  0  0  0  0  0  0  0  0  0  0  0
  1  3  1  0  0  0  0
  2  3  2  0  0  0  0
  2 12  1  0  0  0  0
  3  4  1  0  0  0  0
  4  6  1  0  0  0  0
  5 22  1  0  0  0  0
  6  7  1  0  0  0  0
  6  8  2  0  0  0  0
  7 12  2  0  0  0  0
  7  9  1  0  0  0  0
  9 10  1  0  0  0  0
  9 22  1  0  0  0  0
 10 11  1  0  0  0  0
 10 14  1  6  0  0  0
 11 13  1  0  0  0  0
 12 13  1  0  0  0  0
 14 15  1  0  0  0  0
 15 19  1  0  0  0  0
 16 17  2  0  0  0  0
 16 21  1  0  0  0  0
 17 18  1  0  0  0  0
 18 19  2  0  0  0  0
 19 20  1  0  0  0  0
 20 21  2  0  0  0  0
M  END
>  <CHROM.1>
113.34811642,-172.18610332,63.48365731,-123.50244424,18.75267309,-21.34936986
27.16736371,-0.06382679,0.18230571,-1.77656169

>  <Name>
ligand

>  <RI>
0

>  <Rbt.Current_Directory>
/home/itssahil/PROJECTS/Mol_Feturizer/Test_systems_manuscript/rnas/3sd3

>  <Rbt.Executable>
rbdock ($Id: //depot/dev/client3/rdock/2013.1/src/exe/rbdock.cxx#4 $)

>  <Rbt.Library>
libRbt.so (2013.1, Build901 2013/11/27)

>  <Rbt.Parameter_File>
/export/apps/rDock/src/rDock_2013.1_src/data/scripts/dock_solv.prm

>  <Rbt.Receptor>
prm/pocket_docking_4.prm

>  <SCORE>
-18.6656

>  <SCORE.INTER>
-17.5402

>  <SCORE.INTER.CONST>
1

>  <SCORE.INTER.POLAR>
0

>  <SCORE.INTER.ROT>
4

>  <SCORE.INTER.SOLV>
9.43855

>  <SCORE.INTER.VDW>
-21.1063

>  <SCORE.INTER.norm>
-0.797284

>  <SCORE.INTRA>
-1.12537

>  <SCORE.INTRA.DIHEDRAL>
-0.685673

>  <SCORE.INTRA.DIHEDRAL.0>
2.54655

>  <SCORE.INTRA.POLAR>
0

>  <SCORE.INTRA.POLAR.0>
0

>  <SCORE.INTRA.REPUL>
0

>  <SCORE.INTRA.REPUL.0>
0

>  <SCORE.INTRA.SOLV>
-0.510698

>  <SCORE.INTRA.SOLV.lig_0>
-56.4922

>  <SCORE.INTRA.VDW>
-0.527188

>  <SCORE.INTRA.VDW.0>
-0.696801

>  <SCORE.INTRA.norm>
-0.0511534

>  <SCORE.RESTR>
0

>  <SCORE.RESTR.CAVITY>
0

>  <SCORE.RESTR.norm>
0

>  <SCORE.SYSTEM>
0

>  <SCORE.SYSTEM.CONST>
0

>  <SCORE.SYSTEM.DIHEDRAL>
0

>  <SCORE.SYSTEM.SOLV>
0

>  <SCORE.SYSTEM.norm>
0

>  <SCORE.heavy>
22

>  <SCORE.norm>
-0.848437

>  <RMSD>
6.936

$$$$
ligand
 OpenBabel02271912143D
libRbt.so/2013.1/901 2013/11/27
 22 24  0  0  0  0  0  0  0  0999 V2000
   24.1490  -22.0682   26.1427 N   0  0  0  0  0  0  0  0  0  0  0  0
   21.7879  -22.4320   25.9810 N   0  0  0  0  0  0  0  0  0  0  0  0
   22.8343  -22.0383   26.7255 C   0  0  0  0  0  0  0  0  0  0  0  0
   22.6931  -21.6241   27.9786 N   0  0  0  0  0  0  0  0  0  0  0  0
   18.1469  -21.5211   30.3515 O   0  0  0  0  0  0  0  0  0  0  0  0
   21.4717  -21.5898   28.5427 C   0  0  0  0  0  0  0  0  0  0  0  0
   20.3418  -22.0115   27.7878 C   0  0  0  0  0  0  0  0  0  0  0  0
   21.3527  -21.1552   29.8436 O   0  0  0  0  0  0  0  0  0  0  0  0
   18.9695  -22.0083   28.2548 N   0  0  0  0  0  0  0  0  0  0  0  0
   17.9475  -21.5915   27.2860 C   0  0  2  0  0  0  0  0  0  0  0  0
   18.0811  -22.3664   26.0123 C   0  0  0  0  0  0  0  0  0  0  0  0
   20.5417  -22.4201   26.4929 C   0  0  0  0  0  0  0  0  0  0  0  0
   19.4341  -22.8349   25.7186 N   0  0  0  0  0  0  0  0  0  0  0  0
   17.9799  -20.0885   26.9549 C   0  0  0  0  0  0  0  0  0  0  0  0
   16.9296  -19.7540   26.0009 N   0  0  0  0  0  0  0  0  0  0  0  0
   12.8567  -20.6981   26.7891 C   0  0  0  0  0  0  0  0  0  0  0  0
   13.5134  -19.7650   27.5737 C   0  0  0  0  0  0  0  0  0  0  0  0
   14.8612  -19.4473   27.3175 C   0  0  0  0  0  0  0  0  0  0  0  0
   15.5342  -20.0713   26.2781 C   0  0  0  0  0  0  0  0  0  0  0  0
   14.8715  -21.0086   25.4910 C   0  0  0  0  0  0  0  0  0  0  0  0
   13.5336  -21.3211   25.7452 C   0  0  0  0  0  0  0  0  0  0  0  0
   18.5685  -22.3607   29.5738 C   0  0  0  0  0  0  0  0  0  0  0  0
  1  3  1  0  0  0  0
  2  3  2  0  0  0  0
  2 12  1  0  0  0  0
  3  4  1  0  0  0  0
  4  6  1  0  0  0  0
  5 22  1  0  0  0  0
  6  7  1  0  0  0  0
  6  8  2  0  0  0  0
  7 12  2  0  0  0  0
  7  9  1  0  0  0  0
  9 10  1  0  0  0  0
  9 22  1  0  0  0  0
 10 11  1  0  0  0  0
 10 14  1  6  0  0  0
 11 13  1  0  0  0  0
 12 13  1  0  0  0  0
 14 15  1  0  0  0  0
 15 19  1  0  0  0  0
 16 17  2  0  0  0  0
 16 21  1  0  0  0  0
 17 18  1  0  0  0  0
 18 19  2  0  0  0  0
 19 20  1  0  0  0  0
 20 21  2  0  0  0  0
M  END
>  <CHROM.1>
110.01185270,-179.39320472,55.58354884,65.99907412,18.59039800,-21.39341196
27.28301230,-0.08133682,0.20604921,-1.66514001

>  <Name>
ligand

>  <RI>
0

>  <Rbt.Current_Directory>
/home/itssahil/PROJECTS/Mol_Feturizer/Test_systems_manuscript/rnas/3sd3

>  <Rbt.Executable>
rbdock ($Id: //depot/dev/client3/rdock/2013.1/src/exe/rbdock.cxx#4 $)

>  <Rbt.Library>
libRbt.so (2013.1, Build901 2013/11/27)

>  <Rbt.Parameter_File>
/export/apps/rDock/src/rDock_2013.1_src/data/scripts/dock_solv.prm

>  <Rbt.Receptor>
prm/pocket_docking_8.prm

>  <SCORE>
-18.88

>  <SCORE.INTER>
-17.8325

>  <SCORE.INTER.CONST>
1

>  <SCORE.INTER.POLAR>
0

>  <SCORE.INTER.ROT>
4

>  <SCORE.INTER.SOLV>
9.84923

>  <SCORE.INTER.VDW>
-21.4381

>  <SCORE.INTER.norm>
-0.810569

>  <SCORE.INTRA>
-1.04746

>  <SCORE.INTRA.DIHEDRAL>
-0.906418

>  <SCORE.INTRA.DIHEDRAL.0>
2.54655

>  <SCORE.INTRA.POLAR>
0

>  <SCORE.INTRA.POLAR.0>
0

>  <SCORE.INTRA.REPUL>
0

>  <SCORE.INTRA.REPUL.0>
0

>  <SCORE.INTRA.SOLV>
-0.381175

>  <SCORE.INTRA.SOLV.lig_0>
-56.4922

>  <SCORE.INTRA.VDW>
-0.403665

>  <SCORE.INTRA.VDW.0>
-0.696801

>  <SCORE.INTRA.norm>
-0.0476119

>  <SCORE.RESTR>
0

>  <SCORE.RESTR.CAVITY>
0

>  <SCORE.RESTR.norm>
0

>  <SCORE.SYSTEM>
0

>  <SCORE.SYSTEM.CONST>
0

>  <SCORE.SYSTEM.DIHEDRAL>
0

>  <SCORE.SYSTEM.SOLV>
0

>  <SCORE.SYSTEM.norm>
0

>  <SCORE.heavy>
22

>  <SCORE.norm>
-0.858181

>  <RMSD>
6.939

$$$$
ligand
 OpenBabel02271912143D
libRbt.so/2013.1/901 2013/11/27
 22 24  0  0  0  0  0  0  0  0999 V2000
   24.5204  -21.6272   26.9763 N   0  0  0  0  0  0  0  0  0  0  0  0
   22.2812  -22.3015   26.4625 N   0  0  0  0  0  0  0  0  0  0  0  0
   23.1230  -21.6893   27.3113 C   0  0  0  0  0  0  0  0  0  0  0  0
   22.7065  -21.1416   28.4464 N   0  0  0  0  0  0  0  0  0  0  0  0
   18.1576  -21.2573   30.1311 O   0  0  0  0  0  0  0  0  0  0  0  0
   21.4033  -21.1899   28.7787 C   0  0  0  0  0  0  0  0  0  0  0  0
   20.4846  -21.8415   27.9094 C   0  0  0  0  0  0  0  0  0  0  0  0
   20.9974  -20.6133   29.9613 O   0  0  0  0  0  0  0  0  0  0  0  0
   19.0555  -21.9516   28.1256 N   0  0  0  0  0  0  0  0  0  0  0  0
   18.1987  -21.7915   26.9436 C   0  0  2  0  0  0  0  0  0  0  0  0
   18.6478  -22.6976   25.8401 C   0  0  0  0  0  0  0  0  0  0  0  0
   20.9658  -22.3815   26.7430 C   0  0  0  0  0  0  0  0  0  0  0  0
   20.0719  -23.0261   25.8575 N   0  0  0  0  0  0  0  0  0  0  0  0
   18.1423  -20.3500   26.4064 C   0  0  0  0  0  0  0  0  0  0  0  0
   17.0381  -19.6208   27.0181 N   0  0  0  0  0  0  0  0  0  0  0  0
   13.0113  -20.8227   26.3535 C   0  0  0  0  0  0  0  0  0  0  0  0
   13.3170  -19.9917   27.4183 C   0  0  0  0  0  0  0  0  0  0  0  0
   14.6477  -19.5894   27.6432 C   0  0  0  0  0  0  0  0  0  0  0  0
   15.6558  -20.0276   26.7979 C   0  0  0  0  0  0  0  0  0  0  0  0
   15.3455  -20.8626   25.7285 C   0  0  0  0  0  0  0  0  0  0  0  0
   14.0244  -21.2590   25.5054 C   0  0  0  0  0  0  0  0  0  0  0  0
   18.4496  -22.1826   29.3922 C   0  0  0  0  0  0  0  0  0  0  0  0
  1  3  1  0  0  0  0
  2  3  2  0  0  0  0
  2 12  1  0  0  0  0
  3  4  1  0  0  0  0
  4  6  1  0  0  0  0
  5 22  1  0  0  0  0
  6  7  1  0  0  0  0
  6  8  2  0  0  0  0
  7 12  2  0  0  0  0
  7  9  1  0  0  0  0
  9 10  1  0  0  0  0
  9 22  1  0  0  0  0
 10 11  1  0  0  0  0
 10 14  1  6  0  0  0
 11 13  1  0  0  0  0
 12 13  1  0  0  0  0
 14 15  1  0  0  0  0
 15 19  1  0  0  0  0
 16 17  2  0  0  0  0
 16 21  1  0  0  0  0
 17 18  1  0  0  0  0
 18 19  2  0  0  0  0
 19 20  1  0  0  0  0
 20 21  2  0  0  0  0
M  END
>  <CHROM.1>
88.05817966,-91.16065207,-63.83392042,162.16312443,18.76105959,-21.29790548
27.41335601,-0.07125011,0.18708772,-1.87607546

>  <Name>
ligand

>  <RI>
0

>  <Rbt.Current_Directory>
/home/itssahil/PROJECTS/Mol_Feturizer/Test_systems_manuscript/rnas/3sd3

>  <Rbt.Executable>
rbdock ($Id: //depot/dev/client3/rdock/2013.1/src/exe/rbdock.cxx#4 $)

>  <Rbt.Library>
libRbt.so (2013.1, Build901 2013/11/27)

>  <Rbt.Parameter_File>
/export/apps/rDock/src/rDock_2013.1_src/data/scripts/dock_solv.prm

>  <Rbt.Receptor>
prm/pocket_docking_5.prm

>  <SCORE>
-17.2172

>  <SCORE.INTER>
-17.5927

>  <SCORE.INTER.CONST>
1

>  <SCORE.INTER.POLAR>
0

>  <SCORE.INTER.ROT>
4

>  <SCORE.INTER.SOLV>
9.20894

>  <SCORE.INTER.VDW>
-21.0648

>  <SCORE.INTER.norm>
-0.799666

>  <SCORE.INTRA>
0.375475

>  <SCORE.INTRA.DIHEDRAL>
1.81157

>  <SCORE.INTRA.DIHEDRAL.0>
2.54655

>  <SCORE.INTRA.POLAR>
0

>  <SCORE.INTRA.POLAR.0>
0

>  <SCORE.INTRA.REPUL>
0

>  <SCORE.INTRA.REPUL.0>
0

>  <SCORE.INTRA.SOLV>
0.0190559

>  <SCORE.INTRA.SOLV.lig_0>
-56.4922

>  <SCORE.INTRA.VDW>
-0.539838

>  <SCORE.INTRA.VDW.0>
-0.696801

>  <SCORE.INTRA.norm>
0.0170671

>  <SCORE.RESTR>
0

>  <SCORE.RESTR.CAVITY>
0

>  <SCORE.RESTR.norm>
0

>  <SCORE.SYSTEM>
0

>  <SCORE.SYSTEM.CONST>
0

>  <SCORE.SYSTEM.DIHEDRAL>
0

>  <SCORE.SYSTEM.SOLV>
0

>  <SCORE.SYSTEM.norm>
0

>  <SCORE.heavy>
22

>  <SCORE.norm>
-0.782599

>  <RMSD>
6.940

$$$$
ligand
 OpenBabel02271912143D
libRbt.so/2013.1/901 2013/11/27
 22 24  0  0  0  0  0  0  0  0999 V2000
   23.0961  -18.8931   25.5372 N   0  0  0  0  0  0  0  0  0  0  0  0
   21.1268  -18.9150   24.1755 N   0  0  0  0  0  0  0  0  0  0  0  0
   22.1294  -19.6044   24.7445 C   0  0  0  0  0  0  0  0  0  0  0  0
   22.2552  -20.9176   24.5982 N   0  0  0  0  0  0  0  0  0  0  0  0
   20.4247  -22.5914   20.7691 O   0  0  0  0  0  0  0  0  0  0  0  0
   21.3618  -21.6014   23.8596 C   0  0  0  0  0  0  0  0  0  0  0  0
   20.2938  -20.9019   23.2315 C   0  0  0  0  0  0  0  0  0  0  0  0
   21.5148  -22.9629   23.7244 O   0  0  0  0  0  0  0  0  0  0  0  0
   19.2496  -21.5067   22.4283 N   0  0  0  0  0  0  0  0  0  0  0  0
   17.8928  -20.9734   22.6062 C   0  0  2  0  0  0  0  0  0  0  0  0
   17.8887  -19.4836   22.4617 C   0  0  0  0  0  0  0  0  0  0  0  0
   20.2035  -19.5461   23.4242 C   0  0  0  0  0  0  0  0  0  0  0  0
   19.1459  -18.8293   22.8188 N   0  0  0  0  0  0  0  0  0  0  0  0
   17.2522  -21.3400   23.9571 C   0  0  0  0  0  0  0  0  0  0  0  0
   15.8362  -20.9935   23.9604 N   0  0  0  0  0  0  0  0  0  0  0  0
   13.8651  -19.9338   27.5789 C   0  0  0  0  0  0  0  0  0  0  0  0
   13.2193  -20.7310   26.6489 C   0  0  0  0  0  0  0  0  0  0  0  0
   13.8665  -21.0862   25.4495 C   0  0  0  0  0  0  0  0  0  0  0  0
   15.1534  -20.6353   25.1975 C   0  0  0  0  0  0  0  0  0  0  0  0
   15.7999  -19.8343   26.1341 C   0  0  0  0  0  0  0  0  0  0  0  0
   15.1572  -19.4847   27.3245 C   0  0  0  0  0  0  0  0  0  0  0  0
   19.4575  -22.5753   21.5120 C   0  0  0  0  0  0  0  0  0  0  0  0
  1  3  1  0  0  0  0
  2  3  2  0  0  0  0
  2 12  1  0  0  0  0
  3  4  1  0  0  0  0
  4  6  1  0  0  0  0
  5 22  1  0  0  0  0
  6  7  1  0  0  0  0
  6  8  2  0  0  0  0
  7 12  2  0  0  0  0
  7  9  1  0  0  0  0
  9 10  1  0  0  0  0
  9 22  1  0  0  0  0
 10 11  1  0  0  0  0
 10 14  1  1  0  0  0
 11 13  1  0  0  0  0
 12 13  1  0  0  0  0
 14 15  1  0  0  0  0
 15 19  1  0  0  0  0
 16 17  2  0  0  0  0
 16 21  1  0  0  0  0
 17 18  1  0  0  0  0
 18 19  2  0  0  0  0
 19 20  1  0  0  0  0
 20 21  2  0  0  0  0
M  END
>  <CHROM.1>
-42.44199760,-169.51616371,-150.81869417,-139.65291215,18.59248129,-20.65351394
24.08650029,-0.34733482,0.15194553,0.98599906

>  <Name>
ligand

>  <RI>
0

>  <Rbt.Current_Directory>
/home/itssahil/PROJECTS/Mol_Feturizer/Test_systems_manuscript/rnas/3sd3

>  <Rbt.Executable>
rbdock ($Id: //depot/dev/client3/rdock/2013.1/src/exe/rbdock.cxx#4 $)

>  <Rbt.Library>
libRbt.so (2013.1, Build901 2013/11/27)

>  <Rbt.Parameter_File>
/export/apps/rDock/src/rDock_2013.1_src/data/scripts/dock_solv.prm

>  <Rbt.Receptor>
prm/pocket_docking_6.prm

>  <SCORE>
-13.3268

>  <SCORE.INTER>
-12.834

>  <SCORE.INTER.CONST>
1

>  <SCORE.INTER.POLAR>
0

>  <SCORE.INTER.ROT>
4

>  <SCORE.INTER.SOLV>
10.2397

>  <SCORE.INTER.VDW>
-18.2359

>  <SCORE.INTER.norm>
-0.583363

>  <SCORE.INTRA>
-0.492799

>  <SCORE.INTRA.DIHEDRAL>
0.0358316

>  <SCORE.INTRA.DIHEDRAL.0>
2.54655

>  <SCORE.INTRA.POLAR>
0

>  <SCORE.INTRA.POLAR.0>
0

>  <SCORE.INTRA.REPUL>
0

>  <SCORE.INTRA.REPUL.0>
0

>  <SCORE.INTRA.SOLV>
-0.635971

>  <SCORE.INTRA.SOLV.lig_0>
-56.4922

>  <SCORE.INTRA.VDW>
-0.192729

>  <SCORE.INTRA.VDW.0>
-0.696801

>  <SCORE.INTRA.norm>
-0.0224

>  <SCORE.RESTR>
0

>  <SCORE.RESTR.CAVITY>
0

>  <SCORE.RESTR.norm>
0

>  <SCORE.SYSTEM>
0

>  <SCORE.SYSTEM.CONST>
0

>  <SCORE.SYSTEM.DIHEDRAL>
0

>  <SCORE.SYSTEM.SOLV>
0

>  <SCORE.SYSTEM.norm>
0

>  <SCORE.heavy>
22

>  <SCORE.norm>
-0.605763

>  <RMSD>
6.940

$$$$
ligand
 OpenBabel02271912143D
libRbt.so/2013.1/901 2013/11/27
 22 24  0  0  0  0  0  0  0  0999 V2000
   24.3845  -21.6991   27.3416 N   0  0  0  0  0  0  0  0  0  0  0  0
   22.2081  -21.8668   28.3257 N   0  0  0  0  0  0  0  0  0  0  0  0
   23.0390  -21.2148   27.4957 C   0  0  0  0  0  0  0  0  0  0  0  0
   22.6579  -20.1405   26.8157 N   0  0  0  0  0  0  0  0  0  0  0  0
   19.3888  -17.7087   28.5119 O   0  0  0  0  0  0  0  0  0  0  0  0
   21.4035  -19.6707   26.9467 C   0  0  0  0  0  0  0  0  0  0  0  0
   20.4998  -20.3287   27.8269 C   0  0  0  0  0  0  0  0  0  0  0  0
   21.0335  -18.5553   26.2294 O   0  0  0  0  0  0  0  0  0  0  0  0
   19.1186  -19.9504   28.0511 N   0  0  0  0  0  0  0  0  0  0  0  0
   18.1504  -21.0471   28.1803 C   0  0  2  0  0  0  0  0  0  0  0  0
   18.6101  -22.0385   29.2032 C   0  0  0  0  0  0  0  0  0  0  0  0
   20.9412  -21.4417   28.4977 C   0  0  0  0  0  0  0  0  0  0  0  0
   20.0597  -22.1192   29.3709 N   0  0  0  0  0  0  0  0  0  0  0  0
   17.8732  -21.7911   26.8615 C   0  0  0  0  0  0  0  0  0  0  0  0
   17.0641  -20.9672   25.9718 N   0  0  0  0  0  0  0  0  0  0  0  0
   12.9481  -20.2619   26.7857 C   0  0  0  0  0  0  0  0  0  0  0  0
   13.3120  -21.1324   25.7721 C   0  0  0  0  0  0  0  0  0  0  0  0
   14.6727  -21.3710   25.4982 C   0  0  0  0  0  0  0  0  0  0  0  0
   15.6515  -20.7316   26.2438 C   0  0  0  0  0  0  0  0  0  0  0  0
   15.2826  -19.8574   27.2619 C   0  0  0  0  0  0  0  0  0  0  0  0
   13.9322  -19.6234   27.5338 C   0  0  0  0  0  0  0  0  0  0  0  0
   18.6562  -18.6071   28.1330 C   0  0  0  0  0  0  0  0  0  0  0  0
  1  3  1  0  0  0  0
  2  3  2  0  0  0  0
  2 12  1  0  0  0  0
  3  4  1  0  0  0  0
  4  6  1  0  0  0  0
  5 22  1  0  0  0  0
  6  7  1  0  0  0  0
  6  8  2  0  0  0  0
  7 12  2  0  0  0  0
  7  9  1  0  0  0  0
  9 10  1  0  0  0  0
  9 22  1  0  0  0  0
 10 11  1  0  0  0  0
 10 14  1  6  0  0  0
 11 13  1  0  0  0  0
 12 13  1  0  0  0  0
 14 15  1  0  0  0  0
 15 19  1  0  0  0  0
 16 17  2  0  0  0  0
 16 21  1  0  0  0  0
 17 18  1  0  0  0  0
 18 19  2  0  0  0  0
 19 20  1  0  0  0  0
 20 21  2  0  0  0  0
M  END
>  <CHROM.1>
-27.73018182,-72.95389969,-72.33089931,-105.48638120,18.80281113,-20.51553895
27.42825212,0.04951622,0.13013630,2.99040193

>  <Name>
ligand

>  <RI>
0

>  <Rbt.Current_Directory>
/home/itssahil/PROJECTS/Mol_Feturizer/Test_systems_manuscript/rnas/3sd3

>  <Rbt.Executable>
rbdock ($Id: //depot/dev/client3/rdock/2013.1/src/exe/rbdock.cxx#4 $)

>  <Rbt.Library>
libRbt.so (2013.1, Build901 2013/11/27)

>  <Rbt.Parameter_File>
/export/apps/rDock/src/rDock_2013.1_src/data/scripts/dock_solv.prm

>  <Rbt.Receptor>
prm/pocket_docking_7.prm

>  <SCORE>
-15.3028

>  <SCORE.INTER>
-13.9816

>  <SCORE.INTER.CONST>
1

>  <SCORE.INTER.POLAR>
0

>  <SCORE.INTER.ROT>
4

>  <SCORE.INTER.SOLV>
7.09961

>  <SCORE.INTER.VDW>
-17.9543

>  <SCORE.INTER.norm>
-0.635528

>  <SCORE.INTRA>
-1.32118

>  <SCORE.INTRA.DIHEDRAL>
-0.256938

>  <SCORE.INTRA.DIHEDRAL.0>
2.54655

>  <SCORE.INTRA.POLAR>
0

>  <SCORE.INTRA.POLAR.0>
0

>  <SCORE.INTRA.REPUL>
0

>  <SCORE.INTRA.REPUL.0>
0

>  <SCORE.INTRA.SOLV>
-0.199117

>  <SCORE.INTRA.SOLV.lig_0>
-56.4922

>  <SCORE.INTRA.VDW>
-1.09315

>  <SCORE.INTRA.VDW.0>
-0.696801

>  <SCORE.INTRA.norm>
-0.0600536

>  <SCORE.RESTR>
0

>  <SCORE.RESTR.CAVITY>
0

>  <SCORE.RESTR.norm>
0

>  <SCORE.SYSTEM>
0

>  <SCORE.SYSTEM.CONST>
0

>  <SCORE.SYSTEM.DIHEDRAL>
0

>  <SCORE.SYSTEM.SOLV>
0

>  <SCORE.SYSTEM.norm>
0

>  <SCORE.heavy>
22

>  <SCORE.norm>
-0.695581

>  <RMSD>
6.940

$$$$
ligand
 OpenBabel02271912143D
libRbt.so/2013.1/901 2013/11/27
 22 24  0  0  0  0  0  0  0  0999 V2000
   24.4671  -21.8637   26.2215 N   0  0  0  0  0  0  0  0  0  0  0  0
   22.1514  -22.4264   25.9894 N   0  0  0  0  0  0  0  0  0  0  0  0
   23.1222  -21.8684   26.7313 C   0  0  0  0  0  0  0  0  0  0  0  0
   22.8794  -21.3230   27.9168 N   0  0  0  0  0  0  0  0  0  0  0  0
   18.1522  -21.3164   30.0123 O   0  0  0  0  0  0  0  0  0  0  0  0
   21.6281  -21.3180   28.4121 C   0  0  0  0  0  0  0  0  0  0  0  0
   20.5767  -21.9116   27.6592 C   0  0  0  0  0  0  0  0  0  0  0  0
   21.4032  -20.7451   29.6436 O   0  0  0  0  0  0  0  0  0  0  0  0
   19.1830  -21.9606   28.0546 N   0  0  0  0  0  0  0  0  0  0  0  0
   18.1917  -21.7405   26.9936 C   0  0  2  0  0  0  0  0  0  0  0  0
   18.4538  -22.6460   25.8309 C   0  0  0  0  0  0  0  0  0  0  0  0
   20.8800  -22.4517   26.4345 C   0  0  0  0  0  0  0  0  0  0  0  0
   19.8515  -23.0390   25.6625 N   0  0  0  0  0  0  0  0  0  0  0  0
   18.1359  -20.2885   26.4855 C   0  0  0  0  0  0  0  0  0  0  0  0
   17.0127  -20.1105   25.5734 N   0  0  0  0  0  0  0  0  0  0  0  0
   12.9970  -20.5562   26.9065 C   0  0  0  0  0  0  0  0  0  0  0  0
   13.8364  -19.6515   27.5345 C   0  0  0  0  0  0  0  0  0  0  0  0
   15.1665  -19.4985   27.0975 C   0  0  0  0  0  0  0  0  0  0  0  0
   15.6383  -20.2566   26.0367 C   0  0  0  0  0  0  0  0  0  0  0  0
   14.7922  -21.1650   25.4074 C   0  0  0  0  0  0  0  0  0  0  0  0
   13.4723  -21.3140   25.8408 C   0  0  0  0  0  0  0  0  0  0  0  0
   18.7324  -22.1867   29.3852 C   0  0  0  0  0  0  0  0  0  0  0  0
  1  3  1  0  0  0  0
  2  3  2  0  0  0  0
  2 12  1  0  0  0  0
  3  4  1  0  0  0  0
  4  6  1  0  0  0  0
  5 22  1  0  0  0  0
  6  7  1  0  0  0  0
  6  8  2  0  0  0  0
  7 12  2  0  0  0  0
  7  9  1  0  0  0  0
  9 10  1  0  0  0  0
  9 22  1  0  0  0  0
 10 11  1  0  0  0  0
 10 14  1  6  0  0  0
 11 13  1  0  0  0  0
 12 13  1  0  0  0  0
 14 15  1  0  0  0  0
 15 19  1  0  0  0  0
 16 17  2  0  0  0  0
 16 21  1  0  0  0  0
 17 18  1  0  0  0  0
 18 19  2  0  0  0  0
 19 20  1  0  0  0  0
 20 21  2  0  0  0  0
M  END
>  <CHROM.1>
113.45190963,-172.22068104,64.51245599,56.03464098,18.78595249,-21.36543593
27.14005785,-0.05793777,0.18394135,-1.77354957

>  <Name>
ligand

>  <RI>
0

>  <Rbt.Current_Directory>
/home/itssahil/PROJECTS/Mol_Feturizer/Test_systems_manuscript/rnas/3sd3

>  <Rbt.Executable>
rbdock ($Id: //depot/dev/client3/rdock/2013.1/src/exe/rbdock.cxx#4 $)

>  <Rbt.Library>
libRbt.so (2013.1, Build901 2013/11/27)

>  <Rbt.Parameter_File>
/export/apps/rDock/src/rDock_2013.1_src/data/scripts/dock_solv.prm

>  <Rbt.Receptor>
prm/pocket_docking_4.prm

>  <SCORE>
-18.6689

>  <SCORE.INTER>
-17.5331

>  <SCORE.INTER.CONST>
1

>  <SCORE.INTER.POLAR>
0

>  <SCORE.INTER.ROT>
4

>  <SCORE.INTER.SOLV>
9.41078

>  <SCORE.INTER.VDW>
-21.0923

>  <SCORE.INTER.norm>
-0.796959

>  <SCORE.INTRA>
-1.13576

>  <SCORE.INTRA.DIHEDRAL>
-0.680919

>  <SCORE.INTRA.DIHEDRAL.0>
2.54655

>  <SCORE.INTRA.POLAR>
0

>  <SCORE.INTRA.POLAR.0>
0

>  <SCORE.INTRA.REPUL>
0

>  <SCORE.INTRA.REPUL.0>
0

>  <SCORE.INTRA.SOLV>
-0.511167

>  <SCORE.INTRA.SOLV.lig_0>
-56.4922

>  <SCORE.INTRA.VDW>
-0.539718

>  <SCORE.INTRA.VDW.0>
-0.696801

>  <SCORE.INTRA.norm>
-0.0516255

>  <SCORE.RESTR>
0

>  <SCORE.RESTR.CAVITY>
0

>  <SCORE.RESTR.norm>
0

>  <SCORE.SYSTEM>
0

>  <SCORE.SYSTEM.CONST>
0

>  <SCORE.SYSTEM.DIHEDRAL>
0

>  <SCORE.SYSTEM.SOLV>
0

>  <SCORE.SYSTEM.norm>
0

>  <SCORE.heavy>
22

>  <SCORE.norm>
-0.848585

>  <RMSD>
6.941

$$$$
ligand
 OpenBabel02271912143D
libRbt.so/2013.1/901 2013/11/27
 22 24  0  0  0  0  0  0  0  0999 V2000
   24.4375  -22.0447   25.2703 N   0  0  0  0  0  0  0  0  0  0  0  0
   22.1092  -22.5858   25.4073 N   0  0  0  0  0  0  0  0  0  0  0  0
   23.1720  -21.9689   25.9496 C   0  0  0  0  0  0  0  0  0  0  0  0
   23.0907  -21.2939   27.0895 N   0  0  0  0  0  0  0  0  0  0  0  0
   18.1885  -22.5010   29.5985 O   0  0  0  0  0  0  0  0  0  0  0  0
   21.9161  -21.2120   27.7412 C   0  0  0  0  0  0  0  0  0  0  0  0
   20.7717  -21.8638   27.2025 C   0  0  0  0  0  0  0  0  0  0  0  0
   21.8588  -20.5049   28.9212 O   0  0  0  0  0  0  0  0  0  0  0  0
   19.4425  -21.8437   27.7804 N   0  0  0  0  0  0  0  0  0  0  0  0
   18.3203  -21.7213   26.8410 C   0  0  2  0  0  0  0  0  0  0  0  0
   18.4223  -22.7522   25.7605 C   0  0  0  0  0  0  0  0  0  0  0  0
   20.9078  -22.5390   26.0155 C   0  0  0  0  0  0  0  0  0  0  0  0
   19.7836  -23.1871   25.4544 N   0  0  0  0  0  0  0  0  0  0  0  0
   18.2037  -20.3320   26.1882 C   0  0  0  0  0  0  0  0  0  0  0  0
   17.0221  -20.2664   25.3370 N   0  0  0  0  0  0  0  0  0  0  0  0
   13.1027  -20.4614   26.9806 C   0  0  0  0  0  0  0  0  0  0  0  0
   14.0447  -19.6147   27.5404 C   0  0  0  0  0  0  0  0  0  0  0  0
   15.3435  -19.5447   27.0005 C   0  0  0  0  0  0  0  0  0  0  0  0
   15.6817  -20.3268   25.9066 C   0  0  0  0  0  0  0  0  0  0  0  0
   14.7328  -21.1767   25.3460 C   0  0  0  0  0  0  0  0  0  0  0  0
   13.4439  -21.2433   25.8815 C   0  0  0  0  0  0  0  0  0  0  0  0
   19.1713  -21.9159   29.1754 C   0  0  0  0  0  0  0  0  0  0  0  0
  1  3  1  0  0  0  0
  2  3  2  0  0  0  0
  2 12  1  0  0  0  0
  3  4  1  0  0  0  0
  4  6  1  0  0  0  0
  5 22  1  0  0  0  0
  6  7  1  0  0  0  0
  6  8  2  0  0  0  0
  7 12  2  0  0  0  0
  7  9  1  0  0  0  0
  9 10  1  0  0  0  0
  9 22  1  0  0  0  0
 10 11  1  0  0  0  0
 10 14  1  6  0  0  0
 11 13  1  0  0  0  0
 12 13  1  0  0  0  0
 14 15  1  0  0  0  0
 15 19  1  0  0  0  0
 16 17  2  0  0  0  0
 16 21  1  0  0  0  0
 17 18  1  0  0  0  0
 18 19  2  0  0  0  0
 19 20  1  0  0  0  0
 20 21  2  0  0  0  0
M  END
>  <CHROM.1>
-144.97593887,-176.47470486,67.00589451,47.32161091,18.89952684,-21.43292479
26.79198815,0.01218477,0.16751799,-1.71881106

>  <Name>
ligand

>  <RI>
0

>  <Rbt.Current_Directory>
/home/itssahil/PROJECTS/Mol_Feturizer/Test_systems_manuscript/rnas/3sd3

>  <Rbt.Executable>
rbdock ($Id: //depot/dev/client3/rdock/2013.1/src/exe/rbdock.cxx#4 $)

>  <Rbt.Library>
libRbt.so (2013.1, Build901 2013/11/27)

>  <Rbt.Parameter_File>
/export/apps/rDock/src/rDock_2013.1_src/data/scripts/dock_solv.prm

>  <Rbt.Receptor>
prm/pocket_docking_4.prm

>  <SCORE>
-17.4698

>  <SCORE.INTER>
-16.6317

>  <SCORE.INTER.CONST>
1

>  <SCORE.INTER.POLAR>
0

>  <SCORE.INTER.ROT>
4

>  <SCORE.INTER.SOLV>
10.106

>  <SCORE.INTER.VDW>
-20.7232

>  <SCORE.INTER.norm>
-0.755988

>  <SCORE.INTRA>
-0.838104

>  <SCORE.INTRA.DIHEDRAL>
-0.849926

>  <SCORE.INTRA.DIHEDRAL.0>
2.54655

>  <SCORE.INTRA.POLAR>
0

>  <SCORE.INTRA.POLAR.0>
0

>  <SCORE.INTRA.REPUL>
0

>  <SCORE.INTRA.REPUL.0>
0

>  <SCORE.INTRA.SOLV>
-0.658766

>  <SCORE.INTRA.SOLV.lig_0>
-56.4922

>  <SCORE.INTRA.VDW>
-0.0837584

>  <SCORE.INTRA.VDW.0>
-0.696801

>  <SCORE.INTRA.norm>
-0.0380957

>  <SCORE.RESTR>
0

>  <SCORE.RESTR.CAVITY>
0

>  <SCORE.RESTR.norm>
0

>  <SCORE.SYSTEM>
0

>  <SCORE.SYSTEM.CONST>
0

>  <SCORE.SYSTEM.DIHEDRAL>
0

>  <SCORE.SYSTEM.SOLV>
0

>  <SCORE.SYSTEM.norm>
0

>  <SCORE.heavy>
22

>  <SCORE.norm>
-0.794083

>  <RMSD>
6.948

$$$$
ligand
 OpenBabel02271912143D
libRbt.so/2013.1/901 2013/11/27
 22 24  0  0  0  0  0  0  0  0999 V2000
   20.8629  -19.1679   33.0223 N   0  0  0  0  0  0  0  0  0  0  0  0
   20.5958  -18.2738   30.8173 N   0  0  0  0  0  0  0  0  0  0  0  0
   20.6341  -19.3541   31.6146 C   0  0  0  0  0  0  0  0  0  0  0  0
   20.4680  -20.5843   31.1448 N   0  0  0  0  0  0  0  0  0  0  0  0
   21.6815  -20.9708   26.6136 O   0  0  0  0  0  0  0  0  0  0  0  0
   20.2538  -20.7800   29.8306 C   0  0  0  0  0  0  0  0  0  0  0  0
   20.2195  -19.6596   28.9543 C   0  0  0  0  0  0  0  0  0  0  0  0
   20.0838  -22.0660   29.3694 O   0  0  0  0  0  0  0  0  0  0  0  0
   19.9778  -19.7160   27.5262 N   0  0  0  0  0  0  0  0  0  0  0  0
   19.1313  -18.6569   26.9615 C   0  0  2  0  0  0  0  0  0  0  0  0
   19.6329  -17.3070   27.3700 C   0  0  0  0  0  0  0  0  0  0  0  0
   20.3860  -18.4084   29.4932 C   0  0  0  0  0  0  0  0  0  0  0  0
   20.3466  -17.2780   28.6452 N   0  0  0  0  0  0  0  0  0  0  0  0
   17.6470  -18.7712   27.3534 C   0  0  0  0  0  0  0  0  0  0  0  0
   17.1032  -20.0530   26.9216 N   0  0  0  0  0  0  0  0  0  0  0  0
   12.9115  -20.6474   26.4995 C   0  0  0  0  0  0  0  0  0  0  0  0
   13.3966  -19.8569   27.5278 C   0  0  0  0  0  0  0  0  0  0  0  0
   14.7829  -19.6553   27.6725 C   0  0  0  0  0  0  0  0  0  0  0  0
   15.6655  -20.2512   26.7844 C   0  0  0  0  0  0  0  0  0  0  0  0
   15.1751  -21.0450   25.7519 C   0  0  0  0  0  0  0  0  0  0  0  0
   13.7993  -21.2423   25.6084 C   0  0  0  0  0  0  0  0  0  0  0  0
   20.4877  -20.7264   26.6638 C   0  0  0  0  0  0  0  0  0  0  0  0
  1  3  1  0  0  0  0
  2  3  2  0  0  0  0
  2 12  1  0  0  0  0
  3  4  1  0  0  0  0
  4  6  1  0  0  0  0
  5 22  1  0  0  0  0
  6  7  1  0  0  0  0
  6  8  2  0  0  0  0
  7 12  2  0  0  0  0
  7  9  1  0  0  0  0
  9 10  1  0  0  0  0
  9 22  1  0  0  0  0
 10 11  1  0  0  0  0
 10 14  1  1  0  0  0
 11 13  1  0  0  0  0
 12 13  1  0  0  0  0
 14 15  1  0  0  0  0
 15 19  1  0  0  0  0
 16 17  2  0  0  0  0
 16 21  1  0  0  0  0
 17 18  1  0  0  0  0
 18 19  2  0  0  0  0
 19 20  1  0  0  0  0
 20 21  2  0  0  0  0
M  END
>  <CHROM.1>
-54.72791599,-58.59777747,-160.51348556,-36.56582008,18.56792915,-19.75307812
28.30061786,0.54070006,0.05913172,1.41803062

>  <Name>
ligand

>  <RI>
0

>  <Rbt.Current_Directory>
/home/itssahil/PROJECTS/Mol_Feturizer/Test_systems_manuscript/rnas/3sd3

>  <Rbt.Executable>
rbdock ($Id: //depot/dev/client3/rdock/2013.1/src/exe/rbdock.cxx#4 $)

>  <Rbt.Library>
libRbt.so (2013.1, Build901 2013/11/27)

>  <Rbt.Parameter_File>
/export/apps/rDock/src/rDock_2013.1_src/data/scripts/dock_solv.prm

>  <Rbt.Receptor>
prm/pocket_docking_7.prm

>  <SCORE>
-12.6307

>  <SCORE.INTER>
-11.7297

>  <SCORE.INTER.CONST>
1

>  <SCORE.INTER.POLAR>
0

>  <SCORE.INTER.ROT>
4

>  <SCORE.INTER.SOLV>
7.34462

>  <SCORE.INTER.VDW>
-16.5347

>  <SCORE.INTER.norm>
-0.533168

>  <SCORE.INTRA>
-0.901047

>  <SCORE.INTRA.DIHEDRAL>
-0.624067

>  <SCORE.INTRA.DIHEDRAL.0>
2.54655

>  <SCORE.INTRA.POLAR>
0

>  <SCORE.INTRA.POLAR.0>
0

>  <SCORE.INTRA.REPUL>
0

>  <SCORE.INTRA.REPUL.0>
0

>  <SCORE.INTRA.SOLV>
-0.135913

>  <SCORE.INTRA.SOLV.lig_0>
-56.4922

>  <SCORE.INTRA.VDW>
-0.521057

>  <SCORE.INTRA.VDW.0>
-0.696801

>  <SCORE.INTRA.norm>
-0.0409567

>  <SCORE.RESTR>
0

>  <SCORE.RESTR.CAVITY>
0

>  <SCORE.RESTR.norm>
0

>  <SCORE.SYSTEM>
0

>  <SCORE.SYSTEM.CONST>
0

>  <SCORE.SYSTEM.DIHEDRAL>
0

>  <SCORE.SYSTEM.SOLV>
0

>  <SCORE.SYSTEM.norm>
0

>  <SCORE.heavy>
22

>  <SCORE.norm>
-0.574125

>  <RMSD>
6.948

$$$$
ligand
 OpenBabel02271912143D
libRbt.so/2013.1/901 2013/11/27
 22 24  0  0  0  0  0  0  0  0999 V2000
   24.4374  -21.8711   26.4284 N   0  0  0  0  0  0  0  0  0  0  0  0
   22.1199  -22.3959   26.1340 N   0  0  0  0  0  0  0  0  0  0  0  0
   23.0841  -21.8822   26.9154 C   0  0  0  0  0  0  0  0  0  0  0  0
   22.8274  -21.3862   28.1195 N   0  0  0  0  0  0  0  0  0  0  0  0
   18.1598  -21.3887   30.1755 O   0  0  0  0  0  0  0  0  0  0  0  0
   21.5680  -21.3883   28.5940 C   0  0  0  0  0  0  0  0  0  0  0  0
   20.5231  -21.9360   27.7987 C   0  0  0  0  0  0  0  0  0  0  0  0
   21.3288  -20.8671   29.8457 O   0  0  0  0  0  0  0  0  0  0  0  0
   19.1224  -21.9859   28.1688 N   0  0  0  0  0  0  0  0  0  0  0  0
   18.1516  -21.7081   27.1024 C   0  0  2  0  0  0  0  0  0  0  0  0
   18.4233  -22.5650   25.9056 C   0  0  0  0  0  0  0  0  0  0  0  0
   20.8409  -22.4257   26.5567 C   0  0  0  0  0  0  0  0  0  0  0  0
   19.8192  -22.9666   25.7430 N   0  0  0  0  0  0  0  0  0  0  0  0
   18.1203  -20.2347   26.6576 C   0  0  0  0  0  0  0  0  0  0  0  0
   17.0426  -20.0138   25.7011 N   0  0  0  0  0  0  0  0  0  0  0  0
   12.9796  -20.5964   26.8208 C   0  0  0  0  0  0  0  0  0  0  0  0
   13.5231  -21.3372   25.7848 C   0  0  0  0  0  0  0  0  0  0  0  0
   14.8676  -21.1499   25.4098 C   0  0  0  0  0  0  0  0  0  0  0  0
   15.6497  -20.2200   26.0781 C   0  0  0  0  0  0  0  0  0  0  0  0
   15.1006  -19.4771   27.1191 C   0  0  0  0  0  0  0  0  0  0  0  0
   13.7671  -19.6657   27.4912 C   0  0  0  0  0  0  0  0  0  0  0  0
   18.6471  -22.2646   29.4807 C   0  0  0  0  0  0  0  0  0  0  0  0
  1  3  1  0  0  0  0
  2  3  2  0  0  0  0
  2 12  1  0  0  0  0
  3  4  1  0  0  0  0
  4  6  1  0  0  0  0
  5 22  1  0  0  0  0
  6  7  1  0  0  0  0
  6  8  2  0  0  0  0
  7 12  2  0  0  0  0
  7  9  1  0  0  0  0
  9 10  1  0  0  0  0
  9 22  1  0  0  0  0
 10 11  1  0  0  0  0
 10 14  1  6  0  0  0
 11 13  1  0  0  0  0
 12 13  1  0  0  0  0
 14 15  1  0  0  0  0
 15 19  1  0  0  0  0
 16 17  2  0  0  0  0
 16 21  1  0  0  0  0
 17 18  1  0  0  0  0
 18 19  2  0  0  0  0
 19 20  1  0  0  0  0
 20 21  2  0  0  0  0
M  END
>  <CHROM.1>
107.65742771,-174.13916683,62.48805889,-120.03174741,18.75720241,-21.37052804
27.24459440,-0.09171446,0.19005025,-1.72988363

>  <Name>
ligand

>  <RI>
0

>  <Rbt.Current_Directory>
/home/itssahil/PROJECTS/Mol_Feturizer/Test_systems_manuscript/rnas/3sd3

>  <Rbt.Executable>
rbdock ($Id: //depot/dev/client3/rdock/2013.1/src/exe/rbdock.cxx#4 $)

>  <Rbt.Library>
libRbt.so (2013.1, Build901 2013/11/27)

>  <Rbt.Parameter_File>
/export/apps/rDock/src/rDock_2013.1_src/data/scripts/dock_solv.prm

>  <Rbt.Receptor>
prm/pocket_docking_5.prm

>  <SCORE>
-18.6623

>  <SCORE.INTER>
-17.5076

>  <SCORE.INTER.CONST>
1

>  <SCORE.INTER.POLAR>
0

>  <SCORE.INTER.ROT>
4

>  <SCORE.INTER.SOLV>
9.29507

>  <SCORE.INTER.VDW>
-21.0368

>  <SCORE.INTER.norm>
-0.795801

>  <SCORE.INTRA>
-1.15471

>  <SCORE.INTRA.DIHEDRAL>
-0.793626

>  <SCORE.INTRA.DIHEDRAL.0>
2.54655

>  <SCORE.INTRA.POLAR>
0

>  <SCORE.INTRA.POLAR.0>
0

>  <SCORE.INTRA.REPUL>
0

>  <SCORE.INTRA.REPUL.0>
0

>  <SCORE.INTRA.SOLV>
-0.463411

>  <SCORE.INTRA.SOLV.lig_0>
-56.4922

>  <SCORE.INTRA.VDW>
-0.526195

>  <SCORE.INTRA.VDW.0>
-0.696801

>  <SCORE.INTRA.norm>
-0.052487

>  <SCORE.RESTR>
0

>  <SCORE.RESTR.CAVITY>
0

>  <SCORE.RESTR.norm>
0

>  <SCORE.SYSTEM>
0

>  <SCORE.SYSTEM.CONST>
0

>  <SCORE.SYSTEM.DIHEDRAL>
0

>  <SCORE.SYSTEM.SOLV>
0

>  <SCORE.SYSTEM.norm>
0

>  <SCORE.heavy>
22

>  <SCORE.norm>
-0.848288

>  <RMSD>
6.951

$$$$
ligand
 OpenBabel02271912143D
libRbt.so/2013.1/901 2013/11/27
 22 24  0  0  0  0  0  0  0  0999 V2000
   24.3029  -18.3590   26.7350 N   0  0  0  0  0  0  0  0  0  0  0  0
   22.1150  -18.5896   25.7902 N   0  0  0  0  0  0  0  0  0  0  0  0
   23.1080  -19.1290   26.5164 C   0  0  0  0  0  0  0  0  0  0  0  0
   23.0208  -20.3470   27.0366 N   0  0  0  0  0  0  0  0  0  0  0  0
   18.7181  -23.3150   26.1866 O   0  0  0  0  0  0  0  0  0  0  0  0
   21.9116  -21.0841   26.8426 C   0  0  0  0  0  0  0  0  0  0  0  0
   20.8446  -20.5497   26.0678 C   0  0  0  0  0  0  0  0  0  0  0  0
   21.8464  -22.3441   27.3938 O   0  0  0  0  0  0  0  0  0  0  0  0
   19.5870  -21.2169   25.7950 N   0  0  0  0  0  0  0  0  0  0  0  0
   18.3801  -20.3806   25.8263 C   0  0  2  0  0  0  0  0  0  0  0  0
   18.5507  -19.1757   24.9547 C   0  0  0  0  0  0  0  0  0  0  0  0
   20.9814  -19.2812   25.5621 C   0  0  0  0  0  0  0  0  0  0  0  0
   19.9316  -18.7235   24.7969 N   0  0  0  0  0  0  0  0  0  0  0  0
   17.9816  -19.9156   27.2387 C   0  0  0  0  0  0  0  0  0  0  0  0
   16.7330  -19.1645   27.1946 N   0  0  0  0  0  0  0  0  0  0  0  0
   13.0558  -21.0473   26.1774 C   0  0  0  0  0  0  0  0  0  0  0  0
   14.2078  -21.3575   25.4743 C   0  0  0  0  0  0  0  0  0  0  0  0
   15.4284  -20.7385   25.8066 C   0  0  0  0  0  0  0  0  0  0  0  0
   15.4775  -19.8145   26.8393 C   0  0  0  0  0  0  0  0  0  0  0  0
   14.3181  -19.5049   27.5442 C   0  0  0  0  0  0  0  0  0  0  0  0
   13.1083  -20.1215   27.2146 C   0  0  0  0  0  0  0  0  0  0  0  0
   19.4573  -22.6075   25.5228 C   0  0  0  0  0  0  0  0  0  0  0  0
  1  3  1  0  0  0  0
  2  3  2  0  0  0  0
  2 12  1  0  0  0  0
  3  4  1  0  0  0  0
  4  6  1  0  0  0  0
  5 22  1  0  0  0  0
  6  7  1  0  0  0  0
  6  8  2  0  0  0  0
  7 12  2  0  0  0  0
  7  9  1  0  0  0  0
  9 10  1  0  0  0  0
  9 22  1  0  0  0  0
 10 11  1  0  0  0  0
 10 14  1  1  0  0  0
 11 13  1  0  0  0  0
 12 13  1  0  0  0  0
 14 15  1  0  0  0  0
 15 19  1  0  0  0  0
 16 17  2  0  0  0  0
 16 21  1  0  0  0  0
 17 18  1  0  0  0  0
 18 19  2  0  0  0  0
 19 20  1  0  0  0  0
 20 21  2  0  0  0  0
M  END
>  <CHROM.1>
124.30003102,-176.43343765,66.86096800,-41.44307937,18.90263550,-20.34499239
26.29705854,0.07458545,0.00801240,-0.03375583

>  <Name>
ligand

>  <RI>
0

>  <Rbt.Current_Directory>
/home/itssahil/PROJECTS/Mol_Feturizer/Test_systems_manuscript/rnas/3sd3

>  <Rbt.Executable>
rbdock ($Id: //depot/dev/client3/rdock/2013.1/src/exe/rbdock.cxx#4 $)

>  <Rbt.Library>
libRbt.so (2013.1, Build901 2013/11/27)

>  <Rbt.Parameter_File>
/export/apps/rDock/src/rDock_2013.1_src/data/scripts/dock_solv.prm

>  <Rbt.Receptor>
prm/pocket_docking_6.prm

>  <SCORE>
-12.7419

>  <SCORE.INTER>
-12.0808

>  <SCORE.INTER.CONST>
1

>  <SCORE.INTER.POLAR>
0

>  <SCORE.INTER.ROT>
4

>  <SCORE.INTER.SOLV>
6.36401

>  <SCORE.INTER.VDW>
-16.4418

>  <SCORE.INTER.norm>
-0.549125

>  <SCORE.INTRA>
-0.661147

>  <SCORE.INTRA.DIHEDRAL>
-0.815805

>  <SCORE.INTRA.DIHEDRAL.0>
2.54655

>  <SCORE.INTRA.POLAR>
0

>  <SCORE.INTRA.POLAR.0>
0

>  <SCORE.INTRA.REPUL>
0

>  <SCORE.INTRA.REPUL.0>
0

>  <SCORE.INTRA.SOLV>
-0.478047

>  <SCORE.INTRA.SOLV.lig_0>
-56.4922

>  <SCORE.INTRA.VDW>
-0.0142212

>  <SCORE.INTRA.VDW.0>
-0.696801

>  <SCORE.INTRA.norm>
-0.0300521

>  <SCORE.RESTR>
0

>  <SCORE.RESTR.CAVITY>
0

>  <SCORE.RESTR.norm>
0

>  <SCORE.SYSTEM>
0

>  <SCORE.SYSTEM.CONST>
0

>  <SCORE.SYSTEM.DIHEDRAL>
0

>  <SCORE.SYSTEM.SOLV>
0

>  <SCORE.SYSTEM.norm>
0

>  <SCORE.heavy>
22

>  <SCORE.norm>
-0.579177

>  <RMSD>
6.963

$$$$
ligand
 OpenBabel02271912143D
libRbt.so/2013.1/901 2013/11/27
 22 24  0  0  0  0  0  0  0  0999 V2000
   23.3119  -21.0988   24.1969 N   0  0  0  0  0  0  0  0  0  0  0  0
   21.9645  -20.0761   25.8915 N   0  0  0  0  0  0  0  0  0  0  0  0
   22.3941  -20.0748   24.6189 C   0  0  0  0  0  0  0  0  0  0  0  0
   21.9993  -19.1605   23.7415 N   0  0  0  0  0  0  0  0  0  0  0  0
   20.5058  -15.0259   26.1796 O   0  0  0  0  0  0  0  0  0  0  0  0
   21.1419  -18.1934   24.1166 C   0  0  0  0  0  0  0  0  0  0  0  0
   20.6757  -18.1562   25.4604 C   0  0  0  0  0  0  0  0  0  0  0  0
   20.7475  -17.2577   23.1868 O   0  0  0  0  0  0  0  0  0  0  0  0
   19.7378  -17.1910   25.9988 N   0  0  0  0  0  0  0  0  0  0  0  0
   18.7321  -17.7061   26.9370 C   0  0  2  0  0  0  0  0  0  0  0  0
   19.3851  -18.4910   28.0315 C   0  0  0  0  0  0  0  0  0  0  0  0
   21.1064  -19.1318   26.3243 C   0  0  0  0  0  0  0  0  0  0  0  0
   20.6503  -19.1227   27.6624 N   0  0  0  0  0  0  0  0  0  0  0  0
   17.6553  -18.5845   26.2747 C   0  0  0  0  0  0  0  0  0  0  0  0
   16.6669  -19.0082   27.2589 N   0  0  0  0  0  0  0  0  0  0  0  0
   13.1697  -21.1137   26.0600 C   0  0  0  0  0  0  0  0  0  0  0  0
   13.1072  -20.2129   27.1099 C   0  0  0  0  0  0  0  0  0  0  0  0
   14.2610  -19.5121   27.5111 C   0  0  0  0  0  0  0  0  0  0  0  0
   15.4638  -19.7251   26.8548 C   0  0  0  0  0  0  0  0  0  0  0  0
   15.5234  -20.6309   25.7998 C   0  0  0  0  0  0  0  0  0  0  0  0
   14.3773  -21.3239   25.4016 C   0  0  0  0  0  0  0  0  0  0  0  0
   19.7257  -15.8083   25.6632 C   0  0  0  0  0  0  0  0  0  0  0  0
  1  3  1  0  0  0  0
  2  3  2  0  0  0  0
  2 12  1  0  0  0  0
  3  4  1  0  0  0  0
  4  6  1  0  0  0  0
  5 22  1  0  0  0  0
  6  7  1  0  0  0  0
  6  8  2  0  0  0  0
  7 12  2  0  0  0  0
  7  9  1  0  0  0  0
  9 10  1  0  0  0  0
  9 22  1  0  0  0  0
 10 11  1  0  0  0  0
 10 14  1  6  0  0  0
 11 13  1  0  0  0  0
 12 13  1  0  0  0  0
 14 15  1  0  0  0  0
 15 19  1  0  0  0  0
 16 17  2  0  0  0  0
 16 21  1  0  0  0  0
 17 18  1  0  0  0  0
 18 19  2  0  0  0  0
 19 20  1  0  0  0  0
 20 21  2  0  0  0  0
M  END
>  <CHROM.1>
-80.03347188,-177.60861864,173.10863205,-144.51444313,18.87785350,-18.84259281
25.90131037,-0.14852752,-0.28215378,-2.84856436

>  <Name>
ligand

>  <RI>
0

>  <Rbt.Current_Directory>
/home/itssahil/PROJECTS/Mol_Feturizer/Test_systems_manuscript/rnas/3sd3

>  <Rbt.Executable>
rbdock ($Id: //depot/dev/client3/rdock/2013.1/src/exe/rbdock.cxx#4 $)

>  <Rbt.Library>
libRbt.so (2013.1, Build901 2013/11/27)

>  <Rbt.Parameter_File>
/export/apps/rDock/src/rDock_2013.1_src/data/scripts/dock_solv.prm

>  <Rbt.Receptor>
prm/pocket_docking_7.prm

>  <SCORE>
-12.1283

>  <SCORE.INTER>
-11.5507

>  <SCORE.INTER.CONST>
1

>  <SCORE.INTER.POLAR>
0

>  <SCORE.INTER.ROT>
4

>  <SCORE.INTER.SOLV>
5.4786

>  <SCORE.INTER.VDW>
-15.7934

>  <SCORE.INTER.norm>
-0.525033

>  <SCORE.INTRA>
-0.577534

>  <SCORE.INTRA.DIHEDRAL>
-0.824594

>  <SCORE.INTRA.DIHEDRAL.0>
2.54655

>  <SCORE.INTRA.POLAR>
0

>  <SCORE.INTRA.POLAR.0>
0

>  <SCORE.INTRA.REPUL>
0

>  <SCORE.INTRA.REPUL.0>
0

>  <SCORE.INTRA.SOLV>
-0.667476

>  <SCORE.INTRA.SOLV.lig_0>
-56.4922

>  <SCORE.INTRA.VDW>
0.168501

>  <SCORE.INTRA.VDW.0>
-0.696801

>  <SCORE.INTRA.norm>
-0.0262515

>  <SCORE.RESTR>
0

>  <SCORE.RESTR.CAVITY>
0

>  <SCORE.RESTR.norm>
0

>  <SCORE.SYSTEM>
0

>  <SCORE.SYSTEM.CONST>
0

>  <SCORE.SYSTEM.DIHEDRAL>
0

>  <SCORE.SYSTEM.SOLV>
0

>  <SCORE.SYSTEM.norm>
0

>  <SCORE.heavy>
22

>  <SCORE.norm>
-0.551285

>  <RMSD>
6.963

$$$$
ligand
 OpenBabel02271912143D
libRbt.so/2013.1/901 2013/11/27
 22 24  0  0  0  0  0  0  0  0999 V2000
   23.6124  -21.9232   25.5562 N   0  0  0  0  0  0  0  0  0  0  0  0
   22.1857  -21.6171   27.4545 N   0  0  0  0  0  0  0  0  0  0  0  0
   22.6021  -21.1761   26.2561 C   0  0  0  0  0  0  0  0  0  0  0  0
   22.1117  -20.0753   25.6996 N   0  0  0  0  0  0  0  0  0  0  0  0
   20.0014  -17.1173   29.4678 O   0  0  0  0  0  0  0  0  0  0  0  0
   21.1666  -19.3615   26.3387 C   0  0  0  0  0  0  0  0  0  0  0  0
   20.7106  -19.7920   27.6158 C   0  0  0  0  0  0  0  0  0  0  0  0
   20.6742  -18.2241   25.7391 O   0  0  0  0  0  0  0  0  0  0  0  0
   19.6870  -19.1389   28.4075 N   0  0  0  0  0  0  0  0  0  0  0  0
   18.7449  -20.0161   29.1147 C   0  0  2  0  0  0  0  0  0  0  0  0
   19.4814  -21.0376   29.9237 C   0  0  0  0  0  0  0  0  0  0  0  0
   21.2426  -20.9430   28.1411 C   0  0  0  0  0  0  0  0  0  0  0  0
   20.7994  -21.3973   29.4043 N   0  0  0  0  0  0  0  0  0  0  0  0
   17.7541  -20.7420   28.1868 C   0  0  0  0  0  0  0  0  0  0  0  0
   16.9395  -19.7782   27.4571 N   0  0  0  0  0  0  0  0  0  0  0  0
   13.0836  -20.8318   25.9998 C   0  0  0  0  0  0  0  0  0  0  0  0
   13.2025  -20.0736   27.1524 C   0  0  0  0  0  0  0  0  0  0  0  0
   14.4759  -19.7206   27.6396 C   0  0  0  0  0  0  0  0  0  0  0  0
   15.6144  -20.1345   26.9649 C   0  0  0  0  0  0  0  0  0  0  0  0
   15.4918  -20.8963   25.8066 C   0  0  0  0  0  0  0  0  0  0  0  0
   14.2276  -21.2438   25.3234 C   0  0  0  0  0  0  0  0  0  0  0  0
   19.5361  -17.7285   28.5206 C   0  0  0  0  0  0  0  0  0  0  0  0
  1  3  1  0  0  0  0
  2  3  2  0  0  0  0
  2 12  1  0  0  0  0
  3  4  1  0  0  0  0
  4  6  1  0  0  0  0
  5 22  1  0  0  0  0
  6  7  1  0  0  0  0
  6  8  2  0  0  0  0
  7 12  2  0  0  0  0
  7  9  1  0  0  0  0
  9 10  1  0  0  0  0
  9 22  1  0  0  0  0
 10 11  1  0  0  0  0
 10 14  1  6  0  0  0
 11 13  1  0  0  0  0
 12 13  1  0  0  0  0
 14 15  1  0  0  0  0
 15 19  1  0  0  0  0
 16 17  2  0  0  0  0
 16 21  1  0  0  0  0
 17 18  1  0  0  0  0
 18 19  2  0  0  0  0
 19 20  1  0  0  0  0
 20 21  2  0  0  0  0
M  END
>  <CHROM.1>
-97.15374730,-60.73959370,-154.33525976,101.75066370,18.91992195,-20.08221046
27.41333386,-0.04389503,0.03253640,-2.18381020

>  <Name>
ligand

>  <RI>
0

>  <Rbt.Current_Directory>
/home/itssahil/PROJECTS/Mol_Feturizer/Test_systems_manuscript/rnas/3sd3

>  <Rbt.Executable>
rbdock ($Id: //depot/dev/client3/rdock/2013.1/src/exe/rbdock.cxx#4 $)

>  <Rbt.Library>
libRbt.so (2013.1, Build901 2013/11/27)

>  <Rbt.Parameter_File>
/export/apps/rDock/src/rDock_2013.1_src/data/scripts/dock_solv.prm

>  <Rbt.Receptor>
prm/pocket_docking_8.prm

>  <SCORE>
-13.0133

>  <SCORE.INTER>
-11.9118

>  <SCORE.INTER.CONST>
1

>  <SCORE.INTER.POLAR>
0

>  <SCORE.INTER.ROT>
4

>  <SCORE.INTER.SOLV>
6.53525

>  <SCORE.INTER.VDW>
-16.3863

>  <SCORE.INTER.norm>
-0.541445

>  <SCORE.INTRA>
-1.10155

>  <SCORE.INTRA.DIHEDRAL>
-0.418281

>  <SCORE.INTRA.DIHEDRAL.0>
2.54655

>  <SCORE.INTRA.POLAR>
0

>  <SCORE.INTRA.POLAR.0>
0

>  <SCORE.INTRA.REPUL>
0

>  <SCORE.INTRA.REPUL.0>
0

>  <SCORE.INTRA.SOLV>
-0.285188

>  <SCORE.INTRA.SOLV.lig_0>
-56.4922

>  <SCORE.INTRA.VDW>
-0.749818

>  <SCORE.INTRA.VDW.0>
-0.696801

>  <SCORE.INTRA.norm>
-0.0500706

>  <SCORE.RESTR>
0

>  <SCORE.RESTR.CAVITY>
0

>  <SCORE.RESTR.norm>
0

>  <SCORE.SYSTEM>
0

>  <SCORE.SYSTEM.CONST>
0

>  <SCORE.SYSTEM.DIHEDRAL>
0

>  <SCORE.SYSTEM.SOLV>
0

>  <SCORE.SYSTEM.norm>
0

>  <SCORE.heavy>
22

>  <SCORE.norm>
-0.591515

>  <RMSD>
6.965

$$$$
ligand
 OpenBabel02271912143D
libRbt.so/2013.1/901 2013/11/27
 22 24  0  0  0  0  0  0  0  0999 V2000
   23.0351  -17.3681   20.9942 N   0  0  0  0  0  0  0  0  0  0  0  0
   21.8121  -19.4083   20.7214 N   0  0  0  0  0  0  0  0  0  0  0  0
   22.8195  -18.7522   21.3203 C   0  0  0  0  0  0  0  0  0  0  0  0
   23.6199  -19.3401   22.2010 N   0  0  0  0  0  0  0  0  0  0  0  0
   24.0339  -23.8455   21.6999 O   0  0  0  0  0  0  0  0  0  0  0  0
   23.4357  -20.6347   22.5190 C   0  0  0  0  0  0  0  0  0  0  0  0
   22.3860  -21.3646   21.8946 C   0  0  0  0  0  0  0  0  0  0  0  0
   24.2794  -21.2202   23.4360 O   0  0  0  0  0  0  0  0  0  0  0  0
   22.0567  -22.7522   22.1538 N   0  0  0  0  0  0  0  0  0  0  0  0
   20.6282  -23.0885   22.2091 C   0  0  2  0  0  0  0  0  0  0  0  0
   19.9205  -22.5857   20.9897 C   0  0  0  0  0  0  0  0  0  0  0  0
   21.5805  -20.7061   20.9996 C   0  0  0  0  0  0  0  0  0  0  0  0
   20.5244  -21.4064   20.3727 N   0  0  0  0  0  0  0  0  0  0  0  0
   19.9087  -22.5447   23.4566 C   0  0  0  0  0  0  0  0  0  0  0  0
   20.4645  -23.1401   24.6656 N   0  0  0  0  0  0  0  0  0  0  0  0
   18.8962  -22.1654   28.4986 C   0  0  0  0  0  0  0  0  0  0  0  0
   20.1945  -21.8102   28.1732 C   0  0  0  0  0  0  0  0  0  0  0  0
   20.7193  -22.1290   26.9058 C   0  0  0  0  0  0  0  0  0  0  0  0
   19.9353  -22.8021   25.9812 C   0  0  0  0  0  0  0  0  0  0  0  0
   18.6308  -23.1577   26.3110 C   0  0  0  0  0  0  0  0  0  0  0  0
   18.1109  -22.8387   27.5681 C   0  0  0  0  0  0  0  0  0  0  0  0
   23.0173  -23.7794   22.3705 C   0  0  0  0  0  0  0  0  0  0  0  0
  1  3  1  0  0  0  0
  2  3  2  0  0  0  0
  2 12  1  0  0  0  0
  3  4  1  0  0  0  0
  4  6  1  0  0  0  0
  5 22  1  0  0  0  0
  6  7  1  0  0  0  0
  6  8  2  0  0  0  0
  7 12  2  0  0  0  0
  7  9  1  0  0  0  0
  9 10  1  0  0  0  0
  9 22  1  0  0  0  0
 10 11  1  0  0  0  0
 10 14  1  1  0  0  0
 11 13  1  0  0  0  0
 12 13  1  0  0  0  0
 14 15  1  0  0  0  0
 15 19  1  0  0  0  0
 16 17  2  0  0  0  0
 16 21  1  0  0  0  0
 17 18  1  0  0  0  0
 18 19  2  0  0  0  0
 19 20  1  0  0  0  0
 20 21  2  0  0  0  0
M  END
>  <CHROM.1>
-41.52132856,-63.11713794,-178.98496361,-114.68006331,21.45220708,-21.68439129
23.31246739,-0.24151492,1.05518655,0.66558503

>  <Name>
ligand

>  <RI>
0

>  <Rbt.Current_Directory>
/home/itssahil/PROJECTS/Mol_Feturizer/Test_systems_manuscript/rnas/3sd3

>  <Rbt.Executable>
rbdock ($Id: //depot/dev/client3/rdock/2013.1/src/exe/rbdock.cxx#4 $)

>  <Rbt.Library>
libRbt.so (2013.1, Build901 2013/11/27)

>  <Rbt.Parameter_File>
/export/apps/rDock/src/rDock_2013.1_src/data/scripts/dock_solv.prm

>  <Rbt.Receptor>
prm/pocket_docking_8.prm

>  <SCORE>
-7.72482

>  <SCORE.INTER>
-6.4229

>  <SCORE.INTER.CONST>
1

>  <SCORE.INTER.POLAR>
0

>  <SCORE.INTER.ROT>
4

>  <SCORE.INTER.SOLV>
7.6841

>  <SCORE.INTER.VDW>
-13.11

>  <SCORE.INTER.norm>
-0.29195

>  <SCORE.INTRA>
-1.30192

>  <SCORE.INTRA.DIHEDRAL>
-0.903201

>  <SCORE.INTRA.DIHEDRAL.0>
2.54655

>  <SCORE.INTRA.POLAR>
0

>  <SCORE.INTRA.POLAR.0>
0

>  <SCORE.INTRA.REPUL>
0

>  <SCORE.INTRA.REPUL.0>
0

>  <SCORE.INTRA.SOLV>
-0.147889

>  <SCORE.INTRA.SOLV.lig_0>
-56.4922

>  <SCORE.INTRA.VDW>
-0.77638

>  <SCORE.INTRA.VDW.0>
-0.696801

>  <SCORE.INTRA.norm>
-0.0591784

>  <SCORE.RESTR>
0

>  <SCORE.RESTR.CAVITY>
0

>  <SCORE.RESTR.norm>
0

>  <SCORE.SYSTEM>
0

>  <SCORE.SYSTEM.CONST>
0

>  <SCORE.SYSTEM.DIHEDRAL>
0

>  <SCORE.SYSTEM.SOLV>
0

>  <SCORE.SYSTEM.norm>
0

>  <SCORE.heavy>
22

>  <SCORE.norm>
-0.351128

>  <RMSD>
6.969

$$$$
ligand
 OpenBabel02271912143D
libRbt.so/2013.1/901 2013/11/27
 22 24  0  0  0  0  0  0  0  0999 V2000
   24.3620  -21.4575   26.3421 N   0  0  0  0  0  0  0  0  0  0  0  0
   22.4584  -20.0818   25.8767 N   0  0  0  0  0  0  0  0  0  0  0  0
   23.0134  -21.3049   25.8659 C   0  0  0  0  0  0  0  0  0  0  0  0
   22.3579  -22.3738   25.4304 N   0  0  0  0  0  0  0  0  0  0  0  0
   17.2815  -21.4130   23.3512 O   0  0  0  0  0  0  0  0  0  0  0  0
   21.0957  -22.2521   24.9797 C   0  0  0  0  0  0  0  0  0  0  0  0
   20.4802  -20.9694   24.9647 C   0  0  0  0  0  0  0  0  0  0  0  0
   20.4379  -23.3766   24.5344 O   0  0  0  0  0  0  0  0  0  0  0  0
   19.1257  -20.6916   24.5297 N   0  0  0  0  0  0  0  0  0  0  0  0
   18.3704  -19.7113   25.3206 C   0  0  2  0  0  0  0  0  0  0  0  0
   19.1546  -18.4465   25.4811 C   0  0  0  0  0  0  0  0  0  0  0  0
   21.1982  -19.8991   25.4363 C   0  0  0  0  0  0  0  0  0  0  0  0
   20.6058  -18.6155   25.4410 N   0  0  0  0  0  0  0  0  0  0  0  0
   17.9618  -20.2190   26.7153 C   0  0  0  0  0  0  0  0  0  0  0  0
   16.7807  -19.5088   27.1903 N   0  0  0  0  0  0  0  0  0  0  0  0
   12.8572  -20.9064   26.3217 C   0  0  0  0  0  0  0  0  0  0  0  0
   13.9328  -21.3621   25.5780 C   0  0  0  0  0  0  0  0  0  0  0  0
   15.2341  -20.9041   25.8610 C   0  0  0  0  0  0  0  0  0  0  0  0
   15.4399  -19.9931   26.8858 C   0  0  0  0  0  0  0  0  0  0  0  0
   14.3570  -19.5370   27.6317 C   0  0  0  0  0  0  0  0  0  0  0  0
   13.0667  -19.9940   27.3510 C   0  0  0  0  0  0  0  0  0  0  0  0
   18.4953  -21.3142   23.4162 C   0  0  0  0  0  0  0  0  0  0  0  0
  1  3  1  0  0  0  0
  2  3  2  0  0  0  0
  2 12  1  0  0  0  0
  3  4  1  0  0  0  0
  4  6  1  0  0  0  0
  5 22  1  0  0  0  0
  6  7  1  0  0  0  0
  6  8  2  0  0  0  0
  7 12  2  0  0  0  0
  7  9  1  0  0  0  0
  9 10  1  0  0  0  0
  9 22  1  0  0  0  0
 10 11  1  0  0  0  0
 10 14  1  1  0  0  0
 11 13  1  0  0  0  0
 12 13  1  0  0  0  0
 14 15  1  0  0  0  0
 15 19  1  0  0  0  0
 16 17  2  0  0  0  0
 16 21  1  0  0  0  0
 17 18  1  0  0  0  0
 18 19  2  0  0  0  0
 19 20  1  0  0  0  0
 20 21  2  0  0  0  0
M  END
>  <CHROM.1>
154.65085796,-154.89875692,88.87550333,-17.59057010,18.65486358,-20.67419043
25.60752856,-0.16598556,0.03221827,0.66734166

>  <Name>
ligand

>  <RI>
0

>  <Rbt.Current_Directory>
/home/itssahil/PROJECTS/Mol_Feturizer/Test_systems_manuscript/rnas/3sd3

>  <Rbt.Executable>
rbdock ($Id: //depot/dev/client3/rdock/2013.1/src/exe/rbdock.cxx#4 $)

>  <Rbt.Library>
libRbt.so (2013.1, Build901 2013/11/27)

>  <Rbt.Parameter_File>
/export/apps/rDock/src/rDock_2013.1_src/data/scripts/dock_solv.prm

>  <Rbt.Receptor>
prm/pocket_docking_3.prm

>  <SCORE>
-11.3916

>  <SCORE.INTER>
-11.666

>  <SCORE.INTER.CONST>
1

>  <SCORE.INTER.POLAR>
0

>  <SCORE.INTER.ROT>
4

>  <SCORE.INTER.SOLV>
5.48295

>  <SCORE.INTER.VDW>
-15.8717

>  <SCORE.INTER.norm>
-0.530273

>  <SCORE.INTRA>
0.267915

>  <SCORE.INTRA.DIHEDRAL>
1.64784

>  <SCORE.INTRA.DIHEDRAL.0>
2.54655

>  <SCORE.INTRA.POLAR>
0

>  <SCORE.INTRA.POLAR.0>
0

>  <SCORE.INTRA.REPUL>
0

>  <SCORE.INTRA.REPUL.0>
0

>  <SCORE.INTRA.SOLV>
-0.742357

>  <SCORE.INTRA.SOLV.lig_0>
-56.4922

>  <SCORE.INTRA.VDW>
-0.184826

>  <SCORE.INTRA.VDW.0>
-0.696801

>  <SCORE.INTRA.norm>
0.012178

>  <SCORE.RESTR>
0.0065089

>  <SCORE.RESTR.CAVITY>
0.0065089

>  <SCORE.RESTR.norm>
0.000295859

>  <SCORE.SYSTEM>
0

>  <SCORE.SYSTEM.CONST>
0

>  <SCORE.SYSTEM.DIHEDRAL>
0

>  <SCORE.SYSTEM.SOLV>
0

>  <SCORE.SYSTEM.norm>
0

>  <SCORE.heavy>
22

>  <SCORE.norm>
-0.517799

>  <RMSD>
6.978

$$$$
ligand
 OpenBabel02271912143D
libRbt.so/2013.1/901 2013/11/27
 22 24  0  0  0  0  0  0  0  0999 V2000
   24.3239  -21.7588   26.7728 N   0  0  0  0  0  0  0  0  0  0  0  0
   21.9938  -22.2097   26.4558 N   0  0  0  0  0  0  0  0  0  0  0  0
   22.9736  -21.7801   27.2679 C   0  0  0  0  0  0  0  0  0  0  0  0
   22.7350  -21.3762   28.5096 N   0  0  0  0  0  0  0  0  0  0  0  0
   18.1660  -21.4333   30.6295 O   0  0  0  0  0  0  0  0  0  0  0  0
   21.4788  -21.3895   28.9922 C   0  0  0  0  0  0  0  0  0  0  0  0
   20.4175  -21.8502   28.1642 C   0  0  0  0  0  0  0  0  0  0  0  0
   21.2585  -20.9646   30.2832 O   0  0  0  0  0  0  0  0  0  0  0  0
   19.0184  -21.9000   28.5401 N   0  0  0  0  0  0  0  0  0  0  0  0
   18.0473  -21.5180   27.5067 C   0  0  2  0  0  0  0  0  0  0  0  0
   18.2931  -22.2826   26.2436 C   0  0  0  0  0  0  0  0  0  0  0  0
   20.7171  -22.2462   26.8848 C   0  0  0  0  0  0  0  0  0  0  0  0
   19.6790  -22.6991   26.0387 N   0  0  0  0  0  0  0  0  0  0  0  0
   18.0450  -20.0136   27.1804 C   0  0  0  0  0  0  0  0  0  0  0  0
   17.0580  -19.7171   26.1494 N   0  0  0  0  0  0  0  0  0  0  0  0
   12.9546  -20.7090   26.6782 C   0  0  0  0  0  0  0  0  0  0  0  0
   13.5499  -19.7704   27.5041 C   0  0  0  0  0  0  0  0  0  0  0  0
   14.9075  -19.4369   27.3338 C   0  0  0  0  0  0  0  0  0  0  0  0
   15.6516  -20.0508   26.3377 C   0  0  0  0  0  0  0  0  0  0  0  0
   15.0505  -20.9936   25.5090 C   0  0  0  0  0  0  0  0  0  0  0  0
   13.7029  -21.3218   25.6779 C   0  0  0  0  0  0  0  0  0  0  0  0
   18.5451  -22.2720   29.8294 C   0  0  0  0  0  0  0  0  0  0  0  0
  1  3  1  0  0  0  0
  2  3  2  0  0  0  0
  2 12  1  0  0  0  0
  3  4  1  0  0  0  0
  4  6  1  0  0  0  0
  5 22  1  0  0  0  0
  6  7  1  0  0  0  0
  6  8  2  0  0  0  0
  7 12  2  0  0  0  0
  7  9  1  0  0  0  0
  9 10  1  0  0  0  0
  9 22  1  0  0  0  0
 10 11  1  0  0  0  0
 10 14  1  6  0  0  0
 11 13  1  0  0  0  0
 12 13  1  0  0  0  0
 14 15  1  0  0  0  0
 15 19  1  0  0  0  0
 16 17  2  0  0  0  0
 16 21  1  0  0  0  0
 17 18  1  0  0  0  0
 18 19  2  0  0  0  0
 19 20  1  0  0  0  0
 20 21  2  0  0  0  0
M  END
>  <CHROM.1>
102.59297827,179.98388188,57.62785109,64.53525206,18.68663418,-21.27797808
27.54777789,-0.15364176,0.18280823,-1.64908551

>  <Name>
ligand

>  <RI>
0

>  <Rbt.Current_Directory>
/home/itssahil/PROJECTS/Mol_Feturizer/Test_systems_manuscript/rnas/3sd3

>  <Rbt.Executable>
rbdock ($Id: //depot/dev/client3/rdock/2013.1/src/exe/rbdock.cxx#4 $)

>  <Rbt.Library>
libRbt.so (2013.1, Build901 2013/11/27)

>  <Rbt.Parameter_File>
/export/apps/rDock/src/rDock_2013.1_src/data/scripts/dock_solv.prm

>  <Rbt.Receptor>
prm/pocket_docking_6.prm

>  <SCORE>
-18.646

>  <SCORE.INTER>
-17.5783

>  <SCORE.INTER.CONST>
1

>  <SCORE.INTER.POLAR>
0

>  <SCORE.INTER.ROT>
4

>  <SCORE.INTER.SOLV>
8.34067

>  <SCORE.INTER.VDW>
-20.7658

>  <SCORE.INTER.norm>
-0.799015

>  <SCORE.INTRA>
-1.0677

>  <SCORE.INTRA.DIHEDRAL>
-0.928244

>  <SCORE.INTRA.DIHEDRAL.0>
2.54655

>  <SCORE.INTRA.POLAR>
0

>  <SCORE.INTRA.POLAR.0>
0

>  <SCORE.INTRA.REPUL>
0

>  <SCORE.INTRA.REPUL.0>
0

>  <SCORE.INTRA.SOLV>
-0.346305

>  <SCORE.INTRA.SOLV.lig_0>
-56.4922

>  <SCORE.INTRA.VDW>
-0.430427

>  <SCORE.INTRA.VDW.0>
-0.696801

>  <SCORE.INTRA.norm>
-0.0485319

>  <SCORE.RESTR>
0

>  <SCORE.RESTR.CAVITY>
0

>  <SCORE.RESTR.norm>
0

>  <SCORE.SYSTEM>
0

>  <SCORE.SYSTEM.CONST>
0

>  <SCORE.SYSTEM.DIHEDRAL>
0

>  <SCORE.SYSTEM.SOLV>
0

>  <SCORE.SYSTEM.norm>
0

>  <SCORE.heavy>
22

>  <SCORE.norm>
-0.847546

>  <RMSD>
6.982

$$$$
ligand
 OpenBabel02271912143D
libRbt.so/2013.1/901 2013/11/27
 22 24  0  0  0  0  0  0  0  0999 V2000
   24.1191  -22.0560   26.6743 N   0  0  0  0  0  0  0  0  0  0  0  0
   21.7509  -22.3724   26.5176 N   0  0  0  0  0  0  0  0  0  0  0  0
   22.7992  -21.9308   27.2319 C   0  0  0  0  0  0  0  0  0  0  0  0
   22.6551  -21.3843   28.4329 N   0  0  0  0  0  0  0  0  0  0  0  0
   18.9711  -22.7281   30.7247 O   0  0  0  0  0  0  0  0  0  0  0  0
   21.4287  -21.2589   28.9728 C   0  0  0  0  0  0  0  0  0  0  0  0
   20.2963  -21.7274   28.2499 C   0  0  0  0  0  0  0  0  0  0  0  0
   21.3069  -20.6877   30.2196 O   0  0  0  0  0  0  0  0  0  0  0  0
   18.9194  -21.6393   28.6944 N   0  0  0  0  0  0  0  0  0  0  0  0
   17.9205  -21.2993   27.6729 C   0  0  2  0  0  0  0  0  0  0  0  0
   18.0472  -22.2064   26.4890 C   0  0  0  0  0  0  0  0  0  0  0  0
   20.4997  -22.2742   27.0077 C   0  0  0  0  0  0  0  0  0  0  0  0
   19.3900  -22.7385   26.2650 N   0  0  0  0  0  0  0  0  0  0  0  0
   17.9983  -19.8405   27.1875 C   0  0  0  0  0  0  0  0  0  0  0  0
   16.7090  -19.1799   27.3497 N   0  0  0  0  0  0  0  0  0  0  0  0
   13.1374  -21.0070   25.9330 C   0  0  0  0  0  0  0  0  0  0  0  0
   13.1168  -20.2664   27.1029 C   0  0  0  0  0  0  0  0  0  0  0  0
   14.2954  -19.6583   27.5768 C   0  0  0  0  0  0  0  0  0  0  0  0
   15.4806  -19.8024   26.8716 C   0  0  0  0  0  0  0  0  0  0  0  0
   15.4981  -20.5471   25.6960 C   0  0  0  0  0  0  0  0  0  0  0  0
   14.3275  -21.1480   25.2261 C   0  0  0  0  0  0  0  0  0  0  0  0
   18.4937  -21.8411   30.0371 C   0  0  0  0  0  0  0  0  0  0  0  0
  1  3  1  0  0  0  0
  2  3  2  0  0  0  0
  2 12  1  0  0  0  0
  3  4  1  0  0  0  0
  4  6  1  0  0  0  0
  5 22  1  0  0  0  0
  6  7  1  0  0  0  0
  6  8  2  0  0  0  0
  7 12  2  0  0  0  0
  7  9  1  0  0  0  0
  9 10  1  0  0  0  0
  9 22  1  0  0  0  0
 10 11  1  0  0  0  0
 10 14  1  6  0  0  0
 11 13  1  0  0  0  0
 12 13  1  0  0  0  0
 14 15  1  0  0  0  0
 15 19  1  0  0  0  0
 16 17  2  0  0  0  0
 16 21  1  0  0  0  0
 17 18  1  0  0  0  0
 18 19  2  0  0  0  0
 19 20  1  0  0  0  0
 20 21  2  0  0  0  0
M  END
>  <CHROM.1>
-40.61369845,-124.69436601,-49.25746875,144.07291580,18.62882716,-21.28036172
27.62983714,-0.17940065,0.20396841,-1.65123385

>  <Name>
ligand

>  <RI>
0

>  <Rbt.Current_Directory>
/home/itssahil/PROJECTS/Mol_Feturizer/Test_systems_manuscript/rnas/3sd3

>  <Rbt.Executable>
rbdock ($Id: //depot/dev/client3/rdock/2013.1/src/exe/rbdock.cxx#4 $)

>  <Rbt.Library>
libRbt.so (2013.1, Build901 2013/11/27)

>  <Rbt.Parameter_File>
/export/apps/rDock/src/rDock_2013.1_src/data/scripts/dock_solv.prm

>  <Rbt.Receptor>
prm/pocket_docking_6.prm

>  <SCORE>
-15.7928

>  <SCORE.INTER>
-17.1767

>  <SCORE.INTER.CONST>
1

>  <SCORE.INTER.POLAR>
0

>  <SCORE.INTER.ROT>
4

>  <SCORE.INTER.SOLV>
10.7358

>  <SCORE.INTER.VDW>
-21.2964

>  <SCORE.INTER.norm>
-0.780758

>  <SCORE.INTRA>
1.38389

>  <SCORE.INTRA.DIHEDRAL>
4.29321

>  <SCORE.INTRA.DIHEDRAL.0>
2.54655

>  <SCORE.INTRA.POLAR>
0

>  <SCORE.INTRA.POLAR.0>
0

>  <SCORE.INTRA.REPUL>
0

>  <SCORE.INTRA.REPUL.0>
0

>  <SCORE.INTRA.SOLV>
-0.731152

>  <SCORE.INTRA.SOLV.lig_0>
-56.4922

>  <SCORE.INTRA.VDW>
-0.397138

>  <SCORE.INTRA.VDW.0>
-0.696801

>  <SCORE.INTRA.norm>
0.0629041

>  <SCORE.RESTR>
0

>  <SCORE.RESTR.CAVITY>
0

>  <SCORE.RESTR.norm>
0

>  <SCORE.SYSTEM>
0

>  <SCORE.SYSTEM.CONST>
0

>  <SCORE.SYSTEM.DIHEDRAL>
0

>  <SCORE.SYSTEM.SOLV>
0

>  <SCORE.SYSTEM.norm>
0

>  <SCORE.heavy>
22

>  <SCORE.norm>
-0.717854

>  <RMSD>
6.984

$$$$
ligand
 OpenBabel02271912143D
libRbt.so/2013.1/901 2013/11/27
 22 24  0  0  0  0  0  0  0  0999 V2000
   24.4983  -21.8552   26.2419 N   0  0  0  0  0  0  0  0  0  0  0  0
   22.1842  -22.4635   26.1540 N   0  0  0  0  0  0  0  0  0  0  0  0
   23.1635  -21.7836   26.7728 C   0  0  0  0  0  0  0  0  0  0  0  0
   22.9381  -21.0501   27.8559 N   0  0  0  0  0  0  0  0  0  0  0  0
   18.5171  -22.7212   30.0935 O   0  0  0  0  0  0  0  0  0  0  0  0
   21.6965  -20.9709   28.3690 C   0  0  0  0  0  0  0  0  0  0  0  0
   20.6368  -21.6882   27.7469 C   0  0  0  0  0  0  0  0  0  0  0  0
   21.4896  -20.2026   29.4926 O   0  0  0  0  0  0  0  0  0  0  0  0
   19.2514  -21.6798   28.1734 N   0  0  0  0  0  0  0  0  0  0  0  0
   18.2379  -21.6456   27.1112 C   0  0  2  0  0  0  0  0  0  0  0  0
   18.4866  -22.7303   26.1101 C   0  0  0  0  0  0  0  0  0  0  0  0
   20.9218  -22.4226   26.6231 C   0  0  0  0  0  0  0  0  0  0  0  0
   19.8845  -23.1367   25.9807 N   0  0  0  0  0  0  0  0  0  0  0  0
   18.1582  -20.2988   26.3700 C   0  0  0  0  0  0  0  0  0  0  0  0
   17.0252  -20.2880   25.4528 N   0  0  0  0  0  0  0  0  0  0  0  0
   13.0346  -20.4084   26.9232 C   0  0  0  0  0  0  0  0  0  0  0  0
   13.3895  -21.1753   25.8262 C   0  0  0  0  0  0  0  0  0  0  0  0
   14.7090  -21.1408   25.3351 C   0  0  0  0  0  0  0  0  0  0  0  0
   15.6557  -20.3355   25.9499 C   0  0  0  0  0  0  0  0  0  0  0  0
   15.2961  -19.5659   27.0524 C   0  0  0  0  0  0  0  0  0  0  0  0
   13.9871  -19.6030   27.5397 C   0  0  0  0  0  0  0  0  0  0  0  0
   18.8286  -21.6842   29.5321 C   0  0  0  0  0  0  0  0  0  0  0  0
  1  3  1  0  0  0  0
  2  3  2  0  0  0  0
  2 12  1  0  0  0  0
  3  4  1  0  0  0  0
  4  6  1  0  0  0  0
  5 22  1  0  0  0  0
  6  7  1  0  0  0  0
  6  8  2  0  0  0  0
  7 12  2  0  0  0  0
  7  9  1  0  0  0  0
  9 10  1  0  0  0  0
  9 22  1  0  0  0  0
 10 11  1  0  0  0  0
 10 14  1  6  0  0  0
 11 13  1  0  0  0  0
 12 13  1  0  0  0  0
 14 15  1  0  0  0  0
 15 19  1  0  0  0  0
 16 17  2  0  0  0  0
 16 21  1  0  0  0  0
 17 18  1  0  0  0  0
 18 19  2  0  0  0  0
 19 20  1  0  0  0  0
 20 21  2  0  0  0  0
M  END
>  <CHROM.1>
-96.67122312,-172.88226449,66.18235783,-137.39944082,18.84718909,-21.33990207
27.18083971,-0.09302849,0.16580784,-1.70591061

>  <Name>
ligand

>  <RI>
0

>  <Rbt.Current_Directory>
/home/itssahil/PROJECTS/Mol_Feturizer/Test_systems_manuscript/rnas/3sd3

>  <Rbt.Executable>
rbdock ($Id: //depot/dev/client3/rdock/2013.1/src/exe/rbdock.cxx#4 $)

>  <Rbt.Library>
libRbt.so (2013.1, Build901 2013/11/27)

>  <Rbt.Parameter_File>
/export/apps/rDock/src/rDock_2013.1_src/data/scripts/dock_solv.prm

>  <Rbt.Receptor>
prm/pocket_docking_6.prm

>  <SCORE>
-18.1355

>  <SCORE.INTER>
-17.1191

>  <SCORE.INTER.CONST>
1

>  <SCORE.INTER.POLAR>
0

>  <SCORE.INTER.ROT>
4

>  <SCORE.INTER.SOLV>
9.87192

>  <SCORE.INTER.VDW>
-20.9701

>  <SCORE.INTER.norm>
-0.778143

>  <SCORE.INTRA>
-1.01638

>  <SCORE.INTRA.DIHEDRAL>
-0.665481

>  <SCORE.INTRA.DIHEDRAL.0>
2.54655

>  <SCORE.INTRA.POLAR>
0

>  <SCORE.INTRA.POLAR.0>
0

>  <SCORE.INTRA.REPUL>
0

>  <SCORE.INTRA.REPUL.0>
0

>  <SCORE.INTRA.SOLV>
-0.739496

>  <SCORE.INTRA.SOLV.lig_0>
-56.4922

>  <SCORE.INTRA.VDW>
-0.313889

>  <SCORE.INTRA.VDW.0>
-0.696801

>  <SCORE.INTRA.norm>
-0.0461989

>  <SCORE.RESTR>
0

>  <SCORE.RESTR.CAVITY>
0

>  <SCORE.RESTR.norm>
0

>  <SCORE.SYSTEM>
0

>  <SCORE.SYSTEM.CONST>
0

>  <SCORE.SYSTEM.DIHEDRAL>
0

>  <SCORE.SYSTEM.SOLV>
0

>  <SCORE.SYSTEM.norm>
0

>  <SCORE.heavy>
22

>  <SCORE.norm>
-0.824342

>  <RMSD>
6.984

$$$$
ligand
 OpenBabel02271912143D
libRbt.so/2013.1/901 2013/11/27
 22 24  0  0  0  0  0  0  0  0999 V2000
   24.4711  -21.8258   26.5342 N   0  0  0  0  0  0  0  0  0  0  0  0
   22.1763  -22.4464   26.2490 N   0  0  0  0  0  0  0  0  0  0  0  0
   23.1053  -21.8144   26.9849 C   0  0  0  0  0  0  0  0  0  0  0  0
   22.8027  -21.1816   28.1118 N   0  0  0  0  0  0  0  0  0  0  0  0
   19.2905  -22.4738   30.3595 O   0  0  0  0  0  0  0  0  0  0  0  0
   21.5309  -21.1601   28.5512 C   0  0  0  0  0  0  0  0  0  0  0  0
   20.5224  -21.8299   27.8037 C   0  0  0  0  0  0  0  0  0  0  0  0
   21.2438  -20.4960   29.7226 O   0  0  0  0  0  0  0  0  0  0  0  0
   19.1135  -21.8725   28.1420 N   0  0  0  0  0  0  0  0  0  0  0  0
   18.1667  -21.7546   27.0255 C   0  0  2  0  0  0  0  0  0  0  0  0
   18.4928  -22.7441   25.9508 C   0  0  0  0  0  0  0  0  0  0  0  0
   20.8870  -22.4594   26.6400 C   0  0  0  0  0  0  0  0  0  0  0  0
   19.9020  -23.1240   25.8740 N   0  0  0  0  0  0  0  0  0  0  0  0
   18.1123  -20.3484   26.4015 C   0  0  0  0  0  0  0  0  0  0  0  0
   16.9860  -20.2419   25.4822 N   0  0  0  0  0  0  0  0  0  0  0  0
   12.9834  -20.4482   26.9097 C   0  0  0  0  0  0  0  0  0  0  0  0
   13.3684  -21.2129   25.8214 C   0  0  0  0  0  0  0  0  0  0  0  0
   14.6920  -21.1500   25.3445 C   0  0  0  0  0  0  0  0  0  0  0  0
   15.6126  -20.3189   25.9646 C   0  0  0  0  0  0  0  0  0  0  0  0
   15.2227  -19.5516   27.0583 C   0  0  0  0  0  0  0  0  0  0  0  0
   13.9097  -19.6168   27.5315 C   0  0  0  0  0  0  0  0  0  0  0  0
   18.6082  -22.0011   29.4659 C   0  0  0  0  0  0  0  0  0  0  0  0
  1  3  1  0  0  0  0
  2  3  2  0  0  0  0
  2 12  1  0  0  0  0
  3  4  1  0  0  0  0
  4  6  1  0  0  0  0
  5 22  1  0  0  0  0
  6  7  1  0  0  0  0
  6  8  2  0  0  0  0
  7 12  2  0  0  0  0
  7  9  1  0  0  0  0
  9 10  1  0  0  0  0
  9 22  1  0  0  0  0
 10 11  1  0  0  0  0
 10 14  1  6  0  0  0
 11 13  1  0  0  0  0
 12 13  1  0  0  0  0
 14 15  1  0  0  0  0
 15 19  1  0  0  0  0
 16 17  2  0  0  0  0
 16 21  1  0  0  0  0
 17 18  1  0  0  0  0
 18 19  2  0  0  0  0
 19 20  1  0  0  0  0
 20 21  2  0  0  0  0
M  END
>  <CHROM.1>
-22.07864674,-169.31463151,65.79103631,-131.50784017,18.81751835,-21.39543829
27.24004646,-0.12797865,0.18507938,-1.70049005

>  <Name>
ligand

>  <RI>
0

>  <Rbt.Current_Directory>
/home/itssahil/PROJECTS/Mol_Feturizer/Test_systems_manuscript/rnas/3sd3

>  <Rbt.Executable>
rbdock ($Id: //depot/dev/client3/rdock/2013.1/src/exe/rbdock.cxx#4 $)

>  <Rbt.Library>
libRbt.so (2013.1, Build901 2013/11/27)

>  <Rbt.Parameter_File>
/export/apps/rDock/src/rDock_2013.1_src/data/scripts/dock_solv.prm

>  <Rbt.Receptor>
prm/pocket_docking_8.prm

>  <SCORE>
-18.2957

>  <SCORE.INTER>
-17.3289

>  <SCORE.INTER.CONST>
1

>  <SCORE.INTER.POLAR>
0

>  <SCORE.INTER.ROT>
4

>  <SCORE.INTER.SOLV>
9.77169

>  <SCORE.INTER.VDW>
-21.0765

>  <SCORE.INTER.norm>
-0.787678

>  <SCORE.INTRA>
-0.966802

>  <SCORE.INTRA.DIHEDRAL>
-0.499264

>  <SCORE.INTRA.DIHEDRAL.0>
2.54655

>  <SCORE.INTRA.POLAR>
0

>  <SCORE.INTRA.POLAR.0>
0

>  <SCORE.INTRA.REPUL>
0

>  <SCORE.INTRA.REPUL.0>
0

>  <SCORE.INTRA.SOLV>
-0.530535

>  <SCORE.INTRA.SOLV.lig_0>
-56.4922

>  <SCORE.INTRA.VDW>
-0.451903

>  <SCORE.INTRA.VDW.0>
-0.696801

>  <SCORE.INTRA.norm>
-0.0439456

>  <SCORE.RESTR>
0

>  <SCORE.RESTR.CAVITY>
0

>  <SCORE.RESTR.norm>
0

>  <SCORE.SYSTEM>
0

>  <SCORE.SYSTEM.CONST>
0

>  <SCORE.SYSTEM.DIHEDRAL>
0

>  <SCORE.SYSTEM.SOLV>
0

>  <SCORE.SYSTEM.norm>
0

>  <SCORE.heavy>
22

>  <SCORE.norm>
-0.831623

>  <RMSD>
6.987

$$$$
ligand
 OpenBabel02271912143D
libRbt.so/2013.1/901 2013/11/27
 22 24  0  0  0  0  0  0  0  0999 V2000
   24.3223  -21.7835   26.5381 N   0  0  0  0  0  0  0  0  0  0  0  0
   22.4823  -20.3385   26.0289 N   0  0  0  0  0  0  0  0  0  0  0  0
   23.0029  -21.5764   26.0041 C   0  0  0  0  0  0  0  0  0  0  0  0
   22.3395  -22.6113   25.5033 N   0  0  0  0  0  0  0  0  0  0  0  0
   18.1343  -20.6718   22.4697 O   0  0  0  0  0  0  0  0  0  0  0  0
   21.1042  -22.4383   24.9979 C   0  0  0  0  0  0  0  0  0  0  0  0
   20.5262  -21.1382   24.9961 C   0  0  0  0  0  0  0  0  0  0  0  0
   20.4374  -23.5284   24.4854 O   0  0  0  0  0  0  0  0  0  0  0  0
   19.2024  -20.8071   24.5072 N   0  0  0  0  0  0  0  0  0  0  0  0
   18.4377  -19.8304   25.2935 C   0  0  2  0  0  0  0  0  0  0  0  0
   19.2483  -18.5950   25.5322 C   0  0  0  0  0  0  0  0  0  0  0  0
   21.2503  -20.1049   25.5360 C   0  0  0  0  0  0  0  0  0  0  0  0
   20.6945  -18.8052   25.5550 N   0  0  0  0  0  0  0  0  0  0  0  0
   17.9486  -20.3695   26.6499 C   0  0  0  0  0  0  0  0  0  0  0  0
   16.7995  -19.6044   27.1181 N   0  0  0  0  0  0  0  0  0  0  0  0
   12.8185  -20.9080   26.3739 C   0  0  0  0  0  0  0  0  0  0  0  0
   13.8592  -21.3900   25.5979 C   0  0  0  0  0  0  0  0  0  0  0  0
   15.1794  -20.9633   25.8397 C   0  0  0  0  0  0  0  0  0  0  0  0
   15.4387  -20.0565   26.8562 C   0  0  0  0  0  0  0  0  0  0  0  0
   14.3907  -19.5738   27.6345 C   0  0  0  0  0  0  0  0  0  0  0  0
   13.0818  -19.9999   27.3947 C   0  0  0  0  0  0  0  0  0  0  0  0
   18.6091  -21.3755   23.3454 C   0  0  0  0  0  0  0  0  0  0  0  0
  1  3  1  0  0  0  0
  2  3  2  0  0  0  0
  2 12  1  0  0  0  0
  3  4  1  0  0  0  0
  4  6  1  0  0  0  0
  5 22  1  0  0  0  0
  6  7  1  0  0  0  0
  6  8  2  0  0  0  0
  7 12  2  0  0  0  0
  7  9  1  0  0  0  0
  9 10  1  0  0  0  0
  9 22  1  0  0  0  0
 10 11  1  0  0  0  0
 10 14  1  1  0  0  0
 11 13  1  0  0  0  0
 12 13  1  0  0  0  0
 14 15  1  0  0  0  0
 15 19  1  0  0  0  0
 16 17  2  0  0  0  0
 16 21  1  0  0  0  0
 17 18  1  0  0  0  0
 18 19  2  0  0  0  0
 19 20  1  0  0  0  0
 20 21  2  0  0  0  0
M  END
>  <CHROM.1>
-128.24683723,-157.22647507,94.76462667,-19.86875847,18.72029638,-20.76556833
25.58692064,-0.18861904,-0.02619990,0.87348312

>  <Name>
ligand

>  <RI>
0

>  <Rbt.Current_Directory>
/home/itssahil/PROJECTS/Mol_Feturizer/Test_systems_manuscript/rnas/3sd3

>  <Rbt.Executable>
rbdock ($Id: //depot/dev/client3/rdock/2013.1/src/exe/rbdock.cxx#4 $)

>  <Rbt.Library>
libRbt.so (2013.1, Build901 2013/11/27)

>  <Rbt.Parameter_File>
/export/apps/rDock/src/rDock_2013.1_src/data/scripts/dock_solv.prm

>  <Rbt.Receptor>
prm/pocket_docking_2.prm

>  <SCORE>
-9.61155

>  <SCORE.INTER>
-11.3314

>  <SCORE.INTER.CONST>
1

>  <SCORE.INTER.POLAR>
0

>  <SCORE.INTER.ROT>
4

>  <SCORE.INTER.SOLV>
5.14664

>  <SCORE.INTER.VDW>
-15.5365

>  <SCORE.INTER.norm>
-0.515062

>  <SCORE.INTRA>
0.123058

>  <SCORE.INTRA.DIHEDRAL>
1.49069

>  <SCORE.INTRA.DIHEDRAL.0>
2.54655

>  <SCORE.INTRA.POLAR>
0

>  <SCORE.INTRA.POLAR.0>
0

>  <SCORE.INTRA.REPUL>
0

>  <SCORE.INTRA.REPUL.0>
0

>  <SCORE.INTRA.SOLV>
-0.927709

>  <SCORE.INTRA.SOLV.lig_0>
-56.4922

>  <SCORE.INTRA.VDW>
-0.158432

>  <SCORE.INTRA.VDW.0>
-0.696801

>  <SCORE.INTRA.norm>
0.00559356

>  <SCORE.RESTR>
1.59676

>  <SCORE.RESTR.CAVITY>
1.59676

>  <SCORE.RESTR.norm>
0.0725799

>  <SCORE.SYSTEM>
0

>  <SCORE.SYSTEM.CONST>
0

>  <SCORE.SYSTEM.DIHEDRAL>
0

>  <SCORE.SYSTEM.SOLV>
0

>  <SCORE.SYSTEM.norm>
0

>  <SCORE.heavy>
22

>  <SCORE.norm>
-0.436888

>  <RMSD>
6.995

$$$$
ligand
 OpenBabel02271912143D
libRbt.so/2013.1/901 2013/11/27
 22 24  0  0  0  0  0  0  0  0999 V2000
   24.5320  -21.8817   25.8036 N   0  0  0  0  0  0  0  0  0  0  0  0
   22.2223  -22.5122   25.8180 N   0  0  0  0  0  0  0  0  0  0  0  0
   23.2282  -21.8475   26.4099 C   0  0  0  0  0  0  0  0  0  0  0  0
   23.0568  -21.1625   27.5338 N   0  0  0  0  0  0  0  0  0  0  0  0
   18.3012  -22.7755   29.8281 O   0  0  0  0  0  0  0  0  0  0  0  0
   21.8450  -21.1190   28.1176 C   0  0  0  0  0  0  0  0  0  0  0  0
   20.7589  -21.8218   27.5252 C   0  0  0  0  0  0  0  0  0  0  0  0
   21.6941  -20.4005   29.2823 O   0  0  0  0  0  0  0  0  0  0  0  0
   19.3994  -21.8469   28.0276 N   0  0  0  0  0  0  0  0  0  0  0  0
   18.3281  -21.7801   27.0253 C   0  0  2  0  0  0  0  0  0  0  0  0
   18.5305  -22.8192   25.9671 C   0  0  0  0  0  0  0  0  0  0  0  0
   20.9876  -22.5054   26.3574 C   0  0  0  0  0  0  0  0  0  0  0  0
   19.9227  -23.2039   25.7437 N   0  0  0  0  0  0  0  0  0  0  0  0
   18.1950  -20.4046   26.3473 C   0  0  0  0  0  0  0  0  0  0  0  0
   17.0500  -20.3897   25.4451 N   0  0  0  0  0  0  0  0  0  0  0  0
   13.0641  -20.4049   26.9328 C   0  0  0  0  0  0  0  0  0  0  0  0
   14.0189  -19.5952   27.5249 C   0  0  0  0  0  0  0  0  0  0  0  0
   15.3398  -19.5848   27.0366 C   0  0  0  0  0  0  0  0  0  0  0  0
   15.6868  -20.3885   25.9613 C   0  0  0  0  0  0  0  0  0  0  0  0
   14.7250  -21.2010   25.3682 C   0  0  0  0  0  0  0  0  0  0  0  0
   13.4144  -21.2086   25.8524 C   0  0  0  0  0  0  0  0  0  0  0  0
   19.0530  -21.9129   29.4062 C   0  0  0  0  0  0  0  0  0  0  0  0
  1  3  1  0  0  0  0
  2  3  2  0  0  0  0
  2 12  1  0  0  0  0
  3  4  1  0  0  0  0
  4  6  1  0  0  0  0
  5 22  1  0  0  0  0
  6  7  1  0  0  0  0
  6  8  2  0  0  0  0
  7 12  2  0  0  0  0
  7  9  1  0  0  0  0
  9 10  1  0  0  0  0
  9 22  1  0  0  0  0
 10 11  1  0  0  0  0
 10 14  1  6  0  0  0
 11 13  1  0  0  0  0
 12 13  1  0  0  0  0
 14 15  1  0  0  0  0
 15 19  1  0  0  0  0
 16 17  2  0  0  0  0
 16 21  1  0  0  0  0
 17 18  1  0  0  0  0
 18 19  2  0  0  0  0
 19 20  1  0  0  0  0
 20 21  2  0  0  0  0
M  END
>  <CHROM.1>
-126.28339751,-175.65542733,71.51145339,42.94978363,18.90843894,-21.42935793
27.02192141,-0.04886886,0.16245589,-1.68827296

>  <Name>
ligand

>  <RI>
0

>  <Rbt.Current_Directory>
/home/itssahil/PROJECTS/Mol_Feturizer/Test_systems_manuscript/rnas/3sd3

>  <Rbt.Executable>
rbdock ($Id: //depot/dev/client3/rdock/2013.1/src/exe/rbdock.cxx#4 $)

>  <Rbt.Library>
libRbt.so (2013.1, Build901 2013/11/27)

>  <Rbt.Parameter_File>
/export/apps/rDock/src/rDock_2013.1_src/data/scripts/dock_solv.prm

>  <Rbt.Receptor>
prm/pocket_docking_7.prm

>  <SCORE>
-18.2202

>  <SCORE.INTER>
-17.3218

>  <SCORE.INTER.CONST>
1

>  <SCORE.INTER.POLAR>
0

>  <SCORE.INTER.ROT>
4

>  <SCORE.INTER.SOLV>
10.3389

>  <SCORE.INTER.VDW>
-21.2608

>  <SCORE.INTER.norm>
-0.787354

>  <SCORE.INTRA>
-0.898419

>  <SCORE.INTRA.DIHEDRAL>
-0.741813

>  <SCORE.INTRA.DIHEDRAL.0>
2.54655

>  <SCORE.INTRA.POLAR>
0

>  <SCORE.INTRA.POLAR.0>
0

>  <SCORE.INTRA.REPUL>
0

>  <SCORE.INTRA.REPUL.0>
0

>  <SCORE.INTRA.SOLV>
-0.69794

>  <SCORE.INTRA.SOLV.lig_0>
-56.4922

>  <SCORE.INTRA.VDW>
-0.178543

>  <SCORE.INTRA.VDW.0>
-0.696801

>  <SCORE.INTRA.norm>
-0.0408372

>  <SCORE.RESTR>
0

>  <SCORE.RESTR.CAVITY>
0

>  <SCORE.RESTR.norm>
0

>  <SCORE.SYSTEM>
0

>  <SCORE.SYSTEM.CONST>
0

>  <SCORE.SYSTEM.DIHEDRAL>
0

>  <SCORE.SYSTEM.SOLV>
0

>  <SCORE.SYSTEM.norm>
0

>  <SCORE.heavy>
22

>  <SCORE.norm>
-0.828191

>  <RMSD>
6.997

$$$$
ligand
 OpenBabel02271912143D
libRbt.so/2013.1/901 2013/11/27
 22 24  0  0  0  0  0  0  0  0999 V2000
   24.2303  -21.6907   26.6187 N   0  0  0  0  0  0  0  0  0  0  0  0
   22.3822  -20.2771   26.0536 N   0  0  0  0  0  0  0  0  0  0  0  0
   22.9197  -21.5080   26.0549 C   0  0  0  0  0  0  0  0  0  0  0  0
   22.2809  -22.5578   25.5533 N   0  0  0  0  0  0  0  0  0  0  0  0
   17.3795  -21.3646   23.0928 O   0  0  0  0  0  0  0  0  0  0  0  0
   21.0543  -22.4079   25.0202 C   0  0  0  0  0  0  0  0  0  0  0  0
   20.4590  -21.1159   24.9904 C   0  0  0  0  0  0  0  0  0  0  0  0
   20.4130  -23.5131   24.5075 O   0  0  0  0  0  0  0  0  0  0  0  0
   19.1414  -20.8088   24.4700 N   0  0  0  0  0  0  0  0  0  0  0  0
   18.3474  -19.8332   25.2282 C   0  0  2  0  0  0  0  0  0  0  0  0
   19.1362  -18.5840   25.4684 C   0  0  0  0  0  0  0  0  0  0  0  0
   21.1578  -20.0664   25.5324 C   0  0  0  0  0  0  0  0  0  0  0  0
   20.5843  -18.7742   25.5238 N   0  0  0  0  0  0  0  0  0  0  0  0
   17.8373  -20.3626   26.5807 C   0  0  0  0  0  0  0  0  0  0  0  0
   16.6952  -19.5797   27.0365 N   0  0  0  0  0  0  0  0  0  0  0  0
   12.7028  -20.8652   26.3229 C   0  0  0  0  0  0  0  0  0  0  0  0
   13.7301  -21.3224   25.5147 C   0  0  0  0  0  0  0  0  0  0  0  0
   15.0540  -20.9015   25.7462 C   0  0  0  0  0  0  0  0  0  0  0  0
   15.3303  -20.0254   26.7848 C   0  0  0  0  0  0  0  0  0  0  0  0
   14.2957  -19.5676   27.5955 C   0  0  0  0  0  0  0  0  0  0  0  0
   12.9832  -19.9879   27.3658 C   0  0  0  0  0  0  0  0  0  0  0  0
   18.5802  -21.3992   23.3033 C   0  0  0  0  0  0  0  0  0  0  0  0
  1  3  1  0  0  0  0
  2  3  2  0  0  0  0
  2 12  1  0  0  0  0
  3  4  1  0  0  0  0
  4  6  1  0  0  0  0
  5 22  1  0  0  0  0
  6  7  1  0  0  0  0
  6  8  2  0  0  0  0
  7 12  2  0  0  0  0
  7  9  1  0  0  0  0
  9 10  1  0  0  0  0
  9 22  1  0  0  0  0
 10 11  1  0  0  0  0
 10 14  1  1  0  0  0
 11 13  1  0  0  0  0
 12 13  1  0  0  0  0
 14 15  1  0  0  0  0
 15 19  1  0  0  0  0
 16 17  2  0  0  0  0
 16 21  1  0  0  0  0
 17 18  1  0  0  0  0
 18 19  2  0  0  0  0
 19 20  1  0  0  0  0
 20 21  2  0  0  0  0
M  END
>  <CHROM.1>
161.74322638,-159.07189942,95.96878233,-22.83061700,18.59620277,-20.77487772
25.59877545,-0.17117043,-0.01370416,0.74928654

>  <Name>
ligand

>  <RI>
0

>  <Rbt.Current_Directory>
/home/itssahil/PROJECTS/Mol_Feturizer/Test_systems_manuscript/rnas/3sd3

>  <Rbt.Executable>
rbdock ($Id: //depot/dev/client3/rdock/2013.1/src/exe/rbdock.cxx#4 $)

>  <Rbt.Library>
libRbt.so (2013.1, Build901 2013/11/27)

>  <Rbt.Parameter_File>
/export/apps/rDock/src/rDock_2013.1_src/data/scripts/dock_solv.prm

>  <Rbt.Receptor>
prm/pocket_docking_2.prm

>  <SCORE>
-9.19573

>  <SCORE.INTER>
-10.9243

>  <SCORE.INTER.CONST>
1

>  <SCORE.INTER.POLAR>
0

>  <SCORE.INTER.ROT>
4

>  <SCORE.INTER.SOLV>
5.78384

>  <SCORE.INTER.VDW>
-15.4775

>  <SCORE.INTER.norm>
-0.496558

>  <SCORE.INTRA>
0.223864

>  <SCORE.INTRA.DIHEDRAL>
1.33088

>  <SCORE.INTRA.DIHEDRAL.0>
2.54655

>  <SCORE.INTRA.POLAR>
0

>  <SCORE.INTRA.POLAR.0>
0

>  <SCORE.INTRA.REPUL>
0

>  <SCORE.INTRA.REPUL.0>
0

>  <SCORE.INTRA.SOLV>
-0.75252

>  <SCORE.INTRA.SOLV.lig_0>
-56.4922

>  <SCORE.INTRA.VDW>
-0.0653172

>  <SCORE.INTRA.VDW.0>
-0.696801

>  <SCORE.INTRA.norm>
0.0101756

>  <SCORE.RESTR>
1.50468

>  <SCORE.RESTR.CAVITY>
1.50468

>  <SCORE.RESTR.norm>
0.0683945

>  <SCORE.SYSTEM>
0

>  <SCORE.SYSTEM.CONST>
0

>  <SCORE.SYSTEM.DIHEDRAL>
0

>  <SCORE.SYSTEM.SOLV>
0

>  <SCORE.SYSTEM.norm>
0

>  <SCORE.heavy>
22

>  <SCORE.norm>
-0.417988

>  <RMSD>
7.004

$$$$
ligand
 OpenBabel02271912143D
libRbt.so/2013.1/901 2013/11/27
 22 24  0  0  0  0  0  0  0  0999 V2000
   24.2348  -21.7793   26.9914 N   0  0  0  0  0  0  0  0  0  0  0  0
   21.9013  -22.1905   26.6467 N   0  0  0  0  0  0  0  0  0  0  0  0
   22.8765  -21.7600   27.4640 C   0  0  0  0  0  0  0  0  0  0  0  0
   22.6261  -21.3191   28.6907 N   0  0  0  0  0  0  0  0  0  0  0  0
   19.0655  -22.7353   30.7554 O   0  0  0  0  0  0  0  0  0  0  0  0
   21.3621  -21.2940   29.1522 C   0  0  0  0  0  0  0  0  0  0  0  0
   20.3050  -21.7543   28.3184 C   0  0  0  0  0  0  0  0  0  0  0  0
   21.1296  -20.8311   30.4278 O   0  0  0  0  0  0  0  0  0  0  0  0
   18.8993  -21.7656   28.6716 N   0  0  0  0  0  0  0  0  0  0  0  0
   17.9534  -21.3908   27.6124 C   0  0  2  0  0  0  0  0  0  0  0  0
   18.2039  -22.1929   26.3738 C   0  0  0  0  0  0  0  0  0  0  0  0
   20.6173  -22.1896   27.0548 C   0  0  0  0  0  0  0  0  0  0  0  0
   19.5839  -22.6430   26.2032 N   0  0  0  0  0  0  0  0  0  0  0  0
   17.9880  -19.8957   27.2476 C   0  0  0  0  0  0  0  0  0  0  0  0
   17.0162  -19.6038   26.2009 N   0  0  0  0  0  0  0  0  0  0  0  0
   12.9529  -20.8004   26.5994 C   0  0  0  0  0  0  0  0  0  0  0  0
   13.7425  -21.3575   25.6075 C   0  0  0  0  0  0  0  0  0  0  0  0
   15.0885  -20.9665   25.4709 C   0  0  0  0  0  0  0  0  0  0  0  0
   15.6251  -20.0197   26.3302 C   0  0  0  0  0  0  0  0  0  0  0  0
   14.8291  -19.4617   27.3262 C   0  0  0  0  0  0  0  0  0  0  0  0
   13.4945  -19.8524   27.4618 C   0  0  0  0  0  0  0  0  0  0  0  0
   18.3972  -22.0941   29.9619 C   0  0  0  0  0  0  0  0  0  0  0  0
  1  3  1  0  0  0  0
  2  3  2  0  0  0  0
  2 12  1  0  0  0  0
  3  4  1  0  0  0  0
  4  6  1  0  0  0  0
  5 22  1  0  0  0  0
  6  7  1  0  0  0  0
  6  8  2  0  0  0  0
  7 12  2  0  0  0  0
  7  9  1  0  0  0  0
  9 10  1  0  0  0  0
  9 22  1  0  0  0  0
 10 11  1  0  0  0  0
 10 14  1  6  0  0  0
 11 13  1  0  0  0  0
 12 13  1  0  0  0  0
 14 15  1  0  0  0  0
 15 19  1  0  0  0  0
 16 17  2  0  0  0  0
 16 21  1  0  0  0  0
 17 18  1  0  0  0  0
 18 19  2  0  0  0  0
 19 20  1  0  0  0  0
 20 21  2  0  0  0  0
M  END
>  <CHROM.1>
-20.42152185,-179.51982441,51.50286456,-114.32896647,18.66327021,-21.29681489
27.64633737,-0.22904935,0.16272193,-1.52506875

>  <Name>
ligand

>  <RI>
0

>  <Rbt.Current_Directory>
/home/itssahil/PROJECTS/Mol_Feturizer/Test_systems_manuscript/rnas/3sd3

>  <Rbt.Executable>
rbdock ($Id: //depot/dev/client3/rdock/2013.1/src/exe/rbdock.cxx#4 $)

>  <Rbt.Library>
libRbt.so (2013.1, Build901 2013/11/27)

>  <Rbt.Parameter_File>
/export/apps/rDock/src/rDock_2013.1_src/data/scripts/dock_solv.prm

>  <Rbt.Receptor>
prm/pocket_docking_7.prm

>  <SCORE>
-18.1039

>  <SCORE.INTER>
-17.1212

>  <SCORE.INTER.CONST>
1

>  <SCORE.INTER.POLAR>
0

>  <SCORE.INTER.ROT>
4

>  <SCORE.INTER.SOLV>
8.53103

>  <SCORE.INTER.VDW>
-20.5245

>  <SCORE.INTER.norm>
-0.778238

>  <SCORE.INTRA>
-0.982633

>  <SCORE.INTRA.DIHEDRAL>
-0.875802

>  <SCORE.INTRA.DIHEDRAL.0>
2.54655

>  <SCORE.INTRA.POLAR>
0

>  <SCORE.INTRA.POLAR.0>
0

>  <SCORE.INTRA.REPUL>
0

>  <SCORE.INTRA.REPUL.0>
0

>  <SCORE.INTRA.SOLV>
-0.360366

>  <SCORE.INTRA.SOLV.lig_0>
-56.4922

>  <SCORE.INTRA.VDW>
-0.364549

>  <SCORE.INTRA.VDW.0>
-0.696801

>  <SCORE.INTRA.norm>
-0.0446652

>  <SCORE.RESTR>
0

>  <SCORE.RESTR.CAVITY>
0

>  <SCORE.RESTR.norm>
0

>  <SCORE.SYSTEM>
0

>  <SCORE.SYSTEM.CONST>
0

>  <SCORE.SYSTEM.DIHEDRAL>
0

>  <SCORE.SYSTEM.SOLV>
0

>  <SCORE.SYSTEM.norm>
0

>  <SCORE.heavy>
22

>  <SCORE.norm>
-0.822903

>  <RMSD>
7.007

$$$$
ligand
 OpenBabel02271912143D
libRbt.so/2013.1/901 2013/11/27
 22 24  0  0  0  0  0  0  0  0999 V2000
   23.8719  -22.9732   25.3869 N   0  0  0  0  0  0  0  0  0  0  0  0
   22.5311  -21.0776   24.8019 N   0  0  0  0  0  0  0  0  0  0  0  0
   22.7149  -22.4070   24.7468 C   0  0  0  0  0  0  0  0  0  0  0  0
   21.8644  -23.2119   24.1217 N   0  0  0  0  0  0  0  0  0  0  0  0
   19.0235  -20.2914   20.7081 O   0  0  0  0  0  0  0  0  0  0  0  0
   20.7764  -22.7019   23.5157 C   0  0  0  0  0  0  0  0  0  0  0  0
   20.5563  -21.2964   23.5430 C   0  0  0  0  0  0  0  0  0  0  0  0
   19.9098  -23.5587   22.8751 O   0  0  0  0  0  0  0  0  0  0  0  0
   19.4222  -20.6112   22.9551 N   0  0  0  0  0  0  0  0  0  0  0  0
   18.8557  -19.4979   23.7275 C   0  0  2  0  0  0  0  0  0  0  0  0
   19.9271  -18.5285   24.1187 C   0  0  0  0  0  0  0  0  0  0  0  0
   21.4605  -20.5105   24.2125 C   0  0  0  0  0  0  0  0  0  0  0  0
   21.2594  -19.1120   24.2624 N   0  0  0  0  0  0  0  0  0  0  0  0
   18.1029  -19.9397   24.9955 C   0  0  0  0  0  0  0  0  0  0  0  0
   16.8755  -20.6417   24.6410 N   0  0  0  0  0  0  0  0  0  0  0  0
   13.4119  -20.3280   27.0918 C   0  0  0  0  0  0  0  0  0  0  0  0
   13.4025  -21.1627   25.9870 C   0  0  0  0  0  0  0  0  0  0  0  0
   14.5460  -21.2719   25.1722 C   0  0  0  0  0  0  0  0  0  0  0  0
   15.6844  -20.5404   25.4752 C   0  0  0  0  0  0  0  0  0  0  0  0
   15.6909  -19.7024   26.5863 C   0  0  0  0  0  0  0  0  0  0  0  0
   14.5563  -19.5969   27.3949 C   0  0  0  0  0  0  0  0  0  0  0  0
   18.8296  -20.9602   21.7094 C   0  0  0  0  0  0  0  0  0  0  0  0
  1  3  1  0  0  0  0
  2  3  2  0  0  0  0
  2 12  1  0  0  0  0
  3  4  1  0  0  0  0
  4  6  1  0  0  0  0
  5 22  1  0  0  0  0
  6  7  1  0  0  0  0
  6  8  2  0  0  0  0
  7 12  2  0  0  0  0
  7  9  1  0  0  0  0
  9 10  1  0  0  0  0
  9 22  1  0  0  0  0
 10 11  1  0  0  0  0
 10 14  1  1  0  0  0
 11 13  1  0  0  0  0
 12 13  1  0  0  0  0
 14 15  1  0  0  0  0
 15 19  1  0  0  0  0
 16 17  2  0  0  0  0
 16 21  1  0  0  0  0
 17 18  1  0  0  0  0
 18 19  2  0  0  0  0
 19 20  1  0  0  0  0
 20 21  2  0  0  0  0
M  END
>  <CHROM.1>
-104.37026746,-68.82594065,-146.67265224,-176.27914482,18.89742128,-20.92088098
24.35885713,-0.23082704,-0.26247107,1.80402887

>  <Name>
ligand

>  <RI>
0

>  <Rbt.Current_Directory>
/home/itssahil/PROJECTS/Mol_Feturizer/Test_systems_manuscript/rnas/3sd3

>  <Rbt.Executable>
rbdock ($Id: //depot/dev/client3/rdock/2013.1/src/exe/rbdock.cxx#4 $)

>  <Rbt.Library>
libRbt.so (2013.1, Build901 2013/11/27)

>  <Rbt.Parameter_File>
/export/apps/rDock/src/rDock_2013.1_src/data/scripts/dock_solv.prm

>  <Rbt.Receptor>
prm/pocket_docking_5.prm

>  <SCORE>
-12.017

>  <SCORE.INTER>
-11.8155

>  <SCORE.INTER.CONST>
1

>  <SCORE.INTER.POLAR>
0

>  <SCORE.INTER.ROT>
4

>  <SCORE.INTER.SOLV>
7.93304

>  <SCORE.INTER.VDW>
-16.788

>  <SCORE.INTER.norm>
-0.537069

>  <SCORE.INTRA>
-0.201478

>  <SCORE.INTRA.DIHEDRAL>
0.0766069

>  <SCORE.INTRA.DIHEDRAL.0>
2.54655

>  <SCORE.INTRA.POLAR>
0

>  <SCORE.INTRA.POLAR.0>
0

>  <SCORE.INTRA.REPUL>
0

>  <SCORE.INTRA.REPUL.0>
0

>  <SCORE.INTRA.SOLV>
-0.411625

>  <SCORE.INTRA.SOLV.lig_0>
-56.4922

>  <SCORE.INTRA.VDW>
-0.033969

>  <SCORE.INTRA.VDW.0>
-0.696801

>  <SCORE.INTRA.norm>
-0.0091581

>  <SCORE.RESTR>
0

>  <SCORE.RESTR.CAVITY>
0

>  <SCORE.RESTR.norm>
0

>  <SCORE.SYSTEM>
0

>  <SCORE.SYSTEM.CONST>
0

>  <SCORE.SYSTEM.DIHEDRAL>
0

>  <SCORE.SYSTEM.SOLV>
0

>  <SCORE.SYSTEM.norm>
0

>  <SCORE.heavy>
22

>  <SCORE.norm>
-0.546227

>  <RMSD>
7.032

$$$$
ligand
 OpenBabel02271912143D
libRbt.so/2013.1/901 2013/11/27
 22 24  0  0  0  0  0  0  0  0999 V2000
   23.9000  -22.9596   26.8303 N   0  0  0  0  0  0  0  0  0  0  0  0
   22.2156  -22.4139   28.4421 N   0  0  0  0  0  0  0  0  0  0  0  0
   22.8581  -22.0905   27.3078 C   0  0  0  0  0  0  0  0  0  0  0  0
   22.5623  -20.9969   26.6161 N   0  0  0  0  0  0  0  0  0  0  0  0
   19.0443  -17.6561   28.0700 O   0  0  0  0  0  0  0  0  0  0  0  0
   21.5915  -20.1701   27.0465 C   0  0  0  0  0  0  0  0  0  0  0  0
   20.8982  -20.4745   28.2511 C   0  0  0  0  0  0  0  0  0  0  0  0
   21.3039  -19.0430   26.3100 O   0  0  0  0  0  0  0  0  0  0  0  0
   19.8202  -19.6915   28.8219 N   0  0  0  0  0  0  0  0  0  0  0  0
   18.7030  -20.4427   29.4090 C   0  0  2  0  0  0  0  0  0  0  0  0
   19.2065  -21.4587   30.3861 C   0  0  0  0  0  0  0  0  0  0  0  0
   21.2356  -21.6234   28.9219 C   0  0  0  0  0  0  0  0  0  0  0  0
   20.5551  -21.9534   30.1162 N   0  0  0  0  0  0  0  0  0  0  0  0
   17.8170  -21.1536   28.3702 C   0  0  0  0  0  0  0  0  0  0  0  0
   17.1885  -20.1806   27.4851 N   0  0  0  0  0  0  0  0  0  0  0  0
   13.3298  -20.8858   25.8375 C   0  0  0  0  0  0  0  0  0  0  0  0
   13.4516  -20.2631   27.0684 C   0  0  0  0  0  0  0  0  0  0  0  0
   14.7260  -20.0259   27.6189 C   0  0  0  0  0  0  0  0  0  0  0  0
   15.8626  -20.4182   26.9281 C   0  0  0  0  0  0  0  0  0  0  0  0
   15.7370  -21.0436   25.6911 C   0  0  0  0  0  0  0  0  0  0  0  0
   14.4720  -21.2763   25.1454 C   0  0  0  0  0  0  0  0  0  0  0  0
   19.7761  -18.2693   28.8289 C   0  0  0  0  0  0  0  0  0  0  0  0
  1  3  1  0  0  0  0
  2  3  2  0  0  0  0
  2 12  1  0  0  0  0
  3  4  1  0  0  0  0
  4  6  1  0  0  0  0
  5 22  1  0  0  0  0
  6  7  1  0  0  0  0
  6  8  2  0  0  0  0
  7 12  2  0  0  0  0
  7  9  1  0  0  0  0
  9 10  1  0  0  0  0
  9 22  1  0  0  0  0
 10 11  1  0  0  0  0
 10 14  1  6  0  0  0
 11 13  1  0  0  0  0
 12 13  1  0  0  0  0
 14 15  1  0  0  0  0
 15 19  1  0  0  0  0
 16 17  2  0  0  0  0
 16 21  1  0  0  0  0
 17 18  1  0  0  0  0
 18 19  2  0  0  0  0
 19 20  1  0  0  0  0
 20 21  2  0  0  0  0
M  END
>  <CHROM.1>
104.78471528,-62.35754814,-147.41697465,88.23367735,19.04167643,-20.61617313
27.74170664,-0.06060250,0.18994445,-2.21155345

>  <Name>
ligand

>  <RI>
0

>  <Rbt.Current_Directory>
/home/itssahil/PROJECTS/Mol_Feturizer/Test_systems_manuscript/rnas/3sd3

>  <Rbt.Executable>
rbdock ($Id: //depot/dev/client3/rdock/2013.1/src/exe/rbdock.cxx#4 $)

>  <Rbt.Library>
libRbt.so (2013.1, Build901 2013/11/27)

>  <Rbt.Parameter_File>
/export/apps/rDock/src/rDock_2013.1_src/data/scripts/dock_solv.prm

>  <Rbt.Receptor>
prm/pocket_docking_6.prm

>  <SCORE>
-13.2336

>  <SCORE.INTER>
-12.4596

>  <SCORE.INTER.CONST>
1

>  <SCORE.INTER.POLAR>
0

>  <SCORE.INTER.ROT>
4

>  <SCORE.INTER.SOLV>
9.46265

>  <SCORE.INTER.VDW>
-17.7273

>  <SCORE.INTER.norm>
-0.566345

>  <SCORE.INTRA>
-0.774047

>  <SCORE.INTRA.DIHEDRAL>
-0.232486

>  <SCORE.INTRA.DIHEDRAL.0>
2.54655

>  <SCORE.INTRA.POLAR>
0

>  <SCORE.INTRA.POLAR.0>
0

>  <SCORE.INTRA.REPUL>
0

>  <SCORE.INTRA.REPUL.0>
0

>  <SCORE.INTRA.SOLV>
0.565321

>  <SCORE.INTRA.SOLV.lig_0>
-56.4922

>  <SCORE.INTRA.VDW>
-0.940464

>  <SCORE.INTRA.VDW.0>
-0.696801

>  <SCORE.INTRA.norm>
-0.035184

>  <SCORE.RESTR>
0

>  <SCORE.RESTR.CAVITY>
0

>  <SCORE.RESTR.norm>
0

>  <SCORE.SYSTEM>
0

>  <SCORE.SYSTEM.CONST>
0

>  <SCORE.SYSTEM.DIHEDRAL>
0

>  <SCORE.SYSTEM.SOLV>
0

>  <SCORE.SYSTEM.norm>
0

>  <SCORE.heavy>
22

>  <SCORE.norm>
-0.601528

>  <RMSD>
7.042

$$$$
ligand
 OpenBabel02271912143D
libRbt.so/2013.1/901 2013/11/27
 22 24  0  0  0  0  0  0  0  0999 V2000
   22.2719  -22.1869   31.6179 N   0  0  0  0  0  0  0  0  0  0  0  0
   21.2769  -20.3801   30.4019 N   0  0  0  0  0  0  0  0  0  0  0  0
   21.8575  -21.5911   30.3761 C   0  0  0  0  0  0  0  0  0  0  0  0
   22.0600  -22.2528   29.2435 N   0  0  0  0  0  0  0  0  0  0  0  0
   22.1055  -18.9005   25.3483 O   0  0  0  0  0  0  0  0  0  0  0  0
   21.6806  -21.7123   28.0709 C   0  0  0  0  0  0  0  0  0  0  0  0
   21.0738  -20.4254   28.0590 C   0  0  0  0  0  0  0  0  0  0  0  0
   21.9014  -22.4199   26.9107 O   0  0  0  0  0  0  0  0  0  0  0  0
   20.5967  -19.7313   26.8792 N   0  0  0  0  0  0  0  0  0  0  0  0
   19.3321  -18.9972   27.0162 C   0  0  2  0  0  0  0  0  0  0  0  0
   19.3802  -18.0800   28.1980 C   0  0  0  0  0  0  0  0  0  0  0  0
   20.8774  -19.7890   29.2590 C   0  0  0  0  0  0  0  0  0  0  0  0
   20.2679  -18.5136   29.2751 N   0  0  0  0  0  0  0  0  0  0  0  0
   18.0961  -19.9056   27.1464 C   0  0  0  0  0  0  0  0  0  0  0  0
   16.8727  -19.1202   27.0381 N   0  0  0  0  0  0  0  0  0  0  0  0
   13.1555  -20.9903   26.1514 C   0  0  0  0  0  0  0  0  0  0  0  0
   13.2606  -20.1473   27.2449 C   0  0  0  0  0  0  0  0  0  0  0  0
   14.4879  -19.5244   27.5434 C   0  0  0  0  0  0  0  0  0  0  0  0
   15.5952  -19.7567   26.7417 C   0  0  0  0  0  0  0  0  0  0  0  0
   15.4865  -20.6043   25.6432 C   0  0  0  0  0  0  0  0  0  0  0  0
   14.2675  -21.2198   25.3473 C   0  0  0  0  0  0  0  0  0  0  0  0
   21.2600  -19.7363   25.6203 C   0  0  0  0  0  0  0  0  0  0  0  0
  1  3  1  0  0  0  0
  2  3  2  0  0  0  0
  2 12  1  0  0  0  0
  3  4  1  0  0  0  0
  4  6  1  0  0  0  0
  5 22  1  0  0  0  0
  6  7  1  0  0  0  0
  6  8  2  0  0  0  0
  7 12  2  0  0  0  0
  7  9  1  0  0  0  0
  9 10  1  0  0  0  0
  9 22  1  0  0  0  0
 10 11  1  0  0  0  0
 10 14  1  1  0  0  0
 11 13  1  0  0  0  0
 12 13  1  0  0  0  0
 14 15  1  0  0  0  0
 15 19  1  0  0  0  0
 16 17  2  0  0  0  0
 16 21  1  0  0  0  0
 17 18  1  0  0  0  0
 18 19  2  0  0  0  0
 19 20  1  0  0  0  0
 20 21  2  0  0  0  0
M  END
>  <CHROM.1>
-89.09020659,-169.89646833,162.06533297,128.09316158,19.12500934,-20.26063717
27.68538645,0.33788003,0.03543462,1.96844557

>  <Name>
ligand

>  <RI>
0

>  <Rbt.Current_Directory>
/home/itssahil/PROJECTS/Mol_Feturizer/Test_systems_manuscript/rnas/3sd3

>  <Rbt.Executable>
rbdock ($Id: //depot/dev/client3/rdock/2013.1/src/exe/rbdock.cxx#4 $)

>  <Rbt.Library>
libRbt.so (2013.1, Build901 2013/11/27)

>  <Rbt.Parameter_File>
/export/apps/rDock/src/rDock_2013.1_src/data/scripts/dock_solv.prm

>  <Rbt.Receptor>
prm/pocket_docking_5.prm

>  <SCORE>
-12.0249

>  <SCORE.INTER>
-11.3255

>  <SCORE.INTER.CONST>
1

>  <SCORE.INTER.POLAR>
0

>  <SCORE.INTER.ROT>
4

>  <SCORE.INTER.SOLV>
6.05065

>  <SCORE.INTER.VDW>
-15.8339

>  <SCORE.INTER.norm>
-0.514795

>  <SCORE.INTRA>
-0.699448

>  <SCORE.INTRA.DIHEDRAL>
-0.269589

>  <SCORE.INTRA.DIHEDRAL.0>
2.54655

>  <SCORE.INTRA.POLAR>
0

>  <SCORE.INTRA.POLAR.0>
0

>  <SCORE.INTRA.REPUL>
0

>  <SCORE.INTRA.REPUL.0>
0

>  <SCORE.INTRA.SOLV>
-0.798082

>  <SCORE.INTRA.SOLV.lig_0>
-56.4922

>  <SCORE.INTRA.VDW>
-0.165612

>  <SCORE.INTRA.VDW.0>
-0.696801

>  <SCORE.INTRA.norm>
-0.0317931

>  <SCORE.RESTR>
0

>  <SCORE.RESTR.CAVITY>
0

>  <SCORE.RESTR.norm>
0

>  <SCORE.SYSTEM>
0

>  <SCORE.SYSTEM.CONST>
0

>  <SCORE.SYSTEM.DIHEDRAL>
0

>  <SCORE.SYSTEM.SOLV>
0

>  <SCORE.SYSTEM.norm>
0

>  <SCORE.heavy>
22

>  <SCORE.norm>
-0.546589

>  <RMSD>
7.065

$$$$
ligand
 OpenBabel02271912143D
libRbt.so/2013.1/901 2013/11/27
 22 24  0  0  0  0  0  0  0  0999 V2000
   24.5996  -22.8125   26.9395 N   0  0  0  0  0  0  0  0  0  0  0  0
   22.7109  -22.5019   28.3780 N   0  0  0  0  0  0  0  0  0  0  0  0
   23.4019  -22.1014   27.2981 C   0  0  0  0  0  0  0  0  0  0  0  0
   23.0149  -21.0726   26.5540 N   0  0  0  0  0  0  0  0  0  0  0  0
   20.4377  -17.9661   28.9451 O   0  0  0  0  0  0  0  0  0  0  0  0
   21.8978  -20.3934   26.8732 C   0  0  0  0  0  0  0  0  0  0  0  0
   21.1475  -20.7818   28.0180 C   0  0  0  0  0  0  0  0  0  0  0  0
   21.5181  -19.3308   26.0844 O   0  0  0  0  0  0  0  0  0  0  0  0
   19.9180  -20.1600   28.4684 N   0  0  0  0  0  0  0  0  0  0  0  0
   18.8731  -21.0608   28.9720 C   0  0  2  0  0  0  0  0  0  0  0  0
   19.4267  -21.9786   30.0169 C   0  0  0  0  0  0  0  0  0  0  0  0
   21.5854  -21.8594   28.7464 C   0  0  0  0  0  0  0  0  0  0  0  0
   20.8524  -22.2714   29.8828 N   0  0  0  0  0  0  0  0  0  0  0  0
   18.2012  -21.9084   27.8766 C   0  0  0  0  0  0  0  0  0  0  0  0
   17.6949  -21.0538   26.8096 N   0  0  0  0  0  0  0  0  0  0  0  0
   13.5177  -20.7386   26.0664 C   0  0  0  0  0  0  0  0  0  0  0  0
   14.3743  -21.1124   25.0446 C   0  0  0  0  0  0  0  0  0  0  0  0
   15.7580  -21.2196   25.2843 C   0  0  0  0  0  0  0  0  0  0  0  0
   16.2651  -20.9484   26.5460 C   0  0  0  0  0  0  0  0  0  0  0  0
   15.4016  -20.5731   27.5710 C   0  0  0  0  0  0  0  0  0  0  0  0
   14.0289  -20.4694   27.3321 C   0  0  0  0  0  0  0  0  0  0  0  0
   19.6657  -18.7600   28.4340 C   0  0  0  0  0  0  0  0  0  0  0  0
  1  3  1  0  0  0  0
  2  3  2  0  0  0  0
  2 12  1  0  0  0  0
  3  4  1  0  0  0  0
  4  6  1  0  0  0  0
  5 22  1  0  0  0  0
  6  7  1  0  0  0  0
  6  8  2  0  0  0  0
  7 12  2  0  0  0  0
  7  9  1  0  0  0  0
  9 10  1  0  0  0  0
  9 22  1  0  0  0  0
 10 11  1  0  0  0  0
 10 14  1  6  0  0  0
 11 13  1  0  0  0  0
 12 13  1  0  0  0  0
 14 15  1  0  0  0  0
 15 19  1  0  0  0  0
 16 17  2  0  0  0  0
 16 21  1  0  0  0  0
 17 18  1  0  0  0  0
 18 19  2  0  0  0  0
 19 20  1  0  0  0  0
 20 21  2  0  0  0  0
M  END
>  <CHROM.1>
-53.47660170,-53.90480045,-114.80301540,-124.33317427,19.41659353,-20.92171611
27.59298574,-0.14191427,0.11932887,-1.79229484

>  <Name>
ligand

>  <RI>
0

>  <Rbt.Current_Directory>
/home/itssahil/PROJECTS/Mol_Feturizer/Test_systems_manuscript/rnas/3sd3

>  <Rbt.Executable>
rbdock ($Id: //depot/dev/client3/rdock/2013.1/src/exe/rbdock.cxx#4 $)

>  <Rbt.Library>
libRbt.so (2013.1, Build901 2013/11/27)

>  <Rbt.Parameter_File>
/export/apps/rDock/src/rDock_2013.1_src/data/scripts/dock_solv.prm

>  <Rbt.Receptor>
prm/pocket_docking_4.prm

>  <SCORE>
-12.2789

>  <SCORE.INTER>
-11.5946

>  <SCORE.INTER.CONST>
1

>  <SCORE.INTER.POLAR>
0

>  <SCORE.INTER.ROT>
4

>  <SCORE.INTER.SOLV>
7.40586

>  <SCORE.INTER.VDW>
-16.465

>  <SCORE.INTER.norm>
-0.527026

>  <SCORE.INTRA>
-0.687801

>  <SCORE.INTRA.DIHEDRAL>
0.395813

>  <SCORE.INTRA.DIHEDRAL.0>
2.54655

>  <SCORE.INTRA.POLAR>
0

>  <SCORE.INTRA.POLAR.0>
0

>  <SCORE.INTRA.REPUL>
0

>  <SCORE.INTRA.REPUL.0>
0

>  <SCORE.INTRA.SOLV>
-0.0272455

>  <SCORE.INTRA.SOLV.lig_0>
-56.4922

>  <SCORE.INTRA.VDW>
-0.872085

>  <SCORE.INTRA.VDW.0>
-0.696801

>  <SCORE.INTRA.norm>
-0.0312637

>  <SCORE.RESTR>
0.00353178

>  <SCORE.RESTR.CAVITY>
0.00353178

>  <SCORE.RESTR.norm>
0.000160535

>  <SCORE.SYSTEM>
0

>  <SCORE.SYSTEM.CONST>
0

>  <SCORE.SYSTEM.DIHEDRAL>
0

>  <SCORE.SYSTEM.SOLV>
0

>  <SCORE.SYSTEM.norm>
0

>  <SCORE.heavy>
22

>  <SCORE.norm>
-0.55813

>  <RMSD>
7.072

$$$$
ligand
 OpenBabel02271912143D
libRbt.so/2013.1/901 2013/11/27
 22 24  0  0  0  0  0  0  0  0999 V2000
   24.3332  -22.6246   28.7416 N   0  0  0  0  0  0  0  0  0  0  0  0
   22.0753  -22.3279   29.4810 N   0  0  0  0  0  0  0  0  0  0  0  0
   23.0792  -21.9224   28.6861 C   0  0  0  0  0  0  0  0  0  0  0  0
   22.9501  -20.8966   27.8536 N   0  0  0  0  0  0  0  0  0  0  0  0
   18.5638  -18.1475   27.5640 O   0  0  0  0  0  0  0  0  0  0  0  0
   21.7854  -20.2257   27.7875 C   0  0  0  0  0  0  0  0  0  0  0  0
   20.7041  -20.6195   28.6242 C   0  0  0  0  0  0  0  0  0  0  0  0
   21.6776  -19.1660   26.9150 O   0  0  0  0  0  0  0  0  0  0  0  0
   19.3906  -20.0068   28.6454 N   0  0  0  0  0  0  0  0  0  0  0  0
   18.2447  -20.9154   28.7811 C   0  0  2  0  0  0  0  0  0  0  0  0
   18.4319  -21.8288   29.9521 C   0  0  0  0  0  0  0  0  0  0  0  0
   20.8868  -21.6937   29.4587 C   0  0  0  0  0  0  0  0  0  0  0  0
   19.8248  -22.1110   30.2933 N   0  0  0  0  0  0  0  0  0  0  0  0
   17.9748  -21.7681   27.5282 C   0  0  0  0  0  0  0  0  0  0  0  0
   17.3105  -20.9721   26.5034 N   0  0  0  0  0  0  0  0  0  0  0  0
   13.0984  -20.3781   26.5876 C   0  0  0  0  0  0  0  0  0  0  0  0
   13.6651  -21.1641   25.5983 C   0  0  0  0  0  0  0  0  0  0  0  0
   15.0586  -21.3655   25.5654 C   0  0  0  0  0  0  0  0  0  0  0  0
   15.8665  -20.7740   26.5247 C   0  0  0  0  0  0  0  0  0  0  0  0
   15.2940  -19.9847   27.5178 C   0  0  0  0  0  0  0  0  0  0  0  0
   13.9111  -19.7877   27.5503 C   0  0  0  0  0  0  0  0  0  0  0  0
   19.1537  -18.6088   28.5266 C   0  0  0  0  0  0  0  0  0  0  0  0
  1  3  1  0  0  0  0
  2  3  2  0  0  0  0
  2 12  1  0  0  0  0
  3  4  1  0  0  0  0
  4  6  1  0  0  0  0
  5 22  1  0  0  0  0
  6  7  1  0  0  0  0
  6  8  2  0  0  0  0
  7 12  2  0  0  0  0
  7  9  1  0  0  0  0
  9 10  1  0  0  0  0
  9 22  1  0  0  0  0
 10 11  1  0  0  0  0
 10 14  1  6  0  0  0
 11 13  1  0  0  0  0
 12 13  1  0  0  0  0
 14 15  1  0  0  0  0
 15 19  1  0  0  0  0
 16 17  2  0  0  0  0
 16 21  1  0  0  0  0
 17 18  1  0  0  0  0
 18 19  2  0  0  0  0
 19 20  1  0  0  0  0
 20 21  2  0  0  0  0
M  END
>  <CHROM.1>
114.61668478,-77.28615502,-83.30734093,-110.35443038,18.90493303,-20.75588865
27.96568590,0.22650523,0.16529639,2.60426755

>  <Name>
ligand

>  <RI>
0

>  <Rbt.Current_Directory>
/home/itssahil/PROJECTS/Mol_Feturizer/Test_systems_manuscript/rnas/3sd3

>  <Rbt.Executable>
rbdock ($Id: //depot/dev/client3/rdock/2013.1/src/exe/rbdock.cxx#4 $)

>  <Rbt.Library>
libRbt.so (2013.1, Build901 2013/11/27)

>  <Rbt.Parameter_File>
/export/apps/rDock/src/rDock_2013.1_src/data/scripts/dock_solv.prm

>  <Rbt.Receptor>
prm/pocket_docking_6.prm

>  <SCORE>
-14.6909

>  <SCORE.INTER>
-13.9136

>  <SCORE.INTER.CONST>
1

>  <SCORE.INTER.POLAR>
0

>  <SCORE.INTER.ROT>
4

>  <SCORE.INTER.SOLV>
7.71016

>  <SCORE.INTER.VDW>
-18.1125

>  <SCORE.INTER.norm>
-0.632437

>  <SCORE.INTRA>
-0.777298

>  <SCORE.INTRA.DIHEDRAL>
0.4528

>  <SCORE.INTRA.DIHEDRAL.0>
2.54655

>  <SCORE.INTRA.POLAR>
0

>  <SCORE.INTRA.POLAR.0>
0

>  <SCORE.INTRA.REPUL>
0

>  <SCORE.INTRA.REPUL.0>
0

>  <SCORE.INTRA.SOLV>
0.311152

>  <SCORE.INTRA.SOLV.lig_0>
-56.4922

>  <SCORE.INTRA.VDW>
-1.15927

>  <SCORE.INTRA.VDW.0>
-0.696801

>  <SCORE.INTRA.norm>
-0.0353317

>  <SCORE.RESTR>
0

>  <SCORE.RESTR.CAVITY>
0

>  <SCORE.RESTR.norm>
0

>  <SCORE.SYSTEM>
0

>  <SCORE.SYSTEM.CONST>
0

>  <SCORE.SYSTEM.DIHEDRAL>
0

>  <SCORE.SYSTEM.SOLV>
0

>  <SCORE.SYSTEM.norm>
0

>  <SCORE.heavy>
22

>  <SCORE.norm>
-0.667769

>  <RMSD>
7.103

$$$$
ligand
 OpenBabel02271912143D
libRbt.so/2013.1/901 2013/11/27
 22 24  0  0  0  0  0  0  0  0999 V2000
   23.9296  -20.0751   24.2843 N   0  0  0  0  0  0  0  0  0  0  0  0
   22.3614  -19.1594   25.8447 N   0  0  0  0  0  0  0  0  0  0  0  0
   22.8099  -19.2222   24.5802 C   0  0  0  0  0  0  0  0  0  0  0  0
   22.2536  -18.5236   23.5983 N   0  0  0  0  0  0  0  0  0  0  0  0
   20.0058  -14.5602   25.3595 O   0  0  0  0  0  0  0  0  0  0  0  0
   21.2057  -17.7189   23.8545 C   0  0  0  0  0  0  0  0  0  0  0  0
   20.7118  -17.6178   25.1850 C   0  0  0  0  0  0  0  0  0  0  0  0
   20.6465  -17.0058   22.8180 O   0  0  0  0  0  0  0  0  0  0  0  0
   19.5819  -16.8121   25.6038 N   0  0  0  0  0  0  0  0  0  0  0  0
   18.6843  -17.4087   26.6015 C   0  0  2  0  0  0  0  0  0  0  0  0
   19.4614  -17.9015   27.7821 C   0  0  0  0  0  0  0  0  0  0  0  0
   21.3163  -18.3700   26.1609 C   0  0  0  0  0  0  0  0  0  0  0  0
   20.8383  -18.2948   27.4892 N   0  0  0  0  0  0  0  0  0  0  0  0
   17.8288  -18.5662   26.0558 C   0  0  0  0  0  0  0  0  0  0  0  0
   16.9348  -19.0712   27.0906 N   0  0  0  0  0  0  0  0  0  0  0  0
   13.2929  -21.0354   26.1007 C   0  0  0  0  0  0  0  0  0  0  0  0
   14.4245  -21.2509   25.3322 C   0  0  0  0  0  0  0  0  0  0  0  0
   15.6334  -20.6045   25.6550 C   0  0  0  0  0  0  0  0  0  0  0  0
   15.6913  -19.7484   26.7442 C   0  0  0  0  0  0  0  0  0  0  0  0
   14.5524  -19.5339   27.5149 C   0  0  0  0  0  0  0  0  0  0  0  0
   13.3544  -20.1776   27.1945 C   0  0  0  0  0  0  0  0  0  0  0  0
   19.2903  -15.5134   25.1007 C   0  0  0  0  0  0  0  0  0  0  0  0
  1  3  1  0  0  0  0
  2  3  2  0  0  0  0
  2 12  1  0  0  0  0
  3  4  1  0  0  0  0
  4  6  1  0  0  0  0
  5 22  1  0  0  0  0
  6  7  1  0  0  0  0
  6  8  2  0  0  0  0
  7 12  2  0  0  0  0
  7  9  1  0  0  0  0
  9 10  1  0  0  0  0
  9 22  1  0  0  0  0
 10 11  1  0  0  0  0
 10 14  1  6  0  0  0
 11 13  1  0  0  0  0
 12 13  1  0  0  0  0
 14 15  1  0  0  0  0
 15 19  1  0  0  0  0
 16 17  2  0  0  0  0
 16 21  1  0  0  0  0
 17 18  1  0  0  0  0
 18 19  2  0  0  0  0
 19 20  1  0  0  0  0
 20 21  2  0  0  0  0
M  END
>  <CHROM.1>
-68.88042939,-178.00772251,154.97466998,38.08813663,18.98228916,-18.45216933
25.69243097,-0.26621010,-0.27388753,-3.05492378

>  <Name>
ligand

>  <RI>
0

>  <Rbt.Current_Directory>
/home/itssahil/PROJECTS/Mol_Feturizer/Test_systems_manuscript/rnas/3sd3

>  <Rbt.Executable>
rbdock ($Id: //depot/dev/client3/rdock/2013.1/src/exe/rbdock.cxx#4 $)

>  <Rbt.Library>
libRbt.so (2013.1, Build901 2013/11/27)

>  <Rbt.Parameter_File>
/export/apps/rDock/src/rDock_2013.1_src/data/scripts/dock_solv.prm

>  <Rbt.Receptor>
prm/pocket_docking_6.prm

>  <SCORE>
-12.1911

>  <SCORE.INTER>
-11.7538

>  <SCORE.INTER.CONST>
1

>  <SCORE.INTER.POLAR>
0

>  <SCORE.INTER.ROT>
4

>  <SCORE.INTER.SOLV>
4.73561

>  <SCORE.INTER.VDW>
-15.6811

>  <SCORE.INTER.norm>
-0.534265

>  <SCORE.INTRA>
-0.437261

>  <SCORE.INTRA.DIHEDRAL>
-0.437453

>  <SCORE.INTRA.DIHEDRAL.0>
2.54655

>  <SCORE.INTRA.POLAR>
0

>  <SCORE.INTRA.POLAR.0>
0

>  <SCORE.INTRA.REPUL>
0

>  <SCORE.INTRA.REPUL.0>
0

>  <SCORE.INTRA.SOLV>
-0.625978

>  <SCORE.INTRA.SOLV.lig_0>
-56.4922

>  <SCORE.INTRA.VDW>
0.0944547

>  <SCORE.INTRA.VDW.0>
-0.696801

>  <SCORE.INTRA.norm>
-0.0198755

>  <SCORE.RESTR>
0

>  <SCORE.RESTR.CAVITY>
0

>  <SCORE.RESTR.norm>
0

>  <SCORE.SYSTEM>
0

>  <SCORE.SYSTEM.CONST>
0

>  <SCORE.SYSTEM.DIHEDRAL>
0

>  <SCORE.SYSTEM.SOLV>
0

>  <SCORE.SYSTEM.norm>
0

>  <SCORE.heavy>
22

>  <SCORE.norm>
-0.554141

>  <RMSD>
7.105

$$$$
ligand
 OpenBabel02271912143D
libRbt.so/2013.1/901 2013/11/27
 22 24  0  0  0  0  0  0  0  0999 V2000
   24.1917  -21.1575   28.2393 N   0  0  0  0  0  0  0  0  0  0  0  0
   21.9255  -21.7216   27.7111 N   0  0  0  0  0  0  0  0  0  0  0  0
   22.8139  -21.3008   28.6265 C   0  0  0  0  0  0  0  0  0  0  0  0
   22.4607  -21.0142   29.8734 N   0  0  0  0  0  0  0  0  0  0  0  0
   17.7155  -21.5271   31.6013 O   0  0  0  0  0  0  0  0  0  0  0  0
   21.1768  -21.1427   30.2559 C   0  0  0  0  0  0  0  0  0  0  0  0
   20.2104  -21.5981   29.3162 C   0  0  0  0  0  0  0  0  0  0  0  0
   20.8369  -20.8381   31.5549 O   0  0  0  0  0  0  0  0  0  0  0  0
   18.7944  -21.7629   29.5788 N   0  0  0  0  0  0  0  0  0  0  0  0
   17.8766  -21.3578   28.5062 C   0  0  2  0  0  0  0  0  0  0  0  0
   18.2625  -22.0010   27.2109 C   0  0  0  0  0  0  0  0  0  0  0  0
   20.6266  -21.8700   28.0369 C   0  0  0  0  0  0  0  0  0  0  0  0
   19.6841  -22.3148   27.0817 N   0  0  0  0  0  0  0  0  0  0  0  0
   17.7978  -19.8348   28.2968 C   0  0  0  0  0  0  0  0  0  0  0  0
   17.0954  -19.5264   27.0572 N   0  0  0  0  0  0  0  0  0  0  0  0
   13.1398  -20.9399   26.3809 C   0  0  0  0  0  0  0  0  0  0  0  0
   14.1712  -21.3525   25.5540 C   0  0  0  0  0  0  0  0  0  0  0  0
   15.4829  -20.8891   25.7731 C   0  0  0  0  0  0  0  0  0  0  0  0
   15.7432  -20.0158   26.8182 C   0  0  0  0  0  0  0  0  0  0  0  0
   14.7047  -19.6029   27.6476 C   0  0  0  0  0  0  0  0  0  0  0  0
   13.4042  -20.0653   27.4303 C   0  0  0  0  0  0  0  0  0  0  0  0
   18.2558  -22.2664   30.7958 C   0  0  0  0  0  0  0  0  0  0  0  0
  1  3  1  0  0  0  0
  2  3  2  0  0  0  0
  2 12  1  0  0  0  0
  3  4  1  0  0  0  0
  4  6  1  0  0  0  0
  5 22  1  0  0  0  0
  6  7  1  0  0  0  0
  6  8  2  0  0  0  0
  7 12  2  0  0  0  0
  7  9  1  0  0  0  0
  9 10  1  0  0  0  0
  9 22  1  0  0  0  0
 10 11  1  0  0  0  0
 10 14  1  6  0  0  0
 11 13  1  0  0  0  0
 12 13  1  0  0  0  0
 14 15  1  0  0  0  0
 15 19  1  0  0  0  0
 16 17  2  0  0  0  0
 16 21  1  0  0  0  0
 17 18  1  0  0  0  0
 18 19  2  0  0  0  0
 19 20  1  0  0  0  0
 20 21  2  0  0  0  0
M  END
>  <CHROM.1>
105.69127330,168.30666388,56.55450890,-117.08006490,18.57508412,-21.11072529
28.42924970,-0.33930177,0.10563283,-1.54146128

>  <Name>
ligand

>  <RI>
0

>  <Rbt.Current_Directory>
/home/itssahil/PROJECTS/Mol_Feturizer/Test_systems_manuscript/rnas/3sd3

>  <Rbt.Executable>
rbdock ($Id: //depot/dev/client3/rdock/2013.1/src/exe/rbdock.cxx#4 $)

>  <Rbt.Library>
libRbt.so (2013.1, Build901 2013/11/27)

>  <Rbt.Parameter_File>
/export/apps/rDock/src/rDock_2013.1_src/data/scripts/dock_solv.prm

>  <Rbt.Receptor>
prm/pocket_docking_8.prm

>  <SCORE>
-17.9244

>  <SCORE.INTER>
-17.701

>  <SCORE.INTER.CONST>
1

>  <SCORE.INTER.POLAR>
0

>  <SCORE.INTER.ROT>
4

>  <SCORE.INTER.SOLV>
8.67221

>  <SCORE.INTER.VDW>
-20.9581

>  <SCORE.INTER.norm>
-0.80459

>  <SCORE.INTRA>
-0.223454

>  <SCORE.INTRA.DIHEDRAL>
-0.460643

>  <SCORE.INTRA.DIHEDRAL.0>
2.54655

>  <SCORE.INTRA.POLAR>
0

>  <SCORE.INTRA.POLAR.0>
0

>  <SCORE.INTRA.REPUL>
0

>  <SCORE.INTRA.REPUL.0>
0

>  <SCORE.INTRA.SOLV>
-0.138083

>  <SCORE.INTRA.SOLV.lig_0>
-56.4922

>  <SCORE.INTRA.VDW>
0.0759086

>  <SCORE.INTRA.VDW.0>
-0.696801

>  <SCORE.INTRA.norm>
-0.010157

>  <SCORE.RESTR>
0

>  <SCORE.RESTR.CAVITY>
0

>  <SCORE.RESTR.norm>
0

>  <SCORE.SYSTEM>
0

>  <SCORE.SYSTEM.CONST>
0

>  <SCORE.SYSTEM.DIHEDRAL>
0

>  <SCORE.SYSTEM.SOLV>
0

>  <SCORE.SYSTEM.norm>
0

>  <SCORE.heavy>
22

>  <SCORE.norm>
-0.814747

>  <RMSD>
7.139

$$$$
ligand
 OpenBabel02271912143D
libRbt.so/2013.1/901 2013/11/27
 22 24  0  0  0  0  0  0  0  0999 V2000
   24.1342  -23.1823   27.8292 N   0  0  0  0  0  0  0  0  0  0  0  0
   22.2566  -22.4817   29.1395 N   0  0  0  0  0  0  0  0  0  0  0  0
   23.0395  -22.2801   28.0668 C   0  0  0  0  0  0  0  0  0  0  0  0
   22.8349  -21.2770   27.2220 N   0  0  0  0  0  0  0  0  0  0  0  0
   20.3152  -17.6111   29.5407 O   0  0  0  0  0  0  0  0  0  0  0  0
   21.8167  -20.4211   27.4272 C   0  0  0  0  0  0  0  0  0  0  0  0
   20.9745  -20.5966   28.5604 C   0  0  0  0  0  0  0  0  0  0  0  0
   21.6259  -19.3896   26.5354 O   0  0  0  0  0  0  0  0  0  0  0  0
   19.8319  -19.7698   28.8952 N   0  0  0  0  0  0  0  0  0  0  0  0
   18.6487  -20.4658   29.4173 C   0  0  2  0  0  0  0  0  0  0  0  0
   19.0226  -21.3563   30.5608 C   0  0  0  0  0  0  0  0  0  0  0  0
   21.2230  -21.6564   29.3962 C   0  0  0  0  0  0  0  0  0  0  0  0
   20.3947  -21.8583   30.5239 N   0  0  0  0  0  0  0  0  0  0  0  0
   17.9035  -21.3035   28.3625 C   0  0  0  0  0  0  0  0  0  0  0  0
   17.3706  -20.4441   27.3126 N   0  0  0  0  0  0  0  0  0  0  0  0
   13.3762  -20.8926   25.9180 C   0  0  0  0  0  0  0  0  0  0  0  0
   13.6124  -20.3802   27.1826 C   0  0  0  0  0  0  0  0  0  0  0  0
   14.9322  -20.2283   27.6499 C   0  0  0  0  0  0  0  0  0  0  0  0
   15.9988  -20.5942   26.8429 C   0  0  0  0  0  0  0  0  0  0  0  0
   15.7582  -21.1088   25.5723 C   0  0  0  0  0  0  0  0  0  0  0  0
   14.4483  -21.2568   25.1094 C   0  0  0  0  0  0  0  0  0  0  0  0
   19.7870  -18.3568   28.7331 C   0  0  0  0  0  0  0  0  0  0  0  0
  1  3  1  0  0  0  0
  2  3  2  0  0  0  0
  2 12  1  0  0  0  0
  3  4  1  0  0  0  0
  4  6  1  0  0  0  0
  5 22  1  0  0  0  0
  6  7  1  0  0  0  0
  6  8  2  0  0  0  0
  7 12  2  0  0  0  0
  7  9  1  0  0  0  0
  9 10  1  0  0  0  0
  9 22  1  0  0  0  0
 10 11  1  0  0  0  0
 10 14  1  6  0  0  0
 11 13  1  0  0  0  0
 12 13  1  0  0  0  0
 14 15  1  0  0  0  0
 15 19  1  0  0  0  0
 16 17  2  0  0  0  0
 16 21  1  0  0  0  0
 17 18  1  0  0  0  0
 18 19  2  0  0  0  0
 19 20  1  0  0  0  0
 20 21  2  0  0  0  0
M  END
>  <CHROM.1>
-79.19847705,-63.50568288,-133.45318974,70.61572426,19.19249598,-20.72675265
28.04295550,-0.11190342,0.23573963,-2.33328092

>  <Name>
ligand

>  <RI>
0

>  <Rbt.Current_Directory>
/home/itssahil/PROJECTS/Mol_Feturizer/Test_systems_manuscript/rnas/3sd3

>  <Rbt.Executable>
rbdock ($Id: //depot/dev/client3/rdock/2013.1/src/exe/rbdock.cxx#4 $)

>  <Rbt.Library>
libRbt.so (2013.1, Build901 2013/11/27)

>  <Rbt.Parameter_File>
/export/apps/rDock/src/rDock_2013.1_src/data/scripts/dock_solv.prm

>  <Rbt.Receptor>
prm/pocket_docking_7.prm

>  <SCORE>
-13.5534

>  <SCORE.INTER>
-12.698

>  <SCORE.INTER.CONST>
1

>  <SCORE.INTER.POLAR>
0

>  <SCORE.INTER.ROT>
4

>  <SCORE.INTER.SOLV>
8.94417

>  <SCORE.INTER.VDW>
-17.7134

>  <SCORE.INTER.norm>
-0.577183

>  <SCORE.INTRA>
-0.855406

>  <SCORE.INTRA.DIHEDRAL>
0.20917

>  <SCORE.INTRA.DIHEDRAL.0>
2.54655

>  <SCORE.INTRA.POLAR>
0

>  <SCORE.INTRA.POLAR.0>
0

>  <SCORE.INTRA.REPUL>
0

>  <SCORE.INTRA.REPUL.0>
0

>  <SCORE.INTRA.SOLV>
-0.296663

>  <SCORE.INTRA.SOLV.lig_0>
-56.4922

>  <SCORE.INTRA.VDW>
-0.811659

>  <SCORE.INTRA.VDW.0>
-0.696801

>  <SCORE.INTRA.norm>
-0.0388821

>  <SCORE.RESTR>
0

>  <SCORE.RESTR.CAVITY>
0

>  <SCORE.RESTR.norm>
0

>  <SCORE.SYSTEM>
0

>  <SCORE.SYSTEM.CONST>
0

>  <SCORE.SYSTEM.DIHEDRAL>
0

>  <SCORE.SYSTEM.SOLV>
0

>  <SCORE.SYSTEM.norm>
0

>  <SCORE.heavy>
22

>  <SCORE.norm>
-0.616065

>  <RMSD>
7.168

$$$$
ligand
 OpenBabel02271912143D
libRbt.so/2013.1/901 2013/11/27
 22 24  0  0  0  0  0  0  0  0999 V2000
   24.5695  -23.0516   29.0260 N   0  0  0  0  0  0  0  0  0  0  0  0
   22.3684  -22.6358   29.8717 N   0  0  0  0  0  0  0  0  0  0  0  0
   23.3301  -22.3229   28.9877 C   0  0  0  0  0  0  0  0  0  0  0  0
   23.1724  -21.3647   28.0828 N   0  0  0  0  0  0  0  0  0  0  0  0
   18.4989  -18.5287   28.1787 O   0  0  0  0  0  0  0  0  0  0  0  0
   22.0206  -20.6705   28.0310 C   0  0  0  0  0  0  0  0  0  0  0  0
   20.9846  -20.9664   28.9603 C   0  0  0  0  0  0  0  0  0  0  0  0
   21.8825  -19.6824   27.0823 O   0  0  0  0  0  0  0  0  0  0  0  0
   19.6885  -20.3191   29.0091 N   0  0  0  0  0  0  0  0  0  0  0  0
   18.5337  -21.1828   29.2872 C   0  0  2  0  0  0  0  0  0  0  0  0
   18.7726  -22.0032   30.5161 C   0  0  0  0  0  0  0  0  0  0  0  0
   21.1948  -21.9740   29.8680 C   0  0  0  0  0  0  0  0  0  0  0  0
   20.1774  -22.2939   30.7959 N   0  0  0  0  0  0  0  0  0  0  0  0
   18.1686  -22.1265   28.1271 C   0  0  0  0  0  0  0  0  0  0  0  0
   17.7798  -21.3600   26.9496 N   0  0  0  0  0  0  0  0  0  0  0  0
   13.6878  -20.6217   26.0486 C   0  0  0  0  0  0  0  0  0  0  0  0
   14.1778  -20.3411   27.3130 C   0  0  0  0  0  0  0  0  0  0  0  0
   15.5315  -20.5823   27.6174 C   0  0  0  0  0  0  0  0  0  0  0  0
   16.3765  -21.1039   26.6496 C   0  0  0  0  0  0  0  0  0  0  0  0
   15.8812  -21.3847   25.3797 C   0  0  0  0  0  0  0  0  0  0  0  0
   14.5384  -21.1429   25.0786 C   0  0  0  0  0  0  0  0  0  0  0  0
   19.4753  -18.9294   28.7899 C   0  0  0  0  0  0  0  0  0  0  0  0
  1  3  1  0  0  0  0
  2  3  2  0  0  0  0
  2 12  1  0  0  0  0
  3  4  1  0  0  0  0
  4  6  1  0  0  0  0
  5 22  1  0  0  0  0
  6  7  1  0  0  0  0
  6  8  2  0  0  0  0
  7 12  2  0  0  0  0
  7  9  1  0  0  0  0
  9 10  1  0  0  0  0
  9 22  1  0  0  0  0
 10 11  1  0  0  0  0
 10 14  1  6  0  0  0
 11 13  1  0  0  0  0
 12 13  1  0  0  0  0
 14 15  1  0  0  0  0
 15 19  1  0  0  0  0
 16 17  2  0  0  0  0
 16 21  1  0  0  0  0
 17 18  1  0  0  0  0
 18 19  2  0  0  0  0
 19 20  1  0  0  0  0
 20 21  2  0  0  0  0
M  END
>  <CHROM.1>
141.58611290,-62.64329217,-96.82840253,50.83405366,19.23715661,-21.09032140
28.20792630,-0.35149610,-0.07422865,-0.96641857

>  <Name>
ligand

>  <RI>
0

>  <Rbt.Current_Directory>
/home/itssahil/PROJECTS/Mol_Feturizer/Test_systems_manuscript/rnas/3sd3

>  <Rbt.Executable>
rbdock ($Id: //depot/dev/client3/rdock/2013.1/src/exe/rbdock.cxx#4 $)

>  <Rbt.Library>
libRbt.so (2013.1, Build901 2013/11/27)

>  <Rbt.Parameter_File>
/export/apps/rDock/src/rDock_2013.1_src/data/scripts/dock_solv.prm

>  <Rbt.Receptor>
prm/pocket_docking_8.prm

>  <SCORE>
-14.2254

>  <SCORE.INTER>
-13.5276

>  <SCORE.INTER.CONST>
1

>  <SCORE.INTER.POLAR>
0

>  <SCORE.INTER.ROT>
4

>  <SCORE.INTER.SOLV>
8.24357

>  <SCORE.INTER.VDW>
-18.0329

>  <SCORE.INTER.norm>
-0.614892

>  <SCORE.INTRA>
-0.697805

>  <SCORE.INTRA.DIHEDRAL>
-0.0540065

>  <SCORE.INTRA.DIHEDRAL.0>
2.54655

>  <SCORE.INTRA.POLAR>
0

>  <SCORE.INTRA.POLAR.0>
0

>  <SCORE.INTRA.REPUL>
0

>  <SCORE.INTRA.REPUL.0>
0

>  <SCORE.INTRA.SOLV>
0.541408

>  <SCORE.INTRA.SOLV.lig_0>
-56.4922

>  <SCORE.INTRA.VDW>
-0.941506

>  <SCORE.INTRA.VDW.0>
-0.696801

>  <SCORE.INTRA.norm>
-0.0317184

>  <SCORE.RESTR>
0

>  <SCORE.RESTR.CAVITY>
0

>  <SCORE.RESTR.norm>
0

>  <SCORE.SYSTEM>
0

>  <SCORE.SYSTEM.CONST>
0

>  <SCORE.SYSTEM.DIHEDRAL>
0

>  <SCORE.SYSTEM.SOLV>
0

>  <SCORE.SYSTEM.norm>
0

>  <SCORE.heavy>
22

>  <SCORE.norm>
-0.64661

>  <RMSD>
7.170

$$$$
ligand
 OpenBabel02271912143D
libRbt.so/2013.1/901 2013/11/27
 22 24  0  0  0  0  0  0  0  0999 V2000
   24.5701  -23.2655   29.4771 N   0  0  0  0  0  0  0  0  0  0  0  0
   22.3297  -22.7886   30.1742 N   0  0  0  0  0  0  0  0  0  0  0  0
   23.3613  -22.4940   29.3660 C   0  0  0  0  0  0  0  0  0  0  0  0
   23.2999  -21.5158   28.4709 N   0  0  0  0  0  0  0  0  0  0  0  0
   19.2729  -18.5232   27.8906 O   0  0  0  0  0  0  0  0  0  0  0  0
   22.1784  -20.7815   28.3520 C   0  0  0  0  0  0  0  0  0  0  0  0
   21.0700  -21.0572   29.2005 C   0  0  0  0  0  0  0  0  0  0  0  0
   22.1405  -19.7733   27.4151 O   0  0  0  0  0  0  0  0  0  0  0  0
   19.7959  -20.3665   29.1708 N   0  0  0  0  0  0  0  0  0  0  0  0
   18.5962  -21.1944   29.3505 C   0  0  2  0  0  0  0  0  0  0  0  0
   18.7203  -22.0433   30.5771 C   0  0  0  0  0  0  0  0  0  0  0  0
   21.1820  -22.0867   30.1011 C   0  0  0  0  0  0  0  0  0  0  0  0
   20.0914  -22.3870   30.9490 N   0  0  0  0  0  0  0  0  0  0  0  0
   18.2830  -22.1052   28.1497 C   0  0  0  0  0  0  0  0  0  0  0  0
   17.9289  -21.3064   26.9828 N   0  0  0  0  0  0  0  0  0  0  0  0
   13.8556  -20.6773   25.9273 C   0  0  0  0  0  0  0  0  0  0  0  0
   14.7390  -21.1929   24.9938 C   0  0  0  0  0  0  0  0  0  0  0  0
   16.0883  -21.4044   25.3371 C   0  0  0  0  0  0  0  0  0  0  0  0
   16.5351  -21.0942   26.6126 C   0  0  0  0  0  0  0  0  0  0  0  0
   15.6449  -20.5763   27.5487 C   0  0  0  0  0  0  0  0  0  0  0  0
   14.3060  -20.3690   27.2072 C   0  0  0  0  0  0  0  0  0  0  0  0
   19.6449  -18.9668   28.9641 C   0  0  0  0  0  0  0  0  0  0  0  0
  1  3  1  0  0  0  0
  2  3  2  0  0  0  0
  2 12  1  0  0  0  0
  3  4  1  0  0  0  0
  4  6  1  0  0  0  0
  5 22  1  0  0  0  0
  6  7  1  0  0  0  0
  6  8  2  0  0  0  0
  7 12  2  0  0  0  0
  7  9  1  0  0  0  0
  9 10  1  0  0  0  0
  9 22  1  0  0  0  0
 10 11  1  0  0  0  0
 10 14  1  6  0  0  0
 11 13  1  0  0  0  0
 12 13  1  0  0  0  0
 14 15  1  0  0  0  0
 15 19  1  0  0  0  0
 16 17  2  0  0  0  0
 16 21  1  0  0  0  0
 17 18  1  0  0  0  0
 18 19  2  0  0  0  0
 19 20  1  0  0  0  0
 20 21  2  0  0  0  0
M  END
>  <CHROM.1>
103.66634950,-65.90691827,-99.05541517,-125.61983207,19.37133310,-21.15302588
28.32665869,0.38360264,0.15205015,2.29920774

>  <Name>
ligand

>  <RI>
0

>  <Rbt.Current_Directory>
/home/itssahil/PROJECTS/Mol_Feturizer/Test_systems_manuscript/rnas/3sd3

>  <Rbt.Executable>
rbdock ($Id: //depot/dev/client3/rdock/2013.1/src/exe/rbdock.cxx#4 $)

>  <Rbt.Library>
libRbt.so (2013.1, Build901 2013/11/27)

>  <Rbt.Parameter_File>
/export/apps/rDock/src/rDock_2013.1_src/data/scripts/dock_solv.prm

>  <Rbt.Receptor>
prm/pocket_docking_7.prm

>  <SCORE>
-14.2676

>  <SCORE.INTER>
-13.4611

>  <SCORE.INTER.CONST>
1

>  <SCORE.INTER.POLAR>
0

>  <SCORE.INTER.ROT>
4

>  <SCORE.INTER.SOLV>
7.99039

>  <SCORE.INTER.VDW>
-17.9042

>  <SCORE.INTER.norm>
-0.61187

>  <SCORE.INTRA>
-0.806417

>  <SCORE.INTRA.DIHEDRAL>
0.0585305

>  <SCORE.INTRA.DIHEDRAL.0>
2.54655

>  <SCORE.INTRA.POLAR>
0

>  <SCORE.INTRA.POLAR.0>
0

>  <SCORE.INTRA.REPUL>
0

>  <SCORE.INTRA.REPUL.0>
0

>  <SCORE.INTRA.SOLV>
0.511835

>  <SCORE.INTRA.SOLV.lig_0>
-56.4922

>  <SCORE.INTRA.VDW>
-1.0916

>  <SCORE.INTRA.VDW.0>
-0.696801

>  <SCORE.INTRA.norm>
-0.0366553

>  <SCORE.RESTR>
0

>  <SCORE.RESTR.CAVITY>
0

>  <SCORE.RESTR.norm>
0

>  <SCORE.SYSTEM>
0

>  <SCORE.SYSTEM.CONST>
0

>  <SCORE.SYSTEM.DIHEDRAL>
0

>  <SCORE.SYSTEM.SOLV>
0

>  <SCORE.SYSTEM.norm>
0

>  <SCORE.heavy>
22

>  <SCORE.norm>
-0.648526

>  <RMSD>
7.212

$$$$
ligand
 OpenBabel02271912143D
libRbt.so/2013.1/901 2013/11/27
 22 24  0  0  0  0  0  0  0  0999 V2000
   21.2594  -18.9683   33.5923 N   0  0  0  0  0  0  0  0  0  0  0  0
   20.7026  -18.3876   31.3372 N   0  0  0  0  0  0  0  0  0  0  0  0
   20.9745  -19.3490   32.2349 C   0  0  0  0  0  0  0  0  0  0  0  0
   20.9886  -20.6356   31.9089 N   0  0  0  0  0  0  0  0  0  0  0  0
   20.0812  -22.1604   26.9448 O   0  0  0  0  0  0  0  0  0  0  0  0
   20.7257  -21.0126   30.6440 C   0  0  0  0  0  0  0  0  0  0  0  0
   20.4459  -20.0203   29.6635 C   0  0  0  0  0  0  0  0  0  0  0  0
   20.7459  -22.3535   30.3325 O   0  0  0  0  0  0  0  0  0  0  0  0
   20.1250  -20.2782   28.2736 N   0  0  0  0  0  0  0  0  0  0  0  0
   19.0770  -19.4409   27.6758 C   0  0  2  0  0  0  0  0  0  0  0  0
   19.3687  -17.9901   27.9009 C   0  0  0  0  0  0  0  0  0  0  0  0
   20.4331  -18.7052   30.0559 C   0  0  0  0  0  0  0  0  0  0  0  0
   20.1484  -17.7007   29.1027 N   0  0  0  0  0  0  0  0  0  0  0  0
   17.6620  -19.7468   28.1990 C   0  0  0  0  0  0  0  0  0  0  0  0
   16.6603  -19.0658   27.3878 N   0  0  0  0  0  0  0  0  0  0  0  0
   13.1838  -21.1025   26.0212 C   0  0  0  0  0  0  0  0  0  0  0  0
   14.3971  -21.3043   25.3849 C   0  0  0  0  0  0  0  0  0  0  0  0
   15.5518  -20.6340   25.8329 C   0  0  0  0  0  0  0  0  0  0  0  0
   15.4743  -19.7678   26.9129 C   0  0  0  0  0  0  0  0  0  0  0  0
   14.2536  -19.5671   27.5505 C   0  0  0  0  0  0  0  0  0  0  0  0
   13.1094  -20.2346   27.1062 C   0  0  0  0  0  0  0  0  0  0  0  0
   20.7414  -21.2856   27.4799 C   0  0  0  0  0  0  0  0  0  0  0  0
  1  3  1  0  0  0  0
  2  3  2  0  0  0  0
  2 12  1  0  0  0  0
  3  4  1  0  0  0  0
  4  6  1  0  0  0  0
  5 22  1  0  0  0  0
  6  7  1  0  0  0  0
  6  8  2  0  0  0  0
  7 12  2  0  0  0  0
  7  9  1  0  0  0  0
  9 10  1  0  0  0  0
  9 22  1  0  0  0  0
 10 11  1  0  0  0  0
 10 14  1  1  0  0  0
 11 13  1  0  0  0  0
 12 13  1  0  0  0  0
 14 15  1  0  0  0  0
 15 19  1  0  0  0  0
 16 17  2  0  0  0  0
 16 21  1  0  0  0  0
 17 18  1  0  0  0  0
 18 19  2  0  0  0  0
 19 20  1  0  0  0  0
 20 21  2  0  0  0  0
M  END
>  <CHROM.1>
122.13980807,-169.23985915,133.49759544,-77.54117689,18.59430797,-20.00718395
28.74764498,0.52293098,-0.39570019,0.84795283

>  <Name>
ligand

>  <RI>
0

>  <Rbt.Current_Directory>
/home/itssahil/PROJECTS/Mol_Feturizer/Test_systems_manuscript/rnas/3sd3

>  <Rbt.Executable>
rbdock ($Id: //depot/dev/client3/rdock/2013.1/src/exe/rbdock.cxx#4 $)

>  <Rbt.Library>
libRbt.so (2013.1, Build901 2013/11/27)

>  <Rbt.Parameter_File>
/export/apps/rDock/src/rDock_2013.1_src/data/scripts/dock_solv.prm

>  <Rbt.Receptor>
prm/pocket_docking_8.prm

>  <SCORE>
-13.0931

>  <SCORE.INTER>
-12.7413

>  <SCORE.INTER.CONST>
1

>  <SCORE.INTER.POLAR>
0

>  <SCORE.INTER.ROT>
4

>  <SCORE.INTER.SOLV>
10.1703

>  <SCORE.INTER.VDW>
-18.151

>  <SCORE.INTER.norm>
-0.57915

>  <SCORE.INTRA>
-0.351812

>  <SCORE.INTRA.DIHEDRAL>
0.563774

>  <SCORE.INTRA.DIHEDRAL.0>
2.54655

>  <SCORE.INTRA.POLAR>
0

>  <SCORE.INTRA.POLAR.0>
0

>  <SCORE.INTRA.REPUL>
0

>  <SCORE.INTRA.REPUL.0>
0

>  <SCORE.INTRA.SOLV>
-0.602281

>  <SCORE.INTRA.SOLV.lig_0>
-56.4922

>  <SCORE.INTRA.VDW>
-0.332558

>  <SCORE.INTRA.VDW.0>
-0.696801

>  <SCORE.INTRA.norm>
-0.0159915

>  <SCORE.RESTR>
0

>  <SCORE.RESTR.CAVITY>
0

>  <SCORE.RESTR.norm>
0

>  <SCORE.SYSTEM>
0

>  <SCORE.SYSTEM.CONST>
0

>  <SCORE.SYSTEM.DIHEDRAL>
0

>  <SCORE.SYSTEM.SOLV>
0

>  <SCORE.SYSTEM.norm>
0

>  <SCORE.heavy>
22

>  <SCORE.norm>
-0.595142

>  <RMSD>
7.232

$$$$
ligand
 OpenBabel02271912143D
libRbt.so/2013.1/901 2013/11/27
 22 24  0  0  0  0  0  0  0  0999 V2000
    9.5528  -23.9970   35.7166 N   0  0  0  0  0  0  0  0  0  0  0  0
    8.7889  -26.0986   34.8607 N   0  0  0  0  0  0  0  0  0  0  0  0
    8.9434  -24.7776   34.6735 C   0  0  0  0  0  0  0  0  0  0  0  0
    8.5520  -24.1720   33.5591 N   0  0  0  0  0  0  0  0  0  0  0  0
    5.0714  -26.3941   31.3888 O   0  0  0  0  0  0  0  0  0  0  0  0
    7.9786  -24.8842   32.5716 C   0  0  0  0  0  0  0  0  0  0  0  0
    7.7875  -26.2840   32.7404 C   0  0  0  0  0  0  0  0  0  0  0  0
    7.5824  -24.2320   31.4256 O   0  0  0  0  0  0  0  0  0  0  0  0
    7.2066  -27.1781   31.7584 N   0  0  0  0  0  0  0  0  0  0  0  0
    7.8301  -28.5012   31.6254 C   0  0  2  0  0  0  0  0  0  0  0  0
    7.9423  -29.1678   32.9609 C   0  0  0  0  0  0  0  0  0  0  0  0
    8.2203  -26.8623   33.9074 C   0  0  0  0  0  0  0  0  0  0  0  0
    8.0508  -28.2531   34.0958 N   0  0  0  0  0  0  0  0  0  0  0  0
    9.2230  -28.4698   30.9709 C   0  0  0  0  0  0  0  0  0  0  0  0
    9.1284  -28.8028   29.5549 N   0  0  0  0  0  0  0  0  0  0  0  0
   12.6298  -29.1688   27.1657 C   0  0  0  0  0  0  0  0  0  0  0  0
   11.6642  -30.1608   27.1319 C   0  0  0  0  0  0  0  0  0  0  0  0
   10.5024  -30.0453   27.9195 C   0  0  0  0  0  0  0  0  0  0  0  0
   10.3249  -28.9364   28.7330 C   0  0  0  0  0  0  0  0  0  0  0  0
   11.2971  -27.9410   28.7648 C   0  0  0  0  0  0  0  0  0  0  0  0
   12.4481  -28.0561   27.9811 C   0  0  0  0  0  0  0  0  0  0  0  0
    6.1035  -26.8469   30.9228 C   0  0  0  0  0  0  0  0  0  0  0  0
  1  3  1  0  0  0  0
  2  3  2  0  0  0  0
  2 12  1  0  0  0  0
  3  4  1  0  0  0  0
  4  6  1  0  0  0  0
  5 22  1  0  0  0  0
  6  7  1  0  0  0  0
  6  8  2  0  0  0  0
  7 12  2  0  0  0  0
  7  9  1  0  0  0  0
  9 10  1  0  0  0  0
  9 22  1  0  0  0  0
 10 11  1  0  0  0  0
 10 14  1  1  0  0  0
 11 13  1  0  0  0  0
 12 13  1  0  0  0  0
 14 15  1  0  0  0  0
 15 19  1  0  0  0  0
 16 17  2  0  0  0  0
 16 21  1  0  0  0  0
 17 18  1  0  0  0  0
 18 19  2  0  0  0  0
 19 20  1  0  0  0  0
 20 21  2  0  0  0  0
M  END
>  <CHROM.1>
-51.28788763,-98.37434067,-175.48269780,130.78560956,8.82993993,-27.17480608
31.46657896,-2.02098078,-0.19734216,-2.24432082

>  <Name>
ligand

>  <RI>
0

>  <Rbt.Current_Directory>
/home/itssahil/PROJECTS/Mol_Feturizer/Test_systems_manuscript/rnas/3sd3

>  <Rbt.Executable>
rbdock ($Id: //depot/dev/client3/rdock/2013.1/src/exe/rbdock.cxx#4 $)

>  <Rbt.Library>
libRbt.so (2013.1, Build901 2013/11/27)

>  <Rbt.Parameter_File>
/export/apps/rDock/src/rDock_2013.1_src/data/scripts/dock_solv.prm

>  <Rbt.Receptor>
prm/blind_docking_80.prm

>  <SCORE>
-15.0914

>  <SCORE.INTER>
-15.7385

>  <SCORE.INTER.CONST>
1

>  <SCORE.INTER.POLAR>
0

>  <SCORE.INTER.ROT>
4

>  <SCORE.INTER.SOLV>
19.7787

>  <SCORE.INTER.VDW>
-23.3519

>  <SCORE.INTER.norm>
-0.715386

>  <SCORE.INTRA>
0.647142

>  <SCORE.INTRA.DIHEDRAL>
2.78125

>  <SCORE.INTRA.DIHEDRAL.0>
2.54655

>  <SCORE.INTRA.POLAR>
0

>  <SCORE.INTRA.POLAR.0>
0

>  <SCORE.INTRA.REPUL>
0

>  <SCORE.INTRA.REPUL.0>
0

>  <SCORE.INTRA.SOLV>
-0.610056

>  <SCORE.INTRA.SOLV.lig_0>
-56.4922

>  <SCORE.INTRA.VDW>
-0.438456

>  <SCORE.INTRA.VDW.0>
-0.696801

>  <SCORE.INTRA.norm>
0.0294156

>  <SCORE.RESTR>
0

>  <SCORE.RESTR.CAVITY>
0

>  <SCORE.RESTR.norm>
0

>  <SCORE.SYSTEM>
0

>  <SCORE.SYSTEM.CONST>
0

>  <SCORE.SYSTEM.DIHEDRAL>
0

>  <SCORE.SYSTEM.SOLV>
0

>  <SCORE.SYSTEM.norm>
0

>  <SCORE.heavy>
22

>  <SCORE.norm>
-0.685971

>  <RMSD>
13.271

$$$$
ligand
 OpenBabel02271912143D
libRbt.so/2013.1/901 2013/11/27
 22 24  0  0  0  0  0  0  0  0999 V2000
    9.5561  -23.9751   35.6780 N   0  0  0  0  0  0  0  0  0  0  0  0
    8.7893  -26.0834   34.8412 N   0  0  0  0  0  0  0  0  0  0  0  0
    8.9447  -24.7641   34.6424 C   0  0  0  0  0  0  0  0  0  0  0  0
    8.5525  -24.1678   33.5233 N   0  0  0  0  0  0  0  0  0  0  0  0
    5.0275  -26.5197   31.3847 O   0  0  0  0  0  0  0  0  0  0  0  0
    7.9773  -24.8881   32.5426 C   0  0  0  0  0  0  0  0  0  0  0  0
    7.7852  -26.2862   32.7238 C   0  0  0  0  0  0  0  0  0  0  0  0
    7.5803  -24.2453   31.3916 O   0  0  0  0  0  0  0  0  0  0  0  0
    7.2023  -27.1882   31.7502 N   0  0  0  0  0  0  0  0  0  0  0  0
    7.8245  -28.5129   31.6279 C   0  0  2  0  0  0  0  0  0  0  0  0
    7.9378  -29.1680   32.9690 C   0  0  0  0  0  0  0  0  0  0  0  0
    8.2189  -26.8547   33.8952 C   0  0  0  0  0  0  0  0  0  0  0  0
    8.0484  -28.2437   34.0957 N   0  0  0  0  0  0  0  0  0  0  0  0
    9.2167  -28.4884   30.9715 C   0  0  0  0  0  0  0  0  0  0  0  0
    9.1119  -28.7635   29.5438 N   0  0  0  0  0  0  0  0  0  0  0  0
   12.5976  -29.3746   27.1820 C   0  0  0  0  0  0  0  0  0  0  0  0
   11.5638  -30.2948   27.1379 C   0  0  0  0  0  0  0  0  0  0  0  0
   10.4069  -30.0980   27.9165 C   0  0  0  0  0  0  0  0  0  0  0  0
   10.3025  -28.9808   28.7312 C   0  0  0  0  0  0  0  0  0  0  0  0
   11.3431  -28.0576   28.7733 C   0  0  0  0  0  0  0  0  0  0  0  0
   12.4893  -28.2533   27.9986 C   0  0  0  0  0  0  0  0  0  0  0  0
    6.0985  -26.8632   30.9131 C   0  0  0  0  0  0  0  0  0  0  0  0
  1  3  1  0  0  0  0
  2  3  2  0  0  0  0
  2 12  1  0  0  0  0
  3  4  1  0  0  0  0
  4  6  1  0  0  0  0
  5 22  1  0  0  0  0
  6  7  1  0  0  0  0
  6  8  2  0  0  0  0
  7 12  2  0  0  0  0
  7  9  1  0  0  0  0
  9 10  1  0  0  0  0
  9 22  1  0  0  0  0
 10 11  1  0  0  0  0
 10 14  1  1  0  0  0
 11 13  1  0  0  0  0
 12 13  1  0  0  0  0
 14 15  1  0  0  0  0
 15 19  1  0  0  0  0
 16 17  2  0  0  0  0
 16 21  1  0  0  0  0
 17 18  1  0  0  0  0
 18 19  2  0  0  0  0
 19 20  1  0  0  0  0
 20 21  2  0  0  0  0
M  END
>  <CHROM.1>
-57.94902143,-95.35298991,-171.36256674,128.55406608,8.81860915,-27.21114950
31.45723873,-2.01296826,-0.17541938,-2.24859837

>  <Name>
ligand

>  <RI>
0

>  <Rbt.Current_Directory>
/home/itssahil/PROJECTS/Mol_Feturizer/Test_systems_manuscript/rnas/3sd3

>  <Rbt.Executable>
rbdock ($Id: //depot/dev/client3/rdock/2013.1/src/exe/rbdock.cxx#4 $)

>  <Rbt.Library>
libRbt.so (2013.1, Build901 2013/11/27)

>  <Rbt.Parameter_File>
/export/apps/rDock/src/rDock_2013.1_src/data/scripts/dock_solv.prm

>  <Rbt.Receptor>
prm/blind_docking_80.prm

>  <SCORE>
-15.1259

>  <SCORE.INTER>
-15.5798

>  <SCORE.INTER.CONST>
1

>  <SCORE.INTER.POLAR>
0

>  <SCORE.INTER.ROT>
4

>  <SCORE.INTER.SOLV>
19.6962

>  <SCORE.INTER.VDW>
-23.2186

>  <SCORE.INTER.norm>
-0.708171

>  <SCORE.INTRA>
0.453825

>  <SCORE.INTRA.DIHEDRAL>
2.44761

>  <SCORE.INTRA.DIHEDRAL.0>
2.54655

>  <SCORE.INTRA.POLAR>
0

>  <SCORE.INTRA.POLAR.0>
0

>  <SCORE.INTRA.REPUL>
0

>  <SCORE.INTRA.REPUL.0>
0

>  <SCORE.INTRA.SOLV>
-0.610088

>  <SCORE.INTRA.SOLV.lig_0>
-56.4922

>  <SCORE.INTRA.VDW>
-0.464935

>  <SCORE.INTRA.VDW.0>
-0.696801

>  <SCORE.INTRA.norm>
0.0206284

>  <SCORE.RESTR>
0

>  <SCORE.RESTR.CAVITY>
0

>  <SCORE.RESTR.norm>
0

>  <SCORE.SYSTEM>
0

>  <SCORE.SYSTEM.CONST>
0

>  <SCORE.SYSTEM.DIHEDRAL>
0

>  <SCORE.SYSTEM.SOLV>
0

>  <SCORE.SYSTEM.norm>
0

>  <SCORE.heavy>
22

>  <SCORE.norm>
-0.687543

>  <RMSD>
13.298

$$$$
ligand
 OpenBabel02271912143D
libRbt.so/2013.1/901 2013/11/27
 22 24  0  0  0  0  0  0  0  0999 V2000
    9.5612  -23.9816   35.6996 N   0  0  0  0  0  0  0  0  0  0  0  0
    8.7967  -26.0854   34.8494 N   0  0  0  0  0  0  0  0  0  0  0  0
    8.9484  -24.7642   34.6600 C   0  0  0  0  0  0  0  0  0  0  0  0
    8.5512  -24.1605   33.5467 N   0  0  0  0  0  0  0  0  0  0  0  0
    5.1161  -27.5661   30.8605 O   0  0  0  0  0  0  0  0  0  0  0  0
    7.9746  -24.8747   32.5625 C   0  0  0  0  0  0  0  0  0  0  0  0
    7.7863  -26.2746   32.7337 C   0  0  0  0  0  0  0  0  0  0  0  0
    7.5725  -24.2243   31.4176 O   0  0  0  0  0  0  0  0  0  0  0  0
    7.2025  -27.1706   31.7552 N   0  0  0  0  0  0  0  0  0  0  0  0
    7.8274  -28.4929   31.6210 C   0  0  2  0  0  0  0  0  0  0  0  0
    7.9464  -29.1578   32.9567 C   0  0  0  0  0  0  0  0  0  0  0  0
    8.2251  -26.8509   33.8994 C   0  0  0  0  0  0  0  0  0  0  0  0
    8.0585  -28.2418   34.0900 N   0  0  0  0  0  0  0  0  0  0  0  0
    9.2175  -28.4602   30.9604 C   0  0  0  0  0  0  0  0  0  0  0  0
    9.1166  -28.7899   29.5440 N   0  0  0  0  0  0  0  0  0  0  0  0
   12.6105  -29.2405   27.1585 C   0  0  0  0  0  0  0  0  0  0  0  0
   11.6407  -30.2289   27.1559 C   0  0  0  0  0  0  0  0  0  0  0  0
   10.4813  -30.0855   27.9425 C   0  0  0  0  0  0  0  0  0  0  0  0
   10.3105  -28.9525   28.7236 C   0  0  0  0  0  0  0  0  0  0  0  0
   11.2869  -27.9608   28.7240 C   0  0  0  0  0  0  0  0  0  0  0  0
   12.4355  -28.1037   27.9414 C   0  0  0  0  0  0  0  0  0  0  0  0
    6.0953  -26.8419   30.9240 C   0  0  0  0  0  0  0  0  0  0  0  0
  1  3  1  0  0  0  0
  2  3  2  0  0  0  0
  2 12  1  0  0  0  0
  3  4  1  0  0  0  0
  4  6  1  0  0  0  0
  5 22  1  0  0  0  0
  6  7  1  0  0  0  0
  6  8  2  0  0  0  0
  7 12  2  0  0  0  0
  7  9  1  0  0  0  0
  9 10  1  0  0  0  0
  9 22  1  0  0  0  0
 10 11  1  0  0  0  0
 10 14  1  1  0  0  0
 11 13  1  0  0  0  0
 12 13  1  0  0  0  0
 14 15  1  0  0  0  0
 15 19  1  0  0  0  0
 16 17  2  0  0  0  0
 16 21  1  0  0  0  0
 17 18  1  0  0  0  0
 18 19  2  0  0  0  0
 19 20  1  0  0  0  0
 20 21  2  0  0  0  0
M  END
>  <CHROM.1>
-127.83262483,-98.15778080,-174.02951734,128.69882235,8.82764045,-27.24281578
31.42973868,-2.00246815,-0.25840376,-2.26531833

>  <Name>
ligand

>  <RI>
0

>  <Rbt.Current_Directory>
/home/itssahil/PROJECTS/Mol_Feturizer/Test_systems_manuscript/rnas/3sd3

>  <Rbt.Executable>
rbdock ($Id: //depot/dev/client3/rdock/2013.1/src/exe/rbdock.cxx#4 $)

>  <Rbt.Library>
libRbt.so (2013.1, Build901 2013/11/27)

>  <Rbt.Parameter_File>
/export/apps/rDock/src/rDock_2013.1_src/data/scripts/dock_solv.prm

>  <Rbt.Receptor>
prm/blind_docking_80.prm

>  <SCORE>
-15.1055

>  <SCORE.INTER>
-15.822

>  <SCORE.INTER.CONST>
1

>  <SCORE.INTER.POLAR>
0

>  <SCORE.INTER.ROT>
4

>  <SCORE.INTER.SOLV>
19.1044

>  <SCORE.INTER.VDW>
-23.1828

>  <SCORE.INTER.norm>
-0.719181

>  <SCORE.INTRA>
0.716476

>  <SCORE.INTRA.DIHEDRAL>
2.76913

>  <SCORE.INTRA.DIHEDRAL.0>
2.54655

>  <SCORE.INTRA.POLAR>
0

>  <SCORE.INTRA.POLAR.0>
0

>  <SCORE.INTRA.REPUL>
0

>  <SCORE.INTRA.REPUL.0>
0

>  <SCORE.INTRA.SOLV>
-0.733089

>  <SCORE.INTRA.SOLV.lig_0>
-56.4922

>  <SCORE.INTRA.VDW>
-0.301543

>  <SCORE.INTRA.VDW.0>
-0.696801

>  <SCORE.INTRA.norm>
0.0325671

>  <SCORE.RESTR>
0

>  <SCORE.RESTR.CAVITY>
0

>  <SCORE.RESTR.norm>
0

>  <SCORE.SYSTEM>
0

>  <SCORE.SYSTEM.CONST>
0

>  <SCORE.SYSTEM.DIHEDRAL>
0

>  <SCORE.SYSTEM.SOLV>
0

>  <SCORE.SYSTEM.norm>
0

>  <SCORE.heavy>
22

>  <SCORE.norm>
-0.686614

>  <RMSD>
13.303

$$$$
ligand
 OpenBabel02271912143D
libRbt.so/2013.1/901 2013/11/27
 22 24  0  0  0  0  0  0  0  0999 V2000
    9.5550  -24.0175   35.6748 N   0  0  0  0  0  0  0  0  0  0  0  0
    8.7770  -26.1176   34.8278 N   0  0  0  0  0  0  0  0  0  0  0  0
    8.9378  -24.7979   34.6361 C   0  0  0  0  0  0  0  0  0  0  0  0
    8.5456  -24.1936   33.5213 N   0  0  0  0  0  0  0  0  0  0  0  0
    5.0846  -26.3127   31.3550 O   0  0  0  0  0  0  0  0  0  0  0  0
    7.9650  -24.9057   32.5379 C   0  0  0  0  0  0  0  0  0  0  0  0
    7.7672  -26.3040   32.7116 C   0  0  0  0  0  0  0  0  0  0  0  0
    7.5683  -24.2547   31.3915 O   0  0  0  0  0  0  0  0  0  0  0  0
    7.1782  -27.1978   31.7343 N   0  0  0  0  0  0  0  0  0  0  0  0
    7.7942  -28.5245   31.6030 C   0  0  2  0  0  0  0  0  0  0  0  0
    7.9076  -29.1878   32.9401 C   0  0  0  0  0  0  0  0  0  0  0  0
    8.2011  -26.8811   33.8787 C   0  0  0  0  0  0  0  0  0  0  0  0
    8.0249  -28.2704   34.0718 N   0  0  0  0  0  0  0  0  0  0  0  0
    9.1850  -28.5025   30.9436 C   0  0  0  0  0  0  0  0  0  0  0  0
    9.0805  -28.8126   29.5230 N   0  0  0  0  0  0  0  0  0  0  0  0
   12.5482  -29.4487   27.1415 C   0  0  0  0  0  0  0  0  0  0  0  0
   12.4471  -28.3104   27.9235 C   0  0  0  0  0  0  0  0  0  0  0  0
   11.3023  -28.0943   28.7148 C   0  0  0  0  0  0  0  0  0  0  0  0
   10.2722  -29.0225   28.7102 C   0  0  0  0  0  0  0  0  0  0  0  0
   10.3768  -30.1657   27.9234 C   0  0  0  0  0  0  0  0  0  0  0  0
   11.5141  -30.3796   27.1405 C   0  0  0  0  0  0  0  0  0  0  0  0
    6.0739  -26.8633   30.9016 C   0  0  0  0  0  0  0  0  0  0  0  0
  1  3  1  0  0  0  0
  2  3  2  0  0  0  0
  2 12  1  0  0  0  0
  3  4  1  0  0  0  0
  4  6  1  0  0  0  0
  5 22  1  0  0  0  0
  6  7  1  0  0  0  0
  6  8  2  0  0  0  0
  7 12  2  0  0  0  0
  7  9  1  0  0  0  0
  9 10  1  0  0  0  0
  9 22  1  0  0  0  0
 10 11  1  0  0  0  0
 10 14  1  1  0  0  0
 11 13  1  0  0  0  0
 12 13  1  0  0  0  0
 14 15  1  0  0  0  0
 15 19  1  0  0  0  0
 16 17  2  0  0  0  0
 16 21  1  0  0  0  0
 17 18  1  0  0  0  0
 18 19  2  0  0  0  0
 19 20  1  0  0  0  0
 20 21  2  0  0  0  0
M  END
>  <CHROM.1>
-45.78894486,-97.22783477,-172.08822792,-51.28741658,8.79852908,-27.23035633
31.43809506,-2.00519552,-0.14572334,-2.23972626

>  <Name>
ligand

>  <RI>
0

>  <Rbt.Current_Directory>
/home/itssahil/PROJECTS/Mol_Feturizer/Test_systems_manuscript/rnas/3sd3

>  <Rbt.Executable>
rbdock ($Id: //depot/dev/client3/rdock/2013.1/src/exe/rbdock.cxx#4 $)

>  <Rbt.Library>
libRbt.so (2013.1, Build901 2013/11/27)

>  <Rbt.Parameter_File>
/export/apps/rDock/src/rDock_2013.1_src/data/scripts/dock_solv.prm

>  <Rbt.Receptor>
prm/blind_docking_100.prm

>  <SCORE>
-15.0264

>  <SCORE.INTER>
-15.6345

>  <SCORE.INTER.CONST>
1

>  <SCORE.INTER.POLAR>
0

>  <SCORE.INTER.ROT>
4

>  <SCORE.INTER.SOLV>
19.8794

>  <SCORE.INTER.VDW>
-23.3161

>  <SCORE.INTER.norm>
-0.710657

>  <SCORE.INTRA>
0.543943

>  <SCORE.INTRA.DIHEDRAL>
2.66519

>  <SCORE.INTRA.DIHEDRAL.0>
2.54655

>  <SCORE.INTRA.POLAR>
0

>  <SCORE.INTRA.POLAR.0>
0

>  <SCORE.INTRA.REPUL>
0

>  <SCORE.INTRA.REPUL.0>
0

>  <SCORE.INTRA.SOLV>
-0.575554

>  <SCORE.INTRA.SOLV.lig_0>
-56.4922

>  <SCORE.INTRA.VDW>
-0.500877

>  <SCORE.INTRA.VDW.0>
-0.696801

>  <SCORE.INTRA.norm>
0.0247247

>  <SCORE.RESTR>
0.0641428

>  <SCORE.RESTR.CAVITY>
0.0641428

>  <SCORE.RESTR.norm>
0.00291558

>  <SCORE.SYSTEM>
0

>  <SCORE.SYSTEM.CONST>
0

>  <SCORE.SYSTEM.DIHEDRAL>
0

>  <SCORE.SYSTEM.SOLV>
0

>  <SCORE.SYSTEM.norm>
0

>  <SCORE.heavy>
22

>  <SCORE.norm>
-0.683017

>  <RMSD>
13.316

$$$$
ligand
 OpenBabel02271912143D
libRbt.so/2013.1/901 2013/11/27
 22 24  0  0  0  0  0  0  0  0999 V2000
    9.5777  -23.9792   35.6724 N   0  0  0  0  0  0  0  0  0  0  0  0
    8.8005  -26.0840   34.8365 N   0  0  0  0  0  0  0  0  0  0  0  0
    8.9602  -24.7651   34.6381 C   0  0  0  0  0  0  0  0  0  0  0  0
    8.5668  -24.1666   33.5206 N   0  0  0  0  0  0  0  0  0  0  0  0
    4.9529  -26.8719   31.3432 O   0  0  0  0  0  0  0  0  0  0  0  0
    7.9860  -24.8840   32.5412 C   0  0  0  0  0  0  0  0  0  0  0  0
    7.7892  -26.2815   32.7220 C   0  0  0  0  0  0  0  0  0  0  0  0
    7.5880  -24.2389   31.3918 O   0  0  0  0  0  0  0  0  0  0  0  0
    7.2001  -27.1806   31.7495 N   0  0  0  0  0  0  0  0  0  0  0  0
    7.8170  -28.5075   31.6244 C   0  0  2  0  0  0  0  0  0  0  0  0
    7.9317  -29.1641   32.9647 C   0  0  0  0  0  0  0  0  0  0  0  0
    8.2244  -26.8525   33.8916 C   0  0  0  0  0  0  0  0  0  0  0  0
    8.0492  -28.2410   34.0917 N   0  0  0  0  0  0  0  0  0  0  0  0
    9.2072  -28.4878   30.9638 C   0  0  0  0  0  0  0  0  0  0  0  0
    9.0949  -28.7381   29.5321 N   0  0  0  0  0  0  0  0  0  0  0  0
   12.5400  -29.4528   27.1402 C   0  0  0  0  0  0  0  0  0  0  0  0
   12.4618  -28.3063   27.9128 C   0  0  0  0  0  0  0  0  0  0  0  0
   11.3246  -28.0642   28.7075 C   0  0  0  0  0  0  0  0  0  0  0  0
   10.2790  -28.9749   28.7157 C   0  0  0  0  0  0  0  0  0  0  0  0
   10.3606  -30.1264   27.9382 C   0  0  0  0  0  0  0  0  0  0  0  0
   11.4904  -30.3661   27.1520 C   0  0  0  0  0  0  0  0  0  0  0  0
    6.0950  -26.8509   30.9159 C   0  0  0  0  0  0  0  0  0  0  0  0
  1  3  1  0  0  0  0
  2  3  2  0  0  0  0
  2 12  1  0  0  0  0
  3  4  1  0  0  0  0
  4  6  1  0  0  0  0
  5 22  1  0  0  0  0
  6  7  1  0  0  0  0
  6  8  2  0  0  0  0
  7 12  2  0  0  0  0
  7  9  1  0  0  0  0
  9 10  1  0  0  0  0
  9 22  1  0  0  0  0
 10 11  1  0  0  0  0
 10 14  1  1  0  0  0
 11 13  1  0  0  0  0
 12 13  1  0  0  0  0
 14 15  1  0  0  0  0
 15 19  1  0  0  0  0
 16 17  2  0  0  0  0
 16 21  1  0  0  0  0
 17 18  1  0  0  0  0
 18 19  2  0  0  0  0
 19 20  1  0  0  0  0
 20 21  2  0  0  0  0
M  END
>  <CHROM.1>
-78.85234587,-94.35148081,-170.44604541,-54.57738612,8.80626621,-27.23667643
31.44536330,-2.00432708,-0.20296824,-2.25793246

>  <Name>
ligand

>  <RI>
0

>  <Rbt.Current_Directory>
/home/itssahil/PROJECTS/Mol_Feturizer/Test_systems_manuscript/rnas/3sd3

>  <Rbt.Executable>
rbdock ($Id: //depot/dev/client3/rdock/2013.1/src/exe/rbdock.cxx#4 $)

>  <Rbt.Library>
libRbt.so (2013.1, Build901 2013/11/27)

>  <Rbt.Parameter_File>
/export/apps/rDock/src/rDock_2013.1_src/data/scripts/dock_solv.prm

>  <Rbt.Receptor>
prm/blind_docking_80.prm

>  <SCORE>
-15.1885

>  <SCORE.INTER>
-15.5381

>  <SCORE.INTER.CONST>
1

>  <SCORE.INTER.POLAR>
0

>  <SCORE.INTER.ROT>
4

>  <SCORE.INTER.SOLV>
19.5658

>  <SCORE.INTER.VDW>
-23.1473

>  <SCORE.INTER.norm>
-0.706275

>  <SCORE.INTRA>
0.349515

>  <SCORE.INTRA.DIHEDRAL>
2.35546

>  <SCORE.INTRA.DIHEDRAL.0>
2.54655

>  <SCORE.INTRA.POLAR>
0

>  <SCORE.INTRA.POLAR.0>
0

>  <SCORE.INTRA.REPUL>
0

>  <SCORE.INTRA.REPUL.0>
0

>  <SCORE.INTRA.SOLV>
-0.67464

>  <SCORE.INTRA.SOLV.lig_0>
-56.4922

>  <SCORE.INTRA.VDW>
-0.490895

>  <SCORE.INTRA.VDW.0>
-0.696801

>  <SCORE.INTRA.norm>
0.0158871

>  <SCORE.RESTR>
0

>  <SCORE.RESTR.CAVITY>
0

>  <SCORE.RESTR.norm>
0

>  <SCORE.SYSTEM>
0

>  <SCORE.SYSTEM.CONST>
0

>  <SCORE.SYSTEM.DIHEDRAL>
0

>  <SCORE.SYSTEM.SOLV>
0

>  <SCORE.SYSTEM.norm>
0

>  <SCORE.heavy>
22

>  <SCORE.norm>
-0.690388

>  <RMSD>
13.323

$$$$
ligand
 OpenBabel02271912143D
libRbt.so/2013.1/901 2013/11/27
 22 24  0  0  0  0  0  0  0  0999 V2000
    9.5787  -23.9816   35.6782 N   0  0  0  0  0  0  0  0  0  0  0  0
    8.8033  -26.0886   34.8461 N   0  0  0  0  0  0  0  0  0  0  0  0
    8.9606  -24.7697   34.6459 C   0  0  0  0  0  0  0  0  0  0  0  0
    8.5641  -24.1731   33.5285 N   0  0  0  0  0  0  0  0  0  0  0  0
    4.9463  -27.0822   31.2897 O   0  0  0  0  0  0  0  0  0  0  0  0
    7.9826  -24.8925   32.5510 C   0  0  0  0  0  0  0  0  0  0  0  0
    7.7884  -26.2902   32.7337 C   0  0  0  0  0  0  0  0  0  0  0  0
    7.5813  -24.2495   31.4017 O   0  0  0  0  0  0  0  0  0  0  0  0
    7.1989  -27.1913   31.7634 N   0  0  0  0  0  0  0  0  0  0  0  0
    7.8176  -28.5174   31.6387 C   0  0  2  0  0  0  0  0  0  0  0  0
    7.9360  -29.1722   32.9794 C   0  0  0  0  0  0  0  0  0  0  0  0
    8.2267  -26.8592   33.9032 C   0  0  0  0  0  0  0  0  0  0  0  0
    8.0542  -28.2477   34.1052 N   0  0  0  0  0  0  0  0  0  0  0  0
    9.2066  -28.4962   30.9754 C   0  0  0  0  0  0  0  0  0  0  0  0
    9.0927  -28.7558   29.5455 N   0  0  0  0  0  0  0  0  0  0  0  0
   12.5390  -29.4321   27.1440 C   0  0  0  0  0  0  0  0  0  0  0  0
   12.4544  -28.2912   27.9244 C   0  0  0  0  0  0  0  0  0  0  0  0
   11.3168  -28.0619   28.7223 C   0  0  0  0  0  0  0  0  0  0  0  0
   10.2772  -28.9795   28.7258 C   0  0  0  0  0  0  0  0  0  0  0  0
   10.3651  -30.1252   27.9406 C   0  0  0  0  0  0  0  0  0  0  0  0
   11.4954  -30.3523   27.1512 C   0  0  0  0  0  0  0  0  0  0  0  0
    6.0916  -26.8643   30.9316 C   0  0  0  0  0  0  0  0  0  0  0  0
  1  3  1  0  0  0  0
  2  3  2  0  0  0  0
  2 12  1  0  0  0  0
  3  4  1  0  0  0  0
  4  6  1  0  0  0  0
  5 22  1  0  0  0  0
  6  7  1  0  0  0  0
  6  8  2  0  0  0  0
  7 12  2  0  0  0  0
  7  9  1  0  0  0  0
  9 10  1  0  0  0  0
  9 22  1  0  0  0  0
 10 11  1  0  0  0  0
 10 14  1  1  0  0  0
 11 13  1  0  0  0  0
 12 13  1  0  0  0  0
 14 15  1  0  0  0  0
 15 19  1  0  0  0  0
 16 17  2  0  0  0  0
 16 21  1  0  0  0  0
 17 18  1  0  0  0  0
 18 19  2  0  0  0  0
 19 20  1  0  0  0  0
 20 21  2  0  0  0  0
M  END
>  <CHROM.1>
-90.30666839,-94.67468614,-171.07603159,-53.72936809,8.80529433,-27.25221848
31.45212344,-2.00340138,-0.22231910,-2.26260579

>  <Name>
ligand

>  <RI>
0

>  <Rbt.Current_Directory>
/home/itssahil/PROJECTS/Mol_Feturizer/Test_systems_manuscript/rnas/3sd3

>  <Rbt.Executable>
rbdock ($Id: //depot/dev/client3/rdock/2013.1/src/exe/rbdock.cxx#4 $)

>  <Rbt.Library>
libRbt.so (2013.1, Build901 2013/11/27)

>  <Rbt.Parameter_File>
/export/apps/rDock/src/rDock_2013.1_src/data/scripts/dock_solv.prm

>  <Rbt.Receptor>
prm/blind_docking_80.prm

>  <SCORE>
-15.1899

>  <SCORE.INTER>
-15.5725

>  <SCORE.INTER.CONST>
1

>  <SCORE.INTER.POLAR>
0

>  <SCORE.INTER.ROT>
4

>  <SCORE.INTER.SOLV>
19.4196

>  <SCORE.INTER.VDW>
-23.1215

>  <SCORE.INTER.norm>
-0.707841

>  <SCORE.INTRA>
0.382549

>  <SCORE.INTRA.DIHEDRAL>
2.39425

>  <SCORE.INTRA.DIHEDRAL.0>
2.54655

>  <SCORE.INTRA.POLAR>
0

>  <SCORE.INTRA.POLAR.0>
0

>  <SCORE.INTRA.REPUL>
0

>  <SCORE.INTRA.REPUL.0>
0

>  <SCORE.INTRA.SOLV>
-0.702464

>  <SCORE.INTRA.SOLV.lig_0>
-56.4922

>  <SCORE.INTRA.VDW>
-0.463345

>  <SCORE.INTRA.VDW.0>
-0.696801

>  <SCORE.INTRA.norm>
0.0173886

>  <SCORE.RESTR>
0

>  <SCORE.RESTR.CAVITY>
0

>  <SCORE.RESTR.norm>
0

>  <SCORE.SYSTEM>
0

>  <SCORE.SYSTEM.CONST>
0

>  <SCORE.SYSTEM.DIHEDRAL>
0

>  <SCORE.SYSTEM.SOLV>
0

>  <SCORE.SYSTEM.norm>
0

>  <SCORE.heavy>
22

>  <SCORE.norm>
-0.690452

>  <RMSD>
13.335

$$$$
ligand
 OpenBabel02271912143D
libRbt.so/2013.1/901 2013/11/27
 22 24  0  0  0  0  0  0  0  0999 V2000
    9.5409  -24.1157   35.8296 N   0  0  0  0  0  0  0  0  0  0  0  0
    8.7826  -26.1821   34.8873 N   0  0  0  0  0  0  0  0  0  0  0  0
    8.9036  -24.8496   34.7694 C   0  0  0  0  0  0  0  0  0  0  0  0
    8.4544  -24.1912   33.7080 N   0  0  0  0  0  0  0  0  0  0  0  0
    5.0288  -27.5495   30.8660 O   0  0  0  0  0  0  0  0  0  0  0  0
    7.8541  -24.8592   32.7057 C   0  0  0  0  0  0  0  0  0  0  0  0
    7.6973  -26.2700   32.8023 C   0  0  0  0  0  0  0  0  0  0  0  0
    7.3980  -24.1524   31.6157 O   0  0  0  0  0  0  0  0  0  0  0  0
    7.0933  -27.1200   31.7954 N   0  0  0  0  0  0  0  0  0  0  0  0
    7.7361  -28.4198   31.5622 C   0  0  2  0  0  0  0  0  0  0  0  0
    7.9167  -29.1576   32.8520 C   0  0  0  0  0  0  0  0  0  0  0  0
    8.1895  -26.9033   33.9159 C   0  0  0  0  0  0  0  0  0  0  0  0
    8.0548  -28.3058   34.0317 N   0  0  0  0  0  0  0  0  0  0  0  0
    9.0996  -28.3217   30.8546 C   0  0  0  0  0  0  0  0  0  0  0  0
    9.2651  -29.4217   29.9123 N   0  0  0  0  0  0  0  0  0  0  0  0
   12.3354  -29.3736   26.9675 C   0  0  0  0  0  0  0  0  0  0  0  0
   12.3248  -28.4178   27.9694 C   0  0  0  0  0  0  0  0  0  0  0  0
   11.3119  -28.4287   28.9478 C   0  0  0  0  0  0  0  0  0  0  0  0
   10.3209  -29.3977   28.9075 C   0  0  0  0  0  0  0  0  0  0  0  0
   10.3342  -30.3571   27.8994 C   0  0  0  0  0  0  0  0  0  0  0  0
   11.3412  -30.3462   26.9308 C   0  0  0  0  0  0  0  0  0  0  0  0
    5.9501  -26.7664   31.0254 C   0  0  0  0  0  0  0  0  0  0  0  0
  1  3  1  0  0  0  0
  2  3  2  0  0  0  0
  2 12  1  0  0  0  0
  3  4  1  0  0  0  0
  4  6  1  0  0  0  0
  5 22  1  0  0  0  0
  6  7  1  0  0  0  0
  6  8  2  0  0  0  0
  7 12  2  0  0  0  0
  7  9  1  0  0  0  0
  9 10  1  0  0  0  0
  9 22  1  0  0  0  0
 10 11  1  0  0  0  0
 10 14  1  1  0  0  0
 11 13  1  0  0  0  0
 12 13  1  0  0  0  0
 14 15  1  0  0  0  0
 15 19  1  0  0  0  0
 16 17  2  0  0  0  0
 16 21  1  0  0  0  0
 17 18  1  0  0  0  0
 18 19  2  0  0  0  0
 19 20  1  0  0  0  0
 20 21  2  0  0  0  0
M  END
>  <CHROM.1>
-133.90316235,-142.37581663,166.07629878,9.57822609,8.74565603,-27.34496668
31.47868102,-1.97211253,-0.15434680,-2.24684313

>  <Name>
ligand

>  <RI>
0

>  <Rbt.Current_Directory>
/home/itssahil/PROJECTS/Mol_Feturizer/Test_systems_manuscript/rnas/3sd3

>  <Rbt.Executable>
rbdock ($Id: //depot/dev/client3/rdock/2013.1/src/exe/rbdock.cxx#4 $)

>  <Rbt.Library>
libRbt.so (2013.1, Build901 2013/11/27)

>  <Rbt.Parameter_File>
/export/apps/rDock/src/rDock_2013.1_src/data/scripts/dock_solv.prm

>  <Rbt.Receptor>
prm/blind_docking_100.prm

>  <SCORE>
-14.2267

>  <SCORE.INTER>
-15.5401

>  <SCORE.INTER.CONST>
1

>  <SCORE.INTER.POLAR>
0

>  <SCORE.INTER.ROT>
4

>  <SCORE.INTER.SOLV>
19.3274

>  <SCORE.INTER.VDW>
-23.0692

>  <SCORE.INTER.norm>
-0.70637

>  <SCORE.INTRA>
1.17929

>  <SCORE.INTRA.DIHEDRAL>
2.86167

>  <SCORE.INTRA.DIHEDRAL.0>
2.54655

>  <SCORE.INTRA.POLAR>
0

>  <SCORE.INTRA.POLAR.0>
0

>  <SCORE.INTRA.REPUL>
0

>  <SCORE.INTRA.REPUL.0>
0

>  <SCORE.INTRA.SOLV>
-1.01986

>  <SCORE.INTRA.SOLV.lig_0>
-56.4922

>  <SCORE.INTRA.VDW>
0.258391

>  <SCORE.INTRA.VDW.0>
-0.696801

>  <SCORE.INTRA.norm>
0.0536043

>  <SCORE.RESTR>
0.134164

>  <SCORE.RESTR.CAVITY>
0.134164

>  <SCORE.RESTR.norm>
0.00609836

>  <SCORE.SYSTEM>
0

>  <SCORE.SYSTEM.CONST>
0

>  <SCORE.SYSTEM.DIHEDRAL>
0

>  <SCORE.SYSTEM.SOLV>
0

>  <SCORE.SYSTEM.norm>
0

>  <SCORE.heavy>
22

>  <SCORE.norm>
-0.646667

>  <RMSD>
13.439

$$$$
ligand
 OpenBabel02271912143D
libRbt.so/2013.1/901 2013/11/27
 22 24  0  0  0  0  0  0  0  0999 V2000
    9.4241  -24.0694   36.0330 N   0  0  0  0  0  0  0  0  0  0  0  0
    8.7420  -26.1447   35.0529 N   0  0  0  0  0  0  0  0  0  0  0  0
    8.8001  -24.8056   34.9665 C   0  0  0  0  0  0  0  0  0  0  0  0
    8.3007  -24.1427   33.9307 N   0  0  0  0  0  0  0  0  0  0  0  0
    4.7976  -27.3050   31.4719 O   0  0  0  0  0  0  0  0  0  0  0  0
    7.7118  -24.8128   32.9231 C   0  0  0  0  0  0  0  0  0  0  0  0
    7.6211  -26.2313   32.9868 C   0  0  0  0  0  0  0  0  0  0  0  0
    7.2026  -24.1013   31.8600 O   0  0  0  0  0  0  0  0  0  0  0  0
    7.0366  -27.0833   31.9700 N   0  0  0  0  0  0  0  0  0  0  0  0
    7.7331  -28.3461   31.6922 C   0  0  2  0  0  0  0  0  0  0  0  0
    7.9723  -29.1061   32.9593 C   0  0  0  0  0  0  0  0  0  0  0  0
    8.1634  -26.8684   34.0747 C   0  0  0  0  0  0  0  0  0  0  0  0
    8.0948  -28.2780   34.1574 N   0  0  0  0  0  0  0  0  0  0  0  0
    9.0766  -28.1683   30.9621 C   0  0  0  0  0  0  0  0  0  0  0  0
    9.1121  -28.9838   29.7543 N   0  0  0  0  0  0  0  0  0  0  0  0
   12.5040  -28.9905   27.1859 C   0  0  0  0  0  0  0  0  0  0  0  0
   12.2881  -27.9234   28.0415 C   0  0  0  0  0  0  0  0  0  0  0  0
   11.1678  -27.9154   28.8949 C   0  0  0  0  0  0  0  0  0  0  0  0
   10.2769  -28.9778   28.8778 C   0  0  0  0  0  0  0  0  0  0  0  0
   10.4966  -30.0490   28.0169 C   0  0  0  0  0  0  0  0  0  0  0  0
   11.6097  -30.0564   27.1724 C   0  0  0  0  0  0  0  0  0  0  0  0
    5.8636  -26.7638   31.2306 C   0  0  0  0  0  0  0  0  0  0  0  0
  1  3  1  0  0  0  0
  2  3  2  0  0  0  0
  2 12  1  0  0  0  0
  3  4  1  0  0  0  0
  4  6  1  0  0  0  0
  5 22  1  0  0  0  0
  6  7  1  0  0  0  0
  6  8  2  0  0  0  0
  7 12  2  0  0  0  0
  7  9  1  0  0  0  0
  9 10  1  0  0  0  0
  9 22  1  0  0  0  0
 10 11  1  0  0  0  0
 10 14  1  1  0  0  0
 11 13  1  0  0  0  0
 12 13  1  0  0  0  0
 14 15  1  0  0  0  0
 15 19  1  0  0  0  0
 16 17  2  0  0  0  0
 16 21  1  0  0  0  0
 17 18  1  0  0  0  0
 18 19  2  0  0  0  0
 19 20  1  0  0  0  0
 20 21  2  0  0  0  0
M  END
>  <CHROM.1>
-104.92557392,-126.35608631,179.30605833,-21.65323821,8.69746547,-27.17882838
31.64136012,-2.01842791,-0.20263638,-2.22712724

>  <Name>
ligand

>  <RI>
0

>  <Rbt.Current_Directory>
/home/itssahil/PROJECTS/Mol_Feturizer/Test_systems_manuscript/rnas/3sd3

>  <Rbt.Executable>
rbdock ($Id: //depot/dev/client3/rdock/2013.1/src/exe/rbdock.cxx#4 $)

>  <Rbt.Library>
libRbt.so (2013.1, Build901 2013/11/27)

>  <Rbt.Parameter_File>
/export/apps/rDock/src/rDock_2013.1_src/data/scripts/dock_solv.prm

>  <Rbt.Receptor>
prm/blind_docking_60.prm

>  <SCORE>
-14.1134

>  <SCORE.INTER>
-15.7625

>  <SCORE.INTER.CONST>
1

>  <SCORE.INTER.POLAR>
0

>  <SCORE.INTER.ROT>
4

>  <SCORE.INTER.SOLV>
18.4719

>  <SCORE.INTER.VDW>
-22.9323

>  <SCORE.INTER.norm>
-0.716477

>  <SCORE.INTRA>
1.60023

>  <SCORE.INTRA.DIHEDRAL>
4.18414

>  <SCORE.INTRA.DIHEDRAL.0>
2.54655

>  <SCORE.INTRA.POLAR>
0

>  <SCORE.INTRA.POLAR.0>
0

>  <SCORE.INTRA.REPUL>
0

>  <SCORE.INTRA.REPUL.0>
0

>  <SCORE.INTRA.SOLV>
-0.961142

>  <SCORE.INTRA.SOLV.lig_0>
-56.4922

>  <SCORE.INTRA.VDW>
-0.0112712

>  <SCORE.INTRA.VDW.0>
-0.696801

>  <SCORE.INTRA.norm>
0.0727376

>  <SCORE.RESTR>
0.0488825

>  <SCORE.RESTR.CAVITY>
0.0488825

>  <SCORE.RESTR.norm>
0.00222193

>  <SCORE.SYSTEM>
0

>  <SCORE.SYSTEM.CONST>
0

>  <SCORE.SYSTEM.DIHEDRAL>
0

>  <SCORE.SYSTEM.SOLV>
0

>  <SCORE.SYSTEM.norm>
0

>  <SCORE.heavy>
22

>  <SCORE.norm>
-0.641517

>  <RMSD>
13.444

$$$$
ligand
 OpenBabel02271912143D
libRbt.so/2013.1/901 2013/11/27
 22 24  0  0  0  0  0  0  0  0999 V2000
    9.5454  -23.9087   35.9532 N   0  0  0  0  0  0  0  0  0  0  0  0
    8.8283  -26.0014   35.0371 N   0  0  0  0  0  0  0  0  0  0  0  0
    8.8725  -24.6632   34.9302 C   0  0  0  0  0  0  0  0  0  0  0  0
    8.3157  -24.0176   33.9128 N   0  0  0  0  0  0  0  0  0  0  0  0
    4.6899  -26.6958   31.9597 O   0  0  0  0  0  0  0  0  0  0  0  0
    7.6804  -24.7051   32.9458 C   0  0  0  0  0  0  0  0  0  0  0  0
    7.6030  -26.1231   33.0329 C   0  0  0  0  0  0  0  0  0  0  0  0
    7.1123  -24.0113   31.9011 O   0  0  0  0  0  0  0  0  0  0  0  0
    6.9730  -26.9924   32.0590 N   0  0  0  0  0  0  0  0  0  0  0  0
    7.6630  -28.2545   31.7623 C   0  0  2  0  0  0  0  0  0  0  0  0
    7.9725  -28.9957   33.0253 C   0  0  0  0  0  0  0  0  0  0  0  0
    8.2051  -26.7419   34.0998 C   0  0  0  0  0  0  0  0  0  0  0  0
    8.1507  -28.1507   34.2045 N   0  0  0  0  0  0  0  0  0  0  0  0
    8.9659  -28.0781   30.9616 C   0  0  0  0  0  0  0  0  0  0  0  0
    9.1101  -29.1471   29.9810 N   0  0  0  0  0  0  0  0  0  0  0  0
   12.2474  -29.1099   27.1075 C   0  0  0  0  0  0  0  0  0  0  0  0
   12.0839  -28.0349   27.9650 C   0  0  0  0  0  0  0  0  0  0  0  0
   11.0480  -28.0414   28.9191 C   0  0  0  0  0  0  0  0  0  0  0  0
   10.1877  -29.1259   28.9996 C   0  0  0  0  0  0  0  0  0  0  0  0
   10.3547  -30.2049   28.1366 C   0  0  0  0  0  0  0  0  0  0  0  0
   11.3843  -30.1978   27.1920 C   0  0  0  0  0  0  0  0  0  0  0  0
    5.7613  -26.6904   31.3769 C   0  0  0  0  0  0  0  0  0  0  0  0
  1  3  1  0  0  0  0
  2  3  2  0  0  0  0
  2 12  1  0  0  0  0
  3  4  1  0  0  0  0
  4  6  1  0  0  0  0
  5 22  1  0  0  0  0
  6  7  1  0  0  0  0
  6  8  2  0  0  0  0
  7 12  2  0  0  0  0
  7  9  1  0  0  0  0
  9 10  1  0  0  0  0
  9 22  1  0  0  0  0
 10 11  1  0  0  0  0
 10 14  1  1  0  0  0
 11 13  1  0  0  0  0
 12 13  1  0  0  0  0
 14 15  1  0  0  0  0
 15 19  1  0  0  0  0
 16 17  2  0  0  0  0
 16 21  1  0  0  0  0
 17 18  1  0  0  0  0
 18 19  2  0  0  0  0
 19 20  1  0  0  0  0
 20 21  2  0  0  0  0
M  END
>  <CHROM.1>
-71.05218906,-141.55833685,173.27259629,-4.35847270,8.64334722,-27.11295853
31.70350575,-1.99757661,-0.16176804,-2.24385499

>  <Name>
ligand

>  <RI>
0

>  <Rbt.Current_Directory>
/home/itssahil/PROJECTS/Mol_Feturizer/Test_systems_manuscript/rnas/3sd3

>  <Rbt.Executable>
rbdock ($Id: //depot/dev/client3/rdock/2013.1/src/exe/rbdock.cxx#4 $)

>  <Rbt.Library>
libRbt.so (2013.1, Build901 2013/11/27)

>  <Rbt.Parameter_File>
/export/apps/rDock/src/rDock_2013.1_src/data/scripts/dock_solv.prm

>  <Rbt.Receptor>
prm/blind_docking_60.prm

>  <SCORE>
-14.4066

>  <SCORE.INTER>
-15.4325

>  <SCORE.INTER.CONST>
1

>  <SCORE.INTER.POLAR>
0

>  <SCORE.INTER.ROT>
4

>  <SCORE.INTER.SOLV>
18.8358

>  <SCORE.INTER.VDW>
-22.8336

>  <SCORE.INTER.norm>
-0.701477

>  <SCORE.INTRA>
1.02588

>  <SCORE.INTRA.DIHEDRAL>
2.88076

>  <SCORE.INTRA.DIHEDRAL.0>
2.54655

>  <SCORE.INTRA.POLAR>
0

>  <SCORE.INTRA.POLAR.0>
0

>  <SCORE.INTRA.REPUL>
0

>  <SCORE.INTRA.REPUL.0>
0

>  <SCORE.INTRA.SOLV>
-0.976944

>  <SCORE.INTRA.SOLV.lig_0>
-56.4922

>  <SCORE.INTRA.VDW>
0.0739695

>  <SCORE.INTRA.VDW.0>
-0.696801

>  <SCORE.INTRA.norm>
0.0466309

>  <SCORE.RESTR>
0

>  <SCORE.RESTR.CAVITY>
0

>  <SCORE.RESTR.norm>
0

>  <SCORE.SYSTEM>
0

>  <SCORE.SYSTEM.CONST>
0

>  <SCORE.SYSTEM.DIHEDRAL>
0

>  <SCORE.SYSTEM.SOLV>
0

>  <SCORE.SYSTEM.norm>
0

>  <SCORE.heavy>
22

>  <SCORE.norm>
-0.654846

>  <RMSD>
13.495

$$$$
ligand
 OpenBabel02271912143D
libRbt.so/2013.1/901 2013/11/27
 22 24  0  0  0  0  0  0  0  0999 V2000
    9.6293  -23.8587   35.9526 N   0  0  0  0  0  0  0  0  0  0  0  0
    8.8965  -25.9548   35.0570 N   0  0  0  0  0  0  0  0  0  0  0  0
    8.9290  -24.6162   34.9504 C   0  0  0  0  0  0  0  0  0  0  0  0
    8.3365  -23.9730   33.9519 N   0  0  0  0  0  0  0  0  0  0  0  0
    5.5796  -26.8168   30.2933 O   0  0  0  0  0  0  0  0  0  0  0  0
    7.6753  -24.6633   33.0046 C   0  0  0  0  0  0  0  0  0  0  0  0
    7.6094  -26.0819   33.0923 C   0  0  0  0  0  0  0  0  0  0  0  0
    7.0702  -23.9719   31.9792 O   0  0  0  0  0  0  0  0  0  0  0  0
    6.9543  -26.9540   32.1376 N   0  0  0  0  0  0  0  0  0  0  0  0
    7.6424  -28.2115   31.8177 C   0  0  2  0  0  0  0  0  0  0  0  0
    7.9962  -28.9522   33.0693 C   0  0  0  0  0  0  0  0  0  0  0  0
    8.2487  -26.6981   34.1388 C   0  0  0  0  0  0  0  0  0  0  0  0
    8.2063  -28.1073   34.2433 N   0  0  0  0  0  0  0  0  0  0  0  0
    8.9183  -28.0262   30.9765 C   0  0  0  0  0  0  0  0  0  0  0  0
    9.2633  -29.2671   30.2937 N   0  0  0  0  0  0  0  0  0  0  0  0
   11.7787  -29.2319   26.8626 C   0  0  0  0  0  0  0  0  0  0  0  0
   10.8051  -30.2078   26.9949 C   0  0  0  0  0  0  0  0  0  0  0  0
    9.9686  -30.2245   28.1277 C   0  0  0  0  0  0  0  0  0  0  0  0
   10.1206  -29.2626   29.1148 C   0  0  0  0  0  0  0  0  0  0  0  0
   11.0998  -28.2830   28.9790 C   0  0  0  0  0  0  0  0  0  0  0  0
   11.9275  -28.2666   27.8534 C   0  0  0  0  0  0  0  0  0  0  0  0
    5.7199  -26.6588   31.4944 C   0  0  0  0  0  0  0  0  0  0  0  0
  1  3  1  0  0  0  0
  2  3  2  0  0  0  0
  2 12  1  0  0  0  0
  3  4  1  0  0  0  0
  4  6  1  0  0  0  0
  5 22  1  0  0  0  0
  6  7  1  0  0  0  0
  6  8  2  0  0  0  0
  7 12  2  0  0  0  0
  7  9  1  0  0  0  0
  9 10  1  0  0  0  0
  9 22  1  0  0  0  0
 10 11  1  0  0  0  0
 10 14  1  1  0  0  0
 11 13  1  0  0  0  0
 12 13  1  0  0  0  0
 14 15  1  0  0  0  0
 15 19  1  0  0  0  0
 16 17  2  0  0  0  0
 16 21  1  0  0  0  0
 17 18  1  0  0  0  0
 18 19  2  0  0  0  0
 19 20  1  0  0  0  0
 20 21  2  0  0  0  0
M  END
>  <CHROM.1>
133.50831918,-159.07172592,159.00299205,-149.51061517,8.64126479,-27.12867927
31.64205182,-1.90331564,0.04905622,-2.16410277

>  <Name>
ligand

>  <RI>
0

>  <Rbt.Current_Directory>
/home/itssahil/PROJECTS/Mol_Feturizer/Test_systems_manuscript/rnas/3sd3

>  <Rbt.Executable>
rbdock ($Id: //depot/dev/client3/rdock/2013.1/src/exe/rbdock.cxx#4 $)

>  <Rbt.Library>
libRbt.so (2013.1, Build901 2013/11/27)

>  <Rbt.Parameter_File>
/export/apps/rDock/src/rDock_2013.1_src/data/scripts/dock_solv.prm

>  <Rbt.Receptor>
prm/blind_docking_80.prm

>  <SCORE>
-15.0249

>  <SCORE.INTER>
-15.2175

>  <SCORE.INTER.CONST>
1

>  <SCORE.INTER.POLAR>
0

>  <SCORE.INTER.ROT>
4

>  <SCORE.INTER.SOLV>
19.7426

>  <SCORE.INTER.VDW>
-22.9925

>  <SCORE.INTER.norm>
-0.691705

>  <SCORE.INTRA>
0.192662

>  <SCORE.INTRA.DIHEDRAL>
0.870165

>  <SCORE.INTRA.DIHEDRAL.0>
2.54655

>  <SCORE.INTRA.POLAR>
0

>  <SCORE.INTRA.POLAR.0>
0

>  <SCORE.INTRA.REPUL>
0

>  <SCORE.INTRA.REPUL.0>
0

>  <SCORE.INTRA.SOLV>
-0.747068

>  <SCORE.INTRA.SOLV.lig_0>
-56.4922

>  <SCORE.INTRA.VDW>
0.131114

>  <SCORE.INTRA.VDW.0>
-0.696801

>  <SCORE.INTRA.norm>
0.00875738

>  <SCORE.RESTR>
0

>  <SCORE.RESTR.CAVITY>
0

>  <SCORE.RESTR.norm>
0

>  <SCORE.SYSTEM>
0

>  <SCORE.SYSTEM.CONST>
0

>  <SCORE.SYSTEM.DIHEDRAL>
0

>  <SCORE.SYSTEM.SOLV>
0

>  <SCORE.SYSTEM.norm>
0

>  <SCORE.heavy>
22

>  <SCORE.norm>
-0.682948

>  <RMSD>
13.517

$$$$
ligand
 OpenBabel02271912143D
libRbt.so/2013.1/901 2013/11/27
 22 24  0  0  0  0  0  0  0  0999 V2000
    9.5753  -23.8618   35.9648 N   0  0  0  0  0  0  0  0  0  0  0  0
    8.8654  -25.9646   35.0664 N   0  0  0  0  0  0  0  0  0  0  0  0
    8.8896  -24.6261   34.9576 C   0  0  0  0  0  0  0  0  0  0  0  0
    8.3020  -23.9888   33.9524 N   0  0  0  0  0  0  0  0  0  0  0  0
    5.6112  -26.8188   30.2679 O   0  0  0  0  0  0  0  0  0  0  0  0
    7.6544  -24.6854   33.0003 C   0  0  0  0  0  0  0  0  0  0  0  0
    7.5975  -26.1043   33.0901 C   0  0  0  0  0  0  0  0  0  0  0  0
    7.0541  -24.0001   31.9680 O   0  0  0  0  0  0  0  0  0  0  0  0
    6.9573  -26.9827   32.1311 N   0  0  0  0  0  0  0  0  0  0  0  0
    7.6570  -28.2359   31.8200 C   0  0  2  0  0  0  0  0  0  0  0  0
    8.0043  -28.9718   33.0763 C   0  0  0  0  0  0  0  0  0  0  0  0
    8.2312  -26.7141   34.1437 C   0  0  0  0  0  0  0  0  0  0  0  0
    8.1976  -28.1234   34.2506 N   0  0  0  0  0  0  0  0  0  0  0  0
    8.9393  -28.0434   30.9903 C   0  0  0  0  0  0  0  0  0  0  0  0
    9.2892  -29.2781   30.2988 N   0  0  0  0  0  0  0  0  0  0  0  0
   11.8280  -29.2591   26.8848 C   0  0  0  0  0  0  0  0  0  0  0  0
   11.9930  -28.3033   27.8731 C   0  0  0  0  0  0  0  0  0  0  0  0
   11.1566  -28.3046   29.0061 C   0  0  0  0  0  0  0  0  0  0  0  0
   10.1636  -29.2641   29.1325 C   0  0  0  0  0  0  0  0  0  0  0  0
   10.0003  -30.2236   28.1377 C   0  0  0  0  0  0  0  0  0  0  0  0
   10.8324  -30.2222   27.0152 C   0  0  0  0  0  0  0  0  0  0  0  0
    5.7269  -26.6972   31.4759 C   0  0  0  0  0  0  0  0  0  0  0  0
  1  3  1  0  0  0  0
  2  3  2  0  0  0  0
  2 12  1  0  0  0  0
  3  4  1  0  0  0  0
  4  6  1  0  0  0  0
  5 22  1  0  0  0  0
  6  7  1  0  0  0  0
  6  8  2  0  0  0  0
  7 12  2  0  0  0  0
  7  9  1  0  0  0  0
  9 10  1  0  0  0  0
  9 22  1  0  0  0  0
 10 11  1  0  0  0  0
 10 14  1  1  0  0  0
 11 13  1  0  0  0  0
 12 13  1  0  0  0  0
 14 15  1  0  0  0  0
 15 19  1  0  0  0  0
 16 17  2  0  0  0  0
 16 21  1  0  0  0  0
 17 18  1  0  0  0  0
 18 19  2  0  0  0  0
 19 20  1  0  0  0  0
 20 21  2  0  0  0  0
M  END
>  <CHROM.1>
131.20969492,-158.30518271,159.46610932,30.82386507,8.64729989,-27.14616219
31.64666423,-1.91294025,0.05910657,-2.16098718

>  <Name>
ligand

>  <RI>
0

>  <Rbt.Current_Directory>
/home/itssahil/PROJECTS/Mol_Feturizer/Test_systems_manuscript/rnas/3sd3

>  <Rbt.Executable>
rbdock ($Id: //depot/dev/client3/rdock/2013.1/src/exe/rbdock.cxx#4 $)

>  <Rbt.Library>
libRbt.so (2013.1, Build901 2013/11/27)

>  <Rbt.Parameter_File>
/export/apps/rDock/src/rDock_2013.1_src/data/scripts/dock_solv.prm

>  <Rbt.Receptor>
prm/blind_docking_80.prm

>  <SCORE>
-15.0752

>  <SCORE.INTER>
-15.2318

>  <SCORE.INTER.CONST>
1

>  <SCORE.INTER.POLAR>
0

>  <SCORE.INTER.ROT>
4

>  <SCORE.INTER.SOLV>
19.6573

>  <SCORE.INTER.VDW>
-22.9737

>  <SCORE.INTER.norm>
-0.692356

>  <SCORE.INTRA>
0.15665

>  <SCORE.INTRA.DIHEDRAL>
0.947948

>  <SCORE.INTRA.DIHEDRAL.0>
2.54655

>  <SCORE.INTRA.POLAR>
0

>  <SCORE.INTRA.POLAR.0>
0

>  <SCORE.INTRA.REPUL>
0

>  <SCORE.INTRA.REPUL.0>
0

>  <SCORE.INTRA.SOLV>
-0.750194

>  <SCORE.INTRA.SOLV.lig_0>
-56.4922

>  <SCORE.INTRA.VDW>
0.0577729

>  <SCORE.INTRA.VDW.0>
-0.696801

>  <SCORE.INTRA.norm>
0.00712046

>  <SCORE.RESTR>
0

>  <SCORE.RESTR.CAVITY>
0

>  <SCORE.RESTR.norm>
0

>  <SCORE.SYSTEM>
0

>  <SCORE.SYSTEM.CONST>
0

>  <SCORE.SYSTEM.DIHEDRAL>
0

>  <SCORE.SYSTEM.SOLV>
0

>  <SCORE.SYSTEM.norm>
0

>  <SCORE.heavy>
22

>  <SCORE.norm>
-0.685236

>  <RMSD>
13.517

$$$$
ligand
 OpenBabel02271912143D
libRbt.so/2013.1/901 2013/11/27
 22 24  0  0  0  0  0  0  0  0999 V2000
    9.5764  -23.8639   35.9604 N   0  0  0  0  0  0  0  0  0  0  0  0
    8.8608  -25.9663   35.0657 N   0  0  0  0  0  0  0  0  0  0  0  0
    8.8892  -24.6281   34.9541 C   0  0  0  0  0  0  0  0  0  0  0  0
    8.3043  -23.9910   33.9472 N   0  0  0  0  0  0  0  0  0  0  0  0
    5.5786  -26.9091   30.2820 O   0  0  0  0  0  0  0  0  0  0  0  0
    7.6553  -24.6876   32.9961 C   0  0  0  0  0  0  0  0  0  0  0  0
    7.5940  -26.1061   33.0886 C   0  0  0  0  0  0  0  0  0  0  0  0
    7.0578  -24.0026   31.9619 O   0  0  0  0  0  0  0  0  0  0  0  0
    6.9519  -26.9845   32.1309 N   0  0  0  0  0  0  0  0  0  0  0  0
    7.6481  -28.2405   31.8228 C   0  0  2  0  0  0  0  0  0  0  0  0
    7.9921  -28.9749   33.0809 C   0  0  0  0  0  0  0  0  0  0  0  0
    8.2251  -26.7158   34.1440 C   0  0  0  0  0  0  0  0  0  0  0  0
    8.1871  -28.1247   34.2536 N   0  0  0  0  0  0  0  0  0  0  0  0
    8.9316  -28.0535   30.9938 C   0  0  0  0  0  0  0  0  0  0  0  0
    9.2610  -29.2814   30.2805 N   0  0  0  0  0  0  0  0  0  0  0  0
   11.7981  -29.2438   26.8653 C   0  0  0  0  0  0  0  0  0  0  0  0
   11.9753  -28.3045   27.8674 C   0  0  0  0  0  0  0  0  0  0  0  0
   11.1395  -28.3121   29.0008 C   0  0  0  0  0  0  0  0  0  0  0  0
   10.1349  -29.2611   29.1139 C   0  0  0  0  0  0  0  0  0  0  0  0
    9.9593  -30.2039   28.1053 C   0  0  0  0  0  0  0  0  0  0  0  0
   10.7908  -30.1964   26.9824 C   0  0  0  0  0  0  0  0  0  0  0  0
    5.7228  -26.6966   31.4742 C   0  0  0  0  0  0  0  0  0  0  0  0
  1  3  1  0  0  0  0
  2  3  2  0  0  0  0
  2 12  1  0  0  0  0
  3  4  1  0  0  0  0
  4  6  1  0  0  0  0
  5 22  1  0  0  0  0
  6  7  1  0  0  0  0
  6  8  2  0  0  0  0
  7 12  2  0  0  0  0
  7  9  1  0  0  0  0
  9 10  1  0  0  0  0
  9 22  1  0  0  0  0
 10 11  1  0  0  0  0
 10 14  1  1  0  0  0
 11 13  1  0  0  0  0
 12 13  1  0  0  0  0
 14 15  1  0  0  0  0
 15 19  1  0  0  0  0
 16 17  2  0  0  0  0
 16 21  1  0  0  0  0
 17 18  1  0  0  0  0
 18 19  2  0  0  0  0
 19 20  1  0  0  0  0
 20 21  2  0  0  0  0
M  END
>  <CHROM.1>
136.41565741,-156.98822645,159.56115921,30.54272661,8.63434325,-27.15072691
31.64121250,-1.90736702,0.03344827,-2.16680663

>  <Name>
ligand

>  <RI>
0

>  <Rbt.Current_Directory>
/home/itssahil/PROJECTS/Mol_Feturizer/Test_systems_manuscript/rnas/3sd3

>  <Rbt.Executable>
rbdock ($Id: //depot/dev/client3/rdock/2013.1/src/exe/rbdock.cxx#4 $)

>  <Rbt.Library>
libRbt.so (2013.1, Build901 2013/11/27)

>  <Rbt.Parameter_File>
/export/apps/rDock/src/rDock_2013.1_src/data/scripts/dock_solv.prm

>  <Rbt.Receptor>
prm/blind_docking_60.prm

>  <SCORE>
-15.1092

>  <SCORE.INTER>
-15.3745

>  <SCORE.INTER.CONST>
1

>  <SCORE.INTER.POLAR>
0

>  <SCORE.INTER.ROT>
4

>  <SCORE.INTER.SOLV>
19.5122

>  <SCORE.INTER.VDW>
-23.0204

>  <SCORE.INTER.norm>
-0.698841

>  <SCORE.INTRA>
0.265288

>  <SCORE.INTRA.DIHEDRAL>
1.11694

>  <SCORE.INTRA.DIHEDRAL.0>
2.54655

>  <SCORE.INTRA.POLAR>
0

>  <SCORE.INTRA.POLAR.0>
0

>  <SCORE.INTRA.REPUL>
0

>  <SCORE.INTRA.REPUL.0>
0

>  <SCORE.INTRA.SOLV>
-0.77425

>  <SCORE.INTRA.SOLV.lig_0>
-56.4922

>  <SCORE.INTRA.VDW>
0.0939439

>  <SCORE.INTRA.VDW.0>
-0.696801

>  <SCORE.INTRA.norm>
0.0120586

>  <SCORE.RESTR>
0

>  <SCORE.RESTR.CAVITY>
0

>  <SCORE.RESTR.norm>
0

>  <SCORE.SYSTEM>
0

>  <SCORE.SYSTEM.CONST>
0

>  <SCORE.SYSTEM.DIHEDRAL>
0

>  <SCORE.SYSTEM.SOLV>
0

>  <SCORE.SYSTEM.norm>
0

>  <SCORE.heavy>
22

>  <SCORE.norm>
-0.686782

>  <RMSD>
13.529

$$$$
ligand
 OpenBabel02271912143D
libRbt.so/2013.1/901 2013/11/27
 22 24  0  0  0  0  0  0  0  0999 V2000
    9.6261  -23.9442   35.9213 N   0  0  0  0  0  0  0  0  0  0  0  0
    8.8858  -26.0367   35.0234 N   0  0  0  0  0  0  0  0  0  0  0  0
    8.9349  -24.6991   34.9109 C   0  0  0  0  0  0  0  0  0  0  0  0
    8.3668  -24.0545   33.8992 N   0  0  0  0  0  0  0  0  0  0  0  0
    4.8322  -27.5117   31.4042 O   0  0  0  0  0  0  0  0  0  0  0  0
    7.7143  -24.7424   32.9440 C   0  0  0  0  0  0  0  0  0  0  0  0
    7.6313  -26.1597   33.0374 C   0  0  0  0  0  0  0  0  0  0  0  0
    7.1346  -24.0496   31.9049 O   0  0  0  0  0  0  0  0  0  0  0  0
    6.9831  -27.0294   32.0759 N   0  0  0  0  0  0  0  0  0  0  0  0
    7.6627  -28.2959   31.7740 C   0  0  2  0  0  0  0  0  0  0  0  0
    7.9867  -29.0341   33.0352 C   0  0  0  0  0  0  0  0  0  0  0  0
    8.2456  -26.7776   34.0978 C   0  0  0  0  0  0  0  0  0  0  0  0
    8.1859  -28.1857   34.2085 N   0  0  0  0  0  0  0  0  0  0  0  0
    8.9548  -28.1289   30.9541 C   0  0  0  0  0  0  0  0  0  0  0  0
    9.2070  -29.3199   30.1522 N   0  0  0  0  0  0  0  0  0  0  0  0
   11.9654  -29.2124   26.9147 C   0  0  0  0  0  0  0  0  0  0  0  0
   11.0107  -30.2137   26.9752 C   0  0  0  0  0  0  0  0  0  0  0  0
   10.0941  -30.2544   28.0437 C   0  0  0  0  0  0  0  0  0  0  0  0
   10.1481  -29.2907   29.0393 C   0  0  0  0  0  0  0  0  0  0  0  0
   11.1086  -28.2856   28.9756 C   0  0  0  0  0  0  0  0  0  0  0  0
   12.0158  -28.2454   27.9138 C   0  0  0  0  0  0  0  0  0  0  0  0
    5.7632  -26.7240   31.4101 C   0  0  0  0  0  0  0  0  0  0  0  0
  1  3  1  0  0  0  0
  2  3  2  0  0  0  0
  2 12  1  0  0  0  0
  3  4  1  0  0  0  0
  4  6  1  0  0  0  0
  5 22  1  0  0  0  0
  6  7  1  0  0  0  0
  6  8  2  0  0  0  0
  7 12  2  0  0  0  0
  7  9  1  0  0  0  0
  9 10  1  0  0  0  0
  9 22  1  0  0  0  0
 10 11  1  0  0  0  0
 10 14  1  1  0  0  0
 11 13  1  0  0  0  0
 12 13  1  0  0  0  0
 14 15  1  0  0  0  0
 15 19  1  0  0  0  0
 16 17  2  0  0  0  0
 16 21  1  0  0  0  0
 17 18  1  0  0  0  0
 18 19  2  0  0  0  0
 19 20  1  0  0  0  0
 20 21  2  0  0  0  0
M  END
>  <CHROM.1>
-128.51342992,-151.95627845,163.66658125,-160.11505696,8.63563376,-27.22307638
31.66219080,-1.94560681,-0.19148349,-2.24699602

>  <Name>
ligand

>  <RI>
0

>  <Rbt.Current_Directory>
/home/itssahil/PROJECTS/Mol_Feturizer/Test_systems_manuscript/rnas/3sd3

>  <Rbt.Executable>
rbdock ($Id: //depot/dev/client3/rdock/2013.1/src/exe/rbdock.cxx#4 $)

>  <Rbt.Library>
libRbt.so (2013.1, Build901 2013/11/27)

>  <Rbt.Parameter_File>
/export/apps/rDock/src/rDock_2013.1_src/data/scripts/dock_solv.prm

>  <Rbt.Receptor>
prm/blind_docking_80.prm

>  <SCORE>
-14.9225

>  <SCORE.INTER>
-15.4827

>  <SCORE.INTER.CONST>
1

>  <SCORE.INTER.POLAR>
0

>  <SCORE.INTER.ROT>
4

>  <SCORE.INTER.SOLV>
18.8478

>  <SCORE.INTER.VDW>
-22.8711

>  <SCORE.INTER.norm>
-0.703757

>  <SCORE.INTRA>
0.560169

>  <SCORE.INTRA.DIHEDRAL>
1.64595

>  <SCORE.INTRA.DIHEDRAL.0>
2.54655

>  <SCORE.INTRA.POLAR>
0

>  <SCORE.INTRA.POLAR.0>
0

>  <SCORE.INTRA.REPUL>
0

>  <SCORE.INTRA.REPUL.0>
0

>  <SCORE.INTRA.SOLV>
-0.990613

>  <SCORE.INTRA.SOLV.lig_0>
-56.4922

>  <SCORE.INTRA.VDW>
0.2325

>  <SCORE.INTRA.VDW.0>
-0.696801

>  <SCORE.INTRA.norm>
0.0254622

>  <SCORE.RESTR>
0

>  <SCORE.RESTR.CAVITY>
0

>  <SCORE.RESTR.norm>
0

>  <SCORE.SYSTEM>
0

>  <SCORE.SYSTEM.CONST>
0

>  <SCORE.SYSTEM.DIHEDRAL>
0

>  <SCORE.SYSTEM.SOLV>
0

>  <SCORE.SYSTEM.norm>
0

>  <SCORE.heavy>
22

>  <SCORE.norm>
-0.678295

>  <RMSD>
13.562

$$$$
ligand
 OpenBabel02271912143D
libRbt.so/2013.1/901 2013/11/27
 22 24  0  0  0  0  0  0  0  0999 V2000
    9.5545  -23.9061   35.9677 N   0  0  0  0  0  0  0  0  0  0  0  0
    8.8366  -25.9983   35.0511 N   0  0  0  0  0  0  0  0  0  0  0  0
    8.8748  -24.6596   34.9484 C   0  0  0  0  0  0  0  0  0  0  0  0
    8.3061  -24.0126   33.9386 N   0  0  0  0  0  0  0  0  0  0  0  0
    4.6755  -26.6707   32.0162 O   0  0  0  0  0  0  0  0  0  0  0  0
    7.6643  -24.6991   32.9752 C   0  0  0  0  0  0  0  0  0  0  0  0
    7.5931  -26.1177   33.0581 C   0  0  0  0  0  0  0  0  0  0  0  0
    7.0838  -24.0038   31.9383 O   0  0  0  0  0  0  0  0  0  0  0  0
    6.9571  -26.9860   32.0871 N   0  0  0  0  0  0  0  0  0  0  0  0
    7.6491  -28.2444   31.7796 C   0  0  2  0  0  0  0  0  0  0  0  0
    7.9732  -28.9889   33.0370 C   0  0  0  0  0  0  0  0  0  0  0  0
    8.2074  -26.7379   34.1171 C   0  0  0  0  0  0  0  0  0  0  0  0
    8.1593  -28.1473   34.2173 N   0  0  0  0  0  0  0  0  0  0  0  0
    8.9437  -28.0604   30.9673 C   0  0  0  0  0  0  0  0  0  0  0  0
    9.2646  -29.2803   30.2365 N   0  0  0  0  0  0  0  0  0  0  0  0
   11.8729  -29.1773   26.8769 C   0  0  0  0  0  0  0  0  0  0  0  0
   10.8783  -30.1380   26.9494 C   0  0  0  0  0  0  0  0  0  0  0  0
   10.0110  -30.1770   28.0583 C   0  0  0  0  0  0  0  0  0  0  0  0
   10.1538  -29.2523   29.0817 C   0  0  0  0  0  0  0  0  0  0  0  0
   11.1543  -28.2879   29.0060 C   0  0  0  0  0  0  0  0  0  0  0  0
   12.0125  -28.2492   27.9041 C   0  0  0  0  0  0  0  0  0  0  0  0
    5.7379  -26.6862   31.4175 C   0  0  0  0  0  0  0  0  0  0  0  0
  1  3  1  0  0  0  0
  2  3  2  0  0  0  0
  2 12  1  0  0  0  0
  3  4  1  0  0  0  0
  4  6  1  0  0  0  0
  5 22  1  0  0  0  0
  6  7  1  0  0  0  0
  6  8  2  0  0  0  0
  7 12  2  0  0  0  0
  7  9  1  0  0  0  0
  9 10  1  0  0  0  0
  9 22  1  0  0  0  0
 10 11  1  0  0  0  0
 10 14  1  1  0  0  0
 11 13  1  0  0  0  0
 12 13  1  0  0  0  0
 14 15  1  0  0  0  0
 15 19  1  0  0  0  0
 16 17  2  0  0  0  0
 16 21  1  0  0  0  0
 17 18  1  0  0  0  0
 18 19  2  0  0  0  0
 19 20  1  0  0  0  0
 20 21  2  0  0  0  0
M  END
>  <CHROM.1>
-69.51814459,-156.25588496,159.71508753,-150.65051839,8.59433545,-27.13734875
31.71451004,-1.96135321,-0.13030248,-2.22676894

>  <Name>
ligand

>  <RI>
0

>  <Rbt.Current_Directory>
/home/itssahil/PROJECTS/Mol_Feturizer/Test_systems_manuscript/rnas/3sd3

>  <Rbt.Executable>
rbdock ($Id: //depot/dev/client3/rdock/2013.1/src/exe/rbdock.cxx#4 $)

>  <Rbt.Library>
libRbt.so (2013.1, Build901 2013/11/27)

>  <Rbt.Parameter_File>
/export/apps/rDock/src/rDock_2013.1_src/data/scripts/dock_solv.prm

>  <Rbt.Receptor>
prm/blind_docking_60.prm

>  <SCORE>
-14.9559

>  <SCORE.INTER>
-15.0716

>  <SCORE.INTER.CONST>
1

>  <SCORE.INTER.POLAR>
0

>  <SCORE.INTER.ROT>
4

>  <SCORE.INTER.SOLV>
18.9956

>  <SCORE.INTER.VDW>
-22.6463

>  <SCORE.INTER.norm>
-0.685075

>  <SCORE.INTRA>
0.115784

>  <SCORE.INTRA.DIHEDRAL>
1.19906

>  <SCORE.INTRA.DIHEDRAL.0>
2.54655

>  <SCORE.INTRA.POLAR>
0

>  <SCORE.INTRA.POLAR.0>
0

>  <SCORE.INTRA.REPUL>
0

>  <SCORE.INTRA.REPUL.0>
0

>  <SCORE.INTRA.SOLV>
-0.901226

>  <SCORE.INTRA.SOLV.lig_0>
-56.4922

>  <SCORE.INTRA.VDW>
-0.0331332

>  <SCORE.INTRA.VDW.0>
-0.696801

>  <SCORE.INTRA.norm>
0.00526291

>  <SCORE.RESTR>
0

>  <SCORE.RESTR.CAVITY>
0

>  <SCORE.RESTR.norm>
0

>  <SCORE.SYSTEM>
0

>  <SCORE.SYSTEM.CONST>
0

>  <SCORE.SYSTEM.DIHEDRAL>
0

>  <SCORE.SYSTEM.SOLV>
0

>  <SCORE.SYSTEM.norm>
0

>  <SCORE.heavy>
22

>  <SCORE.norm>
-0.679812

>  <RMSD>
13.565

$$$$
ligand
 OpenBabel02271912143D
libRbt.so/2013.1/901 2013/11/27
 22 24  0  0  0  0  0  0  0  0999 V2000
    9.5798  -23.8722   35.9620 N   0  0  0  0  0  0  0  0  0  0  0  0
    8.8576  -25.9695   35.0607 N   0  0  0  0  0  0  0  0  0  0  0  0
    8.8883  -24.6309   34.9546 C   0  0  0  0  0  0  0  0  0  0  0  0
    8.3017  -23.9886   33.9520 N   0  0  0  0  0  0  0  0  0  0  0  0
    4.9668  -27.5698   31.0950 O   0  0  0  0  0  0  0  0  0  0  0  0
    7.6487  -24.6801   32.9998 C   0  0  0  0  0  0  0  0  0  0  0  0
    7.5850  -26.0988   33.0867 C   0  0  0  0  0  0  0  0  0  0  0  0
    7.0496  -23.9896   31.9702 O   0  0  0  0  0  0  0  0  0  0  0  0
    6.9385  -26.9720   32.1272 N   0  0  0  0  0  0  0  0  0  0  0  0
    7.6314  -28.2280   31.8120 C   0  0  2  0  0  0  0  0  0  0  0  0
    7.9776  -28.9683   33.0660 C   0  0  0  0  0  0  0  0  0  0  0  0
    8.2179  -26.7140   34.1377 C   0  0  0  0  0  0  0  0  0  0  0  0
    8.1775  -28.1233   34.2417 N   0  0  0  0  0  0  0  0  0  0  0  0
    8.9129  -28.0401   30.9801 C   0  0  0  0  0  0  0  0  0  0  0  0
    9.2430  -29.2685   30.2680 N   0  0  0  0  0  0  0  0  0  0  0  0
   11.8026  -29.2367   26.8696 C   0  0  0  0  0  0  0  0  0  0  0  0
   11.9599  -28.2831   27.8613 C   0  0  0  0  0  0  0  0  0  0  0  0
   11.1166  -28.2886   28.9892 C   0  0  0  0  0  0  0  0  0  0  0  0
   10.1245  -29.2501   29.1071 C   0  0  0  0  0  0  0  0  0  0  0  0
    9.9689  -30.2074   28.1089 C   0  0  0  0  0  0  0  0  0  0  0  0
   10.8078  -30.2018   26.9916 C   0  0  0  0  0  0  0  0  0  0  0  0
    5.7081  -26.6791   31.4752 C   0  0  0  0  0  0  0  0  0  0  0  0
  1  3  1  0  0  0  0
  2  3  2  0  0  0  0
  2 12  1  0  0  0  0
  3  4  1  0  0  0  0
  4  6  1  0  0  0  0
  5 22  1  0  0  0  0
  6  7  1  0  0  0  0
  6  8  2  0  0  0  0
  7 12  2  0  0  0  0
  7  9  1  0  0  0  0
  9 10  1  0  0  0  0
  9 22  1  0  0  0  0
 10 11  1  0  0  0  0
 10 14  1  1  0  0  0
 11 13  1  0  0  0  0
 12 13  1  0  0  0  0
 14 15  1  0  0  0  0
 15 19  1  0  0  0  0
 16 17  2  0  0  0  0
 16 21  1  0  0  0  0
 17 18  1  0  0  0  0
 18 19  2  0  0  0  0
 19 20  1  0  0  0  0
 20 21  2  0  0  0  0
M  END
>  <CHROM.1>
-152.27290855,-157.37774317,160.13676718,29.31963570,8.59344026,-27.18027553
31.68276141,-1.92439991,-0.15366902,-2.23386822

>  <Name>
ligand

>  <RI>
0

>  <Rbt.Current_Directory>
/home/itssahil/PROJECTS/Mol_Feturizer/Test_systems_manuscript/rnas/3sd3

>  <Rbt.Executable>
rbdock ($Id: //depot/dev/client3/rdock/2013.1/src/exe/rbdock.cxx#4 $)

>  <Rbt.Library>
libRbt.so (2013.1, Build901 2013/11/27)

>  <Rbt.Parameter_File>
/export/apps/rDock/src/rDock_2013.1_src/data/scripts/dock_solv.prm

>  <Rbt.Receptor>
prm/blind_docking_80.prm

>  <SCORE>
-14.9715

>  <SCORE.INTER>
-15.2902

>  <SCORE.INTER.CONST>
1

>  <SCORE.INTER.POLAR>
0

>  <SCORE.INTER.ROT>
4

>  <SCORE.INTER.SOLV>
18.4723

>  <SCORE.INTER.VDW>
-22.6176

>  <SCORE.INTER.norm>
-0.695009

>  <SCORE.INTRA>
0.318654

>  <SCORE.INTRA.DIHEDRAL>
1.00185

>  <SCORE.INTRA.DIHEDRAL.0>
2.54655

>  <SCORE.INTRA.POLAR>
0

>  <SCORE.INTRA.POLAR.0>
0

>  <SCORE.INTRA.REPUL>
0

>  <SCORE.INTRA.REPUL.0>
0

>  <SCORE.INTRA.SOLV>
-0.907458

>  <SCORE.INTRA.SOLV.lig_0>
-56.4922

>  <SCORE.INTRA.VDW>
0.271455

>  <SCORE.INTRA.VDW.0>
-0.696801

>  <SCORE.INTRA.norm>
0.0144843

>  <SCORE.RESTR>
0

>  <SCORE.RESTR.CAVITY>
0

>  <SCORE.RESTR.norm>
0

>  <SCORE.SYSTEM>
0

>  <SCORE.SYSTEM.CONST>
0

>  <SCORE.SYSTEM.DIHEDRAL>
0

>  <SCORE.SYSTEM.SOLV>
0

>  <SCORE.SYSTEM.norm>
0

>  <SCORE.heavy>
22

>  <SCORE.norm>
-0.680525

>  <RMSD>
13.589

$$$$
ligand
 OpenBabel02271912143D
libRbt.so/2013.1/901 2013/11/27
 22 24  0  0  0  0  0  0  0  0999 V2000
    9.5757  -23.8797   35.9359 N   0  0  0  0  0  0  0  0  0  0  0  0
    8.8504  -25.9811   35.0465 N   0  0  0  0  0  0  0  0  0  0  0  0
    8.8848  -24.6433   34.9317 C   0  0  0  0  0  0  0  0  0  0  0  0
    8.3025  -24.0061   33.9234 N   0  0  0  0  0  0  0  0  0  0  0  0
    4.6930  -27.3337   31.7080 O   0  0  0  0  0  0  0  0  0  0  0  0
    7.6501  -24.7020   32.9741 C   0  0  0  0  0  0  0  0  0  0  0  0
    7.5825  -26.1200   33.0702 C   0  0  0  0  0  0  0  0  0  0  0  0
    7.0555  -24.0168   31.9385 O   0  0  0  0  0  0  0  0  0  0  0  0
    6.9362  -26.9978   32.1147 N   0  0  0  0  0  0  0  0  0  0  0  0
    7.6266  -28.2577   31.8095 C   0  0  2  0  0  0  0  0  0  0  0  0
    7.9677  -28.9906   33.0693 C   0  0  0  0  0  0  0  0  0  0  0  0
    8.2111  -26.7299   34.1268 C   0  0  0  0  0  0  0  0  0  0  0  0
    8.1668  -28.1384   34.2399 N   0  0  0  0  0  0  0  0  0  0  0  0
    8.9107  -28.0785   30.9797 C   0  0  0  0  0  0  0  0  0  0  0  0
    9.1970  -29.2870   30.2164 N   0  0  0  0  0  0  0  0  0  0  0  0
   11.9278  -29.1990   26.9550 C   0  0  0  0  0  0  0  0  0  0  0  0
   10.9496  -30.1776   27.0101 C   0  0  0  0  0  0  0  0  0  0  0  0
   10.0420  -30.2117   28.0864 C   0  0  0  0  0  0  0  0  0  0  0  0
   10.1284  -29.2643   29.0953 C   0  0  0  0  0  0  0  0  0  0  0  0
   11.1125  -28.2819   29.0371 C   0  0  0  0  0  0  0  0  0  0  0  0
   12.0108  -28.2482   27.9674 C   0  0  0  0  0  0  0  0  0  0  0  0
    5.7082  -26.7060   31.4577 C   0  0  0  0  0  0  0  0  0  0  0  0
  1  3  1  0  0  0  0
  2  3  2  0  0  0  0
  2 12  1  0  0  0  0
  3  4  1  0  0  0  0
  4  6  1  0  0  0  0
  5 22  1  0  0  0  0
  6  7  1  0  0  0  0
  6  8  2  0  0  0  0
  7 12  2  0  0  0  0
  7  9  1  0  0  0  0
  9 10  1  0  0  0  0
  9 22  1  0  0  0  0
 10 11  1  0  0  0  0
 10 14  1  1  0  0  0
 11 13  1  0  0  0  0
 12 13  1  0  0  0  0
 14 15  1  0  0  0  0
 15 19  1  0  0  0  0
 16 17  2  0  0  0  0
 16 21  1  0  0  0  0
 17 18  1  0  0  0  0
 18 19  2  0  0  0  0
 19 20  1  0  0  0  0
 20 21  2  0  0  0  0
M  END
>  <CHROM.1>
-111.17375316,-154.11206657,163.34584529,-155.79262191,8.59025305,-27.17840179
31.71348012,-1.95704735,-0.18708113,-2.25229064

>  <Name>
ligand

>  <RI>
0

>  <Rbt.Current_Directory>
/home/itssahil/PROJECTS/Mol_Feturizer/Test_systems_manuscript/rnas/3sd3

>  <Rbt.Executable>
rbdock ($Id: //depot/dev/client3/rdock/2013.1/src/exe/rbdock.cxx#4 $)

>  <Rbt.Library>
libRbt.so (2013.1, Build901 2013/11/27)

>  <Rbt.Parameter_File>
/export/apps/rDock/src/rDock_2013.1_src/data/scripts/dock_solv.prm

>  <Rbt.Receptor>
prm/blind_docking_60.prm

>  <SCORE>
-14.7965

>  <SCORE.INTER>
-15.1082

>  <SCORE.INTER.CONST>
1

>  <SCORE.INTER.POLAR>
0

>  <SCORE.INTER.ROT>
4

>  <SCORE.INTER.SOLV>
18.5737

>  <SCORE.INTER.VDW>
-22.53

>  <SCORE.INTER.norm>
-0.686736

>  <SCORE.INTRA>
0.311653

>  <SCORE.INTRA.DIHEDRAL>
1.38777

>  <SCORE.INTRA.DIHEDRAL.0>
2.54655

>  <SCORE.INTRA.POLAR>
0

>  <SCORE.INTRA.POLAR.0>
0

>  <SCORE.INTRA.REPUL>
0

>  <SCORE.INTRA.REPUL.0>
0

>  <SCORE.INTRA.SOLV>
-0.98148

>  <SCORE.INTRA.SOLV.lig_0>
-56.4922

>  <SCORE.INTRA.VDW>
0.108507

>  <SCORE.INTRA.VDW.0>
-0.696801

>  <SCORE.INTRA.norm>
0.014166

>  <SCORE.RESTR>
0

>  <SCORE.RESTR.CAVITY>
0

>  <SCORE.RESTR.norm>
0

>  <SCORE.SYSTEM>
0

>  <SCORE.SYSTEM.CONST>
0

>  <SCORE.SYSTEM.DIHEDRAL>
0

>  <SCORE.SYSTEM.SOLV>
0

>  <SCORE.SYSTEM.norm>
0

>  <SCORE.heavy>
22

>  <SCORE.norm>
-0.67257

>  <RMSD>
13.590

$$$$
ligand
 OpenBabel02271912143D
libRbt.so/2013.1/901 2013/11/27
 22 24  0  0  0  0  0  0  0  0999 V2000
    8.2856  -24.8243   33.3952 N   0  0  0  0  0  0  0  0  0  0  0  0
    8.1327  -27.1051   32.6828 N   0  0  0  0  0  0  0  0  0  0  0  0
    7.6497  -25.8534   32.6172 C   0  0  0  0  0  0  0  0  0  0  0  0
    6.6068  -25.5380   31.8591 N   0  0  0  0  0  0  0  0  0  0  0  0
    3.9477  -28.5056   29.3437 O   0  0  0  0  0  0  0  0  0  0  0  0
    5.9971  -26.4866   31.1245 C   0  0  0  0  0  0  0  0  0  0  0  0
    6.4738  -27.8260   31.1790 C   0  0  0  0  0  0  0  0  0  0  0  0
    4.9180  -26.1327   30.3460 O   0  0  0  0  0  0  0  0  0  0  0  0
    5.9328  -28.9425   30.4294 N   0  0  0  0  0  0  0  0  0  0  0  0
    6.9049  -29.8959   29.8788 C   0  0  2  0  0  0  0  0  0  0  0  0
    7.8431  -30.3675   30.9455 C   0  0  0  0  0  0  0  0  0  0  0  0
    7.5622  -28.0961   31.9702 C   0  0  0  0  0  0  0  0  0  0  0  0
    8.0613  -29.4173   32.0343 N   0  0  0  0  0  0  0  0  0  0  0  0
    7.7313  -29.3355   28.7072 C   0  0  0  0  0  0  0  0  0  0  0  0
    8.4834  -30.4021   28.0578 N   0  0  0  0  0  0  0  0  0  0  0  0
   12.6011  -29.9376   27.0933 C   0  0  0  0  0  0  0  0  0  0  0  0
   12.0301  -29.1508   28.0795 C   0  0  0  0  0  0  0  0  0  0  0  0
   10.6679  -29.3003   28.4042 C   0  0  0  0  0  0  0  0  0  0  0  0
    9.8950  -30.2363   27.7339 C   0  0  0  0  0  0  0  0  0  0  0  0
   10.4717  -31.0256   26.7434 C   0  0  0  0  0  0  0  0  0  0  0  0
   11.8239  -30.8776   26.4239 C   0  0  0  0  0  0  0  0  0  0  0  0
    4.5463  -29.1517   30.1872 C   0  0  0  0  0  0  0  0  0  0  0  0
  1  3  1  0  0  0  0
  2  3  2  0  0  0  0
  2 12  1  0  0  0  0
  3  4  1  0  0  0  0
  4  6  1  0  0  0  0
  5 22  1  0  0  0  0
  6  7  1  0  0  0  0
  6  8  2  0  0  0  0
  7 12  2  0  0  0  0
  7  9  1  0  0  0  0
  9 10  1  0  0  0  0
  9 22  1  0  0  0  0
 10 11  1  0  0  0  0
 10 14  1  6  0  0  0
 11 13  1  0  0  0  0
 12 13  1  0  0  0  0
 14 15  1  0  0  0  0
 15 19  1  0  0  0  0
 16 17  2  0  0  0  0
 16 21  1  0  0  0  0
 17 18  1  0  0  0  0
 18 19  2  0  0  0  0
 19 20  1  0  0  0  0
 20 21  2  0  0  0  0
M  END
>  <CHROM.1>
76.91139348,-169.33770899,-133.25651783,21.97564416,7.87788839,-28.52108784
30.02068460,-2.28904552,-0.07549420,-2.33303909

>  <Name>
ligand

>  <RI>
0

>  <Rbt.Current_Directory>
/home/itssahil/PROJECTS/Mol_Feturizer/Test_systems_manuscript/rnas/3sd3

>  <Rbt.Executable>
rbdock ($Id: //depot/dev/client3/rdock/2013.1/src/exe/rbdock.cxx#4 $)

>  <Rbt.Library>
libRbt.so (2013.1, Build901 2013/11/27)

>  <Rbt.Parameter_File>
/export/apps/rDock/src/rDock_2013.1_src/data/scripts/dock_solv.prm

>  <Rbt.Receptor>
prm/blind_docking_60.prm

>  <SCORE>
-11.7054

>  <SCORE.INTER>
-11.653

>  <SCORE.INTER.CONST>
1

>  <SCORE.INTER.POLAR>
0

>  <SCORE.INTER.ROT>
4

>  <SCORE.INTER.SOLV>
20.8568

>  <SCORE.INTER.VDW>
-20.9876

>  <SCORE.INTER.norm>
-0.529681

>  <SCORE.INTRA>
-0.0524493

>  <SCORE.INTRA.DIHEDRAL>
0.535389

>  <SCORE.INTRA.DIHEDRAL.0>
2.54655

>  <SCORE.INTRA.POLAR>
0

>  <SCORE.INTRA.POLAR.0>
0

>  <SCORE.INTRA.REPUL>
0

>  <SCORE.INTRA.REPUL.0>
0

>  <SCORE.INTRA.SOLV>
-0.451072

>  <SCORE.INTRA.SOLV.lig_0>
-56.4922

>  <SCORE.INTRA.VDW>
-0.0946077

>  <SCORE.INTRA.VDW.0>
-0.696801

>  <SCORE.INTRA.norm>
-0.00238406

>  <SCORE.RESTR>
0

>  <SCORE.RESTR.CAVITY>
0

>  <SCORE.RESTR.norm>
0

>  <SCORE.SYSTEM>
0

>  <SCORE.SYSTEM.CONST>
0

>  <SCORE.SYSTEM.DIHEDRAL>
0

>  <SCORE.SYSTEM.SOLV>
0

>  <SCORE.SYSTEM.norm>
0

>  <SCORE.heavy>
22

>  <SCORE.norm>
-0.532065

>  <RMSD>
14.024

$$$$
ligand
 OpenBabel02271912143D
libRbt.so/2013.1/901 2013/11/27
 22 24  0  0  0  0  0  0  0  0999 V2000
    3.9108  -26.4663   36.2534 N   0  0  0  0  0  0  0  0  0  0  0  0
    4.6263  -26.7165   33.9822 N   0  0  0  0  0  0  0  0  0  0  0  0
    4.9462  -26.4331   35.2556 C   0  0  0  0  0  0  0  0  0  0  0  0
    6.1844  -26.1241   35.6204 N   0  0  0  0  0  0  0  0  0  0  0  0
    8.9128  -24.4171   32.7316 O   0  0  0  0  0  0  0  0  0  0  0  0
    7.1673  -26.0865   34.7019 C   0  0  0  0  0  0  0  0  0  0  0  0
    6.8626  -26.3688   33.3410 C   0  0  0  0  0  0  0  0  0  0  0  0
    8.4431  -25.7640   35.1068 O   0  0  0  0  0  0  0  0  0  0  0  0
    7.8185  -26.3874   32.2515 N   0  0  0  0  0  0  0  0  0  0  0  0
    7.6538  -27.4509   31.2521 C   0  0  2  0  0  0  0  0  0  0  0  0
    6.2489  -27.4770   30.7365 C   0  0  0  0  0  0  0  0  0  0  0  0
    5.5685  -26.6935   33.0193 C   0  0  0  0  0  0  0  0  0  0  0  0
    5.2417  -26.9876   31.6757 N   0  0  0  0  0  0  0  0  0  0  0  0
    8.0151  -28.8543   31.7714 C   0  0  0  0  0  0  0  0  0  0  0  0
    8.1667  -29.7856   30.6602 N   0  0  0  0  0  0  0  0  0  0  0  0
   11.2256  -29.2210   27.7575 C   0  0  0  0  0  0  0  0  0  0  0  0
   10.1537  -30.0520   27.4781 C   0  0  0  0  0  0  0  0  0  0  0  0
    9.1373  -30.2424   28.4342 C   0  0  0  0  0  0  0  0  0  0  0  0
    9.2102  -29.5979   29.6598 C   0  0  0  0  0  0  0  0  0  0  0  0
   10.2886  -28.7632   29.9376 C   0  0  0  0  0  0  0  0  0  0  0  0
   11.2951  -28.5737   28.9871 C   0  0  0  0  0  0  0  0  0  0  0  0
    8.8931  -25.4657   32.1091 C   0  0  0  0  0  0  0  0  0  0  0  0
  1  3  1  0  0  0  0
  2  3  2  0  0  0  0
  2 12  1  0  0  0  0
  3  4  1  0  0  0  0
  4  6  1  0  0  0  0
  5 22  1  0  0  0  0
  6  7  1  0  0  0  0
  6  8  2  0  0  0  0
  7 12  2  0  0  0  0
  7  9  1  0  0  0  0
  9 10  1  0  0  0  0
  9 22  1  0  0  0  0
 10 11  1  0  0  0  0
 10 14  1  1  0  0  0
 11 13  1  0  0  0  0
 12 13  1  0  0  0  0
 14 15  1  0  0  0  0
 15 19  1  0  0  0  0
 16 17  2  0  0  0  0
 16 21  1  0  0  0  0
 17 18  1  0  0  0  0
 18 19  2  0  0  0  0
 19 20  1  0  0  0  0
 20 21  2  0  0  0  0
M  END
>  <CHROM.1>
-16.50307141,-165.15536212,63.27230757,-162.34105650,7.68028827,-27.36742663
32.04561179,2.17828223,0.37941007,0.82754170

>  <Name>
ligand

>  <RI>
0

>  <Rbt.Current_Directory>
/home/itssahil/PROJECTS/Mol_Feturizer/Test_systems_manuscript/rnas/3sd3

>  <Rbt.Executable>
rbdock ($Id: //depot/dev/client3/rdock/2013.1/src/exe/rbdock.cxx#4 $)

>  <Rbt.Library>
libRbt.so (2013.1, Build901 2013/11/27)

>  <Rbt.Parameter_File>
/export/apps/rDock/src/rDock_2013.1_src/data/scripts/dock_solv.prm

>  <Rbt.Receptor>
prm/blind_docking_80.prm

>  <SCORE>
-16.529

>  <SCORE.INTER>
-16.3305

>  <SCORE.INTER.CONST>
1

>  <SCORE.INTER.POLAR>
0

>  <SCORE.INTER.ROT>
4

>  <SCORE.INTER.SOLV>
9.4372

>  <SCORE.INTER.VDW>
-20.2994

>  <SCORE.INTER.norm>
-0.742297

>  <SCORE.INTRA>
-0.410337

>  <SCORE.INTRA.DIHEDRAL>
-0.158359

>  <SCORE.INTRA.DIHEDRAL.0>
2.54655

>  <SCORE.INTRA.POLAR>
0

>  <SCORE.INTRA.POLAR.0>
0

>  <SCORE.INTRA.REPUL>
0

>  <SCORE.INTRA.REPUL.0>
0

>  <SCORE.INTRA.SOLV>
-0.558797

>  <SCORE.INTRA.SOLV.lig_0>
-56.4922

>  <SCORE.INTRA.VDW>
-0.0517593

>  <SCORE.INTRA.VDW.0>
-0.696801

>  <SCORE.INTRA.norm>
-0.0186517

>  <SCORE.RESTR>
0.211875

>  <SCORE.RESTR.CAVITY>
0.211875

>  <SCORE.RESTR.norm>
0.00963069

>  <SCORE.SYSTEM>
0

>  <SCORE.SYSTEM.CONST>
0

>  <SCORE.SYSTEM.DIHEDRAL>
0

>  <SCORE.SYSTEM.SOLV>
0

>  <SCORE.SYSTEM.norm>
0

>  <SCORE.heavy>
22

>  <SCORE.norm>
-0.751318

>  <RMSD>
14.185

$$$$
ligand
 OpenBabel02271912143D
libRbt.so/2013.1/901 2013/11/27
 22 24  0  0  0  0  0  0  0  0999 V2000
    3.5001  -26.0446   36.0538 N   0  0  0  0  0  0  0  0  0  0  0  0
    4.3476  -26.4243   33.8470 N   0  0  0  0  0  0  0  0  0  0  0  0
    4.5939  -26.0749   35.1203 C   0  0  0  0  0  0  0  0  0  0  0  0
    5.8116  -25.7575   35.5424 N   0  0  0  0  0  0  0  0  0  0  0  0
    8.8397  -24.3451   32.9030 O   0  0  0  0  0  0  0  0  0  0  0  0
    6.8483  -25.7787   34.6844 C   0  0  0  0  0  0  0  0  0  0  0  0
    6.6224  -26.1319   33.3248 C   0  0  0  0  0  0  0  0  0  0  0  0
    8.1013  -25.4460   35.1481 O   0  0  0  0  0  0  0  0  0  0  0  0
    7.6417  -26.2183   32.2978 N   0  0  0  0  0  0  0  0  0  0  0  0
    7.5244  -27.3331   31.3489 C   0  0  2  0  0  0  0  0  0  0  0  0
    6.1528  -27.3747   30.7512 C   0  0  0  0  0  0  0  0  0  0  0  0
    5.3461  -26.4621   32.9431 C   0  0  0  0  0  0  0  0  0  0  0  0
    5.0970  -26.8259   31.6000 N   0  0  0  0  0  0  0  0  0  0  0  0
    7.8368  -28.7093   31.9639 C   0  0  0  0  0  0  0  0  0  0  0  0
    7.9651  -29.7173   30.9186 N   0  0  0  0  0  0  0  0  0  0  0  0
   10.9291  -29.3949   27.8835 C   0  0  0  0  0  0  0  0  0  0  0  0
   11.1055  -28.7434   29.0926 C   0  0  0  0  0  0  0  0  0  0  0  0
   10.1286  -28.8468   30.1018 C   0  0  0  0  0  0  0  0  0  0  0  0
    8.9858  -29.6014   29.8844 C   0  0  0  0  0  0  0  0  0  0  0  0
    8.8113  -30.2551   28.6682 C   0  0  0  0  0  0  0  0  0  0  0  0
    9.7825  -30.1532   27.6688 C   0  0  0  0  0  0  0  0  0  0  0  0
    8.7341  -25.3152   32.1714 C   0  0  0  0  0  0  0  0  0  0  0  0
  1  3  1  0  0  0  0
  2  3  2  0  0  0  0
  2 12  1  0  0  0  0
  3  4  1  0  0  0  0
  4  6  1  0  0  0  0
  5 22  1  0  0  0  0
  6  7  1  0  0  0  0
  6  8  2  0  0  0  0
  7 12  2  0  0  0  0
  7  9  1  0  0  0  0
  9 10  1  0  0  0  0
  9 22  1  0  0  0  0
 10 11  1  0  0  0  0
 10 14  1  1  0  0  0
 11 13  1  0  0  0  0
 12 13  1  0  0  0  0
 14 15  1  0  0  0  0
 15 19  1  0  0  0  0
 16 17  2  0  0  0  0
 16 21  1  0  0  0  0
 17 18  1  0  0  0  0
 18 19  2  0  0  0  0
 19 20  1  0  0  0  0
 20 21  2  0  0  0  0
M  END
>  <CHROM.1>
-3.93671698,-168.52030324,60.72127329,23.08441075,7.44318287,-27.22609982
32.09873766,2.16875717,0.32631167,0.79351177

>  <Name>
ligand

>  <RI>
0

>  <Rbt.Current_Directory>
/home/itssahil/PROJECTS/Mol_Feturizer/Test_systems_manuscript/rnas/3sd3

>  <Rbt.Executable>
rbdock ($Id: //depot/dev/client3/rdock/2013.1/src/exe/rbdock.cxx#4 $)

>  <Rbt.Library>
libRbt.so (2013.1, Build901 2013/11/27)

>  <Rbt.Parameter_File>
/export/apps/rDock/src/rDock_2013.1_src/data/scripts/dock_solv.prm

>  <Rbt.Receptor>
prm/blind_docking_80.prm

>  <SCORE>
-16.0885

>  <SCORE.INTER>
-15.7512

>  <SCORE.INTER.CONST>
1

>  <SCORE.INTER.POLAR>
0

>  <SCORE.INTER.ROT>
4

>  <SCORE.INTER.SOLV>
8.80627

>  <SCORE.INTER.VDW>
-19.7029

>  <SCORE.INTER.norm>
-0.715964

>  <SCORE.INTRA>
-0.337252

>  <SCORE.INTRA.DIHEDRAL>
-0.446373

>  <SCORE.INTRA.DIHEDRAL.0>
2.54655

>  <SCORE.INTRA.POLAR>
0

>  <SCORE.INTRA.POLAR.0>
0

>  <SCORE.INTRA.REPUL>
0

>  <SCORE.INTRA.REPUL.0>
0

>  <SCORE.INTRA.SOLV>
-0.468193

>  <SCORE.INTRA.SOLV.lig_0>
-56.4922

>  <SCORE.INTRA.VDW>
0.120031

>  <SCORE.INTRA.VDW.0>
-0.696801

>  <SCORE.INTRA.norm>
-0.0153296

>  <SCORE.RESTR>
0

>  <SCORE.RESTR.CAVITY>
0

>  <SCORE.RESTR.norm>
0

>  <SCORE.SYSTEM>
0

>  <SCORE.SYSTEM.CONST>
0

>  <SCORE.SYSTEM.DIHEDRAL>
0

>  <SCORE.SYSTEM.SOLV>
0

>  <SCORE.SYSTEM.norm>
0

>  <SCORE.heavy>
22

>  <SCORE.norm>
-0.731294

>  <RMSD>
14.313

$$$$
ligand
 OpenBabel02271912143D
libRbt.so/2013.1/901 2013/11/27
 22 24  0  0  0  0  0  0  0  0999 V2000
    2.9465  -25.5027   35.5190 N   0  0  0  0  0  0  0  0  0  0  0  0
    3.9687  -26.2294   33.4794 N   0  0  0  0  0  0  0  0  0  0  0  0
    4.0947  -25.5975   34.6580 C   0  0  0  0  0  0  0  0  0  0  0  0
    5.2425  -25.0593   35.0512 N   0  0  0  0  0  0  0  0  0  0  0  0
    9.3442  -24.9396   32.4296 O   0  0  0  0  0  0  0  0  0  0  0  0
    6.3283  -25.1362   34.2598 C   0  0  0  0  0  0  0  0  0  0  0  0
    6.2284  -25.7873   32.9986 C   0  0  0  0  0  0  0  0  0  0  0  0
    7.5068  -24.5705   34.6917 O   0  0  0  0  0  0  0  0  0  0  0  0
    7.3145  -25.9645   32.0552 N   0  0  0  0  0  0  0  0  0  0  0  0
    7.3769  -27.2575   31.3616 C   0  0  2  0  0  0  0  0  0  0  0  0
    6.0583  -27.5822   30.7319 C   0  0  0  0  0  0  0  0  0  0  0  0
    5.0212  -26.3363   32.6451 C   0  0  0  0  0  0  0  0  0  0  0  0
    4.8983  -26.9970   31.4014 N   0  0  0  0  0  0  0  0  0  0  0  0
    7.7933  -28.4304   32.2675 C   0  0  0  0  0  0  0  0  0  0  0  0
    8.0485  -29.6242   31.4707 N   0  0  0  0  0  0  0  0  0  0  0  0
   10.4734  -29.4729   27.9781 C   0  0  0  0  0  0  0  0  0  0  0  0
   10.8728  -28.8078   29.1251 C   0  0  0  0  0  0  0  0  0  0  0  0
   10.0752  -28.8547   30.2849 C   0  0  0  0  0  0  0  0  0  0  0  0
    8.8856  -29.5670   30.2787 C   0  0  0  0  0  0  0  0  0  0  0  0
    8.4868  -30.2346   29.1244 C   0  0  0  0  0  0  0  0  0  0  0  0
    9.2804  -30.1889   27.9753 C   0  0  0  0  0  0  0  0  0  0  0  0
    8.3110  -24.9857   31.7834 C   0  0  0  0  0  0  0  0  0  0  0  0
  1  3  1  0  0  0  0
  2  3  2  0  0  0  0
  2 12  1  0  0  0  0
  3  4  1  0  0  0  0
  4  6  1  0  0  0  0
  5 22  1  0  0  0  0
  6  7  1  0  0  0  0
  6  8  2  0  0  0  0
  7 12  2  0  0  0  0
  7  9  1  0  0  0  0
  9 10  1  0  0  0  0
  9 22  1  0  0  0  0
 10 11  1  0  0  0  0
 10 14  1  1  0  0  0
 11 13  1  0  0  0  0
 12 13  1  0  0  0  0
 14 15  1  0  0  0  0
 15 19  1  0  0  0  0
 16 17  2  0  0  0  0
 16 21  1  0  0  0  0
 17 18  1  0  0  0  0
 18 19  2  0  0  0  0
 19 20  1  0  0  0  0
 20 21  2  0  0  0  0
M  END
>  <CHROM.1>
89.41104853,-170.52269910,48.12100294,43.46313167,7.17063765,-27.05033847
31.97974396,2.22097348,0.29225630,0.68625541

>  <Name>
ligand

>  <RI>
0

>  <Rbt.Current_Directory>
/home/itssahil/PROJECTS/Mol_Feturizer/Test_systems_manuscript/rnas/3sd3

>  <Rbt.Executable>
rbdock ($Id: //depot/dev/client3/rdock/2013.1/src/exe/rbdock.cxx#4 $)

>  <Rbt.Library>
libRbt.so (2013.1, Build901 2013/11/27)

>  <Rbt.Parameter_File>
/export/apps/rDock/src/rDock_2013.1_src/data/scripts/dock_solv.prm

>  <Rbt.Receptor>
prm/blind_docking_100.prm

>  <SCORE>
-17.5764

>  <SCORE.INTER>
-16.6306

>  <SCORE.INTER.CONST>
1

>  <SCORE.INTER.POLAR>
0

>  <SCORE.INTER.ROT>
4

>  <SCORE.INTER.SOLV>
9.9129

>  <SCORE.INTER.VDW>
-20.658

>  <SCORE.INTER.norm>
-0.755936

>  <SCORE.INTRA>
-0.945855

>  <SCORE.INTRA.DIHEDRAL>
-0.501857

>  <SCORE.INTRA.DIHEDRAL.0>
2.54655

>  <SCORE.INTRA.POLAR>
0

>  <SCORE.INTRA.POLAR.0>
0

>  <SCORE.INTRA.REPUL>
0

>  <SCORE.INTRA.REPUL.0>
0

>  <SCORE.INTRA.SOLV>
-0.447271

>  <SCORE.INTRA.SOLV.lig_0>
-56.4922

>  <SCORE.INTRA.VDW>
-0.471291

>  <SCORE.INTRA.VDW.0>
-0.696801

>  <SCORE.INTRA.norm>
-0.0429934

>  <SCORE.RESTR>
0

>  <SCORE.RESTR.CAVITY>
0

>  <SCORE.RESTR.norm>
0

>  <SCORE.SYSTEM>
0

>  <SCORE.SYSTEM.CONST>
0

>  <SCORE.SYSTEM.DIHEDRAL>
0

>  <SCORE.SYSTEM.SOLV>
0

>  <SCORE.SYSTEM.norm>
0

>  <SCORE.heavy>
22

>  <SCORE.norm>
-0.798929

>  <RMSD>
14.374

$$$$
ligand
 OpenBabel02271912143D
libRbt.so/2013.1/901 2013/11/27
 22 24  0  0  0  0  0  0  0  0999 V2000
    3.9360  -27.2600   36.5437 N   0  0  0  0  0  0  0  0  0  0  0  0
    4.4401  -27.3720   34.2057 N   0  0  0  0  0  0  0  0  0  0  0  0
    4.8127  -26.9856   35.4370 C   0  0  0  0  0  0  0  0  0  0  0  0
    5.9613  -26.3601   35.6632 N   0  0  0  0  0  0  0  0  0  0  0  0
    9.2049  -25.0859   32.1144 O   0  0  0  0  0  0  0  0  0  0  0  0
    6.7951  -26.0930   34.6411 C   0  0  0  0  0  0  0  0  0  0  0  0
    6.4272  -26.4766   33.3213 C   0  0  0  0  0  0  0  0  0  0  0  0
    7.9807  -25.4439   34.9031 O   0  0  0  0  0  0  0  0  0  0  0  0
    7.2310  -26.2748   32.1319 N   0  0  0  0  0  0  0  0  0  0  0  0
    7.2385  -27.3684   31.1517 C   0  0  2  0  0  0  0  0  0  0  0  0
    5.8404  -27.7670   30.7956 C   0  0  0  0  0  0  0  0  0  0  0  0
    5.2337  -27.1305   33.1440 C   0  0  0  0  0  0  0  0  0  0  0  0
    4.8495  -27.5307   31.8437 N   0  0  0  0  0  0  0  0  0  0  0  0
    8.0041  -28.6190   31.6203 C   0  0  0  0  0  0  0  0  0  0  0  0
    8.1214  -29.5823   30.5325 N   0  0  0  0  0  0  0  0  0  0  0  0
   11.2454  -29.2458   27.6639 C   0  0  0  0  0  0  0  0  0  0  0  0
   10.1818  -30.1010   27.4292 C   0  0  0  0  0  0  0  0  0  0  0  0
    9.1440  -30.2163   28.3742 C   0  0  0  0  0  0  0  0  0  0  0  0
    9.1873  -29.4732   29.5441 C   0  0  0  0  0  0  0  0  0  0  0  0
   10.2574  -28.6145   29.7772 C   0  0  0  0  0  0  0  0  0  0  0  0
   11.2852  -28.4996   28.8376 C   0  0  0  0  0  0  0  0  0  0  0  0
    8.0092  -25.1115   31.8754 C   0  0  0  0  0  0  0  0  0  0  0  0
  1  3  1  0  0  0  0
  2  3  2  0  0  0  0
  2 12  1  0  0  0  0
  3  4  1  0  0  0  0
  4  6  1  0  0  0  0
  5 22  1  0  0  0  0
  6  7  1  0  0  0  0
  6  8  2  0  0  0  0
  7 12  2  0  0  0  0
  7  9  1  0  0  0  0
  9 10  1  0  0  0  0
  9 22  1  0  0  0  0
 10 11  1  0  0  0  0
 10 14  1  1  0  0  0
 11 13  1  0  0  0  0
 12 13  1  0  0  0  0
 14 15  1  0  0  0  0
 15 19  1  0  0  0  0
 16 17  2  0  0  0  0
 16 21  1  0  0  0  0
 17 18  1  0  0  0  0
 18 19  2  0  0  0  0
 19 20  1  0  0  0  0
 20 21  2  0  0  0  0
M  END
>  <CHROM.1>
97.58254279,-172.30556554,84.01457850,-167.05039214,7.46881710,-27.49360303
31.98669429,2.26414305,0.48871099,0.79211997

>  <Name>
ligand

>  <RI>
0

>  <Rbt.Current_Directory>
/home/itssahil/PROJECTS/Mol_Feturizer/Test_systems_manuscript/rnas/3sd3

>  <Rbt.Executable>
rbdock ($Id: //depot/dev/client3/rdock/2013.1/src/exe/rbdock.cxx#4 $)

>  <Rbt.Library>
libRbt.so (2013.1, Build901 2013/11/27)

>  <Rbt.Parameter_File>
/export/apps/rDock/src/rDock_2013.1_src/data/scripts/dock_solv.prm

>  <Rbt.Receptor>
prm/blind_docking_100.prm

>  <SCORE>
-18.293

>  <SCORE.INTER>
-17.8803

>  <SCORE.INTER.CONST>
1

>  <SCORE.INTER.POLAR>
0

>  <SCORE.INTER.ROT>
4

>  <SCORE.INTER.SOLV>
8.73768

>  <SCORE.INTER.VDW>
-21.0994

>  <SCORE.INTER.norm>
-0.812742

>  <SCORE.INTRA>
-0.41711

>  <SCORE.INTRA.DIHEDRAL>
-0.303663

>  <SCORE.INTRA.DIHEDRAL.0>
2.54655

>  <SCORE.INTRA.POLAR>
0

>  <SCORE.INTRA.POLAR.0>
0

>  <SCORE.INTRA.REPUL>
0

>  <SCORE.INTRA.REPUL.0>
0

>  <SCORE.INTRA.SOLV>
-0.465317

>  <SCORE.INTRA.SOLV.lig_0>
-56.4922

>  <SCORE.INTRA.VDW>
-0.03262

>  <SCORE.INTRA.VDW.0>
-0.696801

>  <SCORE.INTRA.norm>
-0.0189596

>  <SCORE.RESTR>
0.00444493

>  <SCORE.RESTR.CAVITY>
0.00444493

>  <SCORE.RESTR.norm>
0.000202042

>  <SCORE.SYSTEM>
0

>  <SCORE.SYSTEM.CONST>
0

>  <SCORE.SYSTEM.DIHEDRAL>
0

>  <SCORE.SYSTEM.SOLV>
0

>  <SCORE.SYSTEM.norm>
0

>  <SCORE.heavy>
22

>  <SCORE.norm>
-0.831499

>  <RMSD>
14.376

$$$$
ligand
 OpenBabel02271912143D
libRbt.so/2013.1/901 2013/11/27
 22 24  0  0  0  0  0  0  0  0999 V2000
    4.8015  -21.4185   34.1671 N   0  0  0  0  0  0  0  0  0  0  0  0
    6.4635  -22.8895   33.2687 N   0  0  0  0  0  0  0  0  0  0  0  0
    5.6984  -22.5334   34.3137 C   0  0  0  0  0  0  0  0  0  0  0  0
    5.7444  -23.1765   35.4739 N   0  0  0  0  0  0  0  0  0  0  0  0
   10.1588  -25.4733   35.9565 O   0  0  0  0  0  0  0  0  0  0  0  0
    6.5776  -24.2215   35.6318 C   0  0  0  0  0  0  0  0  0  0  0  0
    7.4121  -24.6189   34.5502 C   0  0  0  0  0  0  0  0  0  0  0  0
    6.6052  -24.8718   36.8451 O   0  0  0  0  0  0  0  0  0  0  0  0
    8.3383  -25.7338   34.5680 N   0  0  0  0  0  0  0  0  0  0  0  0
    8.4166  -26.5416   33.3440 C   0  0  2  0  0  0  0  0  0  0  0  0
    8.6475  -25.6688   32.1501 C   0  0  0  0  0  0  0  0  0  0  0  0
    7.3172  -23.9270   33.3687 C   0  0  0  0  0  0  0  0  0  0  0  0
    8.1287  -24.3081   32.2756 N   0  0  0  0  0  0  0  0  0  0  0  0
    7.1696  -27.4073   33.0887 C   0  0  0  0  0  0  0  0  0  0  0  0
    7.5573  -28.7623   32.7162 N   0  0  0  0  0  0  0  0  0  0  0  0
    9.1722  -29.6116   28.8727 C   0  0  0  0  0  0  0  0  0  0  0  0
    9.9051  -28.8649   29.7799 C   0  0  0  0  0  0  0  0  0  0  0  0
    9.3767  -28.5811   31.0541 C   0  0  0  0  0  0  0  0  0  0  0  0
    8.1184  -29.0485   31.4016 C   0  0  0  0  0  0  0  0  0  0  0  0
    7.3842  -29.7988   30.4878 C   0  0  0  0  0  0  0  0  0  0  0  0
    7.9108  -30.0814   29.2248 C   0  0  0  0  0  0  0  0  0  0  0  0
    9.1436  -26.0921   35.6851 C   0  0  0  0  0  0  0  0  0  0  0  0
  1  3  1  0  0  0  0
  2  3  2  0  0  0  0
  2 12  1  0  0  0  0
  3  4  1  0  0  0  0
  4  6  1  0  0  0  0
  5 22  1  0  0  0  0
  6  7  1  0  0  0  0
  6  8  2  0  0  0  0
  7 12  2  0  0  0  0
  7  9  1  0  0  0  0
  9 10  1  0  0  0  0
  9 22  1  0  0  0  0
 10 11  1  0  0  0  0
 10 14  1  6  0  0  0
 11 13  1  0  0  0  0
 12 13  1  0  0  0  0
 14 15  1  0  0  0  0
 15 19  1  0  0  0  0
 16 17  2  0  0  0  0
 16 21  1  0  0  0  0
 17 18  1  0  0  0  0
 18 19  2  0  0  0  0
 19 20  1  0  0  0  0
 20 21  2  0  0  0  0
M  END
>  <CHROM.1>
-77.87041962,-134.16637009,-73.20282887,68.49964441,7.72534220,-25.98799626
33.23002557,2.01665449,-0.89774597,1.03274192

>  <Name>
ligand

>  <RI>
0

>  <Rbt.Current_Directory>
/home/itssahil/PROJECTS/Mol_Feturizer/Test_systems_manuscript/rnas/3sd3

>  <Rbt.Executable>
rbdock ($Id: //depot/dev/client3/rdock/2013.1/src/exe/rbdock.cxx#4 $)

>  <Rbt.Library>
libRbt.so (2013.1, Build901 2013/11/27)

>  <Rbt.Parameter_File>
/export/apps/rDock/src/rDock_2013.1_src/data/scripts/dock_solv.prm

>  <Rbt.Receptor>
prm/blind_docking_80.prm

>  <SCORE>
-12.5171

>  <SCORE.INTER>
-13.0898

>  <SCORE.INTER.CONST>
1

>  <SCORE.INTER.POLAR>
0

>  <SCORE.INTER.ROT>
4

>  <SCORE.INTER.SOLV>
23.913

>  <SCORE.INTER.VDW>
-22.9642

>  <SCORE.INTER.norm>
-0.594989

>  <SCORE.INTRA>
0.572686

>  <SCORE.INTRA.DIHEDRAL>
3.79

>  <SCORE.INTRA.DIHEDRAL.0>
2.54655

>  <SCORE.INTRA.POLAR>
0

>  <SCORE.INTRA.POLAR.0>
0

>  <SCORE.INTRA.REPUL>
0

>  <SCORE.INTRA.REPUL.0>
0

>  <SCORE.INTRA.SOLV>
-0.934956

>  <SCORE.INTRA.SOLV.lig_0>
-56.4922

>  <SCORE.INTRA.VDW>
-0.854835

>  <SCORE.INTRA.VDW.0>
-0.696801

>  <SCORE.INTRA.norm>
0.0260312

>  <SCORE.RESTR>
0

>  <SCORE.RESTR.CAVITY>
0

>  <SCORE.RESTR.norm>
0

>  <SCORE.SYSTEM>
0

>  <SCORE.SYSTEM.CONST>
0

>  <SCORE.SYSTEM.DIHEDRAL>
0

>  <SCORE.SYSTEM.SOLV>
0

>  <SCORE.SYSTEM.norm>
0

>  <SCORE.heavy>
22

>  <SCORE.norm>
-0.568958

>  <RMSD>
14.378

$$$$
ligand
 OpenBabel02271912143D
libRbt.so/2013.1/901 2013/11/27
 22 24  0  0  0  0  0  0  0  0999 V2000
    2.6955  -27.9725   35.0997 N   0  0  0  0  0  0  0  0  0  0  0  0
    3.8432  -27.9256   32.9989 N   0  0  0  0  0  0  0  0  0  0  0  0
    3.8630  -27.6677   34.3170 C   0  0  0  0  0  0  0  0  0  0  0  0
    4.9234  -27.1416   34.9175 N   0  0  0  0  0  0  0  0  0  0  0  0
    7.5816  -24.5889   31.9822 O   0  0  0  0  0  0  0  0  0  0  0  0
    6.0254  -26.8482   34.2028 C   0  0  0  0  0  0  0  0  0  0  0  0
    6.0356  -27.0964   32.8018 C   0  0  0  0  0  0  0  0  0  0  0  0
    7.1118  -26.3041   34.8501 O   0  0  0  0  0  0  0  0  0  0  0  0
    7.1539  -26.8522   31.9125 N   0  0  0  0  0  0  0  0  0  0  0  0
    7.3970  -27.8596   30.8719 C   0  0  2  0  0  0  0  0  0  0  0  0
    6.1444  -28.1325   30.0994 C   0  0  0  0  0  0  0  0  0  0  0  0
    4.9170  -27.6517   32.2326 C   0  0  0  0  0  0  0  0  0  0  0  0
    4.9053  -27.9169   30.8440 N   0  0  0  0  0  0  0  0  0  0  0  0
    7.9441  -29.1931   31.4122 C   0  0  0  0  0  0  0  0  0  0  0  0
    8.4152  -30.0320   30.3171 N   0  0  0  0  0  0  0  0  0  0  0  0
   11.4394  -28.6905   27.6419 C   0  0  0  0  0  0  0  0  0  0  0  0
   11.2381  -28.0312   28.8429 C   0  0  0  0  0  0  0  0  0  0  0  0
   10.2394  -28.4707   29.7333 C   0  0  0  0  0  0  0  0  0  0  0  0
    9.4537  -29.5655   29.4065 C   0  0  0  0  0  0  0  0  0  0  0  0
    9.6584  -30.2263   28.1989 C   0  0  0  0  0  0  0  0  0  0  0  0
   10.6511  -29.7902   27.3176 C   0  0  0  0  0  0  0  0  0  0  0  0
    8.0202  -25.7267   32.0007 C   0  0  0  0  0  0  0  0  0  0  0  0
  1  3  1  0  0  0  0
  2  3  2  0  0  0  0
  2 12  1  0  0  0  0
  3  4  1  0  0  0  0
  4  6  1  0  0  0  0
  5 22  1  0  0  0  0
  6  7  1  0  0  0  0
  6  8  2  0  0  0  0
  7 12  2  0  0  0  0
  7  9  1  0  0  0  0
  9 10  1  0  0  0  0
  9 22  1  0  0  0  0
 10 11  1  0  0  0  0
 10 14  1  1  0  0  0
 11 13  1  0  0  0  0
 12 13  1  0  0  0  0
 14 15  1  0  0  0  0
 15 19  1  0  0  0  0
 16 17  2  0  0  0  0
 16 21  1  0  0  0  0
 17 18  1  0  0  0  0
 18 19  2  0  0  0  0
 19 20  1  0  0  0  0
 20 21  2  0  0  0  0
M  END
>  <CHROM.1>
-55.11693454,-168.33432367,58.16670097,15.54406410,7.18286849,-27.82640677
31.55088431,2.47199925,0.48112147,0.70202758

>  <Name>
ligand

>  <RI>
0

>  <Rbt.Current_Directory>
/home/itssahil/PROJECTS/Mol_Feturizer/Test_systems_manuscript/rnas/3sd3

>  <Rbt.Executable>
rbdock ($Id: //depot/dev/client3/rdock/2013.1/src/exe/rbdock.cxx#4 $)

>  <Rbt.Library>
libRbt.so (2013.1, Build901 2013/11/27)

>  <Rbt.Parameter_File>
/export/apps/rDock/src/rDock_2013.1_src/data/scripts/dock_solv.prm

>  <Rbt.Receptor>
prm/blind_docking_100.prm

>  <SCORE>
-18.2013

>  <SCORE.INTER>
-17.5357

>  <SCORE.INTER.CONST>
1

>  <SCORE.INTER.POLAR>
0

>  <SCORE.INTER.ROT>
4

>  <SCORE.INTER.SOLV>
10.1565

>  <SCORE.INTER.VDW>
-21.3426

>  <SCORE.INTER.norm>
-0.797078

>  <SCORE.INTRA>
-0.665593

>  <SCORE.INTRA.DIHEDRAL>
-0.431942

>  <SCORE.INTRA.DIHEDRAL.0>
2.54655

>  <SCORE.INTRA.POLAR>
0

>  <SCORE.INTRA.POLAR.0>
0

>  <SCORE.INTRA.REPUL>
0

>  <SCORE.INTRA.REPUL.0>
0

>  <SCORE.INTRA.SOLV>
-0.679287

>  <SCORE.INTRA.SOLV.lig_0>
-56.4922

>  <SCORE.INTRA.VDW>
-0.109978

>  <SCORE.INTRA.VDW.0>
-0.696801

>  <SCORE.INTRA.norm>
-0.0302542

>  <SCORE.RESTR>
0

>  <SCORE.RESTR.CAVITY>
0

>  <SCORE.RESTR.norm>
0

>  <SCORE.SYSTEM>
0

>  <SCORE.SYSTEM.CONST>
0

>  <SCORE.SYSTEM.DIHEDRAL>
0

>  <SCORE.SYSTEM.SOLV>
0

>  <SCORE.SYSTEM.norm>
0

>  <SCORE.heavy>
22

>  <SCORE.norm>
-0.827332

>  <RMSD>
14.459

$$$$
ligand
 OpenBabel02271912143D
libRbt.so/2013.1/901 2013/11/27
 22 24  0  0  0  0  0  0  0  0999 V2000
    6.4221  -23.9621   38.0120 N   0  0  0  0  0  0  0  0  0  0  0  0
    5.6431  -24.8943   35.9487 N   0  0  0  0  0  0  0  0  0  0  0  0
    6.6574  -24.3628   36.6508 C   0  0  0  0  0  0  0  0  0  0  0  0
    7.8664  -24.1964   36.1288 N   0  0  0  0  0  0  0  0  0  0  0  0
    9.0871  -25.2659   31.4696 O   0  0  0  0  0  0  0  0  0  0  0  0
    8.1068  -24.5638   34.8567 C   0  0  0  0  0  0  0  0  0  0  0  0
    7.0524  -25.1188   34.0789 C   0  0  0  0  0  0  0  0  0  0  0  0
    9.3697  -24.3812   34.3397 O   0  0  0  0  0  0  0  0  0  0  0  0
    7.1696  -25.5777   32.7090 N   0  0  0  0  0  0  0  0  0  0  0  0
    6.4492  -26.8108   32.3661 C   0  0  2  0  0  0  0  0  0  0  0  0
    5.0143  -26.7161   32.7815 C   0  0  0  0  0  0  0  0  0  0  0  0
    5.8245  -25.2795   34.6704 C   0  0  0  0  0  0  0  0  0  0  0  0
    4.7628  -25.8374   33.9221 N   0  0  0  0  0  0  0  0  0  0  0  0
    7.0596  -28.0809   32.9856 C   0  0  0  0  0  0  0  0  0  0  0  0
    8.3882  -28.3270   32.4385 N   0  0  0  0  0  0  0  0  0  0  0  0
    8.9115  -29.9664   28.5475 C   0  0  0  0  0  0  0  0  0  0  0  0
    7.7336  -30.1931   29.2394 C   0  0  0  0  0  0  0  0  0  0  0  0
    7.5537  -29.6525   30.5273 C   0  0  0  0  0  0  0  0  0  0  0  0
    8.5589  -28.8925   31.1058 C   0  0  0  0  0  0  0  0  0  0  0  0
    9.7416  -28.6663   30.4079 C   0  0  0  0  0  0  0  0  0  0  0  0
    9.9177  -29.2015   29.1294 C   0  0  0  0  0  0  0  0  0  0  0  0
    7.9400  -24.9257   31.7059 C   0  0  0  0  0  0  0  0  0  0  0  0
  1  3  1  0  0  0  0
  2  3  2  0  0  0  0
  2 12  1  0  0  0  0
  3  4  1  0  0  0  0
  4  6  1  0  0  0  0
  5 22  1  0  0  0  0
  6  7  1  0  0  0  0
  6  8  2  0  0  0  0
  7 12  2  0  0  0  0
  7  9  1  0  0  0  0
  9 10  1  0  0  0  0
  9 22  1  0  0  0  0
 10 11  1  0  0  0  0
 10 14  1  1  0  0  0
 11 13  1  0  0  0  0
 12 13  1  0  0  0  0
 14 15  1  0  0  0  0
 15 19  1  0  0  0  0
 16 17  2  0  0  0  0
 16 21  1  0  0  0  0
 17 18  1  0  0  0  0
 18 19  2  0  0  0  0
 19 20  1  0  0  0  0
 20 21  2  0  0  0  0
M  END
>  <CHROM.1>
94.45015045,-65.23232142,-76.92564996,-23.97110115,7.50345836,-26.49140434
32.97951474,1.83894009,0.37798265,0.80434215

>  <Name>
ligand

>  <RI>
0

>  <Rbt.Current_Directory>
/home/itssahil/PROJECTS/Mol_Feturizer/Test_systems_manuscript/rnas/3sd3

>  <Rbt.Executable>
rbdock ($Id: //depot/dev/client3/rdock/2013.1/src/exe/rbdock.cxx#4 $)

>  <Rbt.Library>
libRbt.so (2013.1, Build901 2013/11/27)

>  <Rbt.Parameter_File>
/export/apps/rDock/src/rDock_2013.1_src/data/scripts/dock_solv.prm

>  <Rbt.Receptor>
prm/blind_docking_80.prm

>  <SCORE>
-16.521

>  <SCORE.INTER>
-15.4711

>  <SCORE.INTER.CONST>
1

>  <SCORE.INTER.POLAR>
0

>  <SCORE.INTER.ROT>
4

>  <SCORE.INTER.SOLV>
8.43997

>  <SCORE.INTER.VDW>
-19.394

>  <SCORE.INTER.norm>
-0.70323

>  <SCORE.INTRA>
-1.04999

>  <SCORE.INTRA.DIHEDRAL>
-0.626558

>  <SCORE.INTRA.DIHEDRAL.0>
2.54655

>  <SCORE.INTRA.POLAR>
0

>  <SCORE.INTRA.POLAR.0>
0

>  <SCORE.INTRA.REPUL>
0

>  <SCORE.INTRA.REPUL.0>
0

>  <SCORE.INTRA.SOLV>
0.585387

>  <SCORE.INTRA.SOLV.lig_0>
-56.4922

>  <SCORE.INTRA.VDW>
-1.0294

>  <SCORE.INTRA.VDW.0>
-0.696801

>  <SCORE.INTRA.norm>
-0.0477267

>  <SCORE.RESTR>
0

>  <SCORE.RESTR.CAVITY>
0

>  <SCORE.RESTR.norm>
0

>  <SCORE.SYSTEM>
0

>  <SCORE.SYSTEM.CONST>
0

>  <SCORE.SYSTEM.DIHEDRAL>
0

>  <SCORE.SYSTEM.SOLV>
0

>  <SCORE.SYSTEM.norm>
0

>  <SCORE.heavy>
22

>  <SCORE.norm>
-0.750956

>  <RMSD>
14.664

$$$$
ligand
 OpenBabel02271912143D
libRbt.so/2013.1/901 2013/11/27
 22 24  0  0  0  0  0  0  0  0999 V2000
    6.5260  -23.9931   38.1270 N   0  0  0  0  0  0  0  0  0  0  0  0
    5.9359  -24.7791   35.9437 N   0  0  0  0  0  0  0  0  0  0  0  0
    6.9023  -24.4878   36.8299 C   0  0  0  0  0  0  0  0  0  0  0  0
    8.1898  -24.6417   36.5464 N   0  0  0  0  0  0  0  0  0  0  0  0
    9.4922  -24.4796   32.4107 O   0  0  0  0  0  0  0  0  0  0  0  0
    8.5627  -25.1022   35.3380 C   0  0  0  0  0  0  0  0  0  0  0  0
    7.5664  -25.4091   34.3698 C   0  0  0  0  0  0  0  0  0  0  0  0
    9.9047  -25.2534   35.0698 O   0  0  0  0  0  0  0  0  0  0  0  0
    7.8175  -25.9315   33.0412 N   0  0  0  0  0  0  0  0  0  0  0  0
    6.8906  -26.9618   32.5551 C   0  0  2  0  0  0  0  0  0  0  0  0
    5.4725  -26.5034   32.6944 C   0  0  0  0  0  0  0  0  0  0  0  0
    6.2494  -25.2426   34.7181 C   0  0  0  0  0  0  0  0  0  0  0  0
    5.2399  -25.5496   33.7772 N   0  0  0  0  0  0  0  0  0  0  0  0
    7.0422  -28.3198   33.2640 C   0  0  0  0  0  0  0  0  0  0  0  0
    8.2433  -29.0047   32.8020 N   0  0  0  0  0  0  0  0  0  0  0  0
    8.8858  -29.7264   28.6586 C   0  0  0  0  0  0  0  0  0  0  0  0
    9.7693  -28.9280   29.3654 C   0  0  0  0  0  0  0  0  0  0  0  0
    9.5629  -28.6860   30.7373 C   0  0  0  0  0  0  0  0  0  0  0  0
    8.4712  -29.2466   31.3827 C   0  0  0  0  0  0  0  0  0  0  0  0
    7.5850  -30.0487   30.6697 C   0  0  0  0  0  0  0  0  0  0  0  0
    7.7924  -30.2896   29.3092 C   0  0  0  0  0  0  0  0  0  0  0  0
    8.8971  -25.5247   32.2082 C   0  0  0  0  0  0  0  0  0  0  0  0
  1  3  1  0  0  0  0
  2  3  2  0  0  0  0
  2 12  1  0  0  0  0
  3  4  1  0  0  0  0
  4  6  1  0  0  0  0
  5 22  1  0  0  0  0
  6  7  1  0  0  0  0
  6  8  2  0  0  0  0
  7 12  2  0  0  0  0
  7  9  1  0  0  0  0
  9 10  1  0  0  0  0
  9 22  1  0  0  0  0
 10 11  1  0  0  0  0
 10 14  1  1  0  0  0
 11 13  1  0  0  0  0
 12 13  1  0  0  0  0
 14 15  1  0  0  0  0
 15 19  1  0  0  0  0
 16 17  2  0  0  0  0
 16 21  1  0  0  0  0
 17 18  1  0  0  0  0
 18 19  2  0  0  0  0
 19 20  1  0  0  0  0
 20 21  2  0  0  0  0
M  END
>  <CHROM.1>
-18.54978856,-74.64366726,-54.45862624,117.78867016,7.77709926,-26.63848464
33.25430359,1.76114857,0.31414745,0.84356155

>  <Name>
ligand

>  <RI>
0

>  <Rbt.Current_Directory>
/home/itssahil/PROJECTS/Mol_Feturizer/Test_systems_manuscript/rnas/3sd3

>  <Rbt.Executable>
rbdock ($Id: //depot/dev/client3/rdock/2013.1/src/exe/rbdock.cxx#4 $)

>  <Rbt.Library>
libRbt.so (2013.1, Build901 2013/11/27)

>  <Rbt.Parameter_File>
/export/apps/rDock/src/rDock_2013.1_src/data/scripts/dock_solv.prm

>  <Rbt.Receptor>
prm/blind_docking_80.prm

>  <SCORE>
-16.0824

>  <SCORE.INTER>
-14.8596

>  <SCORE.INTER.CONST>
1

>  <SCORE.INTER.POLAR>
0

>  <SCORE.INTER.ROT>
4

>  <SCORE.INTER.SOLV>
10.5919

>  <SCORE.INTER.VDW>
-19.7037

>  <SCORE.INTER.norm>
-0.675437

>  <SCORE.INTRA>
-1.25418

>  <SCORE.INTRA.DIHEDRAL>
-0.196464

>  <SCORE.INTRA.DIHEDRAL.0>
2.54655

>  <SCORE.INTRA.POLAR>
0

>  <SCORE.INTRA.POLAR.0>
0

>  <SCORE.INTRA.REPUL>
0

>  <SCORE.INTRA.REPUL.0>
0

>  <SCORE.INTRA.SOLV>
-0.1576

>  <SCORE.INTRA.SOLV.lig_0>
-56.4922

>  <SCORE.INTRA.VDW>
-1.07715

>  <SCORE.INTRA.VDW.0>
-0.696801

>  <SCORE.INTRA.norm>
-0.0570084

>  <SCORE.RESTR>
0.03142

>  <SCORE.RESTR.CAVITY>
0.03142

>  <SCORE.RESTR.norm>
0.00142818

>  <SCORE.SYSTEM>
0

>  <SCORE.SYSTEM.CONST>
0

>  <SCORE.SYSTEM.DIHEDRAL>
0

>  <SCORE.SYSTEM.SOLV>
0

>  <SCORE.SYSTEM.norm>
0

>  <SCORE.heavy>
22

>  <SCORE.norm>
-0.731018

>  <RMSD>
14.673

$$$$
ligand
 OpenBabel02271912143D
libRbt.so/2013.1/901 2013/11/27
 22 24  0  0  0  0  0  0  0  0999 V2000
   10.4388  -18.8762   35.6978 N   0  0  0  0  0  0  0  0  0  0  0  0
   10.1799  -21.2494   35.8824 N   0  0  0  0  0  0  0  0  0  0  0  0
    9.6090  -20.0509   35.6779 C   0  0  0  0  0  0  0  0  0  0  0  0
    8.3067  -19.9175   35.4589 N   0  0  0  0  0  0  0  0  0  0  0  0
    5.0793  -23.8358   35.4455 O   0  0  0  0  0  0  0  0  0  0  0  0
    7.5129  -21.0040   35.4374 C   0  0  0  0  0  0  0  0  0  0  0  0
    8.0813  -22.2888   35.6628 C   0  0  0  0  0  0  0  0  0  0  0  0
    6.1656  -20.8381   35.2073 O   0  0  0  0  0  0  0  0  0  0  0  0
    7.3562  -23.5438   35.6473 N   0  0  0  0  0  0  0  0  0  0  0  0
    8.0337  -24.6855   35.0192 C   0  0  2  0  0  0  0  0  0  0  0  0
    9.4059  -24.8634   35.5900 C   0  0  0  0  0  0  0  0  0  0  0  0
    9.4349  -22.3720   35.8733 C   0  0  0  0  0  0  0  0  0  0  0  0
   10.0257  -23.6379   36.0902 N   0  0  0  0  0  0  0  0  0  0  0  0
    8.1464  -24.5768   33.4878 C   0  0  0  0  0  0  0  0  0  0  0  0
    7.1498  -25.4224   32.8422 N   0  0  0  0  0  0  0  0  0  0  0  0
    7.9909  -29.4981   31.9578 C   0  0  0  0  0  0  0  0  0  0  0  0
    7.6545  -28.6253   30.9366 C   0  0  0  0  0  0  0  0  0  0  0  0
    7.3759  -27.2748   31.2225 C   0  0  0  0  0  0  0  0  0  0  0  0
    7.4364  -26.8171   32.5300 C   0  0  0  0  0  0  0  0  0  0  0  0
    7.7750  -27.6966   33.5542 C   0  0  0  0  0  0  0  0  0  0  0  0
    8.0532  -29.0357   33.2686 C   0  0  0  0  0  0  0  0  0  0  0  0
    6.0480  -23.7229   36.1778 C   0  0  0  0  0  0  0  0  0  0  0  0
  1  3  1  0  0  0  0
  2  3  2  0  0  0  0
  2 12  1  0  0  0  0
  3  4  1  0  0  0  0
  4  6  1  0  0  0  0
  5 22  1  0  0  0  0
  6  7  1  0  0  0  0
  6  8  2  0  0  0  0
  7 12  2  0  0  0  0
  7  9  1  0  0  0  0
  9 10  1  0  0  0  0
  9 22  1  0  0  0  0
 10 11  1  0  0  0  0
 10 14  1  6  0  0  0
 11 13  1  0  0  0  0
 12 13  1  0  0  0  0
 14 15  1  0  0  0  0
 15 19  1  0  0  0  0
 16 17  2  0  0  0  0
 16 21  1  0  0  0  0
 17 18  1  0  0  0  0
 18 19  2  0  0  0  0
 19 20  1  0  0  0  0
 20 21  2  0  0  0  0
M  END
>  <CHROM.1>
105.72113350,-102.36937738,-88.55108683,-120.70011007,8.02158487,-23.96265048
34.55452449,-1.43173190,-0.02266896,-2.70386856

>  <Name>
ligand

>  <RI>
0

>  <Rbt.Current_Directory>
/home/itssahil/PROJECTS/Mol_Feturizer/Test_systems_manuscript/rnas/3sd3

>  <Rbt.Executable>
rbdock ($Id: //depot/dev/client3/rdock/2013.1/src/exe/rbdock.cxx#4 $)

>  <Rbt.Library>
libRbt.so (2013.1, Build901 2013/11/27)

>  <Rbt.Parameter_File>
/export/apps/rDock/src/rDock_2013.1_src/data/scripts/dock_solv.prm

>  <Rbt.Receptor>
prm/blind_docking_60.prm

>  <SCORE>
-11.5273

>  <SCORE.INTER>
-12.4069

>  <SCORE.INTER.CONST>
1

>  <SCORE.INTER.POLAR>
0

>  <SCORE.INTER.ROT>
4

>  <SCORE.INTER.SOLV>
12.098

>  <SCORE.INTER.VDW>
-18.5706

>  <SCORE.INTER.norm>
-0.563948

>  <SCORE.INTRA>
0.879522

>  <SCORE.INTRA.DIHEDRAL>
3.78184

>  <SCORE.INTRA.DIHEDRAL.0>
2.54655

>  <SCORE.INTRA.POLAR>
0

>  <SCORE.INTRA.POLAR.0>
0

>  <SCORE.INTRA.REPUL>
0

>  <SCORE.INTRA.REPUL.0>
0

>  <SCORE.INTRA.SOLV>
-0.142021

>  <SCORE.INTRA.SOLV.lig_0>
-56.4922

>  <SCORE.INTRA.VDW>
-0.940389

>  <SCORE.INTRA.VDW.0>
-0.696801

>  <SCORE.INTRA.norm>
0.0399783

>  <SCORE.RESTR>
0

>  <SCORE.RESTR.CAVITY>
0

>  <SCORE.RESTR.norm>
0

>  <SCORE.SYSTEM>
0

>  <SCORE.SYSTEM.CONST>
0

>  <SCORE.SYSTEM.DIHEDRAL>
0

>  <SCORE.SYSTEM.SOLV>
0

>  <SCORE.SYSTEM.norm>
0

>  <SCORE.heavy>
22

>  <SCORE.norm>
-0.52397

>  <RMSD>
14.697

$$$$
ligand
 OpenBabel02271912143D
libRbt.so/2013.1/901 2013/11/27
 22 24  0  0  0  0  0  0  0  0999 V2000
    9.6101  -19.3967   36.0737 N   0  0  0  0  0  0  0  0  0  0  0  0
    9.5724  -21.7906   36.0425 N   0  0  0  0  0  0  0  0  0  0  0  0
    8.9592  -20.6348   35.7386 C   0  0  0  0  0  0  0  0  0  0  0  0
    7.7748  -20.6001   35.1405 N   0  0  0  0  0  0  0  0  0  0  0  0
    5.2577  -24.6182   36.0018 O   0  0  0  0  0  0  0  0  0  0  0  0
    7.1487  -21.7474   34.8197 C   0  0  0  0  0  0  0  0  0  0  0  0
    7.7629  -22.9907   35.1379 C   0  0  0  0  0  0  0  0  0  0  0  0
    5.9213  -21.6834   34.1991 O   0  0  0  0  0  0  0  0  0  0  0  0
    7.2189  -24.2996   34.8345 N   0  0  0  0  0  0  0  0  0  0  0  0
    8.1747  -25.3188   34.3823 C   0  0  2  0  0  0  0  0  0  0  0  0
    9.3257  -25.4213   35.3337 C   0  0  0  0  0  0  0  0  0  0  0  0
    8.9930  -22.9704   35.7462 C   0  0  0  0  0  0  0  0  0  0  0  0
    9.6288  -24.1923   36.0643 N   0  0  0  0  0  0  0  0  0  0  0  0
    8.7254  -25.0710   32.9663 C   0  0  0  0  0  0  0  0  0  0  0  0
    7.6607  -25.1888   31.9776 N   0  0  0  0  0  0  0  0  0  0  0  0
    6.6374  -28.9448   30.2610 C   0  0  0  0  0  0  0  0  0  0  0  0
    7.8435  -28.7948   30.9247 C   0  0  0  0  0  0  0  0  0  0  0  0
    8.1878  -27.5544   31.4959 C   0  0  0  0  0  0  0  0  0  0  0  0
    7.3182  -26.4793   31.3925 C   0  0  0  0  0  0  0  0  0  0  0  0
    6.1067  -26.6332   30.7251 C   0  0  0  0  0  0  0  0  0  0  0  0
    5.7656  -27.8651   30.1607 C   0  0  0  0  0  0  0  0  0  0  0  0
    5.8404  -24.6391   34.9306 C   0  0  0  0  0  0  0  0  0  0  0  0
  1  3  1  0  0  0  0
  2  3  2  0  0  0  0
  2 12  1  0  0  0  0
  3  4  1  0  0  0  0
  4  6  1  0  0  0  0
  5 22  1  0  0  0  0
  6  7  1  0  0  0  0
  6  8  2  0  0  0  0
  7 12  2  0  0  0  0
  7  9  1  0  0  0  0
  9 10  1  0  0  0  0
  9 22  1  0  0  0  0
 10 11  1  0  0  0  0
 10 14  1  6  0  0  0
 11 13  1  0  0  0  0
 12 13  1  0  0  0  0
 14 15  1  0  0  0  0
 15 19  1  0  0  0  0
 16 17  2  0  0  0  0
 16 21  1  0  0  0  0
 17 18  1  0  0  0  0
 18 19  2  0  0  0  0
 19 20  1  0  0  0  0
 20 21  2  0  0  0  0
M  END
>  <CHROM.1>
-63.70548714,-65.76486670,-87.31740100,-16.19455711,7.68680718,-24.30886254
33.93146853,-1.37548247,0.29306023,-2.55721579

>  <Name>
ligand

>  <RI>
0

>  <Rbt.Current_Directory>
/home/itssahil/PROJECTS/Mol_Feturizer/Test_systems_manuscript/rnas/3sd3

>  <Rbt.Executable>
rbdock ($Id: //depot/dev/client3/rdock/2013.1/src/exe/rbdock.cxx#4 $)

>  <Rbt.Library>
libRbt.so (2013.1, Build901 2013/11/27)

>  <Rbt.Parameter_File>
/export/apps/rDock/src/rDock_2013.1_src/data/scripts/dock_solv.prm

>  <Rbt.Receptor>
prm/blind_docking_80.prm

>  <SCORE>
-15.9019

>  <SCORE.INTER>
-15.0949

>  <SCORE.INTER.CONST>
1

>  <SCORE.INTER.POLAR>
0

>  <SCORE.INTER.ROT>
4

>  <SCORE.INTER.SOLV>
11.2886

>  <SCORE.INTER.VDW>
-20.0928

>  <SCORE.INTER.norm>
-0.686131

>  <SCORE.INTRA>
-0.807001

>  <SCORE.INTRA.DIHEDRAL>
-0.27926

>  <SCORE.INTRA.DIHEDRAL.0>
2.54655

>  <SCORE.INTRA.POLAR>
0

>  <SCORE.INTRA.POLAR.0>
0

>  <SCORE.INTRA.REPUL>
0

>  <SCORE.INTRA.REPUL.0>
0

>  <SCORE.INTRA.SOLV>
-0.268747

>  <SCORE.INTRA.SOLV.lig_0>
-56.4922

>  <SCORE.INTRA.VDW>
-0.532997

>  <SCORE.INTRA.VDW.0>
-0.696801

>  <SCORE.INTRA.norm>
-0.0366819

>  <SCORE.RESTR>
0

>  <SCORE.RESTR.CAVITY>
0

>  <SCORE.RESTR.norm>
0

>  <SCORE.SYSTEM>
0

>  <SCORE.SYSTEM.CONST>
0

>  <SCORE.SYSTEM.DIHEDRAL>
0

>  <SCORE.SYSTEM.SOLV>
0

>  <SCORE.SYSTEM.norm>
0

>  <SCORE.heavy>
22

>  <SCORE.norm>
-0.722812

>  <RMSD>
14.707

$$$$
ligand
 OpenBabel02271912143D
libRbt.so/2013.1/901 2013/11/27
 22 24  0  0  0  0  0  0  0  0999 V2000
   10.0583  -20.0065   35.9061 N   0  0  0  0  0  0  0  0  0  0  0  0
    9.6127  -22.3567   35.8009 N   0  0  0  0  0  0  0  0  0  0  0  0
    9.1855  -21.1024   35.5806 C   0  0  0  0  0  0  0  0  0  0  0  0
    7.9864  -20.8439   35.0735 N   0  0  0  0  0  0  0  0  0  0  0  0
    4.9182  -25.1118   35.8176 O   0  0  0  0  0  0  0  0  0  0  0  0
    7.1544  -21.8551   34.7632 C   0  0  0  0  0  0  0  0  0  0  0  0
    7.5686  -23.1965   34.9950 C   0  0  0  0  0  0  0  0  0  0  0  0
    5.9166  -21.5597   34.2377 O   0  0  0  0  0  0  0  0  0  0  0  0
    6.7910  -24.3813   34.6909 N   0  0  0  0  0  0  0  0  0  0  0  0
    7.5270  -25.5250   34.1366 C   0  0  2  0  0  0  0  0  0  0  0  0
    8.7055  -25.8603   34.9962 C   0  0  0  0  0  0  0  0  0  0  0  0
    8.8226  -23.4088   35.5108 C   0  0  0  0  0  0  0  0  0  0  0  0
    9.2617  -24.7326   35.7414 N   0  0  0  0  0  0  0  0  0  0  0  0
    8.0146  -25.3104   32.6923 C   0  0  0  0  0  0  0  0  0  0  0  0
    8.7409  -26.4828   32.2201 N   0  0  0  0  0  0  0  0  0  0  0  0
    6.7604  -29.4981   29.9646 C   0  0  0  0  0  0  0  0  0  0  0  0
    8.0749  -29.6826   30.3591 C   0  0  0  0  0  0  0  0  0  0  0  0
    8.7359  -28.6888   31.1067 C   0  0  0  0  0  0  0  0  0  0  0  0
    8.0701  -27.5212   31.4476 C   0  0  0  0  0  0  0  0  0  0  0  0
    6.7489  -27.3388   31.0498 C   0  0  0  0  0  0  0  0  0  0  0  0
    6.0939  -28.3267   30.3100 C   0  0  0  0  0  0  0  0  0  0  0  0
    5.3845  -24.4897   34.8780 C   0  0  0  0  0  0  0  0  0  0  0  0
  1  3  1  0  0  0  0
  2  3  2  0  0  0  0
  2 12  1  0  0  0  0
  3  4  1  0  0  0  0
  4  6  1  0  0  0  0
  5 22  1  0  0  0  0
  6  7  1  0  0  0  0
  6  8  2  0  0  0  0
  7 12  2  0  0  0  0
  7  9  1  0  0  0  0
  9 10  1  0  0  0  0
  9 22  1  0  0  0  0
 10 11  1  0  0  0  0
 10 14  1  6  0  0  0
 11 13  1  0  0  0  0
 12 13  1  0  0  0  0
 14 15  1  0  0  0  0
 15 19  1  0  0  0  0
 16 17  2  0  0  0  0
 16 21  1  0  0  0  0
 17 18  1  0  0  0  0
 18 19  2  0  0  0  0
 19 20  1  0  0  0  0
 20 21  2  0  0  0  0
M  END
>  <CHROM.1>
-103.75731235,179.62276069,95.13732842,-174.10727868,7.70303788,-24.77188956
33.79259794,-1.46564731,-0.06343289,-2.53782316

>  <Name>
ligand

>  <RI>
0

>  <Rbt.Current_Directory>
/home/itssahil/PROJECTS/Mol_Feturizer/Test_systems_manuscript/rnas/3sd3

>  <Rbt.Executable>
rbdock ($Id: //depot/dev/client3/rdock/2013.1/src/exe/rbdock.cxx#4 $)

>  <Rbt.Library>
libRbt.so (2013.1, Build901 2013/11/27)

>  <Rbt.Parameter_File>
/export/apps/rDock/src/rDock_2013.1_src/data/scripts/dock_solv.prm

>  <Rbt.Receptor>
prm/blind_docking_80.prm

>  <SCORE>
-15.7561

>  <SCORE.INTER>
-15.7313

>  <SCORE.INTER.CONST>
1

>  <SCORE.INTER.POLAR>
0

>  <SCORE.INTER.ROT>
4

>  <SCORE.INTER.SOLV>
11.6919

>  <SCORE.INTER.VDW>
-20.6515

>  <SCORE.INTER.norm>
-0.71506

>  <SCORE.INTRA>
-0.0247779

>  <SCORE.INTRA.DIHEDRAL>
-0.129895

>  <SCORE.INTRA.DIHEDRAL.0>
2.54655

>  <SCORE.INTRA.POLAR>
0

>  <SCORE.INTRA.POLAR.0>
0

>  <SCORE.INTRA.REPUL>
0

>  <SCORE.INTRA.REPUL.0>
0

>  <SCORE.INTRA.SOLV>
-0.631272

>  <SCORE.INTRA.SOLV.lig_0>
-56.4922

>  <SCORE.INTRA.VDW>
0.355805

>  <SCORE.INTRA.VDW.0>
-0.696801

>  <SCORE.INTRA.norm>
-0.00112627

>  <SCORE.RESTR>
0

>  <SCORE.RESTR.CAVITY>
0

>  <SCORE.RESTR.norm>
0

>  <SCORE.SYSTEM>
0

>  <SCORE.SYSTEM.CONST>
0

>  <SCORE.SYSTEM.DIHEDRAL>
0

>  <SCORE.SYSTEM.SOLV>
0

>  <SCORE.SYSTEM.norm>
0

>  <SCORE.heavy>
22

>  <SCORE.norm>
-0.716187

>  <RMSD>
14.713

$$$$
ligand
 OpenBabel02271912143D
libRbt.so/2013.1/901 2013/11/27
 22 24  0  0  0  0  0  0  0  0999 V2000
   10.0737  -20.0389   35.8143 N   0  0  0  0  0  0  0  0  0  0  0  0
    9.6004  -22.3852   35.7523 N   0  0  0  0  0  0  0  0  0  0  0  0
    9.1866  -21.1301   35.5124 C   0  0  0  0  0  0  0  0  0  0  0  0
    7.9878  -20.8665   35.0072 N   0  0  0  0  0  0  0  0  0  0  0  0
    4.7562  -23.7024   35.6173 O   0  0  0  0  0  0  0  0  0  0  0  0
    7.1425  -21.8732   34.7188 C   0  0  0  0  0  0  0  0  0  0  0  0
    7.5425  -23.2150   34.9717 C   0  0  0  0  0  0  0  0  0  0  0  0
    5.9053  -21.5725   34.1948 O   0  0  0  0  0  0  0  0  0  0  0  0
    6.7496  -24.3959   34.6923 N   0  0  0  0  0  0  0  0  0  0  0  0
    7.4694  -25.5574   34.1541 C   0  0  2  0  0  0  0  0  0  0  0  0
    8.6487  -25.8915   35.0133 C   0  0  0  0  0  0  0  0  0  0  0  0
    8.7968  -23.4330   35.4845 C   0  0  0  0  0  0  0  0  0  0  0  0
    9.2218  -24.7576   35.7358 N   0  0  0  0  0  0  0  0  0  0  0  0
    7.9517  -25.3735   32.7038 C   0  0  0  0  0  0  0  0  0  0  0  0
    8.6500  -26.5675   32.2436 N   0  0  0  0  0  0  0  0  0  0  0  0
    6.6227  -29.5131   29.9381 C   0  0  0  0  0  0  0  0  0  0  0  0
    7.8992  -29.7654   30.4119 C   0  0  0  0  0  0  0  0  0  0  0  0
    8.5754  -28.7950   31.1764 C   0  0  0  0  0  0  0  0  0  0  0  0
    7.9628  -27.5825   31.4546 C   0  0  0  0  0  0  0  0  0  0  0  0
    6.6797  -27.3319   30.9772 C   0  0  0  0  0  0  0  0  0  0  0  0
    6.0094  -28.2965   30.2207 C   0  0  0  0  0  0  0  0  0  0  0  0
    5.3431  -24.4847   34.8885 C   0  0  0  0  0  0  0  0  0  0  0  0
  1  3  1  0  0  0  0
  2  3  2  0  0  0  0
  2 12  1  0  0  0  0
  3  4  1  0  0  0  0
  4  6  1  0  0  0  0
  5 22  1  0  0  0  0
  6  7  1  0  0  0  0
  6  8  2  0  0  0  0
  7 12  2  0  0  0  0
  7  9  1  0  0  0  0
  9 10  1  0  0  0  0
  9 22  1  0  0  0  0
 10 11  1  0  0  0  0
 10 14  1  6  0  0  0
 11 13  1  0  0  0  0
 12 13  1  0  0  0  0
 14 15  1  0  0  0  0
 15 19  1  0  0  0  0
 16 17  2  0  0  0  0
 16 21  1  0  0  0  0
 17 18  1  0  0  0  0
 18 19  2  0  0  0  0
 19 20  1  0  0  0  0
 20 21  2  0  0  0  0
M  END
>  <CHROM.1>
-19.04477271,-179.80107782,97.07496602,-171.12858214,7.64223289,-24.72397567
33.76377021,-1.47074801,0.07611718,-2.55553401

>  <Name>
ligand

>  <RI>
0

>  <Rbt.Current_Directory>
/home/itssahil/PROJECTS/Mol_Feturizer/Test_systems_manuscript/rnas/3sd3

>  <Rbt.Executable>
rbdock ($Id: //depot/dev/client3/rdock/2013.1/src/exe/rbdock.cxx#4 $)

>  <Rbt.Library>
libRbt.so (2013.1, Build901 2013/11/27)

>  <Rbt.Parameter_File>
/export/apps/rDock/src/rDock_2013.1_src/data/scripts/dock_solv.prm

>  <Rbt.Receptor>
prm/blind_docking_100.prm

>  <SCORE>
-15.8625

>  <SCORE.INTER>
-15.9521

>  <SCORE.INTER.CONST>
1

>  <SCORE.INTER.POLAR>
0

>  <SCORE.INTER.ROT>
4

>  <SCORE.INTER.SOLV>
11.9131

>  <SCORE.INTER.VDW>
-20.8725

>  <SCORE.INTER.norm>
-0.725097

>  <SCORE.INTRA>
0.0895757

>  <SCORE.INTRA.DIHEDRAL>
-0.116576

>  <SCORE.INTRA.DIHEDRAL.0>
2.54655

>  <SCORE.INTRA.POLAR>
0

>  <SCORE.INTRA.POLAR.0>
0

>  <SCORE.INTRA.REPUL>
0

>  <SCORE.INTRA.REPUL.0>
0

>  <SCORE.INTRA.SOLV>
-0.371628

>  <SCORE.INTRA.SOLV.lig_0>
-56.4922

>  <SCORE.INTRA.VDW>
0.333678

>  <SCORE.INTRA.VDW.0>
-0.696801

>  <SCORE.INTRA.norm>
0.00407162

>  <SCORE.RESTR>
0

>  <SCORE.RESTR.CAVITY>
0

>  <SCORE.RESTR.norm>
0

>  <SCORE.SYSTEM>
0

>  <SCORE.SYSTEM.CONST>
0

>  <SCORE.SYSTEM.DIHEDRAL>
0

>  <SCORE.SYSTEM.SOLV>
0

>  <SCORE.SYSTEM.norm>
0

>  <SCORE.heavy>
22

>  <SCORE.norm>
-0.721025

>  <RMSD>
14.733

$$$$
ligand
 OpenBabel02271912143D
libRbt.so/2013.1/901 2013/11/27
 22 24  0  0  0  0  0  0  0  0999 V2000
   10.0659  -19.7495   35.7350 N   0  0  0  0  0  0  0  0  0  0  0  0
    9.7668  -22.1217   35.8622 N   0  0  0  0  0  0  0  0  0  0  0  0
    9.2714  -20.9259   35.5034 C   0  0  0  0  0  0  0  0  0  0  0  0
    8.0748  -20.7967   34.9436 N   0  0  0  0  0  0  0  0  0  0  0  0
    5.0774  -23.9501   35.8806 O   0  0  0  0  0  0  0  0  0  0  0  0
    7.3154  -21.8849   34.7194 C   0  0  0  0  0  0  0  0  0  0  0  0
    7.8029  -23.1668   35.0983 C   0  0  0  0  0  0  0  0  0  0  0  0
    6.0785  -21.7233   34.1367 O   0  0  0  0  0  0  0  0  0  0  0  0
    7.1081  -24.4233   34.8994 N   0  0  0  0  0  0  0  0  0  0  0  0
    7.9285  -25.5683   34.4839 C   0  0  2  0  0  0  0  0  0  0  0  0
    9.0986  -25.7393   35.4017 C   0  0  0  0  0  0  0  0  0  0  0  0
    9.0512  -23.2458   35.6632 C   0  0  0  0  0  0  0  0  0  0  0  0
    9.5625  -24.5089   36.0397 N   0  0  0  0  0  0  0  0  0  0  0  0
    8.4460  -25.4709   33.0374 C   0  0  0  0  0  0  0  0  0  0  0  0
    7.3554  -25.6722   32.0913 N   0  0  0  0  0  0  0  0  0  0  0  0
    6.8667  -29.4033   30.1061 C   0  0  0  0  0  0  0  0  0  0  0  0
    5.9080  -28.4145   29.9630 C   0  0  0  0  0  0  0  0  0  0  0  0
    6.0642  -27.1768   30.6166 C   0  0  0  0  0  0  0  0  0  0  0  0
    7.1799  -26.9475   31.4074 C   0  0  0  0  0  0  0  0  0  0  0  0
    8.1419  -27.9432   31.5492 C   0  0  0  0  0  0  0  0  0  0  0  0
    7.9864  -29.1698   30.8983 C   0  0  0  0  0  0  0  0  0  0  0  0
    5.7057  -24.6010   35.0628 C   0  0  0  0  0  0  0  0  0  0  0  0
  1  3  1  0  0  0  0
  2  3  2  0  0  0  0
  2 12  1  0  0  0  0
  3  4  1  0  0  0  0
  4  6  1  0  0  0  0
  5 22  1  0  0  0  0
  6  7  1  0  0  0  0
  6  8  2  0  0  0  0
  7 12  2  0  0  0  0
  7  9  1  0  0  0  0
  9 10  1  0  0  0  0
  9 22  1  0  0  0  0
 10 11  1  0  0  0  0
 10 14  1  6  0  0  0
 11 13  1  0  0  0  0
 12 13  1  0  0  0  0
 14 15  1  0  0  0  0
 15 19  1  0  0  0  0
 16 17  2  0  0  0  0
 16 21  1  0  0  0  0
 17 18  1  0  0  0  0
 18 19  2  0  0  0  0
 19 20  1  0  0  0  0
 20 21  2  0  0  0  0
M  END
>  <CHROM.1>
-31.72431518,-71.77156252,-101.84566554,173.29810631,7.70180351,-24.55607153
33.87578125,-1.37611147,0.23065600,-2.56737785

>  <Name>
ligand

>  <RI>
0

>  <Rbt.Current_Directory>
/home/itssahil/PROJECTS/Mol_Feturizer/Test_systems_manuscript/rnas/3sd3

>  <Rbt.Executable>
rbdock ($Id: //depot/dev/client3/rdock/2013.1/src/exe/rbdock.cxx#4 $)

>  <Rbt.Library>
libRbt.so (2013.1, Build901 2013/11/27)

>  <Rbt.Parameter_File>
/export/apps/rDock/src/rDock_2013.1_src/data/scripts/dock_solv.prm

>  <Rbt.Receptor>
prm/blind_docking_100.prm

>  <SCORE>
-15.9231

>  <SCORE.INTER>
-15.8028

>  <SCORE.INTER.CONST>
1

>  <SCORE.INTER.POLAR>
0

>  <SCORE.INTER.ROT>
4

>  <SCORE.INTER.SOLV>
12.0461

>  <SCORE.INTER.VDW>
-20.8173

>  <SCORE.INTER.norm>
-0.718311

>  <SCORE.INTRA>
-0.120263

>  <SCORE.INTRA.DIHEDRAL>
0.474926

>  <SCORE.INTRA.DIHEDRAL.0>
2.54655

>  <SCORE.INTRA.POLAR>
0

>  <SCORE.INTRA.POLAR.0>
0

>  <SCORE.INTRA.REPUL>
0

>  <SCORE.INTRA.REPUL.0>
0

>  <SCORE.INTRA.SOLV>
-0.228647

>  <SCORE.INTRA.SOLV.lig_0>
-56.4922

>  <SCORE.INTRA.VDW>
-0.243403

>  <SCORE.INTRA.VDW.0>
-0.696801

>  <SCORE.INTRA.norm>
-0.00546652

>  <SCORE.RESTR>
0

>  <SCORE.RESTR.CAVITY>
0

>  <SCORE.RESTR.norm>
0

>  <SCORE.SYSTEM>
0

>  <SCORE.SYSTEM.CONST>
0

>  <SCORE.SYSTEM.DIHEDRAL>
0

>  <SCORE.SYSTEM.SOLV>
0

>  <SCORE.SYSTEM.norm>
0

>  <SCORE.heavy>
22

>  <SCORE.norm>
-0.723777

>  <RMSD>
14.744

$$$$
ligand
 OpenBabel02271912143D
libRbt.so/2013.1/901 2013/11/27
 22 24  0  0  0  0  0  0  0  0999 V2000
    9.6073  -19.6693   35.6614 N   0  0  0  0  0  0  0  0  0  0  0  0
    9.4795  -22.0554   35.8131 N   0  0  0  0  0  0  0  0  0  0  0  0
    8.9023  -20.9026   35.4361 C   0  0  0  0  0  0  0  0  0  0  0  0
    7.7052  -20.8666   34.8640 N   0  0  0  0  0  0  0  0  0  0  0  0
    5.0729  -25.7101   34.3581 O   0  0  0  0  0  0  0  0  0  0  0  0
    7.0287  -22.0093   34.6455 C   0  0  0  0  0  0  0  0  0  0  0  0
    7.6040  -23.2483   35.0435 C   0  0  0  0  0  0  0  0  0  0  0  0
    5.7892  -21.9441   34.0497 O   0  0  0  0  0  0  0  0  0  0  0  0
    7.0039  -24.5540   34.8528 N   0  0  0  0  0  0  0  0  0  0  0  0
    7.9092  -25.6410   34.4580 C   0  0  2  0  0  0  0  0  0  0  0  0
    9.0794  -25.7167   35.3882 C   0  0  0  0  0  0  0  0  0  0  0  0
    8.8490  -23.2305   35.6206 C   0  0  0  0  0  0  0  0  0  0  0  0
    9.4467  -24.4491   36.0162 N   0  0  0  0  0  0  0  0  0  0  0  0
    8.4325  -25.5219   33.0152 C   0  0  0  0  0  0  0  0  0  0  0  0
    7.3688  -25.8121   32.0616 N   0  0  0  0  0  0  0  0  0  0  0  0
    7.1445  -29.6066   30.1503 C   0  0  0  0  0  0  0  0  0  0  0  0
    6.1281  -28.6830   29.9727 C   0  0  0  0  0  0  0  0  0  0  0  0
    6.1967  -27.4249   30.6017 C   0  0  0  0  0  0  0  0  0  0  0  0
    7.2837  -27.1097   31.4029 C   0  0  0  0  0  0  0  0  0  0  0  0
    8.3038  -28.0399   31.5794 C   0  0  0  0  0  0  0  0  0  0  0  0
    8.2352  -29.2869   30.9528 C   0  0  0  0  0  0  0  0  0  0  0  0
    5.6166  -24.8311   35.0055 C   0  0  0  0  0  0  0  0  0  0  0  0
  1  3  1  0  0  0  0
  2  3  2  0  0  0  0
  2 12  1  0  0  0  0
  3  4  1  0  0  0  0
  4  6  1  0  0  0  0
  5 22  1  0  0  0  0
  6  7  1  0  0  0  0
  6  8  2  0  0  0  0
  7 12  2  0  0  0  0
  7  9  1  0  0  0  0
  9 10  1  0  0  0  0
  9 22  1  0  0  0  0
 10 11  1  0  0  0  0
 10 14  1  6  0  0  0
 11 13  1  0  0  0  0
 12 13  1  0  0  0  0
 14 15  1  0  0  0  0
 15 19  1  0  0  0  0
 16 17  2  0  0  0  0
 16 21  1  0  0  0  0
 17 18  1  0  0  0  0
 18 19  2  0  0  0  0
 19 20  1  0  0  0  0
 20 21  2  0  0  0  0
M  END
>  <CHROM.1>
149.95235254,-71.77878618,-101.10754449,173.48732120,7.61898864,-24.73915670
33.76226359,-1.40194759,0.32628515,-2.61059355

>  <Name>
ligand

>  <RI>
0

>  <Rbt.Current_Directory>
/home/itssahil/PROJECTS/Mol_Feturizer/Test_systems_manuscript/rnas/3sd3

>  <Rbt.Executable>
rbdock ($Id: //depot/dev/client3/rdock/2013.1/src/exe/rbdock.cxx#4 $)

>  <Rbt.Library>
libRbt.so (2013.1, Build901 2013/11/27)

>  <Rbt.Parameter_File>
/export/apps/rDock/src/rDock_2013.1_src/data/scripts/dock_solv.prm

>  <Rbt.Receptor>
prm/blind_docking_60.prm

>  <SCORE>
-15.7188

>  <SCORE.INTER>
-16.0269

>  <SCORE.INTER.CONST>
1

>  <SCORE.INTER.POLAR>
0

>  <SCORE.INTER.ROT>
4

>  <SCORE.INTER.SOLV>
12.152

>  <SCORE.INTER.VDW>
-21.0019

>  <SCORE.INTER.norm>
-0.728496

>  <SCORE.INTRA>
0.308123

>  <SCORE.INTRA.DIHEDRAL>
0.512596

>  <SCORE.INTRA.DIHEDRAL.0>
2.54655

>  <SCORE.INTRA.POLAR>
0

>  <SCORE.INTRA.POLAR.0>
0

>  <SCORE.INTRA.REPUL>
0

>  <SCORE.INTRA.REPUL.0>
0

>  <SCORE.INTRA.SOLV>
0.288323

>  <SCORE.INTRA.SOLV.lig_0>
-56.4922

>  <SCORE.INTRA.VDW>
-0.0923369

>  <SCORE.INTRA.VDW.0>
-0.696801

>  <SCORE.INTRA.norm>
0.0140056

>  <SCORE.RESTR>
0

>  <SCORE.RESTR.CAVITY>
0

>  <SCORE.RESTR.norm>
0

>  <SCORE.SYSTEM>
0

>  <SCORE.SYSTEM.CONST>
0

>  <SCORE.SYSTEM.DIHEDRAL>
0

>  <SCORE.SYSTEM.SOLV>
0

>  <SCORE.SYSTEM.norm>
0

>  <SCORE.heavy>
22

>  <SCORE.norm>
-0.71449

>  <RMSD>
14.760

$$$$
ligand
 OpenBabel02271912143D
libRbt.so/2013.1/901 2013/11/27
 22 24  0  0  0  0  0  0  0  0999 V2000
    9.6966  -19.7295   35.7317 N   0  0  0  0  0  0  0  0  0  0  0  0
    9.5148  -22.1127   35.8733 N   0  0  0  0  0  0  0  0  0  0  0  0
    8.9671  -20.9462   35.4947 C   0  0  0  0  0  0  0  0  0  0  0  0
    7.7769  -20.8818   34.9106 N   0  0  0  0  0  0  0  0  0  0  0  0
    5.0054  -25.5183   34.2304 O   0  0  0  0  0  0  0  0  0  0  0  0
    7.0778  -22.0085   34.6809 C   0  0  0  0  0  0  0  0  0  0  0  0
    7.6215  -23.2613   35.0802 C   0  0  0  0  0  0  0  0  0  0  0  0
    5.8462  -21.9140   34.0728 O   0  0  0  0  0  0  0  0  0  0  0  0
    6.9949  -24.5527   34.8786 N   0  0  0  0  0  0  0  0  0  0  0  0
    7.8800  -25.6580   34.4890 C   0  0  2  0  0  0  0  0  0  0  0  0
    9.0386  -25.7628   35.4308 C   0  0  0  0  0  0  0  0  0  0  0  0
    8.8607  -23.2729   35.6700 C   0  0  0  0  0  0  0  0  0  0  0  0
    9.4272  -24.5057   36.0672 N   0  0  0  0  0  0  0  0  0  0  0  0
    8.4206  -25.5456   33.0521 C   0  0  0  0  0  0  0  0  0  0  0  0
    7.3684  -25.8400   32.0871 N   0  0  0  0  0  0  0  0  0  0  0  0
    7.1644  -29.6014   30.1094 C   0  0  0  0  0  0  0  0  0  0  0  0
    8.2440  -29.3083   30.9256 C   0  0  0  0  0  0  0  0  0  0  0  0
    8.3171  -28.0654   31.5839 C   0  0  0  0  0  0  0  0  0  0  0  0
    7.3067  -27.1312   31.4134 C   0  0  0  0  0  0  0  0  0  0  0  0
    6.2228  -27.4288   30.5926 C   0  0  0  0  0  0  0  0  0  0  0  0
    6.1508  -28.6632   29.9420 C   0  0  0  0  0  0  0  0  0  0  0  0
    5.6003  -24.7997   35.0160 C   0  0  0  0  0  0  0  0  0  0  0  0
  1  3  1  0  0  0  0
  2  3  2  0  0  0  0
  2 12  1  0  0  0  0
  3  4  1  0  0  0  0
  4  6  1  0  0  0  0
  5 22  1  0  0  0  0
  6  7  1  0  0  0  0
  6  8  2  0  0  0  0
  7 12  2  0  0  0  0
  7  9  1  0  0  0  0
  9 10  1  0  0  0  0
  9 22  1  0  0  0  0
 10 11  1  0  0  0  0
 10 14  1  6  0  0  0
 11 13  1  0  0  0  0
 12 13  1  0  0  0  0
 14 15  1  0  0  0  0
 15 19  1  0  0  0  0
 16 17  2  0  0  0  0
 16 21  1  0  0  0  0
 17 18  1  0  0  0  0
 18 19  2  0  0  0  0
 19 20  1  0  0  0  0
 20 21  2  0  0  0  0
M  END
>  <CHROM.1>
139.00560909,-73.12040741,-102.34130531,-5.90602091,7.63242444,-24.74595347
33.77927521,-1.39881783,0.33959329,-2.60359235

>  <Name>
ligand

>  <RI>
0

>  <Rbt.Current_Directory>
/home/itssahil/PROJECTS/Mol_Feturizer/Test_systems_manuscript/rnas/3sd3

>  <Rbt.Executable>
rbdock ($Id: //depot/dev/client3/rdock/2013.1/src/exe/rbdock.cxx#4 $)

>  <Rbt.Library>
libRbt.so (2013.1, Build901 2013/11/27)

>  <Rbt.Parameter_File>
/export/apps/rDock/src/rDock_2013.1_src/data/scripts/dock_solv.prm

>  <Rbt.Receptor>
prm/blind_docking_80.prm

>  <SCORE>
-15.9563

>  <SCORE.INTER>
-16.1925

>  <SCORE.INTER.CONST>
1

>  <SCORE.INTER.POLAR>
0

>  <SCORE.INTER.ROT>
4

>  <SCORE.INTER.SOLV>
11.8563

>  <SCORE.INTER.VDW>
-21.0138

>  <SCORE.INTER.norm>
-0.736022

>  <SCORE.INTRA>
0.236195

>  <SCORE.INTRA.DIHEDRAL>
0.650069

>  <SCORE.INTRA.DIHEDRAL.0>
2.54655

>  <SCORE.INTRA.POLAR>
0

>  <SCORE.INTRA.POLAR.0>
0

>  <SCORE.INTRA.REPUL>
0

>  <SCORE.INTRA.REPUL.0>
0

>  <SCORE.INTRA.SOLV>
0.31352

>  <SCORE.INTRA.SOLV.lig_0>
-56.4922

>  <SCORE.INTRA.VDW>
-0.245599

>  <SCORE.INTRA.VDW.0>
-0.696801

>  <SCORE.INTRA.norm>
0.0107361

>  <SCORE.RESTR>
0

>  <SCORE.RESTR.CAVITY>
0

>  <SCORE.RESTR.norm>
0

>  <SCORE.SYSTEM>
0

>  <SCORE.SYSTEM.CONST>
0

>  <SCORE.SYSTEM.DIHEDRAL>
0

>  <SCORE.SYSTEM.SOLV>
0

>  <SCORE.SYSTEM.norm>
0

>  <SCORE.heavy>
22

>  <SCORE.norm>
-0.725286

>  <RMSD>
14.764

$$$$
ligand
 OpenBabel02271912143D
libRbt.so/2013.1/901 2013/11/27
 22 24  0  0  0  0  0  0  0  0999 V2000
    9.9416  -19.7518   35.7749 N   0  0  0  0  0  0  0  0  0  0  0  0
    9.6687  -22.1285   35.8726 N   0  0  0  0  0  0  0  0  0  0  0  0
    9.1611  -20.9341   35.5263 C   0  0  0  0  0  0  0  0  0  0  0  0
    7.9652  -20.8115   34.9638 N   0  0  0  0  0  0  0  0  0  0  0  0
    5.0083  -24.0437   35.8839 O   0  0  0  0  0  0  0  0  0  0  0  0
    7.2187  -21.9053   34.7239 C   0  0  0  0  0  0  0  0  0  0  0  0
    7.7192  -23.1862   35.0891 C   0  0  0  0  0  0  0  0  0  0  0  0
    5.9821  -21.7505   34.1386 O   0  0  0  0  0  0  0  0  0  0  0  0
    7.0392  -24.4478   34.8727 N   0  0  0  0  0  0  0  0  0  0  0  0
    7.8738  -25.5786   34.4465 C   0  0  2  0  0  0  0  0  0  0  0  0
    9.0425  -25.7475   35.3664 C   0  0  0  0  0  0  0  0  0  0  0  0
    8.9663  -23.2580   35.6575 C   0  0  0  0  0  0  0  0  0  0  0  0
    9.4904  -24.5198   36.0207 N   0  0  0  0  0  0  0  0  0  0  0  0
    8.3952  -25.4581   33.0031 C   0  0  0  0  0  0  0  0  0  0  0  0
    7.3131  -25.6746   32.0506 N   0  0  0  0  0  0  0  0  0  0  0  0
    6.8716  -29.4213   30.0838 C   0  0  0  0  0  0  0  0  0  0  0  0
    5.8795  -28.4618   29.9719 C   0  0  0  0  0  0  0  0  0  0  0  0
    6.0199  -27.2192   30.6196 C   0  0  0  0  0  0  0  0  0  0  0  0
    7.1536  -26.9555   31.3733 C   0  0  0  0  0  0  0  0  0  0  0  0
    8.1491  -27.9218   31.4838 C   0  0  0  0  0  0  0  0  0  0  0  0
    8.0092  -29.1533   30.8387 C   0  0  0  0  0  0  0  0  0  0  0  0
    5.6383  -24.6431   35.0289 C   0  0  0  0  0  0  0  0  0  0  0  0
  1  3  1  0  0  0  0
  2  3  2  0  0  0  0
  2 12  1  0  0  0  0
  3  4  1  0  0  0  0
  4  6  1  0  0  0  0
  5 22  1  0  0  0  0
  6  7  1  0  0  0  0
  6  8  2  0  0  0  0
  7 12  2  0  0  0  0
  7  9  1  0  0  0  0
  9 10  1  0  0  0  0
  9 22  1  0  0  0  0
 10 11  1  0  0  0  0
 10 14  1  6  0  0  0
 11 13  1  0  0  0  0
 12 13  1  0  0  0  0
 14 15  1  0  0  0  0
 15 19  1  0  0  0  0
 16 17  2  0  0  0  0
 16 21  1  0  0  0  0
 17 18  1  0  0  0  0
 18 19  2  0  0  0  0
 19 20  1  0  0  0  0
 20 21  2  0  0  0  0
M  END
>  <CHROM.1>
-34.34402002,-72.39142665,-100.73706555,170.69077127,7.63895748,-24.57364690
33.86216714,-1.38857759,0.21002467,-2.55686246

>  <Name>
ligand

>  <RI>
0

>  <Rbt.Current_Directory>
/home/itssahil/PROJECTS/Mol_Feturizer/Test_systems_manuscript/rnas/3sd3

>  <Rbt.Executable>
rbdock ($Id: //depot/dev/client3/rdock/2013.1/src/exe/rbdock.cxx#4 $)

>  <Rbt.Library>
libRbt.so (2013.1, Build901 2013/11/27)

>  <Rbt.Parameter_File>
/export/apps/rDock/src/rDock_2013.1_src/data/scripts/dock_solv.prm

>  <Rbt.Receptor>
prm/blind_docking_100.prm

>  <SCORE>
-15.9122

>  <SCORE.INTER>
-15.7701

>  <SCORE.INTER.CONST>
1

>  <SCORE.INTER.POLAR>
0

>  <SCORE.INTER.ROT>
4

>  <SCORE.INTER.SOLV>
11.7307

>  <SCORE.INTER.VDW>
-20.6903

>  <SCORE.INTER.norm>
-0.716822

>  <SCORE.INTRA>
-0.142142

>  <SCORE.INTRA.DIHEDRAL>
0.49583

>  <SCORE.INTRA.DIHEDRAL.0>
2.54655

>  <SCORE.INTRA.POLAR>
0

>  <SCORE.INTRA.POLAR.0>
0

>  <SCORE.INTRA.REPUL>
0

>  <SCORE.INTRA.REPUL.0>
0

>  <SCORE.INTRA.SOLV>
-0.249511

>  <SCORE.INTRA.SOLV.lig_0>
-56.4922

>  <SCORE.INTRA.VDW>
-0.265302

>  <SCORE.INTRA.VDW.0>
-0.696801

>  <SCORE.INTRA.norm>
-0.00646101

>  <SCORE.RESTR>
0

>  <SCORE.RESTR.CAVITY>
0

>  <SCORE.RESTR.norm>
0

>  <SCORE.SYSTEM>
0

>  <SCORE.SYSTEM.CONST>
0

>  <SCORE.SYSTEM.DIHEDRAL>
0

>  <SCORE.SYSTEM.SOLV>
0

>  <SCORE.SYSTEM.norm>
0

>  <SCORE.heavy>
22

>  <SCORE.norm>
-0.723283

>  <RMSD>
14.778

$$$$
ligand
 OpenBabel02271912143D
libRbt.so/2013.1/901 2013/11/27
 22 24  0  0  0  0  0  0  0  0999 V2000
    9.7909  -19.7344   35.7802 N   0  0  0  0  0  0  0  0  0  0  0  0
    9.5592  -22.1153   35.8842 N   0  0  0  0  0  0  0  0  0  0  0  0
    9.0350  -20.9315   35.5264 C   0  0  0  0  0  0  0  0  0  0  0  0
    7.8445  -20.8326   34.9479 N   0  0  0  0  0  0  0  0  0  0  0  0
    5.1215  -25.2004   36.0116 O   0  0  0  0  0  0  0  0  0  0  0  0
    7.1209  -21.9405   34.7028 C   0  0  0  0  0  0  0  0  0  0  0  0
    7.6394  -23.2107   35.0798 C   0  0  0  0  0  0  0  0  0  0  0  0
    5.8896  -21.8102   34.1008 O   0  0  0  0  0  0  0  0  0  0  0  0
    6.9849  -24.4852   34.8598 N   0  0  0  0  0  0  0  0  0  0  0  0
    7.8451  -25.6025   34.4492 C   0  0  2  0  0  0  0  0  0  0  0  0
    9.0045  -25.7469   35.3849 C   0  0  0  0  0  0  0  0  0  0  0  0
    8.8800  -23.2580   35.6647 C   0  0  0  0  0  0  0  0  0  0  0  0
    9.4218  -24.5087   36.0400 N   0  0  0  0  0  0  0  0  0  0  0  0
    8.3831  -25.4783   33.0123 C   0  0  0  0  0  0  0  0  0  0  0  0
    7.3441  -25.8180   32.0479 N   0  0  0  0  0  0  0  0  0  0  0  0
    7.2262  -29.6336   30.1693 C   0  0  0  0  0  0  0  0  0  0  0  0
    8.3147  -29.2816   30.9496 C   0  0  0  0  0  0  0  0  0  0  0  0
    8.3595  -28.0205   31.5750 C   0  0  0  0  0  0  0  0  0  0  0  0
    7.3120  -27.1274   31.4080 C   0  0  0  0  0  0  0  0  0  0  0  0
    6.2193  -27.4840   30.6234 C   0  0  0  0  0  0  0  0  0  0  0  0
    6.1755  -28.7364   30.0054 C   0  0  0  0  0  0  0  0  0  0  0  0
    5.5859  -24.7050   34.9985 C   0  0  0  0  0  0  0  0  0  0  0  0
  1  3  1  0  0  0  0
  2  3  2  0  0  0  0
  2 12  1  0  0  0  0
  3  4  1  0  0  0  0
  4  6  1  0  0  0  0
  5 22  1  0  0  0  0
  6  7  1  0  0  0  0
  6  8  2  0  0  0  0
  7 12  2  0  0  0  0
  7  9  1  0  0  0  0
  9 10  1  0  0  0  0
  9 22  1  0  0  0  0
 10 11  1  0  0  0  0
 10 14  1  6  0  0  0
 11 13  1  0  0  0  0
 12 13  1  0  0  0  0
 14 15  1  0  0  0  0
 15 19  1  0  0  0  0
 16 17  2  0  0  0  0
 16 21  1  0  0  0  0
 17 18  1  0  0  0  0
 18 19  2  0  0  0  0
 19 20  1  0  0  0  0
 20 21  2  0  0  0  0
M  END
>  <CHROM.1>
-99.00056329,-76.73477176,-100.72284219,-8.03031181,7.65792519,-24.70297396
33.88119766,-1.42707629,0.09004474,-2.55497777

>  <Name>
ligand

>  <RI>
0

>  <Rbt.Current_Directory>
/home/itssahil/PROJECTS/Mol_Feturizer/Test_systems_manuscript/rnas/3sd3

>  <Rbt.Executable>
rbdock ($Id: //depot/dev/client3/rdock/2013.1/src/exe/rbdock.cxx#4 $)

>  <Rbt.Library>
libRbt.so (2013.1, Build901 2013/11/27)

>  <Rbt.Parameter_File>
/export/apps/rDock/src/rDock_2013.1_src/data/scripts/dock_solv.prm

>  <Rbt.Receptor>
prm/blind_docking_100.prm

>  <SCORE>
-16.2281

>  <SCORE.INTER>
-16.1889

>  <SCORE.INTER.CONST>
1

>  <SCORE.INTER.POLAR>
0

>  <SCORE.INTER.ROT>
4

>  <SCORE.INTER.SOLV>
11.5104

>  <SCORE.INTER.VDW>
-20.8961

>  <SCORE.INTER.norm>
-0.735857

>  <SCORE.INTRA>
-0.0392587

>  <SCORE.INTRA.DIHEDRAL>
0.953207

>  <SCORE.INTRA.DIHEDRAL.0>
2.54655

>  <SCORE.INTRA.POLAR>
0

>  <SCORE.INTRA.POLAR.0>
0

>  <SCORE.INTRA.REPUL>
0

>  <SCORE.INTRA.REPUL.0>
0

>  <SCORE.INTRA.SOLV>
-0.519814

>  <SCORE.INTRA.SOLV.lig_0>
-56.4922

>  <SCORE.INTRA.VDW>
-0.255955

>  <SCORE.INTRA.VDW.0>
-0.696801

>  <SCORE.INTRA.norm>
-0.00178449

>  <SCORE.RESTR>
0

>  <SCORE.RESTR.CAVITY>
0

>  <SCORE.RESTR.norm>
0

>  <SCORE.SYSTEM>
0

>  <SCORE.SYSTEM.CONST>
0

>  <SCORE.SYSTEM.DIHEDRAL>
0

>  <SCORE.SYSTEM.SOLV>
0

>  <SCORE.SYSTEM.norm>
0

>  <SCORE.heavy>
22

>  <SCORE.norm>
-0.737642

>  <RMSD>
14.782

$$$$
ligand
 OpenBabel02271912143D
libRbt.so/2013.1/901 2013/11/27
 22 24  0  0  0  0  0  0  0  0999 V2000
    8.9354  -19.3375   36.2258 N   0  0  0  0  0  0  0  0  0  0  0  0
    9.2076  -21.7139   36.1191 N   0  0  0  0  0  0  0  0  0  0  0  0
    8.4464  -20.6388   35.8568 C   0  0  0  0  0  0  0  0  0  0  0  0
    7.2603  -20.7399   35.2695 N   0  0  0  0  0  0  0  0  0  0  0  0
    5.6366  -26.0387   35.5223 O   0  0  0  0  0  0  0  0  0  0  0  0
    6.7843  -21.9484   34.9174 C   0  0  0  0  0  0  0  0  0  0  0  0
    7.5580  -23.1106   35.1912 C   0  0  0  0  0  0  0  0  0  0  0  0
    5.5516  -22.0254   34.3089 O   0  0  0  0  0  0  0  0  0  0  0  0
    7.1844  -24.4692   34.8508 N   0  0  0  0  0  0  0  0  0  0  0  0
    8.2586  -25.3416   34.3590 C   0  0  2  0  0  0  0  0  0  0  0  0
    9.4245  -25.3227   35.2976 C   0  0  0  0  0  0  0  0  0  0  0  0
    8.7823  -22.9493   35.7902 C   0  0  0  0  0  0  0  0  0  0  0  0
    9.5747  -24.0875   36.0643 N   0  0  0  0  0  0  0  0  0  0  0  0
    8.7557  -24.9814   32.9473 C   0  0  0  0  0  0  0  0  0  0  0  0
    7.6734  -25.1063   31.9786 N   0  0  0  0  0  0  0  0  0  0  0  0
    6.6589  -28.8972   30.3351 C   0  0  0  0  0  0  0  0  0  0  0  0
    5.7819  -27.8329   30.2088 C   0  0  0  0  0  0  0  0  0  0  0  0
    6.1121  -26.5753   30.7497 C   0  0  0  0  0  0  0  0  0  0  0  0
    7.3177  -26.4015   31.4124 C   0  0  0  0  0  0  0  0  0  0  0  0
    8.1972  -27.4729   31.5376 C   0  0  0  0  0  0  0  0  0  0  0  0
    7.8690  -28.7195   30.9985 C   0  0  0  0  0  0  0  0  0  0  0  0
    5.8627  -24.9875   34.9469 C   0  0  0  0  0  0  0  0  0  0  0  0
  1  3  1  0  0  0  0
  2  3  2  0  0  0  0
  2 12  1  0  0  0  0
  3  4  1  0  0  0  0
  4  6  1  0  0  0  0
  5 22  1  0  0  0  0
  6  7  1  0  0  0  0
  6  8  2  0  0  0  0
  7 12  2  0  0  0  0
  7  9  1  0  0  0  0
  9 10  1  0  0  0  0
  9 22  1  0  0  0  0
 10 11  1  0  0  0  0
 10 14  1  6  0  0  0
 11 13  1  0  0  0  0
 12 13  1  0  0  0  0
 14 15  1  0  0  0  0
 15 19  1  0  0  0  0
 16 17  2  0  0  0  0
 16 21  1  0  0  0  0
 17 18  1  0  0  0  0
 18 19  2  0  0  0  0
 19 20  1  0  0  0  0
 20 21  2  0  0  0  0
M  END
>  <CHROM.1>
-129.84590389,-61.33829050,-82.08073917,164.67302154,7.56984842,-24.41091596
33.95083913,1.40044980,-0.44122905,0.56628077

>  <Name>
ligand

>  <RI>
0

>  <Rbt.Current_Directory>
/home/itssahil/PROJECTS/Mol_Feturizer/Test_systems_manuscript/rnas/3sd3

>  <Rbt.Executable>
rbdock ($Id: //depot/dev/client3/rdock/2013.1/src/exe/rbdock.cxx#4 $)

>  <Rbt.Library>
libRbt.so (2013.1, Build901 2013/11/27)

>  <Rbt.Parameter_File>
/export/apps/rDock/src/rDock_2013.1_src/data/scripts/dock_solv.prm

>  <Rbt.Receptor>
prm/blind_docking_60.prm

>  <SCORE>
-15.7288

>  <SCORE.INTER>
-14.923

>  <SCORE.INTER.CONST>
1

>  <SCORE.INTER.POLAR>
0

>  <SCORE.INTER.ROT>
4

>  <SCORE.INTER.SOLV>
9.91178

>  <SCORE.INTER.VDW>
-19.5192

>  <SCORE.INTER.norm>
-0.678316

>  <SCORE.INTRA>
-0.805855

>  <SCORE.INTRA.DIHEDRAL>
-0.561776

>  <SCORE.INTRA.DIHEDRAL.0>
2.54655

>  <SCORE.INTRA.POLAR>
0

>  <SCORE.INTRA.POLAR.0>
0

>  <SCORE.INTRA.REPUL>
0

>  <SCORE.INTRA.REPUL.0>
0

>  <SCORE.INTRA.SOLV>
-0.19034

>  <SCORE.INTRA.SOLV.lig_0>
-56.4922

>  <SCORE.INTRA.VDW>
-0.429798

>  <SCORE.INTRA.VDW.0>
-0.696801

>  <SCORE.INTRA.norm>
-0.0366298

>  <SCORE.RESTR>
0

>  <SCORE.RESTR.CAVITY>
0

>  <SCORE.RESTR.norm>
0

>  <SCORE.SYSTEM>
0

>  <SCORE.SYSTEM.CONST>
0

>  <SCORE.SYSTEM.DIHEDRAL>
0

>  <SCORE.SYSTEM.SOLV>
0

>  <SCORE.SYSTEM.norm>
0

>  <SCORE.heavy>
22

>  <SCORE.norm>
-0.714946

>  <RMSD>
14.796

$$$$
ligand
 OpenBabel02271912143D
libRbt.so/2013.1/901 2013/11/27
 22 24  0  0  0  0  0  0  0  0999 V2000
    9.6878  -19.7450   35.8013 N   0  0  0  0  0  0  0  0  0  0  0  0
    9.5173  -22.1313   35.8969 N   0  0  0  0  0  0  0  0  0  0  0  0
    8.9614  -20.9599   35.5462 C   0  0  0  0  0  0  0  0  0  0  0  0
    7.7661  -20.8892   34.9734 N   0  0  0  0  0  0  0  0  0  0  0  0
    5.0561  -24.7224   36.1027 O   0  0  0  0  0  0  0  0  0  0  0  0
    7.0699  -22.0142   34.7272 C   0  0  0  0  0  0  0  0  0  0  0  0
    7.6223  -23.2723   35.0968 C   0  0  0  0  0  0  0  0  0  0  0  0
    5.8328  -21.9131   34.1314 O   0  0  0  0  0  0  0  0  0  0  0  0
    6.9995  -24.5622   34.8747 N   0  0  0  0  0  0  0  0  0  0  0  0
    7.8860  -25.6556   34.4558 C   0  0  2  0  0  0  0  0  0  0  0  0
    9.0530  -25.7739   35.3856 C   0  0  0  0  0  0  0  0  0  0  0  0
    8.8664  -23.2902   35.6759 C   0  0  0  0  0  0  0  0  0  0  0  0
    9.4416  -24.5281   36.0437 N   0  0  0  0  0  0  0  0  0  0  0  0
    8.4140  -25.5122   33.0169 C   0  0  0  0  0  0  0  0  0  0  0  0
    7.3597  -25.8095   32.0551 N   0  0  0  0  0  0  0  0  0  0  0  0
    7.1277  -29.5914   30.1199 C   0  0  0  0  0  0  0  0  0  0  0  0
    8.2213  -29.2878   30.9133 C   0  0  0  0  0  0  0  0  0  0  0  0
    8.3038  -28.0381   31.5574 C   0  0  0  0  0  0  0  0  0  0  0  0
    7.2885  -27.1076   31.3959 C   0  0  0  0  0  0  0  0  0  0  0  0
    6.1905  -27.4157   30.5980 C   0  0  0  0  0  0  0  0  0  0  0  0
    6.1092  -28.6568   29.9614 C   0  0  0  0  0  0  0  0  0  0  0  0
    5.6072  -24.8181   35.0189 C   0  0  0  0  0  0  0  0  0  0  0  0
  1  3  1  0  0  0  0
  2  3  2  0  0  0  0
  2 12  1  0  0  0  0
  3  4  1  0  0  0  0
  4  6  1  0  0  0  0
  5 22  1  0  0  0  0
  6  7  1  0  0  0  0
  6  8  2  0  0  0  0
  7 12  2  0  0  0  0
  7  9  1  0  0  0  0
  9 10  1  0  0  0  0
  9 22  1  0  0  0  0
 10 11  1  0  0  0  0
 10 14  1  6  0  0  0
 11 13  1  0  0  0  0
 12 13  1  0  0  0  0
 14 15  1  0  0  0  0
 15 19  1  0  0  0  0
 16 17  2  0  0  0  0
 16 21  1  0  0  0  0
 17 18  1  0  0  0  0
 18 19  2  0  0  0  0
 19 20  1  0  0  0  0
 20 21  2  0  0  0  0
M  END
>  <CHROM.1>
-64.44328765,-73.88289196,-100.24205067,-7.08881259,7.62804507,-24.70174400
33.88888802,-1.43183669,0.14239780,-2.54677943

>  <Name>
ligand

>  <RI>
0

>  <Rbt.Current_Directory>
/home/itssahil/PROJECTS/Mol_Feturizer/Test_systems_manuscript/rnas/3sd3

>  <Rbt.Executable>
rbdock ($Id: //depot/dev/client3/rdock/2013.1/src/exe/rbdock.cxx#4 $)

>  <Rbt.Library>
libRbt.so (2013.1, Build901 2013/11/27)

>  <Rbt.Parameter_File>
/export/apps/rDock/src/rDock_2013.1_src/data/scripts/dock_solv.prm

>  <Rbt.Receptor>
prm/blind_docking_100.prm

>  <SCORE>
-16.0458

>  <SCORE.INTER>
-15.8668

>  <SCORE.INTER.CONST>
1

>  <SCORE.INTER.POLAR>
0

>  <SCORE.INTER.ROT>
4

>  <SCORE.INTER.SOLV>
11.4114

>  <SCORE.INTER.VDW>
-20.6483

>  <SCORE.INTER.norm>
-0.721216

>  <SCORE.INTRA>
-0.179046

>  <SCORE.INTRA.DIHEDRAL>
0.644066

>  <SCORE.INTRA.DIHEDRAL.0>
2.54655

>  <SCORE.INTRA.POLAR>
0

>  <SCORE.INTRA.POLAR.0>
0

>  <SCORE.INTRA.REPUL>
0

>  <SCORE.INTRA.REPUL.0>
0

>  <SCORE.INTRA.SOLV>
-0.401424

>  <SCORE.INTRA.SOLV.lig_0>
-56.4922

>  <SCORE.INTRA.VDW>
-0.300368

>  <SCORE.INTRA.VDW.0>
-0.696801

>  <SCORE.INTRA.norm>
-0.00813847

>  <SCORE.RESTR>
0

>  <SCORE.RESTR.CAVITY>
0

>  <SCORE.RESTR.norm>
0

>  <SCORE.SYSTEM>
0

>  <SCORE.SYSTEM.CONST>
0

>  <SCORE.SYSTEM.DIHEDRAL>
0

>  <SCORE.SYSTEM.SOLV>
0

>  <SCORE.SYSTEM.norm>
0

>  <SCORE.heavy>
22

>  <SCORE.norm>
-0.729355

>  <RMSD>
14.804

$$$$
ligand
 OpenBabel02271912143D
libRbt.so/2013.1/901 2013/11/27
 22 24  0  0  0  0  0  0  0  0999 V2000
    8.6758  -19.2974   35.6228 N   0  0  0  0  0  0  0  0  0  0  0  0
    9.0397  -21.6639   35.6400 N   0  0  0  0  0  0  0  0  0  0  0  0
    8.1987  -20.6394   35.4222 C   0  0  0  0  0  0  0  0  0  0  0  0
    6.9449  -20.8267   35.0290 N   0  0  0  0  0  0  0  0  0  0  0  0
    5.3275  -25.1829   36.3698 O   0  0  0  0  0  0  0  0  0  0  0  0
    6.4788  -22.0745   34.8368 C   0  0  0  0  0  0  0  0  0  0  0  0
    7.3379  -23.1844   35.0701 C   0  0  0  0  0  0  0  0  0  0  0  0
    5.1747  -22.2411   34.4281 O   0  0  0  0  0  0  0  0  0  0  0  0
    6.9819  -24.5772   34.8843 N   0  0  0  0  0  0  0  0  0  0  0  0
    8.0110  -25.4450   34.2972 C   0  0  2  0  0  0  0  0  0  0  0  0
    9.3007  -25.3141   35.0455 C   0  0  0  0  0  0  0  0  0  0  0  0
    8.6285  -22.9349   35.4649 C   0  0  0  0  0  0  0  0  0  0  0  0
    9.5049  -24.0202   35.6940 N   0  0  0  0  0  0  0  0  0  0  0  0
    8.2764  -25.1743   32.8053 C   0  0  0  0  0  0  0  0  0  0  0  0
    7.1662  -25.6586   31.9940 N   0  0  0  0  0  0  0  0  0  0  0  0
    7.2539  -29.5119   30.1923 C   0  0  0  0  0  0  0  0  0  0  0  0
    8.2982  -29.1065   31.0064 C   0  0  0  0  0  0  0  0  0  0  0  0
    8.2749  -27.8327   31.6066 C   0  0  0  0  0  0  0  0  0  0  0  0
    7.2045  -26.9805   31.3809 C   0  0  0  0  0  0  0  0  0  0  0  0
    6.1564  -27.3908   30.5623 C   0  0  0  0  0  0  0  0  0  0  0  0
    6.1801  -28.6557   29.9694 C   0  0  0  0  0  0  0  0  0  0  0  0
    5.7145  -25.1338   35.2143 C   0  0  0  0  0  0  0  0  0  0  0  0
  1  3  1  0  0  0  0
  2  3  2  0  0  0  0
  2 12  1  0  0  0  0
  3  4  1  0  0  0  0
  4  6  1  0  0  0  0
  5 22  1  0  0  0  0
  6  7  1  0  0  0  0
  6  8  2  0  0  0  0
  7 12  2  0  0  0  0
  7  9  1  0  0  0  0
  9 10  1  0  0  0  0
  9 22  1  0  0  0  0
 10 11  1  0  0  0  0
 10 14  1  6  0  0  0
 11 13  1  0  0  0  0
 12 13  1  0  0  0  0
 14 15  1  0  0  0  0
 15 19  1  0  0  0  0
 16 17  2  0  0  0  0
 16 21  1  0  0  0  0
 17 18  1  0  0  0  0
 18 19  2  0  0  0  0
 19 20  1  0  0  0  0
 20 21  2  0  0  0  0
M  END
>  <CHROM.1>
-65.06949771,-72.60004475,-95.18333501,2.95302427,7.43248354,-24.57992612
33.85472373,-1.50539540,0.01073445,-2.54577638

>  <Name>
ligand

>  <RI>
0

>  <Rbt.Current_Directory>
/home/itssahil/PROJECTS/Mol_Feturizer/Test_systems_manuscript/rnas/3sd3

>  <Rbt.Executable>
rbdock ($Id: //depot/dev/client3/rdock/2013.1/src/exe/rbdock.cxx#4 $)

>  <Rbt.Library>
libRbt.so (2013.1, Build901 2013/11/27)

>  <Rbt.Parameter_File>
/export/apps/rDock/src/rDock_2013.1_src/data/scripts/dock_solv.prm

>  <Rbt.Receptor>
prm/blind_docking_80.prm

>  <SCORE>
-15.7231

>  <SCORE.INTER>
-15.3697

>  <SCORE.INTER.CONST>
1

>  <SCORE.INTER.POLAR>
0

>  <SCORE.INTER.ROT>
4

>  <SCORE.INTER.SOLV>
12.1143

>  <SCORE.INTER.VDW>
-20.5512

>  <SCORE.INTER.norm>
-0.698621

>  <SCORE.INTRA>
-0.35347

>  <SCORE.INTRA.DIHEDRAL>
0.388429

>  <SCORE.INTRA.DIHEDRAL.0>
2.54655

>  <SCORE.INTRA.POLAR>
0

>  <SCORE.INTRA.POLAR.0>
0

>  <SCORE.INTRA.REPUL>
0

>  <SCORE.INTRA.REPUL.0>
0

>  <SCORE.INTRA.SOLV>
-0.3812

>  <SCORE.INTRA.SOLV.lig_0>
-56.4922

>  <SCORE.INTRA.VDW>
-0.357085

>  <SCORE.INTRA.VDW.0>
-0.696801

>  <SCORE.INTRA.norm>
-0.0160668

>  <SCORE.RESTR>
0

>  <SCORE.RESTR.CAVITY>
0

>  <SCORE.RESTR.norm>
0

>  <SCORE.SYSTEM>
0

>  <SCORE.SYSTEM.CONST>
0

>  <SCORE.SYSTEM.DIHEDRAL>
0

>  <SCORE.SYSTEM.SOLV>
0

>  <SCORE.SYSTEM.norm>
0

>  <SCORE.heavy>
22

>  <SCORE.norm>
-0.714687

>  <RMSD>
14.835

$$$$
ligand
 OpenBabel02271912143D
libRbt.so/2013.1/901 2013/11/27
 22 24  0  0  0  0  0  0  0  0999 V2000
   10.0741  -19.7898   35.6788 N   0  0  0  0  0  0  0  0  0  0  0  0
    9.7350  -22.1577   35.7845 N   0  0  0  0  0  0  0  0  0  0  0  0
    9.2361  -20.9444   35.4961 C   0  0  0  0  0  0  0  0  0  0  0  0
    7.9973  -20.7786   35.0492 N   0  0  0  0  0  0  0  0  0  0  0  0
    5.1864  -25.1231   36.3046 O   0  0  0  0  0  0  0  0  0  0  0  0
    7.1968  -21.8459   34.8725 C   0  0  0  0  0  0  0  0  0  0  0  0
    7.6877  -23.1455   35.1799 C   0  0  0  0  0  0  0  0  0  0  0  0
    5.9165  -21.6464   34.4071 O   0  0  0  0  0  0  0  0  0  0  0  0
    6.9501  -24.3830   35.0193 N   0  0  0  0  0  0  0  0  0  0  0  0
    7.7043  -25.5350   34.5085 C   0  0  2  0  0  0  0  0  0  0  0  0
    8.9479  -25.7499   35.3133 C   0  0  0  0  0  0  0  0  0  0  0  0
    8.9796  -23.2623   35.6283 C   0  0  0  0  0  0  0  0  0  0  0  0
    9.4944  -24.5436   35.9316 N   0  0  0  0  0  0  0  0  0  0  0  0
    8.0919  -25.4162   33.0234 C   0  0  0  0  0  0  0  0  0  0  0  0
    6.9916  -25.8534   32.1729 N   0  0  0  0  0  0  0  0  0  0  0  0
    7.1853  -29.5723   30.1154 C   0  0  0  0  0  0  0  0  0  0  0  0
    6.1926  -28.6598   29.8001 C   0  0  0  0  0  0  0  0  0  0  0  0
    6.1235  -27.4266   30.4767 C   0  0  0  0  0  0  0  0  0  0  0  0
    7.0505  -27.1251   31.4629 C   0  0  0  0  0  0  0  0  0  0  0  0
    8.0472  -28.0442   31.7775 C   0  0  0  0  0  0  0  0  0  0  0  0
    8.1156  -29.2663   31.1037 C   0  0  0  0  0  0  0  0  0  0  0  0
    5.5645  -24.5357   35.3048 C   0  0  0  0  0  0  0  0  0  0  0  0
  1  3  1  0  0  0  0
  2  3  2  0  0  0  0
  2 12  1  0  0  0  0
  3  4  1  0  0  0  0
  4  6  1  0  0  0  0
  5 22  1  0  0  0  0
  6  7  1  0  0  0  0
  6  8  2  0  0  0  0
  7 12  2  0  0  0  0
  7  9  1  0  0  0  0
  9 10  1  0  0  0  0
  9 22  1  0  0  0  0
 10 11  1  0  0  0  0
 10 14  1  6  0  0  0
 11 13  1  0  0  0  0
 12 13  1  0  0  0  0
 14 15  1  0  0  0  0
 15 19  1  0  0  0  0
 16 17  2  0  0  0  0
 16 21  1  0  0  0  0
 17 18  1  0  0  0  0
 18 19  2  0  0  0  0
 19 20  1  0  0  0  0
 20 21  2  0  0  0  0
M  END
>  <CHROM.1>
-105.22704986,-83.91825957,-106.83721187,-168.32826002,7.63389434,-24.66260714
33.94088540,-1.39793815,-0.06511008,-2.52452998

>  <Name>
ligand

>  <RI>
0

>  <Rbt.Current_Directory>
/home/itssahil/PROJECTS/Mol_Feturizer/Test_systems_manuscript/rnas/3sd3

>  <Rbt.Executable>
rbdock ($Id: //depot/dev/client3/rdock/2013.1/src/exe/rbdock.cxx#4 $)

>  <Rbt.Library>
libRbt.so (2013.1, Build901 2013/11/27)

>  <Rbt.Parameter_File>
/export/apps/rDock/src/rDock_2013.1_src/data/scripts/dock_solv.prm

>  <Rbt.Receptor>
prm/blind_docking_100.prm

>  <SCORE>
-15.7492

>  <SCORE.INTER>
-16.2659

>  <SCORE.INTER.CONST>
1

>  <SCORE.INTER.POLAR>
0

>  <SCORE.INTER.ROT>
4

>  <SCORE.INTER.SOLV>
11.6206

>  <SCORE.INTER.VDW>
-20.9841

>  <SCORE.INTER.norm>
-0.739358

>  <SCORE.INTRA>
0.516686

>  <SCORE.INTRA.DIHEDRAL>
1.93897

>  <SCORE.INTRA.DIHEDRAL.0>
2.54655

>  <SCORE.INTRA.POLAR>
0

>  <SCORE.INTRA.POLAR.0>
0

>  <SCORE.INTRA.REPUL>
0

>  <SCORE.INTRA.REPUL.0>
0

>  <SCORE.INTRA.SOLV>
-0.593285

>  <SCORE.INTRA.SOLV.lig_0>
-56.4922

>  <SCORE.INTRA.VDW>
-0.156155

>  <SCORE.INTRA.VDW.0>
-0.696801

>  <SCORE.INTRA.norm>
0.0234857

>  <SCORE.RESTR>
0

>  <SCORE.RESTR.CAVITY>
0

>  <SCORE.RESTR.norm>
0

>  <SCORE.SYSTEM>
0

>  <SCORE.SYSTEM.CONST>
0

>  <SCORE.SYSTEM.DIHEDRAL>
0

>  <SCORE.SYSTEM.SOLV>
0

>  <SCORE.SYSTEM.norm>
0

>  <SCORE.heavy>
22

>  <SCORE.norm>
-0.715872

>  <RMSD>
14.845

$$$$
ligand
 OpenBabel02271912143D
libRbt.so/2013.1/901 2013/11/27
 22 24  0  0  0  0  0  0  0  0999 V2000
    6.7314  -21.9669   35.2443 N   0  0  0  0  0  0  0  0  0  0  0  0
    5.8347  -24.1574   34.8830 N   0  0  0  0  0  0  0  0  0  0  0  0
    6.6011  -23.1491   34.4355 C   0  0  0  0  0  0  0  0  0  0  0  0
    7.2396  -23.2097   33.2734 N   0  0  0  0  0  0  0  0  0  0  0  0
    4.9040  -26.9379   30.2923 O   0  0  0  0  0  0  0  0  0  0  0  0
    7.1297  -24.3065   32.5013 C   0  0  0  0  0  0  0  0  0  0  0  0
    6.3162  -25.3891   32.9378 C   0  0  0  0  0  0  0  0  0  0  0  0
    7.8030  -24.3442   31.3009 O   0  0  0  0  0  0  0  0  0  0  0  0
    6.1224  -26.6363   32.2249 N   0  0  0  0  0  0  0  0  0  0  0  0
    6.0827  -27.8581   33.0387 C   0  0  2  0  0  0  0  0  0  0  0  0
    5.0950  -27.7165   34.1545 C   0  0  0  0  0  0  0  0  0  0  0  0
    5.6867  -25.2797   34.1524 C   0  0  0  0  0  0  0  0  0  0  0  0
    4.8803  -26.3455   34.6132 N   0  0  0  0  0  0  0  0  0  0  0  0
    7.4460  -28.2543   33.6337 C   0  0  0  0  0  0  0  0  0  0  0  0
    7.9666  -29.4424   32.9685 N   0  0  0  0  0  0  0  0  0  0  0  0
    8.9382  -29.3998   28.8266 C   0  0  0  0  0  0  0  0  0  0  0  0
    9.6584  -28.6164   29.7127 C   0  0  0  0  0  0  0  0  0  0  0  0
    9.3425  -28.6267   31.0851 C   0  0  0  0  0  0  0  0  0  0  0  0
    8.3064  -29.4217   31.5511 C   0  0  0  0  0  0  0  0  0  0  0  0
    7.5845  -30.2081   30.6582 C   0  0  0  0  0  0  0  0  0  0  0  0
    7.9006  -30.1984   29.2972 C   0  0  0  0  0  0  0  0  0  0  0  0
    5.9898  -26.7424   30.8121 C   0  0  0  0  0  0  0  0  0  0  0  0
  1  3  1  0  0  0  0
  2  3  2  0  0  0  0
  2 12  1  0  0  0  0
  3  4  1  0  0  0  0
  4  6  1  0  0  0  0
  5 22  1  0  0  0  0
  6  7  1  0  0  0  0
  6  8  2  0  0  0  0
  7 12  2  0  0  0  0
  7  9  1  0  0  0  0
  9 10  1  0  0  0  0
  9 22  1  0  0  0  0
 10 11  1  0  0  0  0
 10 14  1  1  0  0  0
 11 13  1  0  0  0  0
 12 13  1  0  0  0  0
 14 15  1  0  0  0  0
 15 19  1  0  0  0  0
 16 17  2  0  0  0  0
 16 21  1  0  0  0  0
 17 18  1  0  0  0  0
 18 19  2  0  0  0  0
 19 20  1  0  0  0  0
 20 21  2  0  0  0  0
M  END
>  <CHROM.1>
-104.26381174,-108.66003632,63.90164061,65.19328743,6.92177158,-26.66850651
32.37874289,-2.03958854,-0.92565199,-2.92476318

>  <Name>
ligand

>  <RI>
0

>  <Rbt.Current_Directory>
/home/itssahil/PROJECTS/Mol_Feturizer/Test_systems_manuscript/rnas/3sd3

>  <Rbt.Executable>
rbdock ($Id: //depot/dev/client3/rdock/2013.1/src/exe/rbdock.cxx#4 $)

>  <Rbt.Library>
libRbt.so (2013.1, Build901 2013/11/27)

>  <Rbt.Parameter_File>
/export/apps/rDock/src/rDock_2013.1_src/data/scripts/dock_solv.prm

>  <Rbt.Receptor>
prm/blind_docking_80.prm

>  <SCORE>
-12.8644

>  <SCORE.INTER>
-12.9857

>  <SCORE.INTER.CONST>
1

>  <SCORE.INTER.POLAR>
0

>  <SCORE.INTER.ROT>
4

>  <SCORE.INTER.SOLV>
14.8114

>  <SCORE.INTER.VDW>
-19.8609

>  <SCORE.INTER.norm>
-0.590259

>  <SCORE.INTRA>
0.121309

>  <SCORE.INTRA.DIHEDRAL>
3.87269

>  <SCORE.INTRA.DIHEDRAL.0>
2.54655

>  <SCORE.INTRA.POLAR>
0

>  <SCORE.INTRA.POLAR.0>
0

>  <SCORE.INTRA.REPUL>
0

>  <SCORE.INTRA.REPUL.0>
0

>  <SCORE.INTRA.SOLV>
-0.728737

>  <SCORE.INTRA.SOLV.lig_0>
-56.4922

>  <SCORE.INTRA.VDW>
-1.45067

>  <SCORE.INTRA.VDW.0>
-0.696801

>  <SCORE.INTRA.norm>
0.00551406

>  <SCORE.RESTR>
0

>  <SCORE.RESTR.CAVITY>
0

>  <SCORE.RESTR.norm>
0

>  <SCORE.SYSTEM>
0

>  <SCORE.SYSTEM.CONST>
0

>  <SCORE.SYSTEM.DIHEDRAL>
0

>  <SCORE.SYSTEM.SOLV>
0

>  <SCORE.SYSTEM.norm>
0

>  <SCORE.heavy>
22

>  <SCORE.norm>
-0.584745

>  <RMSD>
14.889

$$$$
ligand
 OpenBabel02271912143D
libRbt.so/2013.1/901 2013/11/27
 22 24  0  0  0  0  0  0  0  0999 V2000
    3.2952  -27.8187   33.1267 N   0  0  0  0  0  0  0  0  0  0  0  0
    5.3745  -26.7216   32.6729 N   0  0  0  0  0  0  0  0  0  0  0  0
    4.2308  -26.7552   33.3765 C   0  0  0  0  0  0  0  0  0  0  0  0
    3.9383  -25.8400   34.2923 N   0  0  0  0  0  0  0  0  0  0  0  0
    6.5750  -21.9681   35.3569 O   0  0  0  0  0  0  0  0  0  0  0  0
    4.7998  -24.8363   34.5402 C   0  0  0  0  0  0  0  0  0  0  0  0
    6.0156  -24.7619   33.8048 C   0  0  0  0  0  0  0  0  0  0  0  0
    4.4725  -23.9006   35.4957 O   0  0  0  0  0  0  0  0  0  0  0  0
    7.0434  -23.7547   33.9788 N   0  0  0  0  0  0  0  0  0  0  0  0
    8.4352  -24.2181   33.9069 C   0  0  2  0  0  0  0  0  0  0  0  0
    8.6633  -25.0102   32.6575 C   0  0  0  0  0  0  0  0  0  0  0  0
    6.2743  -25.7398   32.8773 C   0  0  0  0  0  0  0  0  0  0  0  0
    7.4797  -25.6939   32.1401 N   0  0  0  0  0  0  0  0  0  0  0  0
    8.8721  -25.0657   35.1154 C   0  0  0  0  0  0  0  0  0  0  0  0
    8.6210  -24.3477   36.3590 N   0  0  0  0  0  0  0  0  0  0  0  0
   10.4084  -20.5532   37.0720 C   0  0  0  0  0  0  0  0  0  0  0  0
    9.5112  -21.0766   37.9877 C   0  0  0  0  0  0  0  0  0  0  0  0
    8.9167  -22.3326   37.7581 C   0  0  0  0  0  0  0  0  0  0  0  0
    9.2287  -23.0470   36.6114 C   0  0  0  0  0  0  0  0  0  0  0  0
   10.1309  -22.5184   35.6929 C   0  0  0  0  0  0  0  0  0  0  0  0
   10.7214  -21.2732   35.9233 C   0  0  0  0  0  0  0  0  0  0  0  0
    6.7855  -22.3776   34.2275 C   0  0  0  0  0  0  0  0  0  0  0  0
  1  3  1  0  0  0  0
  2  3  2  0  0  0  0
  2 12  1  0  0  0  0
  3  4  1  0  0  0  0
  4  6  1  0  0  0  0
  5 22  1  0  0  0  0
  6  7  1  0  0  0  0
  6  8  2  0  0  0  0
  7 12  2  0  0  0  0
  7  9  1  0  0  0  0
  9 10  1  0  0  0  0
  9 22  1  0  0  0  0
 10 11  1  0  0  0  0
 10 14  1  1  0  0  0
 11 13  1  0  0  0  0
 12 13  1  0  0  0  0
 14 15  1  0  0  0  0
 15 19  1  0  0  0  0
 16 17  2  0  0  0  0
 16 21  1  0  0  0  0
 17 18  1  0  0  0  0
 18 19  2  0  0  0  0
 19 20  1  0  0  0  0
 20 21  2  0  0  0  0
M  END
>  <CHROM.1>
84.25368715,-54.16037967,-58.68805162,175.82048064,7.18360983,-24.11088803
34.72892617,2.31067203,-0.20274747,-2.31784910

>  <Name>
ligand

>  <RI>
0

>  <Rbt.Current_Directory>
/home/itssahil/PROJECTS/Mol_Feturizer/Test_systems_manuscript/rnas/3sd3

>  <Rbt.Executable>
rbdock ($Id: //depot/dev/client3/rdock/2013.1/src/exe/rbdock.cxx#4 $)

>  <Rbt.Library>
libRbt.so (2013.1, Build901 2013/11/27)

>  <Rbt.Parameter_File>
/export/apps/rDock/src/rDock_2013.1_src/data/scripts/dock_solv.prm

>  <Rbt.Receptor>
prm/blind_docking_100.prm

>  <SCORE>
-13.2238

>  <SCORE.INTER>
-12.2697

>  <SCORE.INTER.CONST>
1

>  <SCORE.INTER.POLAR>
0

>  <SCORE.INTER.ROT>
4

>  <SCORE.INTER.SOLV>
6.07769

>  <SCORE.INTER.VDW>
-16.4723

>  <SCORE.INTER.norm>
-0.557712

>  <SCORE.INTRA>
-0.954619

>  <SCORE.INTRA.DIHEDRAL>
-0.808957

>  <SCORE.INTRA.DIHEDRAL.0>
2.54655

>  <SCORE.INTRA.POLAR>
0

>  <SCORE.INTRA.POLAR.0>
0

>  <SCORE.INTRA.REPUL>
0

>  <SCORE.INTRA.REPUL.0>
0

>  <SCORE.INTRA.SOLV>
1.03353

>  <SCORE.INTRA.SOLV.lig_0>
-56.4922

>  <SCORE.INTRA.VDW>
-1.06691

>  <SCORE.INTRA.VDW.0>
-0.696801

>  <SCORE.INTRA.norm>
-0.0433918

>  <SCORE.RESTR>
0.000447591

>  <SCORE.RESTR.CAVITY>
0.000447591

>  <SCORE.RESTR.norm>
2.0345e-05

>  <SCORE.SYSTEM>
0

>  <SCORE.SYSTEM.CONST>
0

>  <SCORE.SYSTEM.DIHEDRAL>
0

>  <SCORE.SYSTEM.SOLV>
0

>  <SCORE.SYSTEM.norm>
0

>  <SCORE.heavy>
22

>  <SCORE.norm>
-0.601084

>  <RMSD>
14.895

$$$$
ligand
 OpenBabel02271912143D
libRbt.so/2013.1/901 2013/11/27
 22 24  0  0  0  0  0  0  0  0999 V2000
    8.6248  -19.3666   35.7979 N   0  0  0  0  0  0  0  0  0  0  0  0
    8.9847  -21.7330   35.7368 N   0  0  0  0  0  0  0  0  0  0  0  0
    8.1468  -20.7002   35.5489 C   0  0  0  0  0  0  0  0  0  0  0  0
    6.8951  -20.8717   35.1418 N   0  0  0  0  0  0  0  0  0  0  0  0
    5.3663  -25.5083   36.3109 O   0  0  0  0  0  0  0  0  0  0  0  0
    6.4283  -22.1114   34.9044 C   0  0  0  0  0  0  0  0  0  0  0  0
    7.2841  -23.2302   35.1050 C   0  0  0  0  0  0  0  0  0  0  0  0
    5.1264  -22.2615   34.4821 O   0  0  0  0  0  0  0  0  0  0  0  0
    6.9269  -24.6152   34.8697 N   0  0  0  0  0  0  0  0  0  0  0  0
    7.9583  -25.4644   34.2599 C   0  0  2  0  0  0  0  0  0  0  0  0
    9.2436  -25.3613   35.0201 C   0  0  0  0  0  0  0  0  0  0  0  0
    8.5725  -22.9966   35.5160 C   0  0  0  0  0  0  0  0  0  0  0  0
    9.4458  -24.0907   35.7135 N   0  0  0  0  0  0  0  0  0  0  0  0
    8.2335  -25.1435   32.7796 C   0  0  0  0  0  0  0  0  0  0  0  0
    7.1362  -25.6148   31.9435 N   0  0  0  0  0  0  0  0  0  0  0  0
    7.1714  -29.5081   30.2282 C   0  0  0  0  0  0  0  0  0  0  0  0
    8.1967  -29.1165   31.0726 C   0  0  0  0  0  0  0  0  0  0  0  0
    8.1905  -27.8295   31.6444 C   0  0  0  0  0  0  0  0  0  0  0  0
    7.1563  -26.9506   31.3603 C   0  0  0  0  0  0  0  0  0  0  0  0
    6.1271  -27.3471   30.5114 C   0  0  0  0  0  0  0  0  0  0  0  0
    6.1337  -28.6251   29.9466 C   0  0  0  0  0  0  0  0  0  0  0  0
    5.6567  -25.1804   35.1727 C   0  0  0  0  0  0  0  0  0  0  0  0
  1  3  1  0  0  0  0
  2  3  2  0  0  0  0
  2 12  1  0  0  0  0
  3  4  1  0  0  0  0
  4  6  1  0  0  0  0
  5 22  1  0  0  0  0
  6  7  1  0  0  0  0
  6  8  2  0  0  0  0
  7 12  2  0  0  0  0
  7  9  1  0  0  0  0
  9 10  1  0  0  0  0
  9 22  1  0  0  0  0
 10 11  1  0  0  0  0
 10 14  1  6  0  0  0
 11 13  1  0  0  0  0
 12 13  1  0  0  0  0
 14 15  1  0  0  0  0
 15 19  1  0  0  0  0
 16 17  2  0  0  0  0
 16 21  1  0  0  0  0
 17 18  1  0  0  0  0
 18 19  2  0  0  0  0
 19 20  1  0  0  0  0
 20 21  2  0  0  0  0
M  END
>  <CHROM.1>
-79.50362032,-73.39920176,-91.14107383,3.30722314,7.38265326,-24.61903319
33.87809309,-1.49977143,0.04519447,-2.53808395

>  <Name>
ligand

>  <RI>
0

>  <Rbt.Current_Directory>
/home/itssahil/PROJECTS/Mol_Feturizer/Test_systems_manuscript/rnas/3sd3

>  <Rbt.Executable>
rbdock ($Id: //depot/dev/client3/rdock/2013.1/src/exe/rbdock.cxx#4 $)

>  <Rbt.Library>
libRbt.so (2013.1, Build901 2013/11/27)

>  <Rbt.Parameter_File>
/export/apps/rDock/src/rDock_2013.1_src/data/scripts/dock_solv.prm

>  <Rbt.Receptor>
prm/blind_docking_80.prm

>  <SCORE>
-15.7964

>  <SCORE.INTER>
-15.3963

>  <SCORE.INTER.CONST>
1

>  <SCORE.INTER.POLAR>
0

>  <SCORE.INTER.ROT>
4

>  <SCORE.INTER.SOLV>
11.1604

>  <SCORE.INTER.VDW>
-20.251

>  <SCORE.INTER.norm>
-0.699831

>  <SCORE.INTRA>
-0.40014

>  <SCORE.INTRA.DIHEDRAL>
0.348116

>  <SCORE.INTRA.DIHEDRAL.0>
2.54655

>  <SCORE.INTRA.POLAR>
0

>  <SCORE.INTRA.POLAR.0>
0

>  <SCORE.INTRA.REPUL>
0

>  <SCORE.INTRA.REPUL.0>
0

>  <SCORE.INTRA.SOLV>
-0.438866

>  <SCORE.INTRA.SOLV.lig_0>
-56.4922

>  <SCORE.INTRA.VDW>
-0.354765

>  <SCORE.INTRA.VDW.0>
-0.696801

>  <SCORE.INTRA.norm>
-0.0181882

>  <SCORE.RESTR>
0

>  <SCORE.RESTR.CAVITY>
0

>  <SCORE.RESTR.norm>
0

>  <SCORE.SYSTEM>
0

>  <SCORE.SYSTEM.CONST>
0

>  <SCORE.SYSTEM.DIHEDRAL>
0

>  <SCORE.SYSTEM.SOLV>
0

>  <SCORE.SYSTEM.norm>
0

>  <SCORE.heavy>
22

>  <SCORE.norm>
-0.718019

>  <RMSD>
14.896

$$$$
ligand
 OpenBabel02271912143D
libRbt.so/2013.1/901 2013/11/27
 22 24  0  0  0  0  0  0  0  0999 V2000
    8.9420  -19.3831   35.3524 N   0  0  0  0  0  0  0  0  0  0  0  0
    9.3293  -21.7283   35.6400 N   0  0  0  0  0  0  0  0  0  0  0  0
    8.4645  -20.7398   35.3591 C   0  0  0  0  0  0  0  0  0  0  0  0
    7.1866  -20.9755   35.0884 N   0  0  0  0  0  0  0  0  0  0  0  0
    5.9314  -25.7037   37.0255 O   0  0  0  0  0  0  0  0  0  0  0  0
    6.7197  -22.2378   35.0906 C   0  0  0  0  0  0  0  0  0  0  0  0
    7.6047  -23.3091   35.3963 C   0  0  0  0  0  0  0  0  0  0  0  0
    5.3903  -22.4549   34.8057 O   0  0  0  0  0  0  0  0  0  0  0  0
    7.2493  -24.7143   35.4148 N   0  0  0  0  0  0  0  0  0  0  0  0
    8.2401  -25.6491   34.8657 C   0  0  2  0  0  0  0  0  0  0  0  0
    9.5809  -25.4243   35.4920 C   0  0  0  0  0  0  0  0  0  0  0  0
    8.9186  -23.0114   35.6579 C   0  0  0  0  0  0  0  0  0  0  0  0
    9.8203  -24.0589   35.9551 N   0  0  0  0  0  0  0  0  0  0  0  0
    8.3904  -25.5689   33.3358 C   0  0  0  0  0  0  0  0  0  0  0  0
    7.1990  -26.0920   32.6785 N   0  0  0  0  0  0  0  0  0  0  0  0
    7.3786  -29.5321   30.1816 C   0  0  0  0  0  0  0  0  0  0  0  0
    8.3014  -29.3703   31.2013 C   0  0  0  0  0  0  0  0  0  0  0  0
    8.2469  -28.2343   32.0319 C   0  0  0  0  0  0  0  0  0  0  0  0
    7.2679  -27.2737   31.8278 C   0  0  0  0  0  0  0  0  0  0  0  0
    6.3417  -27.4392   30.8023 C   0  0  0  0  0  0  0  0  0  0  0  0
    6.3959  -28.5678   29.9804 C   0  0  0  0  0  0  0  0  0  0  0  0
    6.0158  -25.2251   35.9069 C   0  0  0  0  0  0  0  0  0  0  0  0
  1  3  1  0  0  0  0
  2  3  2  0  0  0  0
  2 12  1  0  0  0  0
  3  4  1  0  0  0  0
  4  6  1  0  0  0  0
  5 22  1  0  0  0  0
  6  7  1  0  0  0  0
  6  8  2  0  0  0  0
  7 12  2  0  0  0  0
  7  9  1  0  0  0  0
  9 10  1  0  0  0  0
  9 22  1  0  0  0  0
 10 11  1  0  0  0  0
 10 14  1  6  0  0  0
 11 13  1  0  0  0  0
 12 13  1  0  0  0  0
 14 15  1  0  0  0  0
 15 19  1  0  0  0  0
 16 17  2  0  0  0  0
 16 21  1  0  0  0  0
 17 18  1  0  0  0  0
 18 19  2  0  0  0  0
 19 20  1  0  0  0  0
 20 21  2  0  0  0  0
M  END
>  <CHROM.1>
-99.49216591,-69.80860321,-116.81287656,27.00588008,7.65633731,-24.75968043
34.16134477,-1.47290048,-0.42798886,-2.51749980

>  <Name>
ligand

>  <RI>
0

>  <Rbt.Current_Directory>
/home/itssahil/PROJECTS/Mol_Feturizer/Test_systems_manuscript/rnas/3sd3

>  <Rbt.Executable>
rbdock ($Id: //depot/dev/client3/rdock/2013.1/src/exe/rbdock.cxx#4 $)

>  <Rbt.Library>
libRbt.so (2013.1, Build901 2013/11/27)

>  <Rbt.Parameter_File>
/export/apps/rDock/src/rDock_2013.1_src/data/scripts/dock_solv.prm

>  <Rbt.Receptor>
prm/blind_docking_60.prm

>  <SCORE>
-14.2946

>  <SCORE.INTER>
-13.9834

>  <SCORE.INTER.CONST>
1

>  <SCORE.INTER.POLAR>
0

>  <SCORE.INTER.ROT>
4

>  <SCORE.INTER.SOLV>
13.8161

>  <SCORE.INTER.VDW>
-20.1943

>  <SCORE.INTER.norm>
-0.635607

>  <SCORE.INTRA>
-0.311217

>  <SCORE.INTRA.DIHEDRAL>
0.629465

>  <SCORE.INTRA.DIHEDRAL.0>
2.54655

>  <SCORE.INTRA.POLAR>
0

>  <SCORE.INTRA.POLAR.0>
0

>  <SCORE.INTRA.REPUL>
0

>  <SCORE.INTRA.REPUL.0>
0

>  <SCORE.INTRA.SOLV>
-0.418368

>  <SCORE.INTRA.SOLV.lig_0>
-56.4922

>  <SCORE.INTRA.VDW>
-0.416765

>  <SCORE.INTRA.VDW.0>
-0.696801

>  <SCORE.INTRA.norm>
-0.0141462

>  <SCORE.RESTR>
0

>  <SCORE.RESTR.CAVITY>
0

>  <SCORE.RESTR.norm>
0

>  <SCORE.SYSTEM>
0

>  <SCORE.SYSTEM.CONST>
0

>  <SCORE.SYSTEM.DIHEDRAL>
0

>  <SCORE.SYSTEM.SOLV>
0

>  <SCORE.SYSTEM.norm>
0

>  <SCORE.heavy>
22

>  <SCORE.norm>
-0.649754

>  <RMSD>
14.912

$$$$
ligand
 OpenBabel02271912143D
libRbt.so/2013.1/901 2013/11/27
 22 24  0  0  0  0  0  0  0  0999 V2000
    9.0091  -19.9246   36.0906 N   0  0  0  0  0  0  0  0  0  0  0  0
    8.8623  -22.3063   35.8943 N   0  0  0  0  0  0  0  0  0  0  0  0
    8.2946  -21.1065   35.6888 C   0  0  0  0  0  0  0  0  0  0  0  0
    7.0984  -20.9782   35.1282 N   0  0  0  0  0  0  0  0  0  0  0  0
    4.5430  -25.5774   35.6122 O   0  0  0  0  0  0  0  0  0  0  0  0
    6.4131  -22.0717   34.7462 C   0  0  0  0  0  0  0  0  0  0  0  0
    6.9782  -23.3599   34.9599 C   0  0  0  0  0  0  0  0  0  0  0  0
    5.1748  -21.9108   34.1664 O   0  0  0  0  0  0  0  0  0  0  0  0
    6.3680  -24.6192   34.5819 N   0  0  0  0  0  0  0  0  0  0  0  0
    7.2650  -25.6445   34.0332 C   0  0  2  0  0  0  0  0  0  0  0  0
    8.4337  -25.8638   34.9424 C   0  0  0  0  0  0  0  0  0  0  0  0
    8.2228  -23.4360   35.5333 C   0  0  0  0  0  0  0  0  0  0  0  0
    8.8104  -24.7038   35.7478 N   0  0  0  0  0  0  0  0  0  0  0  0
    7.7907  -25.3215   32.6229 C   0  0  0  0  0  0  0  0  0  0  0  0
    8.6325  -26.4057   32.1320 N   0  0  0  0  0  0  0  0  0  0  0  0
    6.9396  -29.6642   29.9831 C   0  0  0  0  0  0  0  0  0  0  0  0
    8.2482  -29.7374   30.4300 C   0  0  0  0  0  0  0  0  0  0  0  0
    8.8143  -28.6627   31.1427 C   0  0  0  0  0  0  0  0  0  0  0  0
    8.0606  -27.5268   31.3966 C   0  0  0  0  0  0  0  0  0  0  0  0
    6.7456  -27.4562   30.9463 C   0  0  0  0  0  0  0  0  0  0  0  0
    6.1848  -28.5242   30.2413 C   0  0  0  0  0  0  0  0  0  0  0  0
    4.9784  -24.9045   34.6929 C   0  0  0  0  0  0  0  0  0  0  0  0
  1  3  1  0  0  0  0
  2  3  2  0  0  0  0
  2 12  1  0  0  0  0
  3  4  1  0  0  0  0
  4  6  1  0  0  0  0
  5 22  1  0  0  0  0
  6  7  1  0  0  0  0
  6  8  2  0  0  0  0
  7 12  2  0  0  0  0
  7  9  1  0  0  0  0
  9 10  1  0  0  0  0
  9 22  1  0  0  0  0
 10 11  1  0  0  0  0
 10 14  1  6  0  0  0
 11 13  1  0  0  0  0
 12 13  1  0  0  0  0
 14 15  1  0  0  0  0
 15 19  1  0  0  0  0
 16 17  2  0  0  0  0
 16 21  1  0  0  0  0
 17 18  1  0  0  0  0
 18 19  2  0  0  0  0
 19 20  1  0  0  0  0
 20 21  2  0  0  0  0
M  END
>  <CHROM.1>
-101.47096235,-177.98361583,89.04591884,-168.34977520,7.31461314,-24.88743888
33.76396352,-1.56988509,-0.06011502,-2.53897837

>  <Name>
ligand

>  <RI>
0

>  <Rbt.Current_Directory>
/home/itssahil/PROJECTS/Mol_Feturizer/Test_systems_manuscript/rnas/3sd3

>  <Rbt.Executable>
rbdock ($Id: //depot/dev/client3/rdock/2013.1/src/exe/rbdock.cxx#4 $)

>  <Rbt.Library>
libRbt.so (2013.1, Build901 2013/11/27)

>  <Rbt.Parameter_File>
/export/apps/rDock/src/rDock_2013.1_src/data/scripts/dock_solv.prm

>  <Rbt.Receptor>
prm/blind_docking_100.prm

>  <SCORE>
-15.2936

>  <SCORE.INTER>
-15.0432

>  <SCORE.INTER.CONST>
1

>  <SCORE.INTER.POLAR>
0

>  <SCORE.INTER.ROT>
4

>  <SCORE.INTER.SOLV>
9.33081

>  <SCORE.INTER.VDW>
-19.4057

>  <SCORE.INTER.norm>
-0.68378

>  <SCORE.INTRA>
-0.250484

>  <SCORE.INTRA.DIHEDRAL>
-0.300214

>  <SCORE.INTRA.DIHEDRAL.0>
2.54655

>  <SCORE.INTRA.POLAR>
0

>  <SCORE.INTRA.POLAR.0>
0

>  <SCORE.INTRA.REPUL>
0

>  <SCORE.INTRA.REPUL.0>
0

>  <SCORE.INTRA.SOLV>
-0.672277

>  <SCORE.INTRA.SOLV.lig_0>
-56.4922

>  <SCORE.INTRA.VDW>
0.235761

>  <SCORE.INTRA.VDW.0>
-0.696801

>  <SCORE.INTRA.norm>
-0.0113856

>  <SCORE.RESTR>
0

>  <SCORE.RESTR.CAVITY>
0

>  <SCORE.RESTR.norm>
0

>  <SCORE.SYSTEM>
0

>  <SCORE.SYSTEM.CONST>
0

>  <SCORE.SYSTEM.DIHEDRAL>
0

>  <SCORE.SYSTEM.SOLV>
0

>  <SCORE.SYSTEM.norm>
0

>  <SCORE.heavy>
22

>  <SCORE.norm>
-0.695166

>  <RMSD>
14.932

$$$$
ligand
 OpenBabel02271912143D
libRbt.so/2013.1/901 2013/11/27
 22 24  0  0  0  0  0  0  0  0999 V2000
    8.7103  -19.5647   36.2829 N   0  0  0  0  0  0  0  0  0  0  0  0
    8.9318  -21.9469   36.1887 N   0  0  0  0  0  0  0  0  0  0  0  0
    8.2156  -20.8535   35.8793 C   0  0  0  0  0  0  0  0  0  0  0  0
    7.0688  -20.9256   35.2148 N   0  0  0  0  0  0  0  0  0  0  0  0
    5.2940  -26.1523   35.3978 O   0  0  0  0  0  0  0  0  0  0  0  0
    6.5882  -22.1220   34.8291 C   0  0  0  0  0  0  0  0  0  0  0  0
    7.3140  -23.3027   35.1507 C   0  0  0  0  0  0  0  0  0  0  0  0
    5.3969  -22.1688   34.1405 O   0  0  0  0  0  0  0  0  0  0  0  0
    6.9312  -24.6516   34.7831 N   0  0  0  0  0  0  0  0  0  0  0  0
    8.0144  -25.5493   34.3612 C   0  0  2  0  0  0  0  0  0  0  0  0
    9.1158  -25.5593   35.3747 C   0  0  0  0  0  0  0  0  0  0  0  0
    8.4996  -23.1715   35.8295 C   0  0  0  0  0  0  0  0  0  0  0  0
    9.2446  -24.3287   36.1526 N   0  0  0  0  0  0  0  0  0  0  0  0
    8.6120  -25.2001   32.9862 C   0  0  0  0  0  0  0  0  0  0  0  0
    7.5910  -25.2880   31.9495 N   0  0  0  0  0  0  0  0  0  0  0  0
    6.5616  -29.0407   30.2294 C   0  0  0  0  0  0  0  0  0  0  0  0
    5.6867  -27.9721   30.1290 C   0  0  0  0  0  0  0  0  0  0  0  0
    6.0218  -26.7270   30.6954 C   0  0  0  0  0  0  0  0  0  0  0  0
    7.2302  -26.5701   31.3572 C   0  0  0  0  0  0  0  0  0  0  0  0
    8.1075  -27.6459   31.4563 C   0  0  0  0  0  0  0  0  0  0  0  0
    7.7745  -28.8800   30.8920 C   0  0  0  0  0  0  0  0  0  0  0  0
    5.5940  -25.1380   34.7906 C   0  0  0  0  0  0  0  0  0  0  0  0
  1  3  1  0  0  0  0
  2  3  2  0  0  0  0
  2 12  1  0  0  0  0
  3  4  1  0  0  0  0
  4  6  1  0  0  0  0
  5 22  1  0  0  0  0
  6  7  1  0  0  0  0
  6  8  2  0  0  0  0
  7 12  2  0  0  0  0
  7  9  1  0  0  0  0
  9 10  1  0  0  0  0
  9 22  1  0  0  0  0
 10 11  1  0  0  0  0
 10 14  1  6  0  0  0
 11 13  1  0  0  0  0
 12 13  1  0  0  0  0
 14 15  1  0  0  0  0
 15 19  1  0  0  0  0
 16 17  2  0  0  0  0
 16 21  1  0  0  0  0
 17 18  1  0  0  0  0
 18 19  2  0  0  0  0
 19 20  1  0  0  0  0
 20 21  2  0  0  0  0
M  END
>  <CHROM.1>
-126.51728374,-60.89731929,-81.92317198,160.25700039,7.36937312,-24.59538718
33.91328041,1.41706994,-0.48142238,0.58100087

>  <Name>
ligand

>  <RI>
0

>  <Rbt.Current_Directory>
/home/itssahil/PROJECTS/Mol_Feturizer/Test_systems_manuscript/rnas/3sd3

>  <Rbt.Executable>
rbdock ($Id: //depot/dev/client3/rdock/2013.1/src/exe/rbdock.cxx#4 $)

>  <Rbt.Library>
libRbt.so (2013.1, Build901 2013/11/27)

>  <Rbt.Parameter_File>
/export/apps/rDock/src/rDock_2013.1_src/data/scripts/dock_solv.prm

>  <Rbt.Receptor>
prm/blind_docking_100.prm

>  <SCORE>
-15.6586

>  <SCORE.INTER>
-14.7767

>  <SCORE.INTER.CONST>
1

>  <SCORE.INTER.POLAR>
0

>  <SCORE.INTER.ROT>
4

>  <SCORE.INTER.SOLV>
8.74415

>  <SCORE.INTER.VDW>
-19.0325

>  <SCORE.INTER.norm>
-0.671667

>  <SCORE.INTRA>
-0.881948

>  <SCORE.INTRA.DIHEDRAL>
-0.564836

>  <SCORE.INTRA.DIHEDRAL.0>
2.54655

>  <SCORE.INTRA.POLAR>
0

>  <SCORE.INTRA.POLAR.0>
0

>  <SCORE.INTRA.REPUL>
0

>  <SCORE.INTRA.REPUL.0>
0

>  <SCORE.INTRA.SOLV>
-0.207469

>  <SCORE.INTRA.SOLV.lig_0>
-56.4922

>  <SCORE.INTRA.VDW>
-0.495795

>  <SCORE.INTRA.VDW.0>
-0.696801

>  <SCORE.INTRA.norm>
-0.0400885

>  <SCORE.RESTR>
0

>  <SCORE.RESTR.CAVITY>
0

>  <SCORE.RESTR.norm>
0

>  <SCORE.SYSTEM>
0

>  <SCORE.SYSTEM.CONST>
0

>  <SCORE.SYSTEM.DIHEDRAL>
0

>  <SCORE.SYSTEM.SOLV>
0

>  <SCORE.SYSTEM.norm>
0

>  <SCORE.heavy>
22

>  <SCORE.norm>
-0.711755

>  <RMSD>
14.956

$$$$
ligand
 OpenBabel02271912143D
libRbt.so/2013.1/901 2013/11/27
 22 24  0  0  0  0  0  0  0  0999 V2000
    6.8215  -22.1623   35.8720 N   0  0  0  0  0  0  0  0  0  0  0  0
    5.9538  -24.3426   35.3963 N   0  0  0  0  0  0  0  0  0  0  0  0
    6.6407  -23.2693   34.9716 C   0  0  0  0  0  0  0  0  0  0  0  0
    7.1559  -23.1988   33.7504 N   0  0  0  0  0  0  0  0  0  0  0  0
    6.1793  -27.4069   30.3630 O   0  0  0  0  0  0  0  0  0  0  0  0
    6.9968  -24.2234   32.8924 C   0  0  0  0  0  0  0  0  0  0  0  0
    6.2639  -25.3714   33.3039 C   0  0  0  0  0  0  0  0  0  0  0  0
    7.5420  -24.1252   31.6319 O   0  0  0  0  0  0  0  0  0  0  0  0
    6.0318  -26.5542   32.4987 N   0  0  0  0  0  0  0  0  0  0  0  0
    6.1115  -27.8463   33.1923 C   0  0  2  0  0  0  0  0  0  0  0  0
    5.2421  -27.8451   34.4108 C   0  0  0  0  0  0  0  0  0  0  0  0
    5.7618  -25.3978   34.5809 C   0  0  0  0  0  0  0  0  0  0  0  0
    5.0380  -26.5311   35.0173 N   0  0  0  0  0  0  0  0  0  0  0  0
    7.5400  -28.2437   33.6057 C   0  0  0  0  0  0  0  0  0  0  0  0
    7.9497  -29.4616   32.9171 N   0  0  0  0  0  0  0  0  0  0  0  0
    8.9832  -29.4188   28.7902 C   0  0  0  0  0  0  0  0  0  0  0  0
    9.7047  -28.6530   29.6905 C   0  0  0  0  0  0  0  0  0  0  0  0
    9.3684  -28.6634   31.0581 C   0  0  0  0  0  0  0  0  0  0  0  0
    8.3108  -29.4409   31.5050 C   0  0  0  0  0  0  0  0  0  0  0  0
    7.5876  -30.2097   30.5978 C   0  0  0  0  0  0  0  0  0  0  0  0
    7.9240  -30.1998   29.2417 C   0  0  0  0  0  0  0  0  0  0  0  0
    5.7556  -26.5350   31.1030 C   0  0  0  0  0  0  0  0  0  0  0  0
  1  3  1  0  0  0  0
  2  3  2  0  0  0  0
  2 12  1  0  0  0  0
  3  4  1  0  0  0  0
  4  6  1  0  0  0  0
  5 22  1  0  0  0  0
  6  7  1  0  0  0  0
  6  8  2  0  0  0  0
  7 12  2  0  0  0  0
  7  9  1  0  0  0  0
  9 10  1  0  0  0  0
  9 22  1  0  0  0  0
 10 11  1  0  0  0  0
 10 14  1  1  0  0  0
 11 13  1  0  0  0  0
 12 13  1  0  0  0  0
 14 15  1  0  0  0  0
 15 19  1  0  0  0  0
 16 17  2  0  0  0  0
 16 21  1  0  0  0  0
 17 18  1  0  0  0  0
 18 19  2  0  0  0  0
 19 20  1  0  0  0  0
 20 21  2  0  0  0  0
M  END
>  <CHROM.1>
144.15705317,-116.75712969,74.53244298,60.40905238,6.99076853,-26.71148698
32.60142723,-2.09538406,-1.01680765,-2.92287975

>  <Name>
ligand

>  <RI>
0

>  <Rbt.Current_Directory>
/home/itssahil/PROJECTS/Mol_Feturizer/Test_systems_manuscript/rnas/3sd3

>  <Rbt.Executable>
rbdock ($Id: //depot/dev/client3/rdock/2013.1/src/exe/rbdock.cxx#4 $)

>  <Rbt.Library>
libRbt.so (2013.1, Build901 2013/11/27)

>  <Rbt.Parameter_File>
/export/apps/rDock/src/rDock_2013.1_src/data/scripts/dock_solv.prm

>  <Rbt.Receptor>
prm/blind_docking_80.prm

>  <SCORE>
-12.4682

>  <SCORE.INTER>
-13.1751

>  <SCORE.INTER.CONST>
1

>  <SCORE.INTER.POLAR>
0

>  <SCORE.INTER.ROT>
4

>  <SCORE.INTER.SOLV>
12.4568

>  <SCORE.INTER.VDW>
-19.2024

>  <SCORE.INTER.norm>
-0.59887

>  <SCORE.INTRA>
0.706928

>  <SCORE.INTRA.DIHEDRAL>
4.44908

>  <SCORE.INTRA.DIHEDRAL.0>
2.54655

>  <SCORE.INTRA.POLAR>
0

>  <SCORE.INTRA.POLAR.0>
0

>  <SCORE.INTRA.REPUL>
0

>  <SCORE.INTRA.REPUL.0>
0

>  <SCORE.INTRA.SOLV>
-0.0804937

>  <SCORE.INTRA.SOLV.lig_0>
-56.4922

>  <SCORE.INTRA.VDW>
-1.47737

>  <SCORE.INTRA.VDW.0>
-0.696801

>  <SCORE.INTRA.norm>
0.0321331

>  <SCORE.RESTR>
0

>  <SCORE.RESTR.CAVITY>
0

>  <SCORE.RESTR.norm>
0

>  <SCORE.SYSTEM>
0

>  <SCORE.SYSTEM.CONST>
0

>  <SCORE.SYSTEM.DIHEDRAL>
0

>  <SCORE.SYSTEM.SOLV>
0

>  <SCORE.SYSTEM.norm>
0

>  <SCORE.heavy>
22

>  <SCORE.norm>
-0.566737

>  <RMSD>
14.969

$$$$
ligand
 OpenBabel02271912143D
libRbt.so/2013.1/901 2013/11/27
 22 24  0  0  0  0  0  0  0  0999 V2000
    3.8699  -27.8713   30.6698 N   0  0  0  0  0  0  0  0  0  0  0  0
    4.2932  -26.7294   32.7313 N   0  0  0  0  0  0  0  0  0  0  0  0
    4.7866  -27.3042   31.6221 C   0  0  0  0  0  0  0  0  0  0  0  0
    6.0899  -27.3650   31.3785 N   0  0  0  0  0  0  0  0  0  0  0  0
    9.5305  -25.3880   34.9906 O   0  0  0  0  0  0  0  0  0  0  0  0
    6.9643  -26.8413   32.2574 C   0  0  0  0  0  0  0  0  0  0  0  0
    6.4780  -26.2357   33.4495 C   0  0  0  0  0  0  0  0  0  0  0  0
    8.3108  -26.9170   31.9803 O   0  0  0  0  0  0  0  0  0  0  0  0
    7.2968  -25.6139   34.4714 N   0  0  0  0  0  0  0  0  0  0  0  0
    6.7772  -24.3750   35.0648 C   0  0  2  0  0  0  0  0  0  0  0  0
    5.3725  -24.5686   35.5441 C   0  0  0  0  0  0  0  0  0  0  0  0
    5.1207  -26.1894   33.6473 C   0  0  0  0  0  0  0  0  0  0  0  0
    4.6117  -25.5845   34.8193 N   0  0  0  0  0  0  0  0  0  0  0  0
    6.8114  -23.1665   34.1119 C   0  0  0  0  0  0  0  0  0  0  0  0
    7.0963  -21.9426   34.8509 N   0  0  0  0  0  0  0  0  0  0  0  0
   11.0082  -21.0894   36.2896 C   0  0  0  0  0  0  0  0  0  0  0  0
   10.4968  -22.3716   36.3992 C   0  0  0  0  0  0  0  0  0  0  0  0
    9.2030  -22.6609   35.9241 C   0  0  0  0  0  0  0  0  0  0  0  0
    8.4375  -21.6593   35.3464 C   0  0  0  0  0  0  0  0  0  0  0  0
    8.9543  -20.3716   35.2376 C   0  0  0  0  0  0  0  0  0  0  0  0
   10.2389  -20.0868   35.7075 C   0  0  0  0  0  0  0  0  0  0  0  0
    8.5547  -26.1150   34.9086 C   0  0  0  0  0  0  0  0  0  0  0  0
  1  3  1  0  0  0  0
  2  3  2  0  0  0  0
  2 12  1  0  0  0  0
  3  4  1  0  0  0  0
  4  6  1  0  0  0  0
  5 22  1  0  0  0  0
  6  7  1  0  0  0  0
  6  8  2  0  0  0  0
  7 12  2  0  0  0  0
  7  9  1  0  0  0  0
  9 10  1  0  0  0  0
  9 22  1  0  0  0  0
 10 11  1  0  0  0  0
 10 14  1  6  0  0  0
 11 13  1  0  0  0  0
 12 13  1  0  0  0  0
 14 15  1  0  0  0  0
 15 19  1  0  0  0  0
 16 17  2  0  0  0  0
 16 21  1  0  0  0  0
 17 18  1  0  0  0  0
 18 19  2  0  0  0  0
 19 20  1  0  0  0  0
 20 21  2  0  0  0  0
M  END
>  <CHROM.1>
130.92291469,-145.07029740,74.27485274,-41.81377255,7.25004537,-24.66248861
34.11283002,2.15003661,0.06960006,-2.61127498

>  <Name>
ligand

>  <RI>
0

>  <Rbt.Current_Directory>
/home/itssahil/PROJECTS/Mol_Feturizer/Test_systems_manuscript/rnas/3sd3

>  <Rbt.Executable>
rbdock ($Id: //depot/dev/client3/rdock/2013.1/src/exe/rbdock.cxx#4 $)

>  <Rbt.Library>
libRbt.so (2013.1, Build901 2013/11/27)

>  <Rbt.Parameter_File>
/export/apps/rDock/src/rDock_2013.1_src/data/scripts/dock_solv.prm

>  <Rbt.Receptor>
prm/blind_docking_80.prm

>  <SCORE>
-12.5594

>  <SCORE.INTER>
-12.8705

>  <SCORE.INTER.CONST>
1

>  <SCORE.INTER.POLAR>
0

>  <SCORE.INTER.ROT>
4

>  <SCORE.INTER.SOLV>
6.46027

>  <SCORE.INTER.VDW>
-17.0004

>  <SCORE.INTER.norm>
-0.585022

>  <SCORE.INTRA>
0.31111

>  <SCORE.INTRA.DIHEDRAL>
2.55733

>  <SCORE.INTRA.DIHEDRAL.0>
2.54655

>  <SCORE.INTRA.POLAR>
0

>  <SCORE.INTRA.POLAR.0>
0

>  <SCORE.INTRA.REPUL>
0

>  <SCORE.INTRA.REPUL.0>
0

>  <SCORE.INTRA.SOLV>
-0.579356

>  <SCORE.INTRA.SOLV.lig_0>
-56.4922

>  <SCORE.INTRA.VDW>
-0.677878

>  <SCORE.INTRA.VDW.0>
-0.696801

>  <SCORE.INTRA.norm>
0.0141413

>  <SCORE.RESTR>
0

>  <SCORE.RESTR.CAVITY>
0

>  <SCORE.RESTR.norm>
0

>  <SCORE.SYSTEM>
0

>  <SCORE.SYSTEM.CONST>
0

>  <SCORE.SYSTEM.DIHEDRAL>
0

>  <SCORE.SYSTEM.SOLV>
0

>  <SCORE.SYSTEM.norm>
0

>  <SCORE.heavy>
22

>  <SCORE.norm>
-0.570881

>  <RMSD>
14.971

$$$$
ligand
 OpenBabel02271912143D
libRbt.so/2013.1/901 2013/11/27
 22 24  0  0  0  0  0  0  0  0999 V2000
    3.3186  -27.2822   28.3685 N   0  0  0  0  0  0  0  0  0  0  0  0
    5.0722  -26.6155   29.8562 N   0  0  0  0  0  0  0  0  0  0  0  0
    3.9381  -27.3098   29.6662 C   0  0  0  0  0  0  0  0  0  0  0  0
    3.3732  -28.0182   30.6362 N   0  0  0  0  0  0  0  0  0  0  0  0
    5.0076  -26.1886   35.1904 O   0  0  0  0  0  0  0  0  0  0  0  0
    3.9365  -28.0562   31.8578 C   0  0  0  0  0  0  0  0  0  0  0  0
    5.1315  -27.3225   32.0989 C   0  0  0  0  0  0  0  0  0  0  0  0
    3.3308  -28.7993   32.8460 O   0  0  0  0  0  0  0  0  0  0  0  0
    5.8586  -27.2876   33.3524 N   0  0  0  0  0  0  0  0  0  0  0  0
    7.3242  -27.3138   33.2620 C   0  0  2  0  0  0  0  0  0  0  0  0
    7.8138  -26.2536   32.3256 C   0  0  0  0  0  0  0  0  0  0  0  0
    5.6803  -26.6154   31.0585 C   0  0  0  0  0  0  0  0  0  0  0  0
    6.8727  -25.8859   31.2695 N   0  0  0  0  0  0  0  0  0  0  0  0
    7.8959  -28.6708   32.8132 C   0  0  0  0  0  0  0  0  0  0  0  0
    7.4561  -28.9867   31.4597 N   0  0  0  0  0  0  0  0  0  0  0  0
   10.2844  -29.5164   28.3257 C   0  0  0  0  0  0  0  0  0  0  0  0
    9.0504  -30.1408   28.2548 C   0  0  0  0  0  0  0  0  0  0  0  0
    8.1094  -29.9688   29.2884 C   0  0  0  0  0  0  0  0  0  0  0  0
    8.4190  -29.1737   30.3814 C   0  0  0  0  0  0  0  0  0  0  0  0
    9.6600  -28.5473   30.4498 C   0  0  0  0  0  0  0  0  0  0  0  0
   10.5916  -28.7172   29.4224 C   0  0  0  0  0  0  0  0  0  0  0  0
    5.2460  -27.2485   34.6362 C   0  0  0  0  0  0  0  0  0  0  0  0
  1  3  1  0  0  0  0
  2  3  2  0  0  0  0
  2 12  1  0  0  0  0
  3  4  1  0  0  0  0
  4  6  1  0  0  0  0
  5 22  1  0  0  0  0
  6  7  1  0  0  0  0
  6  8  2  0  0  0  0
  7 12  2  0  0  0  0
  7  9  1  0  0  0  0
  9 10  1  0  0  0  0
  9 22  1  0  0  0  0
 10 11  1  0  0  0  0
 10 14  1  6  0  0  0
 11 13  1  0  0  0  0
 12 13  1  0  0  0  0
 14 15  1  0  0  0  0
 15 19  1  0  0  0  0
 16 17  2  0  0  0  0
 16 21  1  0  0  0  0
 17 18  1  0  0  0  0
 18 19  2  0  0  0  0
 19 20  1  0  0  0  0
 20 21  2  0  0  0  0
M  END
>  <CHROM.1>
-91.88989062,63.57484589,119.37621589,153.67110628,6.41607562,-27.85839452
31.32892699,2.48790313,-0.20032496,1.29856540

>  <Name>
ligand

>  <RI>
0

>  <Rbt.Current_Directory>
/home/itssahil/PROJECTS/Mol_Feturizer/Test_systems_manuscript/rnas/3sd3

>  <Rbt.Executable>
rbdock ($Id: //depot/dev/client3/rdock/2013.1/src/exe/rbdock.cxx#4 $)

>  <Rbt.Library>
libRbt.so (2013.1, Build901 2013/11/27)

>  <Rbt.Parameter_File>
/export/apps/rDock/src/rDock_2013.1_src/data/scripts/dock_solv.prm

>  <Rbt.Receptor>
prm/blind_docking_60.prm

>  <SCORE>
-17.2343

>  <SCORE.INTER>
-17.4206

>  <SCORE.INTER.CONST>
1

>  <SCORE.INTER.POLAR>
0

>  <SCORE.INTER.ROT>
4

>  <SCORE.INTER.SOLV>
12.4781

>  <SCORE.INTER.VDW>
-22.0398

>  <SCORE.INTER.norm>
-0.791845

>  <SCORE.INTRA>
0.186261

>  <SCORE.INTRA.DIHEDRAL>
0.366032

>  <SCORE.INTRA.DIHEDRAL.0>
2.54655

>  <SCORE.INTRA.POLAR>
0

>  <SCORE.INTRA.POLAR.0>
0

>  <SCORE.INTRA.REPUL>
0

>  <SCORE.INTRA.REPUL.0>
0

>  <SCORE.INTRA.SOLV>
1.79686

>  <SCORE.INTRA.SOLV.lig_0>
-56.4922

>  <SCORE.INTRA.VDW>
-0.895186

>  <SCORE.INTRA.VDW.0>
-0.696801

>  <SCORE.INTRA.norm>
0.00846642

>  <SCORE.RESTR>
0

>  <SCORE.RESTR.CAVITY>
0

>  <SCORE.RESTR.norm>
0

>  <SCORE.SYSTEM>
0

>  <SCORE.SYSTEM.CONST>
0

>  <SCORE.SYSTEM.DIHEDRAL>
0

>  <SCORE.SYSTEM.SOLV>
0

>  <SCORE.SYSTEM.norm>
0

>  <SCORE.heavy>
22

>  <SCORE.norm>
-0.783379

>  <RMSD>
15.072

$$$$
ligand
 OpenBabel02271912143D
libRbt.so/2013.1/901 2013/11/27
 22 24  0  0  0  0  0  0  0  0999 V2000
    3.3059  -27.2209   28.4725 N   0  0  0  0  0  0  0  0  0  0  0  0
    5.0705  -26.5428   29.9419 N   0  0  0  0  0  0  0  0  0  0  0  0
    3.9318  -27.2336   29.7674 C   0  0  0  0  0  0  0  0  0  0  0  0
    3.3682  -27.9254   30.7500 N   0  0  0  0  0  0  0  0  0  0  0  0
    5.2977  -26.0888   35.3958 O   0  0  0  0  0  0  0  0  0  0  0  0
    3.9375  -27.9492   31.9692 C   0  0  0  0  0  0  0  0  0  0  0  0
    5.1375  -27.2186   32.1939 C   0  0  0  0  0  0  0  0  0  0  0  0
    3.3328  -28.6751   32.9707 O   0  0  0  0  0  0  0  0  0  0  0  0
    5.8711  -27.1700   33.4432 N   0  0  0  0  0  0  0  0  0  0  0  0
    7.3361  -27.2053   33.3458 C   0  0  2  0  0  0  0  0  0  0  0  0
    7.8265  -26.1609   32.3923 C   0  0  0  0  0  0  0  0  0  0  0  0
    5.6847  -26.5291   31.1410 C   0  0  0  0  0  0  0  0  0  0  0  0
    6.8820  -25.8030   31.3358 N   0  0  0  0  0  0  0  0  0  0  0  0
    7.8983  -28.5715   32.9133 C   0  0  0  0  0  0  0  0  0  0  0  0
    7.4440  -28.9073   31.5694 N   0  0  0  0  0  0  0  0  0  0  0  0
   10.2053  -29.6248   28.4132 C   0  0  0  0  0  0  0  0  0  0  0  0
   10.5870  -28.8624   29.5044 C   0  0  0  0  0  0  0  0  0  0  0  0
    9.6781  -28.6220   30.5529 C   0  0  0  0  0  0  0  0  0  0  0  0
    8.3966  -29.1482   30.4926 C   0  0  0  0  0  0  0  0  0  0  0  0
    8.0159  -29.9142   29.3948 C   0  0  0  0  0  0  0  0  0  0  0  0
    8.9195  -30.1536   28.3563 C   0  0  0  0  0  0  0  0  0  0  0  0
    5.2653  -27.1097   34.7293 C   0  0  0  0  0  0  0  0  0  0  0  0
  1  3  1  0  0  0  0
  2  3  2  0  0  0  0
  2 12  1  0  0  0  0
  3  4  1  0  0  0  0
  4  6  1  0  0  0  0
  5 22  1  0  0  0  0
  6  7  1  0  0  0  0
  6  8  2  0  0  0  0
  7 12  2  0  0  0  0
  7  9  1  0  0  0  0
  9 10  1  0  0  0  0
  9 22  1  0  0  0  0
 10 11  1  0  0  0  0
 10 14  1  6  0  0  0
 11 13  1  0  0  0  0
 12 13  1  0  0  0  0
 14 15  1  0  0  0  0
 15 19  1  0  0  0  0
 16 17  2  0  0  0  0
 16 21  1  0  0  0  0
 17 18  1  0  0  0  0
 18 19  2  0  0  0  0
 19 20  1  0  0  0  0
 20 21  2  0  0  0  0
M  END
>  <CHROM.1>
-108.14823274,63.25833768,120.92920626,-23.20635877,6.42116495,-27.79631282
31.43122629,2.46279036,-0.21642900,1.27560232

>  <Name>
ligand

>  <RI>
0

>  <Rbt.Current_Directory>
/home/itssahil/PROJECTS/Mol_Feturizer/Test_systems_manuscript/rnas/3sd3

>  <Rbt.Executable>
rbdock ($Id: //depot/dev/client3/rdock/2013.1/src/exe/rbdock.cxx#4 $)

>  <Rbt.Library>
libRbt.so (2013.1, Build901 2013/11/27)

>  <Rbt.Parameter_File>
/export/apps/rDock/src/rDock_2013.1_src/data/scripts/dock_solv.prm

>  <Rbt.Receptor>
prm/blind_docking_60.prm

>  <SCORE>
-17.3287

>  <SCORE.INTER>
-17.544

>  <SCORE.INTER.CONST>
1

>  <SCORE.INTER.POLAR>
0

>  <SCORE.INTER.ROT>
4

>  <SCORE.INTER.SOLV>
12.3517

>  <SCORE.INTER.VDW>
-22.0799

>  <SCORE.INTER.norm>
-0.797452

>  <SCORE.INTRA>
0.215236

>  <SCORE.INTRA.DIHEDRAL>
0.347368

>  <SCORE.INTRA.DIHEDRAL.0>
2.54655

>  <SCORE.INTRA.POLAR>
0

>  <SCORE.INTRA.POLAR.0>
0

>  <SCORE.INTRA.REPUL>
0

>  <SCORE.INTRA.REPUL.0>
0

>  <SCORE.INTRA.SOLV>
1.76111

>  <SCORE.INTRA.SOLV.lig_0>
-56.4922

>  <SCORE.INTRA.VDW>
-0.839003

>  <SCORE.INTRA.VDW.0>
-0.696801

>  <SCORE.INTRA.norm>
0.00978346

>  <SCORE.RESTR>
0

>  <SCORE.RESTR.CAVITY>
0

>  <SCORE.RESTR.norm>
0

>  <SCORE.SYSTEM>
0

>  <SCORE.SYSTEM.CONST>
0

>  <SCORE.SYSTEM.DIHEDRAL>
0

>  <SCORE.SYSTEM.SOLV>
0

>  <SCORE.SYSTEM.norm>
0

>  <SCORE.heavy>
22

>  <SCORE.norm>
-0.787669

>  <RMSD>
15.080

$$$$
ligand
 OpenBabel02271912143D
libRbt.so/2013.1/901 2013/11/27
 22 24  0  0  0  0  0  0  0  0999 V2000
    2.6248  -27.2895   28.6701 N   0  0  0  0  0  0  0  0  0  0  0  0
    3.8237  -26.8204   30.6889 N   0  0  0  0  0  0  0  0  0  0  0  0
    3.8017  -27.4192   29.4868 C   0  0  0  0  0  0  0  0  0  0  0  0
    4.8292  -28.1249   29.0307 N   0  0  0  0  0  0  0  0  0  0  0  0
    8.1255  -29.2980   33.2814 O   0  0  0  0  0  0  0  0  0  0  0  0
    5.9391  -28.2592   29.7799 C   0  0  0  0  0  0  0  0  0  0  0  0
    5.9929  -27.6490   31.0641 C   0  0  0  0  0  0  0  0  0  0  0  0
    6.9909  -28.9957   29.2830 O   0  0  0  0  0  0  0  0  0  0  0  0
    7.1253  -27.6902   31.9681 N   0  0  0  0  0  0  0  0  0  0  0  0
    7.4267  -26.4527   32.6993 C   0  0  2  0  0  0  0  0  0  0  0  0
    6.2034  -25.9381   33.3915 C   0  0  0  0  0  0  0  0  0  0  0  0
    4.9074  -26.9212   31.4831 C   0  0  0  0  0  0  0  0  0  0  0  0
    4.9396  -26.2970   32.7511 N   0  0  0  0  0  0  0  0  0  0  0  0
    8.0018  -25.3316   31.8150 C   0  0  0  0  0  0  0  0  0  0  0  0
    8.8807  -24.4681   32.5941 N   0  0  0  0  0  0  0  0  0  0  0  0
    8.3966  -24.0628   36.8016 C   0  0  0  0  0  0  0  0  0  0  0  0
    9.0340  -25.1780   36.2843 C   0  0  0  0  0  0  0  0  0  0  0  0
    9.1983  -25.3178   34.8926 C   0  0  0  0  0  0  0  0  0  0  0  0
    8.7193  -24.3374   34.0369 C   0  0  0  0  0  0  0  0  0  0  0  0
    8.0792  -23.2176   34.5598 C   0  0  0  0  0  0  0  0  0  0  0  0
    7.9189  -23.0794   35.9409 C   0  0  0  0  0  0  0  0  0  0  0  0
    7.9529  -28.8303   32.1684 C   0  0  0  0  0  0  0  0  0  0  0  0
  1  3  1  0  0  0  0
  2  3  2  0  0  0  0
  2 12  1  0  0  0  0
  3  4  1  0  0  0  0
  4  6  1  0  0  0  0
  5 22  1  0  0  0  0
  6  7  1  0  0  0  0
  6  8  2  0  0  0  0
  7 12  2  0  0  0  0
  7  9  1  0  0  0  0
  9 10  1  0  0  0  0
  9 22  1  0  0  0  0
 10 11  1  0  0  0  0
 10 14  1  6  0  0  0
 11 13  1  0  0  0  0
 12 13  1  0  0  0  0
 14 15  1  0  0  0  0
 15 19  1  0  0  0  0
 16 17  2  0  0  0  0
 16 21  1  0  0  0  0
 17 18  1  0  0  0  0
 18 19  2  0  0  0  0
 19 20  1  0  0  0  0
 20 21  2  0  0  0  0
M  END
>  <CHROM.1>
-124.32679184,-150.74433912,-25.46821162,78.81196932,6.74794610,-26.50470264
32.30673683,2.20962149,0.56265158,-2.51670731

>  <Name>
ligand

>  <RI>
0

>  <Rbt.Current_Directory>
/home/itssahil/PROJECTS/Mol_Feturizer/Test_systems_manuscript/rnas/3sd3

>  <Rbt.Executable>
rbdock ($Id: //depot/dev/client3/rdock/2013.1/src/exe/rbdock.cxx#4 $)

>  <Rbt.Library>
libRbt.so (2013.1, Build901 2013/11/27)

>  <Rbt.Parameter_File>
/export/apps/rDock/src/rDock_2013.1_src/data/scripts/dock_solv.prm

>  <Rbt.Receptor>
prm/blind_docking_60.prm

>  <SCORE>
-14.4758

>  <SCORE.INTER>
-15.1245

>  <SCORE.INTER.CONST>
1

>  <SCORE.INTER.POLAR>
0

>  <SCORE.INTER.ROT>
4

>  <SCORE.INTER.SOLV>
13.8157

>  <SCORE.INTER.VDW>
-20.9549

>  <SCORE.INTER.norm>
-0.687476

>  <SCORE.INTRA>
0.648617

>  <SCORE.INTRA.DIHEDRAL>
2.35141

>  <SCORE.INTRA.DIHEDRAL.0>
2.54655

>  <SCORE.INTRA.POLAR>
0

>  <SCORE.INTRA.POLAR.0>
0

>  <SCORE.INTRA.REPUL>
0

>  <SCORE.INTRA.REPUL.0>
0

>  <SCORE.INTRA.SOLV>
-0.953112

>  <SCORE.INTRA.SOLV.lig_0>
-56.4922

>  <SCORE.INTRA.VDW>
-0.0505333

>  <SCORE.INTRA.VDW.0>
-0.696801

>  <SCORE.INTRA.norm>
0.0294826

>  <SCORE.RESTR>
0

>  <SCORE.RESTR.CAVITY>
0

>  <SCORE.RESTR.norm>
0

>  <SCORE.SYSTEM>
0

>  <SCORE.SYSTEM.CONST>
0

>  <SCORE.SYSTEM.DIHEDRAL>
0

>  <SCORE.SYSTEM.SOLV>
0

>  <SCORE.SYSTEM.norm>
0

>  <SCORE.heavy>
22

>  <SCORE.norm>
-0.657993

>  <RMSD>
15.081

$$$$
ligand
 OpenBabel02271912143D
libRbt.so/2013.1/901 2013/11/27
 22 24  0  0  0  0  0  0  0  0999 V2000
    4.2219  -27.7830   30.7832 N   0  0  0  0  0  0  0  0  0  0  0  0
    4.5303  -27.0128   33.0292 N   0  0  0  0  0  0  0  0  0  0  0  0
    5.0658  -27.2553   31.8215 C   0  0  0  0  0  0  0  0  0  0  0  0
    6.3459  -27.0240   31.5575 N   0  0  0  0  0  0  0  0  0  0  0  0
    9.6448  -25.4651   34.7345 O   0  0  0  0  0  0  0  0  0  0  0  0
    7.1525  -26.5314   32.5156 C   0  0  0  0  0  0  0  0  0  0  0  0
    6.6223  -26.2742   33.8107 C   0  0  0  0  0  0  0  0  0  0  0  0
    8.4760  -26.2997   32.2154 O   0  0  0  0  0  0  0  0  0  0  0  0
    7.3635  -25.7259   34.9292 N   0  0  0  0  0  0  0  0  0  0  0  0
    6.6585  -24.7470   35.7669 C   0  0  2  0  0  0  0  0  0  0  0  0
    5.3357  -25.2887   36.2111 C   0  0  0  0  0  0  0  0  0  0  0  0
    5.2897  -26.5206   34.0273 C   0  0  0  0  0  0  0  0  0  0  0  0
    4.7363  -26.2644   35.3028 N   0  0  0  0  0  0  0  0  0  0  0  0
    6.4299  -23.3891   35.0789 C   0  0  0  0  0  0  0  0  0  0  0  0
    7.6628  -22.9169   34.4607 N   0  0  0  0  0  0  0  0  0  0  0  0
   10.6211  -20.8809   36.7420 C   0  0  0  0  0  0  0  0  0  0  0  0
   10.6248  -22.2644   36.6846 C   0  0  0  0  0  0  0  0  0  0  0  0
    9.6489  -22.9445   35.9305 C   0  0  0  0  0  0  0  0  0  0  0  0
    8.6801  -22.2276   35.2447 C   0  0  0  0  0  0  0  0  0  0  0  0
    8.6790  -20.8371   35.3042 C   0  0  0  0  0  0  0  0  0  0  0  0
    9.6492  -20.1639   36.0510 C   0  0  0  0  0  0  0  0  0  0  0  0
    8.7102  -26.0613   35.2430 C   0  0  0  0  0  0  0  0  0  0  0  0
  1  3  1  0  0  0  0
  2  3  2  0  0  0  0
  2 12  1  0  0  0  0
  3  4  1  0  0  0  0
  4  6  1  0  0  0  0
  5 22  1  0  0  0  0
  6  7  1  0  0  0  0
  6  8  2  0  0  0  0
  7 12  2  0  0  0  0
  7  9  1  0  0  0  0
  9 10  1  0  0  0  0
  9 22  1  0  0  0  0
 10 11  1  0  0  0  0
 10 14  1  6  0  0  0
 11 13  1  0  0  0  0
 12 13  1  0  0  0  0
 14 15  1  0  0  0  0
 15 19  1  0  0  0  0
 16 17  2  0  0  0  0
 16 21  1  0  0  0  0
 17 18  1  0  0  0  0
 18 19  2  0  0  0  0
 19 20  1  0  0  0  0
 20 21  2  0  0  0  0
M  END
>  <CHROM.1>
86.94329479,-48.00172001,-82.33832822,86.21723324,7.33876357,-24.81511313
34.38561083,-2.18580960,0.30687853,0.79273990

>  <Name>
ligand

>  <RI>
0

>  <Rbt.Current_Directory>
/home/itssahil/PROJECTS/Mol_Feturizer/Test_systems_manuscript/rnas/3sd3

>  <Rbt.Executable>
rbdock ($Id: //depot/dev/client3/rdock/2013.1/src/exe/rbdock.cxx#4 $)

>  <Rbt.Library>
libRbt.so (2013.1, Build901 2013/11/27)

>  <Rbt.Parameter_File>
/export/apps/rDock/src/rDock_2013.1_src/data/scripts/dock_solv.prm

>  <Rbt.Receptor>
prm/blind_docking_100.prm

>  <SCORE>
-12.6811

>  <SCORE.INTER>
-11.6947

>  <SCORE.INTER.CONST>
1

>  <SCORE.INTER.POLAR>
0

>  <SCORE.INTER.ROT>
4

>  <SCORE.INTER.SOLV>
6.24228

>  <SCORE.INTER.VDW>
-16.1439

>  <SCORE.INTER.norm>
-0.531579

>  <SCORE.INTRA>
-0.986345

>  <SCORE.INTRA.DIHEDRAL>
-0.0616026

>  <SCORE.INTRA.DIHEDRAL.0>
2.54655

>  <SCORE.INTRA.POLAR>
0

>  <SCORE.INTRA.POLAR.0>
0

>  <SCORE.INTRA.REPUL>
0

>  <SCORE.INTRA.REPUL.0>
0

>  <SCORE.INTRA.SOLV>
1.15313

>  <SCORE.INTRA.SOLV.lig_0>
-56.4922

>  <SCORE.INTRA.VDW>
-1.53211

>  <SCORE.INTRA.VDW.0>
-0.696801

>  <SCORE.INTRA.norm>
-0.0448339

>  <SCORE.RESTR>
0

>  <SCORE.RESTR.CAVITY>
0

>  <SCORE.RESTR.norm>
0

>  <SCORE.SYSTEM>
0

>  <SCORE.SYSTEM.CONST>
0

>  <SCORE.SYSTEM.DIHEDRAL>
0

>  <SCORE.SYSTEM.SOLV>
0

>  <SCORE.SYSTEM.norm>
0

>  <SCORE.heavy>
22

>  <SCORE.norm>
-0.576413

>  <RMSD>
15.103

$$$$
ligand
 OpenBabel02271912143D
libRbt.so/2013.1/901 2013/11/27
 22 24  0  0  0  0  0  0  0  0999 V2000
    3.3990  -27.4107   28.7997 N   0  0  0  0  0  0  0  0  0  0  0  0
    5.2052  -26.5699   30.1277 N   0  0  0  0  0  0  0  0  0  0  0  0
    4.0387  -27.2338   30.0757 C   0  0  0  0  0  0  0  0  0  0  0  0
    3.4598  -27.7299   31.1623 N   0  0  0  0  0  0  0  0  0  0  0  0
    5.5223  -25.2310   35.4349 O   0  0  0  0  0  0  0  0  0  0  0  0
    4.0416  -27.5742   32.3658 C   0  0  0  0  0  0  0  0  0  0  0  0
    5.2716  -26.8653   32.4604 C   0  0  0  0  0  0  0  0  0  0  0  0
    3.4207  -28.0992   33.4768 O   0  0  0  0  0  0  0  0  0  0  0  0
    6.0207  -26.6398   33.6807 N   0  0  0  0  0  0  0  0  0  0  0  0
    7.4820  -26.7495   33.5835 C   0  0  2  0  0  0  0  0  0  0  0  0
    8.0017  -25.8981   32.4674 C   0  0  0  0  0  0  0  0  0  0  0  0
    5.8331  -26.3823   31.3049 C   0  0  0  0  0  0  0  0  0  0  0  0
    7.0598  -25.6827   31.3707 N   0  0  0  0  0  0  0  0  0  0  0  0
    7.9858  -28.1900   33.3811 C   0  0  0  0  0  0  0  0  0  0  0  0
    7.3714  -28.7837   32.2000 N   0  0  0  0  0  0  0  0  0  0  0  0
    9.6613  -29.6945   28.7319 C   0  0  0  0  0  0  0  0  0  0  0  0
   10.2153  -28.9279   29.7433 C   0  0  0  0  0  0  0  0  0  0  0  0
    9.4631  -28.6236   30.8943 C   0  0  0  0  0  0  0  0  0  0  0  0
    8.1632  -29.0909   31.0153 C   0  0  0  0  0  0  0  0  0  0  0  0
    7.6090  -29.8613   29.9973 C   0  0  0  0  0  0  0  0  0  0  0  0
    8.3575  -30.1641   28.8569 C   0  0  0  0  0  0  0  0  0  0  0  0
    5.4323  -26.3429   34.9418 C   0  0  0  0  0  0  0  0  0  0  0  0
  1  3  1  0  0  0  0
  2  3  2  0  0  0  0
  2 12  1  0  0  0  0
  3  4  1  0  0  0  0
  4  6  1  0  0  0  0
  5 22  1  0  0  0  0
  6  7  1  0  0  0  0
  6  8  2  0  0  0  0
  7 12  2  0  0  0  0
  7  9  1  0  0  0  0
  9 10  1  0  0  0  0
  9 22  1  0  0  0  0
 10 11  1  0  0  0  0
 10 14  1  6  0  0  0
 11 13  1  0  0  0  0
 12 13  1  0  0  0  0
 14 15  1  0  0  0  0
 15 19  1  0  0  0  0
 16 17  2  0  0  0  0
 16 21  1  0  0  0  0
 17 18  1  0  0  0  0
 18 19  2  0  0  0  0
 19 20  1  0  0  0  0
 20 21  2  0  0  0  0
M  END
>  <CHROM.1>
-108.82205642,56.19782926,112.06873207,-10.99254819,6.41731152,-27.55847100
31.74705405,2.31374805,-0.21115132,1.13116990

>  <Name>
ligand

>  <RI>
0

>  <Rbt.Current_Directory>
/home/itssahil/PROJECTS/Mol_Feturizer/Test_systems_manuscript/rnas/3sd3

>  <Rbt.Executable>
rbdock ($Id: //depot/dev/client3/rdock/2013.1/src/exe/rbdock.cxx#4 $)

>  <Rbt.Library>
libRbt.so (2013.1, Build901 2013/11/27)

>  <Rbt.Parameter_File>
/export/apps/rDock/src/rDock_2013.1_src/data/scripts/dock_solv.prm

>  <Rbt.Receptor>
prm/blind_docking_80.prm

>  <SCORE>
-17.302

>  <SCORE.INTER>
-17.3032

>  <SCORE.INTER.CONST>
1

>  <SCORE.INTER.POLAR>
0

>  <SCORE.INTER.ROT>
4

>  <SCORE.INTER.SOLV>
11.7746

>  <SCORE.INTER.VDW>
-21.727

>  <SCORE.INTER.norm>
-0.786509

>  <SCORE.INTRA>
0.00121111

>  <SCORE.INTRA.DIHEDRAL>
0.301002

>  <SCORE.INTRA.DIHEDRAL.0>
2.54655

>  <SCORE.INTRA.POLAR>
0

>  <SCORE.INTRA.POLAR.0>
0

>  <SCORE.INTRA.REPUL>
0

>  <SCORE.INTRA.REPUL.0>
0

>  <SCORE.INTRA.SOLV>
1.97698

>  <SCORE.INTRA.SOLV.lig_0>
-56.4922

>  <SCORE.INTRA.VDW>
-1.13778

>  <SCORE.INTRA.VDW.0>
-0.696801

>  <SCORE.INTRA.norm>
5.50507e-05

>  <SCORE.RESTR>
0

>  <SCORE.RESTR.CAVITY>
0

>  <SCORE.RESTR.norm>
0

>  <SCORE.SYSTEM>
0

>  <SCORE.SYSTEM.CONST>
0

>  <SCORE.SYSTEM.DIHEDRAL>
0

>  <SCORE.SYSTEM.SOLV>
0

>  <SCORE.SYSTEM.norm>
0

>  <SCORE.heavy>
22

>  <SCORE.norm>
-0.786454

>  <RMSD>
15.107

$$$$
ligand
 OpenBabel02271912143D
libRbt.so/2013.1/901 2013/11/27
 22 24  0  0  0  0  0  0  0  0999 V2000
    2.2964  -27.7018   31.9888 N   0  0  0  0  0  0  0  0  0  0  0  0
    4.4694  -27.3852   32.9431 N   0  0  0  0  0  0  0  0  0  0  0  0
    3.7299  -27.7174   31.8721 C   0  0  0  0  0  0  0  0  0  0  0  0
    4.2795  -28.0589   30.7132 N   0  0  0  0  0  0  0  0  0  0  0  0
    9.5785  -28.2684   30.2471 O   0  0  0  0  0  0  0  0  0  0  0  0
    5.6189  -28.0809   30.5838 C   0  0  0  0  0  0  0  0  0  0  0  0
    6.4340  -27.7469   31.7011 C   0  0  0  0  0  0  0  0  0  0  0  0
    6.1634  -28.4378   29.3706 O   0  0  0  0  0  0  0  0  0  0  0  0
    7.8829  -27.7063   31.7029 N   0  0  0  0  0  0  0  0  0  0  0  0
    8.5077  -26.6065   32.4492 C   0  0  2  0  0  0  0  0  0  0  0  0
    7.9654  -26.5398   33.8427 C   0  0  0  0  0  0  0  0  0  0  0  0
    5.8149  -27.3904   32.8729 C   0  0  0  0  0  0  0  0  0  0  0  0
    6.6023  -27.0449   33.9951 N   0  0  0  0  0  0  0  0  0  0  0  0
    8.3358  -25.2279   31.7862 C   0  0  0  0  0  0  0  0  0  0  0  0
    7.1242  -24.5773   32.2698 N   0  0  0  0  0  0  0  0  0  0  0  0
    7.2762  -21.5742   35.2797 C   0  0  0  0  0  0  0  0  0  0  0  0
    8.1923  -22.6126   35.2937 C   0  0  0  0  0  0  0  0  0  0  0  0
    8.1480  -23.6093   34.2997 C   0  0  0  0  0  0  0  0  0  0  0  0
    7.1837  -23.5527   33.3049 C   0  0  0  0  0  0  0  0  0  0  0  0
    6.2644  -22.5078   33.2934 C   0  0  0  0  0  0  0  0  0  0  0  0
    6.3111  -21.5185   34.2791 C   0  0  0  0  0  0  0  0  0  0  0  0
    8.7141  -28.6400   31.0231 C   0  0  0  0  0  0  0  0  0  0  0  0
  1  3  1  0  0  0  0
  2  3  2  0  0  0  0
  2 12  1  0  0  0  0
  3  4  1  0  0  0  0
  4  6  1  0  0  0  0
  5 22  1  0  0  0  0
  6  7  1  0  0  0  0
  6  8  2  0  0  0  0
  7 12  2  0  0  0  0
  7  9  1  0  0  0  0
  9 10  1  0  0  0  0
  9 22  1  0  0  0  0
 10 11  1  0  0  0  0
 10 14  1  6  0  0  0
 11 13  1  0  0  0  0
 12 13  1  0  0  0  0
 14 15  1  0  0  0  0
 15 19  1  0  0  0  0
 16 17  2  0  0  0  0
 16 21  1  0  0  0  0
 17 18  1  0  0  0  0
 18 19  2  0  0  0  0
 19 20  1  0  0  0  0
 20 21  2  0  0  0  0
M  END
>  <CHROM.1>
126.87959760,90.52516053,99.96134446,-32.71051943,6.69974388,-26.14843039
32.41535106,1.78962378,-0.08435250,-2.57501822

>  <Name>
ligand

>  <RI>
0

>  <Rbt.Current_Directory>
/home/itssahil/PROJECTS/Mol_Feturizer/Test_systems_manuscript/rnas/3sd3

>  <Rbt.Executable>
rbdock ($Id: //depot/dev/client3/rdock/2013.1/src/exe/rbdock.cxx#4 $)

>  <Rbt.Library>
libRbt.so (2013.1, Build901 2013/11/27)

>  <Rbt.Parameter_File>
/export/apps/rDock/src/rDock_2013.1_src/data/scripts/dock_solv.prm

>  <Rbt.Receptor>
prm/blind_docking_100.prm

>  <SCORE>
-11.8711

>  <SCORE.INTER>
-15.1047

>  <SCORE.INTER.CONST>
1

>  <SCORE.INTER.POLAR>
0

>  <SCORE.INTER.ROT>
4

>  <SCORE.INTER.SOLV>
8.99629

>  <SCORE.INTER.VDW>
-19.3352

>  <SCORE.INTER.norm>
-0.686575

>  <SCORE.INTRA>
3.12995

>  <SCORE.INTRA.DIHEDRAL>
2.69872

>  <SCORE.INTRA.DIHEDRAL.0>
2.54655

>  <SCORE.INTRA.POLAR>
0

>  <SCORE.INTRA.POLAR.0>
0

>  <SCORE.INTRA.REPUL>
0

>  <SCORE.INTRA.REPUL.0>
0

>  <SCORE.INTRA.SOLV>
1.67625

>  <SCORE.INTRA.SOLV.lig_0>
-56.4922

>  <SCORE.INTRA.VDW>
0.942471

>  <SCORE.INTRA.VDW.0>
-0.696801

>  <SCORE.INTRA.norm>
0.142271

>  <SCORE.RESTR>
0.103596

>  <SCORE.RESTR.CAVITY>
0.103596

>  <SCORE.RESTR.norm>
0.0047089

>  <SCORE.SYSTEM>
0

>  <SCORE.SYSTEM.CONST>
0

>  <SCORE.SYSTEM.DIHEDRAL>
0

>  <SCORE.SYSTEM.SOLV>
0

>  <SCORE.SYSTEM.norm>
0

>  <SCORE.heavy>
22

>  <SCORE.norm>
-0.539596

>  <RMSD>
15.171

$$$$
ligand
 OpenBabel02271912143D
libRbt.so/2013.1/901 2013/11/27
 22 24  0  0  0  0  0  0  0  0999 V2000
    2.5079  -28.4988   35.1508 N   0  0  0  0  0  0  0  0  0  0  0  0
    3.3667  -28.1704   32.9400 N   0  0  0  0  0  0  0  0  0  0  0  0
    3.5559  -28.0662   34.2657 C   0  0  0  0  0  0  0  0  0  0  0  0
    4.6765  -27.5775   34.7826 N   0  0  0  0  0  0  0  0  0  0  0  0
    8.5232  -25.8517   31.9201 O   0  0  0  0  0  0  0  0  0  0  0  0
    5.6686  -27.1662   33.9716 C   0  0  0  0  0  0  0  0  0  0  0  0
    5.4980  -27.2502   32.5615 C   0  0  0  0  0  0  0  0  0  0  0  0
    6.8210  -26.6642   34.5334 O   0  0  0  0  0  0  0  0  0  0  0  0
    6.4843  -26.8670   31.5707 N   0  0  0  0  0  0  0  0  0  0  0  0
    6.6061  -27.7384   30.3949 C   0  0  2  0  0  0  0  0  0  0  0  0
    5.2675  -27.9625   29.7637 C   0  0  0  0  0  0  0  0  0  0  0  0
    4.3244  -27.7735   32.0795 C   0  0  0  0  0  0  0  0  0  0  0  0
    4.1341  -27.8765   30.6825 N   0  0  0  0  0  0  0  0  0  0  0  0
    7.2443  -29.1062   30.6973 C   0  0  0  0  0  0  0  0  0  0  0  0
    7.0871  -30.0047   29.5601 N   0  0  0  0  0  0  0  0  0  0  0  0
   10.2764  -30.7051   26.8326 C   0  0  0  0  0  0  0  0  0  0  0  0
   10.5215  -30.0502   28.0278 C   0  0  0  0  0  0  0  0  0  0  0  0
    9.4704  -29.8160   28.9354 C   0  0  0  0  0  0  0  0  0  0  0  0
    8.1858  -30.2405   28.6315 C   0  0  0  0  0  0  0  0  0  0  0  0
    7.9425  -30.8986   27.4296 C   0  0  0  0  0  0  0  0  0  0  0  0
    8.9869  -31.1320   26.5312 C   0  0  0  0  0  0  0  0  0  0  0  0
    7.3337  -25.7306   31.6797 C   0  0  0  0  0  0  0  0  0  0  0  0
  1  3  1  0  0  0  0
  2  3  2  0  0  0  0
  2 12  1  0  0  0  0
  3  4  1  0  0  0  0
  4  6  1  0  0  0  0
  5 22  1  0  0  0  0
  6  7  1  0  0  0  0
  6  8  2  0  0  0  0
  7 12  2  0  0  0  0
  7  9  1  0  0  0  0
  9 10  1  0  0  0  0
  9 22  1  0  0  0  0
 10 11  1  0  0  0  0
 10 14  1  1  0  0  0
 11 13  1  0  0  0  0
 12 13  1  0  0  0  0
 14 15  1  0  0  0  0
 15 19  1  0  0  0  0
 16 17  2  0  0  0  0
 16 21  1  0  0  0  0
 17 18  1  0  0  0  0
 18 19  2  0  0  0  0
 19 20  1  0  0  0  0
 20 21  2  0  0  0  0
M  END
>  <CHROM.1>
107.31099467,168.59198076,100.82911565,11.84734431,6.52239576,-28.32709692
31.15133787,2.23447006,0.38630641,0.84867324

>  <Name>
ligand

>  <RI>
0

>  <Rbt.Current_Directory>
/home/itssahil/PROJECTS/Mol_Feturizer/Test_systems_manuscript/rnas/3sd3

>  <Rbt.Executable>
rbdock ($Id: //depot/dev/client3/rdock/2013.1/src/exe/rbdock.cxx#4 $)

>  <Rbt.Library>
libRbt.so (2013.1, Build901 2013/11/27)

>  <Rbt.Parameter_File>
/export/apps/rDock/src/rDock_2013.1_src/data/scripts/dock_solv.prm

>  <Rbt.Receptor>
prm/blind_docking_100.prm

>  <SCORE>
-18.006

>  <SCORE.INTER>
-18.8226

>  <SCORE.INTER.CONST>
1

>  <SCORE.INTER.POLAR>
0

>  <SCORE.INTER.ROT>
4

>  <SCORE.INTER.SOLV>
12.0793

>  <SCORE.INTER.VDW>
-22.8415

>  <SCORE.INTER.norm>
-0.855573

>  <SCORE.INTRA>
0.765802

>  <SCORE.INTRA.DIHEDRAL>
0.431691

>  <SCORE.INTRA.DIHEDRAL.0>
2.54655

>  <SCORE.INTRA.POLAR>
0

>  <SCORE.INTRA.POLAR.0>
0

>  <SCORE.INTRA.REPUL>
0

>  <SCORE.INTRA.REPUL.0>
0

>  <SCORE.INTRA.SOLV>
-0.171091

>  <SCORE.INTRA.SOLV.lig_0>
-56.4922

>  <SCORE.INTRA.VDW>
0.635501

>  <SCORE.INTRA.VDW.0>
-0.696801

>  <SCORE.INTRA.norm>
0.0348092

>  <SCORE.RESTR>
0.0508015

>  <SCORE.RESTR.CAVITY>
0.0508015

>  <SCORE.RESTR.norm>
0.00230916

>  <SCORE.SYSTEM>
0

>  <SCORE.SYSTEM.CONST>
0

>  <SCORE.SYSTEM.DIHEDRAL>
0

>  <SCORE.SYSTEM.SOLV>
0

>  <SCORE.SYSTEM.norm>
0

>  <SCORE.heavy>
22

>  <SCORE.norm>
-0.818454

>  <RMSD>
15.183

$$$$
ligand
 OpenBabel02271912143D
libRbt.so/2013.1/901 2013/11/27
 22 24  0  0  0  0  0  0  0  0999 V2000
    3.1174  -24.0915   36.0073 N   0  0  0  0  0  0  0  0  0  0  0  0
    5.0236  -24.2217   34.5642 N   0  0  0  0  0  0  0  0  0  0  0  0
    4.1342  -24.8609   35.3418 C   0  0  0  0  0  0  0  0  0  0  0  0
    4.1647  -26.1766   35.5145 N   0  0  0  0  0  0  0  0  0  0  0  0
    7.7434  -29.1564   33.3597 O   0  0  0  0  0  0  0  0  0  0  0  0
    5.1087  -26.9144   34.9016 C   0  0  0  0  0  0  0  0  0  0  0  0
    6.0750  -26.2694   34.0803 C   0  0  0  0  0  0  0  0  0  0  0  0
    5.1175  -28.2773   35.0969 O   0  0  0  0  0  0  0  0  0  0  0  0
    7.1316  -26.9348   33.3440 N   0  0  0  0  0  0  0  0  0  0  0  0
    7.4152  -26.4232   31.9968 C   0  0  2  0  0  0  0  0  0  0  0  0
    7.6317  -24.9425   32.0298 C   0  0  0  0  0  0  0  0  0  0  0  0
    5.9917  -24.9082   33.9265 C   0  0  0  0  0  0  0  0  0  0  0  0
    6.9342  -24.2446   33.1080 N   0  0  0  0  0  0  0  0  0  0  0  0
    6.3152  -26.7384   30.9671 C   0  0  0  0  0  0  0  0  0  0  0  0
    6.3376  -28.1525   30.6140 N   0  0  0  0  0  0  0  0  0  0  0  0
    9.8266  -29.9679   28.9915 C   0  0  0  0  0  0  0  0  0  0  0  0
    9.9178  -29.2037   30.1427 C   0  0  0  0  0  0  0  0  0  0  0  0
    8.7665  -28.6008   30.6854 C   0  0  0  0  0  0  0  0  0  0  0  0
    7.5381  -28.7709   30.0651 C   0  0  0  0  0  0  0  0  0  0  0  0
    7.4496  -29.5397   28.9083 C   0  0  0  0  0  0  0  0  0  0  0  0
    8.5924  -30.1389   28.3724 C   0  0  0  0  0  0  0  0  0  0  0  0
    7.8795  -28.0414   33.8346 C   0  0  0  0  0  0  0  0  0  0  0  0
  1  3  1  0  0  0  0
  2  3  2  0  0  0  0
  2 12  1  0  0  0  0
  3  4  1  0  0  0  0
  4  6  1  0  0  0  0
  5 22  1  0  0  0  0
  6  7  1  0  0  0  0
  6  8  2  0  0  0  0
  7 12  2  0  0  0  0
  7  9  1  0  0  0  0
  9 10  1  0  0  0  0
  9 22  1  0  0  0  0
 10 11  1  0  0  0  0
 10 14  1  6  0  0  0
 11 13  1  0  0  0  0
 12 13  1  0  0  0  0
 14 15  1  0  0  0  0
 15 19  1  0  0  0  0
 16 17  2  0  0  0  0
 16 21  1  0  0  0  0
 17 18  1  0  0  0  0
 18 19  2  0  0  0  0
 19 20  1  0  0  0  0
 20 21  2  0  0  0  0
M  END
>  <CHROM.1>
110.17782426,-72.75134194,-57.61813041,49.79644508,6.68920654,-27.08636364
32.63198716,-2.78302413,-1.00524037,2.90872301

>  <Name>
ligand

>  <RI>
0

>  <Rbt.Current_Directory>
/home/itssahil/PROJECTS/Mol_Feturizer/Test_systems_manuscript/rnas/3sd3

>  <Rbt.Executable>
rbdock ($Id: //depot/dev/client3/rdock/2013.1/src/exe/rbdock.cxx#4 $)

>  <Rbt.Library>
libRbt.so (2013.1, Build901 2013/11/27)

>  <Rbt.Parameter_File>
/export/apps/rDock/src/rDock_2013.1_src/data/scripts/dock_solv.prm

>  <Rbt.Receptor>
prm/blind_docking_80.prm

>  <SCORE>
-14.9191

>  <SCORE.INTER>
-14.231

>  <SCORE.INTER.CONST>
1

>  <SCORE.INTER.POLAR>
0

>  <SCORE.INTER.ROT>
4

>  <SCORE.INTER.SOLV>
11.4265

>  <SCORE.INTER.VDW>
-19.5628

>  <SCORE.INTER.norm>
-0.646863

>  <SCORE.INTRA>
-0.68816

>  <SCORE.INTRA.DIHEDRAL>
-0.375387

>  <SCORE.INTRA.DIHEDRAL.0>
2.54655

>  <SCORE.INTRA.POLAR>
0

>  <SCORE.INTRA.POLAR.0>
0

>  <SCORE.INTRA.REPUL>
0

>  <SCORE.INTRA.REPUL.0>
0

>  <SCORE.INTRA.SOLV>
0.673113

>  <SCORE.INTRA.SOLV.lig_0>
-56.4922

>  <SCORE.INTRA.VDW>
-0.837024

>  <SCORE.INTRA.VDW.0>
-0.696801

>  <SCORE.INTRA.norm>
-0.03128

>  <SCORE.RESTR>
0

>  <SCORE.RESTR.CAVITY>
0

>  <SCORE.RESTR.norm>
0

>  <SCORE.SYSTEM>
0

>  <SCORE.SYSTEM.CONST>
0

>  <SCORE.SYSTEM.DIHEDRAL>
0

>  <SCORE.SYSTEM.SOLV>
0

>  <SCORE.SYSTEM.norm>
0

>  <SCORE.heavy>
22

>  <SCORE.norm>
-0.678143

>  <RMSD>
15.205

$$$$
ligand
 OpenBabel02271912143D
libRbt.so/2013.1/901 2013/11/27
 22 24  0  0  0  0  0  0  0  0999 V2000
    3.9048  -28.8389   35.9973 N   0  0  0  0  0  0  0  0  0  0  0  0
    5.2968  -27.6967   34.4191 N   0  0  0  0  0  0  0  0  0  0  0  0
    4.5794  -27.6486   35.5537 C   0  0  0  0  0  0  0  0  0  0  0  0
    4.4739  -26.5398   36.2756 N   0  0  0  0  0  0  0  0  0  0  0  0
    6.0404  -22.3420   35.2144 O   0  0  0  0  0  0  0  0  0  0  0  0
    5.0966  -25.4152   35.8771 C   0  0  0  0  0  0  0  0  0  0  0  0
    5.8551  -25.4260   34.6735 C   0  0  0  0  0  0  0  0  0  0  0  0
    4.9717  -24.2790   36.6447 O   0  0  0  0  0  0  0  0  0  0  0  0
    6.5939  -24.3012   34.1348 N   0  0  0  0  0  0  0  0  0  0  0  0
    7.9041  -24.5997   33.5422 C   0  0  2  0  0  0  0  0  0  0  0  0
    7.7885  -25.7005   32.5345 C   0  0  0  0  0  0  0  0  0  0  0  0
    5.9409  -26.6016   33.9705 C   0  0  0  0  0  0  0  0  0  0  0  0
    6.6964  -26.6412   32.7763 N   0  0  0  0  0  0  0  0  0  0  0  0
    8.9802  -24.9855   34.5732 C   0  0  0  0  0  0  0  0  0  0  0  0
    8.8284  -24.1948   35.7885 N   0  0  0  0  0  0  0  0  0  0  0  0
   10.5238  -20.3047   36.0947 C   0  0  0  0  0  0  0  0  0  0  0  0
   11.1728  -21.3874   36.6641 C   0  0  0  0  0  0  0  0  0  0  0  0
   10.6174  -22.6778   36.5655 C   0  0  0  0  0  0  0  0  0  0  0  0
    9.4165  -22.8655   35.8982 C   0  0  0  0  0  0  0  0  0  0  0  0
    8.7666  -21.7755   35.3268 C   0  0  0  0  0  0  0  0  0  0  0  0
    9.3201  -20.4962   35.4237 C   0  0  0  0  0  0  0  0  0  0  0  0
    6.1395  -22.9530   34.1636 C   0  0  0  0  0  0  0  0  0  0  0  0
  1  3  1  0  0  0  0
  2  3  2  0  0  0  0
  2 12  1  0  0  0  0
  3  4  1  0  0  0  0
  4  6  1  0  0  0  0
  5 22  1  0  0  0  0
  6  7  1  0  0  0  0
  6  8  2  0  0  0  0
  7 12  2  0  0  0  0
  7  9  1  0  0  0  0
  9 10  1  0  0  0  0
  9 22  1  0  0  0  0
 10 11  1  0  0  0  0
 10 14  1  1  0  0  0
 11 13  1  0  0  0  0
 12 13  1  0  0  0  0
 14 15  1  0  0  0  0
 15 19  1  0  0  0  0
 16 17  2  0  0  0  0
 16 21  1  0  0  0  0
 17 18  1  0  0  0  0
 18 19  2  0  0  0  0
 19 20  1  0  0  0  0
 20 21  2  0  0  0  0
M  END
>  <CHROM.1>
67.89833291,-37.38370672,-84.54931277,-99.52551757,7.13527477,-24.49074198
35.07753425,2.44191810,-0.53238711,-2.45303536

>  <Name>
ligand

>  <RI>
0

>  <Rbt.Current_Directory>
/home/itssahil/PROJECTS/Mol_Feturizer/Test_systems_manuscript/rnas/3sd3

>  <Rbt.Executable>
rbdock ($Id: //depot/dev/client3/rdock/2013.1/src/exe/rbdock.cxx#4 $)

>  <Rbt.Library>
libRbt.so (2013.1, Build901 2013/11/27)

>  <Rbt.Parameter_File>
/export/apps/rDock/src/rDock_2013.1_src/data/scripts/dock_solv.prm

>  <Rbt.Receptor>
prm/blind_docking_100.prm

>  <SCORE>
-12.3413

>  <SCORE.INTER>
-12.3454

>  <SCORE.INTER.CONST>
1

>  <SCORE.INTER.POLAR>
0

>  <SCORE.INTER.ROT>
4

>  <SCORE.INTER.SOLV>
7.43985

>  <SCORE.INTER.VDW>
-16.9769

>  <SCORE.INTER.norm>
-0.561153

>  <SCORE.INTRA>
0.00405747

>  <SCORE.INTRA.DIHEDRAL>
1.15206

>  <SCORE.INTRA.DIHEDRAL.0>
2.54655

>  <SCORE.INTRA.POLAR>
0

>  <SCORE.INTRA.POLAR.0>
0

>  <SCORE.INTRA.REPUL>
0

>  <SCORE.INTRA.REPUL.0>
0

>  <SCORE.INTRA.SOLV>
1.44076

>  <SCORE.INTRA.SOLV.lig_0>
-56.4922

>  <SCORE.INTRA.VDW>
-1.29235

>  <SCORE.INTRA.VDW.0>
-0.696801

>  <SCORE.INTRA.norm>
0.000184431

>  <SCORE.RESTR>
0

>  <SCORE.RESTR.CAVITY>
0

>  <SCORE.RESTR.norm>
0

>  <SCORE.SYSTEM>
0

>  <SCORE.SYSTEM.CONST>
0

>  <SCORE.SYSTEM.DIHEDRAL>
0

>  <SCORE.SYSTEM.SOLV>
0

>  <SCORE.SYSTEM.norm>
0

>  <SCORE.heavy>
22

>  <SCORE.norm>
-0.560968

>  <RMSD>
15.213

$$$$
ligand
 OpenBabel02271912143D
libRbt.so/2013.1/901 2013/11/27
 22 24  0  0  0  0  0  0  0  0999 V2000
    4.5102  -27.5509   30.5362 N   0  0  0  0  0  0  0  0  0  0  0  0
    4.8190  -26.5778   32.7020 N   0  0  0  0  0  0  0  0  0  0  0  0
    5.2976  -26.7842   31.4640 C   0  0  0  0  0  0  0  0  0  0  0  0
    6.4713  -26.3042   31.0718 N   0  0  0  0  0  0  0  0  0  0  0  0
    9.3908  -25.5186   35.0704 O   0  0  0  0  0  0  0  0  0  0  0  0
    7.2238  -25.5852   31.9251 C   0  0  0  0  0  0  0  0  0  0  0  0
    6.7541  -25.3573   33.2487 C   0  0  0  0  0  0  0  0  0  0  0  0
    8.4368  -25.0981   31.4928 O   0  0  0  0  0  0  0  0  0  0  0  0
    7.4433  -24.5867   34.2647 N   0  0  0  0  0  0  0  0  0  0  0  0
    6.6098  -23.7247   35.1127 C   0  0  2  0  0  0  0  0  0  0  0  0
    5.4766  -24.5037   35.7039 C   0  0  0  0  0  0  0  0  0  0  0  0
    5.5288  -25.8665   33.5995 C   0  0  0  0  0  0  0  0  0  0  0  0
    5.0352  -25.6458   34.9057 N   0  0  0  0  0  0  0  0  0  0  0  0
    6.0364  -22.4982   34.3802 C   0  0  0  0  0  0  0  0  0  0  0  0
    5.7498  -21.4272   35.3268 N   0  0  0  0  0  0  0  0  0  0  0  0
    8.6032  -18.3829   36.1580 C   0  0  0  0  0  0  0  0  0  0  0  0
    8.9993  -19.5430   35.5140 C   0  0  0  0  0  0  0  0  0  0  0  0
    8.0596  -20.5542   35.2350 C   0  0  0  0  0  0  0  0  0  0  0  0
    6.7341  -20.3894   35.6075 C   0  0  0  0  0  0  0  0  0  0  0  0
    6.3390  -19.2222   36.2545 C   0  0  0  0  0  0  0  0  0  0  0  0
    7.2722  -18.2191   36.5286 C   0  0  0  0  0  0  0  0  0  0  0  0
    8.8513  -24.6045   34.4698 C   0  0  0  0  0  0  0  0  0  0  0  0
  1  3  1  0  0  0  0
  2  3  2  0  0  0  0
  2 12  1  0  0  0  0
  3  4  1  0  0  0  0
  4  6  1  0  0  0  0
  5 22  1  0  0  0  0
  6  7  1  0  0  0  0
  6  8  2  0  0  0  0
  7 12  2  0  0  0  0
  7  9  1  0  0  0  0
  9 10  1  0  0  0  0
  9 22  1  0  0  0  0
 10 11  1  0  0  0  0
 10 14  1  6  0  0  0
 11 13  1  0  0  0  0
 12 13  1  0  0  0  0
 14 15  1  0  0  0  0
 15 19  1  0  0  0  0
 16 17  2  0  0  0  0
 16 21  1  0  0  0  0
 17 18  1  0  0  0  0
 18 19  2  0  0  0  0
 19 20  1  0  0  0  0
 20 21  2  0  0  0  0
M  END
>  <CHROM.1>
-78.92559372,-154.95840688,93.13625750,-15.11838365,6.81234167,-23.67293432
34.07232773,1.77017257,-0.10230061,-2.61012303

>  <Name>
ligand

>  <RI>
0

>  <Rbt.Current_Directory>
/home/itssahil/PROJECTS/Mol_Feturizer/Test_systems_manuscript/rnas/3sd3

>  <Rbt.Executable>
rbdock ($Id: //depot/dev/client3/rdock/2013.1/src/exe/rbdock.cxx#4 $)

>  <Rbt.Library>
libRbt.so (2013.1, Build901 2013/11/27)

>  <Rbt.Parameter_File>
/export/apps/rDock/src/rDock_2013.1_src/data/scripts/dock_solv.prm

>  <Rbt.Receptor>
prm/blind_docking_100.prm

>  <SCORE>
-14.5012

>  <SCORE.INTER>
-14.6532

>  <SCORE.INTER.CONST>
1

>  <SCORE.INTER.POLAR>
0

>  <SCORE.INTER.ROT>
4

>  <SCORE.INTER.SOLV>
10.2749

>  <SCORE.INTER.VDW>
-19.4604

>  <SCORE.INTER.norm>
-0.666055

>  <SCORE.INTRA>
0.152062

>  <SCORE.INTRA.DIHEDRAL>
1.76933

>  <SCORE.INTRA.DIHEDRAL.0>
2.54655

>  <SCORE.INTRA.POLAR>
0

>  <SCORE.INTRA.POLAR.0>
0

>  <SCORE.INTRA.REPUL>
0

>  <SCORE.INTRA.REPUL.0>
0

>  <SCORE.INTRA.SOLV>
-0.926417

>  <SCORE.INTRA.SOLV.lig_0>
-56.4922

>  <SCORE.INTRA.VDW>
-0.269396

>  <SCORE.INTRA.VDW.0>
-0.696801

>  <SCORE.INTRA.norm>
0.00691191

>  <SCORE.RESTR>
0

>  <SCORE.RESTR.CAVITY>
0

>  <SCORE.RESTR.norm>
0

>  <SCORE.SYSTEM>
0

>  <SCORE.SYSTEM.CONST>
0

>  <SCORE.SYSTEM.DIHEDRAL>
0

>  <SCORE.SYSTEM.SOLV>
0

>  <SCORE.SYSTEM.norm>
0

>  <SCORE.heavy>
22

>  <SCORE.norm>
-0.659144

>  <RMSD>
15.352

$$$$
ligand
 OpenBabel02271912143D
libRbt.so/2013.1/901 2013/11/27
 22 24  0  0  0  0  0  0  0  0999 V2000
    5.1942  -27.7058   30.6640 N   0  0  0  0  0  0  0  0  0  0  0  0
    5.3660  -26.9877   32.9417 N   0  0  0  0  0  0  0  0  0  0  0  0
    5.8892  -26.9967   31.7046 C   0  0  0  0  0  0  0  0  0  0  0  0
    7.0246  -26.3736   31.4139 N   0  0  0  0  0  0  0  0  0  0  0  0
    9.7208  -25.7101   35.8128 O   0  0  0  0  0  0  0  0  0  0  0  0
    7.6908  -25.7055   32.3735 C   0  0  0  0  0  0  0  0  0  0  0  0
    7.1725  -25.6851   33.6984 C   0  0  0  0  0  0  0  0  0  0  0  0
    8.8655  -25.0670   32.0452 O   0  0  0  0  0  0  0  0  0  0  0  0
    7.7674  -24.9916   34.8237 N   0  0  0  0  0  0  0  0  0  0  0  0
    6.8417  -24.3160   35.7421 C   0  0  2  0  0  0  0  0  0  0  0  0
    5.7685  -25.2560   36.1951 C   0  0  0  0  0  0  0  0  0  0  0  0
    5.9893  -26.3362   33.9429 C   0  0  0  0  0  0  0  0  0  0  0  0
    5.4483  -26.3229   35.2489 N   0  0  0  0  0  0  0  0  0  0  0  0
    6.1791  -23.0608   35.1462 C   0  0  0  0  0  0  0  0  0  0  0  0
    7.1903  -22.1497   34.6243 N   0  0  0  0  0  0  0  0  0  0  0  0
    7.8146  -18.3118   36.3512 C   0  0  0  0  0  0  0  0  0  0  0  0
    6.5728  -18.9173   36.4451 C   0  0  0  0  0  0  0  0  0  0  0  0
    6.3598  -20.1880   35.8765 C   0  0  0  0  0  0  0  0  0  0  0  0
    7.3953  -20.8347   35.2190 C   0  0  0  0  0  0  0  0  0  0  0  0
    8.6423  -20.2237   35.1264 C   0  0  0  0  0  0  0  0  0  0  0  0
    8.8525  -18.9639   35.6929 C   0  0  0  0  0  0  0  0  0  0  0  0
    9.1664  -24.9152   35.0724 C   0  0  0  0  0  0  0  0  0  0  0  0
  1  3  1  0  0  0  0
  2  3  2  0  0  0  0
  2 12  1  0  0  0  0
  3  4  1  0  0  0  0
  4  6  1  0  0  0  0
  5 22  1  0  0  0  0
  6  7  1  0  0  0  0
  6  8  2  0  0  0  0
  7 12  2  0  0  0  0
  7  9  1  0  0  0  0
  9 10  1  0  0  0  0
  9 22  1  0  0  0  0
 10 11  1  0  0  0  0
 10 14  1  6  0  0  0
 11 13  1  0  0  0  0
 12 13  1  0  0  0  0
 14 15  1  0  0  0  0
 15 19  1  0  0  0  0
 16 17  2  0  0  0  0
 16 21  1  0  0  0  0
 17 18  1  0  0  0  0
 18 19  2  0  0  0  0
 19 20  1  0  0  0  0
 20 21  2  0  0  0  0
M  END
>  <CHROM.1>
-94.33409720,-53.06308382,-114.81204578,-26.74693578,7.15566859,-23.99691226
34.34182836,1.73034350,-0.21057384,-2.66195152

>  <Name>
ligand

>  <RI>
0

>  <Rbt.Current_Directory>
/home/itssahil/PROJECTS/Mol_Feturizer/Test_systems_manuscript/rnas/3sd3

>  <Rbt.Executable>
rbdock ($Id: //depot/dev/client3/rdock/2013.1/src/exe/rbdock.cxx#4 $)

>  <Rbt.Library>
libRbt.so (2013.1, Build901 2013/11/27)

>  <Rbt.Parameter_File>
/export/apps/rDock/src/rDock_2013.1_src/data/scripts/dock_solv.prm

>  <Rbt.Receptor>
prm/blind_docking_100.prm

>  <SCORE>
-14.0652

>  <SCORE.INTER>
-13.7353

>  <SCORE.INTER.CONST>
1

>  <SCORE.INTER.POLAR>
0

>  <SCORE.INTER.ROT>
4

>  <SCORE.INTER.SOLV>
9.77999

>  <SCORE.INTER.VDW>
-18.6835

>  <SCORE.INTER.norm>
-0.624331

>  <SCORE.INTRA>
-0.32994

>  <SCORE.INTRA.DIHEDRAL>
0.473275

>  <SCORE.INTRA.DIHEDRAL.0>
2.54655

>  <SCORE.INTRA.POLAR>
0

>  <SCORE.INTRA.POLAR.0>
0

>  <SCORE.INTRA.REPUL>
0

>  <SCORE.INTRA.REPUL.0>
0

>  <SCORE.INTRA.SOLV>
-0.131584

>  <SCORE.INTRA.SOLV.lig_0>
-56.4922

>  <SCORE.INTRA.VDW>
-0.500785

>  <SCORE.INTRA.VDW.0>
-0.696801

>  <SCORE.INTRA.norm>
-0.0149973

>  <SCORE.RESTR>
0

>  <SCORE.RESTR.CAVITY>
0

>  <SCORE.RESTR.norm>
0

>  <SCORE.SYSTEM>
0

>  <SCORE.SYSTEM.CONST>
0

>  <SCORE.SYSTEM.DIHEDRAL>
0

>  <SCORE.SYSTEM.SOLV>
0

>  <SCORE.SYSTEM.norm>
0

>  <SCORE.heavy>
22

>  <SCORE.norm>
-0.639328

>  <RMSD>
15.352

$$$$
ligand
 OpenBabel02271912143D
libRbt.so/2013.1/901 2013/11/27
 22 24  0  0  0  0  0  0  0  0999 V2000
    2.8997  -27.7282   29.3047 N   0  0  0  0  0  0  0  0  0  0  0  0
    3.5962  -27.1035   31.5087 N   0  0  0  0  0  0  0  0  0  0  0  0
    3.9294  -27.5803   30.2980 C   0  0  0  0  0  0  0  0  0  0  0  0
    5.1757  -27.9183   29.9909 N   0  0  0  0  0  0  0  0  0  0  0  0
    7.7351  -29.1629   33.5841 O   0  0  0  0  0  0  0  0  0  0  0  0
    6.1535  -27.7885   30.9065 C   0  0  0  0  0  0  0  0  0  0  0  0
    5.8349  -27.2985   32.2037 C   0  0  0  0  0  0  0  0  0  0  0  0
    7.4378  -28.1454   30.5621 O   0  0  0  0  0  0  0  0  0  0  0  0
    6.7835  -27.0865   33.2790 N   0  0  0  0  0  0  0  0  0  0  0  0
    6.5918  -25.8804   34.0950 C   0  0  2  0  0  0  0  0  0  0  0  0
    5.1835  -25.8009   34.5957 C   0  0  0  0  0  0  0  0  0  0  0  0
    4.5327  -26.9531   32.4656 C   0  0  0  0  0  0  0  0  0  0  0  0
    4.1919  -26.4547   33.7439 N   0  0  0  0  0  0  0  0  0  0  0  0
    6.9286  -24.5711   33.3589 C   0  0  0  0  0  0  0  0  0  0  0  0
    6.7577  -23.4283   34.2477 N   0  0  0  0  0  0  0  0  0  0  0  0
   10.1161  -21.6098   36.1227 C   0  0  0  0  0  0  0  0  0  0  0  0
    9.1113  -20.8198   35.5899 C   0  0  0  0  0  0  0  0  0  0  0  0
    7.9965  -21.4155   34.9688 C   0  0  0  0  0  0  0  0  0  0  0  0
    7.9047  -22.7967   34.8884 C   0  0  0  0  0  0  0  0  0  0  0  0
    8.9161  -23.5881   35.4248 C   0  0  0  0  0  0  0  0  0  0  0  0
   10.0204  -22.9955   36.0426 C   0  0  0  0  0  0  0  0  0  0  0  0
    7.8752  -27.9515   33.5702 C   0  0  0  0  0  0  0  0  0  0  0  0
  1  3  1  0  0  0  0
  2  3  2  0  0  0  0
  2 12  1  0  0  0  0
  3  4  1  0  0  0  0
  4  6  1  0  0  0  0
  5 22  1  0  0  0  0
  6  7  1  0  0  0  0
  6  8  2  0  0  0  0
  7 12  2  0  0  0  0
  7  9  1  0  0  0  0
  9 10  1  0  0  0  0
  9 22  1  0  0  0  0
 10 11  1  0  0  0  0
 10 14  1  6  0  0  0
 11 13  1  0  0  0  0
 12 13  1  0  0  0  0
 14 15  1  0  0  0  0
 15 19  1  0  0  0  0
 16 17  2  0  0  0  0
 16 21  1  0  0  0  0
 17 18  1  0  0  0  0
 18 19  2  0  0  0  0
 19 20  1  0  0  0  0
 20 21  2  0  0  0  0
M  END
>  <CHROM.1>
-44.35190907,-178.03005424,100.78958566,137.76658537,6.57789813,-25.77330633
33.15123499,2.15604380,0.47609657,-2.75204083

>  <Name>
ligand

>  <RI>
0

>  <Rbt.Current_Directory>
/home/itssahil/PROJECTS/Mol_Feturizer/Test_systems_manuscript/rnas/3sd3

>  <Rbt.Executable>
rbdock ($Id: //depot/dev/client3/rdock/2013.1/src/exe/rbdock.cxx#4 $)

>  <Rbt.Library>
libRbt.so (2013.1, Build901 2013/11/27)

>  <Rbt.Parameter_File>
/export/apps/rDock/src/rDock_2013.1_src/data/scripts/dock_solv.prm

>  <Rbt.Receptor>
prm/blind_docking_100.prm

>  <SCORE>
-13.5002

>  <SCORE.INTER>
-13.0399

>  <SCORE.INTER.CONST>
1

>  <SCORE.INTER.POLAR>
0

>  <SCORE.INTER.ROT>
4

>  <SCORE.INTER.SOLV>
8.58723

>  <SCORE.INTER.VDW>
-17.8224

>  <SCORE.INTER.norm>
-0.592725

>  <SCORE.INTRA>
-0.460224

>  <SCORE.INTRA.DIHEDRAL>
0.00496119

>  <SCORE.INTRA.DIHEDRAL.0>
2.54655

>  <SCORE.INTRA.POLAR>
0

>  <SCORE.INTRA.POLAR.0>
0

>  <SCORE.INTRA.REPUL>
0

>  <SCORE.INTRA.REPUL.0>
0

>  <SCORE.INTRA.SOLV>
-0.508553

>  <SCORE.INTRA.SOLV.lig_0>
-56.4922

>  <SCORE.INTRA.VDW>
-0.208428

>  <SCORE.INTRA.VDW.0>
-0.696801

>  <SCORE.INTRA.norm>
-0.0209193

>  <SCORE.RESTR>
0

>  <SCORE.RESTR.CAVITY>
0

>  <SCORE.RESTR.norm>
0

>  <SCORE.SYSTEM>
0

>  <SCORE.SYSTEM.CONST>
0

>  <SCORE.SYSTEM.DIHEDRAL>
0

>  <SCORE.SYSTEM.SOLV>
0

>  <SCORE.SYSTEM.norm>
0

>  <SCORE.heavy>
22

>  <SCORE.norm>
-0.613644

>  <RMSD>
15.368

$$$$
ligand
 OpenBabel02271912143D
libRbt.so/2013.1/901 2013/11/27
 22 24  0  0  0  0  0  0  0  0999 V2000
    4.3060  -27.3329   30.4243 N   0  0  0  0  0  0  0  0  0  0  0  0
    4.6583  -26.5346   32.6540 N   0  0  0  0  0  0  0  0  0  0  0  0
    5.1661  -26.7775   31.4345 C   0  0  0  0  0  0  0  0  0  0  0  0
    6.4334  -26.5217   31.1338 N   0  0  0  0  0  0  0  0  0  0  0  0
    9.5437  -24.7628   35.4761 O   0  0  0  0  0  0  0  0  0  0  0  0
    7.2549  -26.0030   32.0651 C   0  0  0  0  0  0  0  0  0  0  0  0
    6.7544  -25.7446   33.3717 C   0  0  0  0  0  0  0  0  0  0  0  0
    8.5646  -25.7463   31.7270 O   0  0  0  0  0  0  0  0  0  0  0  0
    7.5136  -25.1699   34.4647 N   0  0  0  0  0  0  0  0  0  0  0  0
    6.8107  -24.1981   35.3123 C   0  0  2  0  0  0  0  0  0  0  0  0
    5.5122  -24.7633   35.7971 C   0  0  0  0  0  0  0  0  0  0  0  0
    5.4336  -26.0169   33.6267 C   0  0  0  0  0  0  0  0  0  0  0  0
    4.9095  -25.7601   34.9143 N   0  0  0  0  0  0  0  0  0  0  0  0
    6.5346  -22.8520   34.6185 C   0  0  0  0  0  0  0  0  0  0  0  0
    6.2128  -21.8272   35.6040 N   0  0  0  0  0  0  0  0  0  0  0  0
    8.5639  -18.2944   35.9097 C   0  0  0  0  0  0  0  0  0  0  0  0
    7.2431  -18.2828   36.3255 C   0  0  0  0  0  0  0  0  0  0  0  0
    6.4597  -19.4490   36.2279 C   0  0  0  0  0  0  0  0  0  0  0  0
    7.0110  -20.6122   35.7124 C   0  0  0  0  0  0  0  0  0  0  0  0
    8.3388  -20.6209   35.2954 C   0  0  0  0  0  0  0  0  0  0  0  0
    9.1153  -19.4636   35.3950 C   0  0  0  0  0  0  0  0  0  0  0  0
    8.8752  -25.4739   34.7448 C   0  0  0  0  0  0  0  0  0  0  0  0
  1  3  1  0  0  0  0
  2  3  2  0  0  0  0
  2 12  1  0  0  0  0
  3  4  1  0  0  0  0
  4  6  1  0  0  0  0
  5 22  1  0  0  0  0
  6  7  1  0  0  0  0
  6  8  2  0  0  0  0
  7 12  2  0  0  0  0
  7  9  1  0  0  0  0
  9 10  1  0  0  0  0
  9 22  1  0  0  0  0
 10 11  1  0  0  0  0
 10 14  1  6  0  0  0
 11 13  1  0  0  0  0
 12 13  1  0  0  0  0
 14 15  1  0  0  0  0
 15 19  1  0  0  0  0
 16 17  2  0  0  0  0
 16 21  1  0  0  0  0
 17 18  1  0  0  0  0
 18 19  2  0  0  0  0
 19 20  1  0  0  0  0
 20 21  2  0  0  0  0
M  END
>  <CHROM.1>
163.78664298,-163.04566766,121.28518981,154.63005462,6.88563351,-23.86640166
34.15721401,1.80621417,0.03548224,-2.64773978

>  <Name>
ligand

>  <RI>
0

>  <Rbt.Current_Directory>
/home/itssahil/PROJECTS/Mol_Feturizer/Test_systems_manuscript/rnas/3sd3

>  <Rbt.Executable>
rbdock ($Id: //depot/dev/client3/rdock/2013.1/src/exe/rbdock.cxx#4 $)

>  <Rbt.Library>
libRbt.so (2013.1, Build901 2013/11/27)

>  <Rbt.Parameter_File>
/export/apps/rDock/src/rDock_2013.1_src/data/scripts/dock_solv.prm

>  <Rbt.Receptor>
prm/blind_docking_80.prm

>  <SCORE>
-13.0002

>  <SCORE.INTER>
-13.5631

>  <SCORE.INTER.CONST>
1

>  <SCORE.INTER.POLAR>
0

>  <SCORE.INTER.ROT>
4

>  <SCORE.INTER.SOLV>
8.96351

>  <SCORE.INTER.VDW>
-18.2966

>  <SCORE.INTER.norm>
-0.616505

>  <SCORE.INTRA>
0.562956

>  <SCORE.INTRA.DIHEDRAL>
1.28672

>  <SCORE.INTRA.DIHEDRAL.0>
2.54655

>  <SCORE.INTRA.POLAR>
0

>  <SCORE.INTRA.POLAR.0>
0

>  <SCORE.INTRA.REPUL>
0

>  <SCORE.INTRA.REPUL.0>
0

>  <SCORE.INTRA.SOLV>
-0.760303

>  <SCORE.INTRA.SOLV.lig_0>
-56.4922

>  <SCORE.INTRA.VDW>
0.299749

>  <SCORE.INTRA.VDW.0>
-0.696801

>  <SCORE.INTRA.norm>
0.0255889

>  <SCORE.RESTR>
0

>  <SCORE.RESTR.CAVITY>
0

>  <SCORE.RESTR.norm>
0

>  <SCORE.SYSTEM>
0

>  <SCORE.SYSTEM.CONST>
0

>  <SCORE.SYSTEM.DIHEDRAL>
0

>  <SCORE.SYSTEM.SOLV>
0

>  <SCORE.SYSTEM.norm>
0

>  <SCORE.heavy>
22

>  <SCORE.norm>
-0.590916

>  <RMSD>
15.370

$$$$
ligand
 OpenBabel02271912143D
libRbt.so/2013.1/901 2013/11/27
 22 24  0  0  0  0  0  0  0  0999 V2000
    2.3940  -26.0469   34.0015 N   0  0  0  0  0  0  0  0  0  0  0  0
    4.5125  -27.1582   33.9010 N   0  0  0  0  0  0  0  0  0  0  0  0
    3.4985  -26.5714   33.2440 C   0  0  0  0  0  0  0  0  0  0  0  0
    3.4841  -26.4612   31.9214 N   0  0  0  0  0  0  0  0  0  0  0  0
    6.9181  -30.0384   29.9189 O   0  0  0  0  0  0  0  0  0  0  0  0
    4.5074  -26.9464   31.1942 C   0  0  0  0  0  0  0  0  0  0  0  0
    5.5928  -27.5857   31.8558 C   0  0  0  0  0  0  0  0  0  0  0  0
    4.4682  -26.8184   29.8240 O   0  0  0  0  0  0  0  0  0  0  0  0
    6.7677  -28.1338   31.2074 N   0  0  0  0  0  0  0  0  0  0  0  0
    8.0514  -27.9241   31.8892 C   0  0  2  0  0  0  0  0  0  0  0  0
    7.9686  -28.3662   33.3169 C   0  0  0  0  0  0  0  0  0  0  0  0
    5.5632  -27.6633   33.2257 C   0  0  0  0  0  0  0  0  0  0  0  0
    6.6342  -28.2851   33.9076 N   0  0  0  0  0  0  0  0  0  0  0  0
    8.5453  -26.4666   31.8518 C   0  0  0  0  0  0  0  0  0  0  0  0
    7.4873  -25.5589   32.2781 N   0  0  0  0  0  0  0  0  0  0  0  0
    8.2148  -22.5008   35.1453 C   0  0  0  0  0  0  0  0  0  0  0  0
    9.0788  -23.5789   35.0515 C   0  0  0  0  0  0  0  0  0  0  0  0
    8.8442  -24.5940   34.1040 C   0  0  0  0  0  0  0  0  0  0  0  0
    7.7443  -24.5157   33.2633 C   0  0  0  0  0  0  0  0  0  0  0  0
    6.8777  -23.4308   33.3598 C   0  0  0  0  0  0  0  0  0  0  0  0
    7.1131  -22.4235   34.2990 C   0  0  0  0  0  0  0  0  0  0  0  0
    6.7496  -28.8315   29.9674 C   0  0  0  0  0  0  0  0  0  0  0  0
  1  3  1  0  0  0  0
  2  3  2  0  0  0  0
  2 12  1  0  0  0  0
  3  4  1  0  0  0  0
  4  6  1  0  0  0  0
  5 22  1  0  0  0  0
  6  7  1  0  0  0  0
  6  8  2  0  0  0  0
  7 12  2  0  0  0  0
  7  9  1  0  0  0  0
  9 10  1  0  0  0  0
  9 22  1  0  0  0  0
 10 11  1  0  0  0  0
 10 14  1  1  0  0  0
 11 13  1  0  0  0  0
 12 13  1  0  0  0  0
 14 15  1  0  0  0  0
 15 19  1  0  0  0  0
 16 17  2  0  0  0  0
 16 21  1  0  0  0  0
 17 18  1  0  0  0  0
 18 19  2  0  0  0  0
 19 20  1  0  0  0  0
 20 21  2  0  0  0  0
M  END
>  <CHROM.1>
-107.41777875,49.97762187,132.02583252,-19.34065570,6.37458742,-26.47683904
32.57845544,1.94882346,-0.02183056,-2.52894553

>  <Name>
ligand

>  <RI>
0

>  <Rbt.Current_Directory>
/home/itssahil/PROJECTS/Mol_Feturizer/Test_systems_manuscript/rnas/3sd3

>  <Rbt.Executable>
rbdock ($Id: //depot/dev/client3/rdock/2013.1/src/exe/rbdock.cxx#4 $)

>  <Rbt.Library>
libRbt.so (2013.1, Build901 2013/11/27)

>  <Rbt.Parameter_File>
/export/apps/rDock/src/rDock_2013.1_src/data/scripts/dock_solv.prm

>  <Rbt.Receptor>
prm/blind_docking_60.prm

>  <SCORE>
-13.949

>  <SCORE.INTER>
-14.2357

>  <SCORE.INTER.CONST>
1

>  <SCORE.INTER.POLAR>
0

>  <SCORE.INTER.ROT>
4

>  <SCORE.INTER.SOLV>
12.5625

>  <SCORE.INTER.VDW>
-19.9446

>  <SCORE.INTER.norm>
-0.647076

>  <SCORE.INTRA>
0.279297

>  <SCORE.INTRA.DIHEDRAL>
0.530584

>  <SCORE.INTRA.DIHEDRAL.0>
2.54655

>  <SCORE.INTRA.POLAR>
0

>  <SCORE.INTRA.POLAR.0>
0

>  <SCORE.INTRA.REPUL>
0

>  <SCORE.INTRA.REPUL.0>
0

>  <SCORE.INTRA.SOLV>
1.84072

>  <SCORE.INTRA.SOLV.lig_0>
-56.4922

>  <SCORE.INTRA.VDW>
-0.906355

>  <SCORE.INTRA.VDW.0>
-0.696801

>  <SCORE.INTRA.norm>
0.0126953

>  <SCORE.RESTR>
0.00734336

>  <SCORE.RESTR.CAVITY>
0.00734336

>  <SCORE.RESTR.norm>
0.000333789

>  <SCORE.SYSTEM>
0

>  <SCORE.SYSTEM.CONST>
0

>  <SCORE.SYSTEM.DIHEDRAL>
0

>  <SCORE.SYSTEM.SOLV>
0

>  <SCORE.SYSTEM.norm>
0

>  <SCORE.heavy>
22

>  <SCORE.norm>
-0.634047

>  <RMSD>
15.386

$$$$
ligand
 OpenBabel02271912143D
libRbt.so/2013.1/901 2013/11/27
 22 24  0  0  0  0  0  0  0  0999 V2000
    4.8039  -27.6935   30.7408 N   0  0  0  0  0  0  0  0  0  0  0  0
    5.1164  -26.9879   33.0074 N   0  0  0  0  0  0  0  0  0  0  0  0
    5.5780  -27.0164   31.7463 C   0  0  0  0  0  0  0  0  0  0  0  0
    6.7231  -26.4410   31.4005 N   0  0  0  0  0  0  0  0  0  0  0  0
    9.6361  -24.2484   35.6617 O   0  0  0  0  0  0  0  0  0  0  0  0
    7.4628  -25.8035   32.3266 C   0  0  0  0  0  0  0  0  0  0  0  0
    7.0109  -25.7641   33.6752 C   0  0  0  0  0  0  0  0  0  0  0  0
    8.6460  -25.2143   31.9415 O   0  0  0  0  0  0  0  0  0  0  0  0
    7.6886  -25.0986   34.7702 N   0  0  0  0  0  0  0  0  0  0  0  0
    6.8380  -24.3865   35.7326 C   0  0  2  0  0  0  0  0  0  0  0  0
    5.7495  -25.2814   36.2373 C   0  0  0  0  0  0  0  0  0  0  0  0
    5.8147  -26.3653   33.9770 C   0  0  0  0  0  0  0  0  0  0  0  0
    5.3389  -26.3319   35.3078 N   0  0  0  0  0  0  0  0  0  0  0  0
    6.2006  -23.1033   35.1697 C   0  0  0  0  0  0  0  0  0  0  0  0
    7.2285  -22.2078   34.6535 N   0  0  0  0  0  0  0  0  0  0  0  0
    7.7921  -18.3450   36.3454 C   0  0  0  0  0  0  0  0  0  0  0  0
    8.8446  -18.9793   35.7070 C   0  0  0  0  0  0  0  0  0  0  0  0
    8.6644  -20.2576   35.1441 C   0  0  0  0  0  0  0  0  0  0  0  0
    7.4306  -20.8843   35.2302 C   0  0  0  0  0  0  0  0  0  0  0  0
    6.3746  -20.2443   35.8722 C   0  0  0  0  0  0  0  0  0  0  0  0
    6.5544  -18.9752   36.4283 C   0  0  0  0  0  0  0  0  0  0  0  0
    9.1000  -25.0816   34.9505 C   0  0  0  0  0  0  0  0  0  0  0  0
  1  3  1  0  0  0  0
  2  3  2  0  0  0  0
  2 12  1  0  0  0  0
  3  4  1  0  0  0  0
  4  6  1  0  0  0  0
  5 22  1  0  0  0  0
  6  7  1  0  0  0  0
  6  8  2  0  0  0  0
  7 12  2  0  0  0  0
  7  9  1  0  0  0  0
  9 10  1  0  0  0  0
  9 22  1  0  0  0  0
 10 11  1  0  0  0  0
 10 14  1  6  0  0  0
 11 13  1  0  0  0  0
 12 13  1  0  0  0  0
 14 15  1  0  0  0  0
 15 19  1  0  0  0  0
 16 17  2  0  0  0  0
 16 21  1  0  0  0  0
 17 18  1  0  0  0  0
 18 19  2  0  0  0  0
 19 20  1  0  0  0  0
 20 21  2  0  0  0  0
M  END
>  <CHROM.1>
160.92459104,-55.61255581,-117.80444054,154.32342470,7.04809637,-23.96964498
34.33345765,1.80437026,-0.44540606,-2.58118388

>  <Name>
ligand

>  <RI>
0

>  <Rbt.Current_Directory>
/home/itssahil/PROJECTS/Mol_Feturizer/Test_systems_manuscript/rnas/3sd3

>  <Rbt.Executable>
rbdock ($Id: //depot/dev/client3/rdock/2013.1/src/exe/rbdock.cxx#4 $)

>  <Rbt.Library>
libRbt.so (2013.1, Build901 2013/11/27)

>  <Rbt.Parameter_File>
/export/apps/rDock/src/rDock_2013.1_src/data/scripts/dock_solv.prm

>  <Rbt.Receptor>
prm/blind_docking_80.prm

>  <SCORE>
-13.1471

>  <SCORE.INTER>
-13.3951

>  <SCORE.INTER.CONST>
1

>  <SCORE.INTER.POLAR>
0

>  <SCORE.INTER.ROT>
4

>  <SCORE.INTER.SOLV>
7.91623

>  <SCORE.INTER.VDW>
-17.8355

>  <SCORE.INTER.norm>
-0.608869

>  <SCORE.INTRA>
0.247978

>  <SCORE.INTRA.DIHEDRAL>
0.381549

>  <SCORE.INTRA.DIHEDRAL.0>
2.54655

>  <SCORE.INTRA.POLAR>
0

>  <SCORE.INTRA.POLAR.0>
0

>  <SCORE.INTRA.REPUL>
0

>  <SCORE.INTRA.REPUL.0>
0

>  <SCORE.INTRA.SOLV>
0.467538

>  <SCORE.INTRA.SOLV.lig_0>
-56.4922

>  <SCORE.INTRA.VDW>
-0.176565

>  <SCORE.INTRA.VDW.0>
-0.696801

>  <SCORE.INTRA.norm>
0.0112717

>  <SCORE.RESTR>
0

>  <SCORE.RESTR.CAVITY>
0

>  <SCORE.RESTR.norm>
0

>  <SCORE.SYSTEM>
0

>  <SCORE.SYSTEM.CONST>
0

>  <SCORE.SYSTEM.DIHEDRAL>
0

>  <SCORE.SYSTEM.SOLV>
0

>  <SCORE.SYSTEM.norm>
0

>  <SCORE.heavy>
22

>  <SCORE.norm>
-0.597597

>  <RMSD>
15.388

$$$$
ligand
 OpenBabel02271912143D
libRbt.so/2013.1/901 2013/11/27
 22 24  0  0  0  0  0  0  0  0999 V2000
    7.8170  -20.6923   35.6520 N   0  0  0  0  0  0  0  0  0  0  0  0
    7.9364  -23.0430   35.2129 N   0  0  0  0  0  0  0  0  0  0  0  0
    7.1766  -21.9435   35.3467 C   0  0  0  0  0  0  0  0  0  0  0  0
    5.8571  -21.9759   35.2064 N   0  0  0  0  0  0  0  0  0  0  0  0
    3.8656  -25.8795   36.0806 O   0  0  0  0  0  0  0  0  0  0  0  0
    5.2387  -23.1368   34.9218 C   0  0  0  0  0  0  0  0  0  0  0  0
    6.0107  -24.3242   34.7855 C   0  0  0  0  0  0  0  0  0  0  0  0
    3.8691  -23.1428   34.7806 O   0  0  0  0  0  0  0  0  0  0  0  0
    5.4860  -25.6358   34.4604 N   0  0  0  0  0  0  0  0  0  0  0  0
    6.2842  -26.4511   33.5357 C   0  0  2  0  0  0  0  0  0  0  0  0
    7.7040  -26.5393   34.0015 C   0  0  0  0  0  0  0  0  0  0  0  0
    7.3725  -24.2333   34.9294 C   0  0  0  0  0  0  0  0  0  0  0  0
    8.1630  -25.3969   34.7892 N   0  0  0  0  0  0  0  0  0  0  0  0
    6.2719  -25.9383   32.0843 C   0  0  0  0  0  0  0  0  0  0  0  0
    5.8798  -27.0042   31.1704 N   0  0  0  0  0  0  0  0  0  0  0  0
    8.6925  -29.9490   29.9383 C   0  0  0  0  0  0  0  0  0  0  0  0
    7.3907  -29.9985   29.4687 C   0  0  0  0  0  0  0  0  0  0  0  0
    6.4550  -29.0262   29.8719 C   0  0  0  0  0  0  0  0  0  0  0  0
    6.8369  -28.0172   30.7430 C   0  0  0  0  0  0  0  0  0  0  0  0
    8.1460  -27.9699   31.2131 C   0  0  0  0  0  0  0  0  0  0  0  0
    9.0736  -28.9341   30.8104 C   0  0  0  0  0  0  0  0  0  0  0  0
    4.2607  -26.1581   34.9609 C   0  0  0  0  0  0  0  0  0  0  0  0
  1  3  1  0  0  0  0
  2  3  2  0  0  0  0
  2 12  1  0  0  0  0
  3  4  1  0  0  0  0
  4  6  1  0  0  0  0
  5 22  1  0  0  0  0
  6  7  1  0  0  0  0
  6  8  2  0  0  0  0
  7 12  2  0  0  0  0
  7  9  1  0  0  0  0
  9 10  1  0  0  0  0
  9 22  1  0  0  0  0
 10 11  1  0  0  0  0
 10 14  1  6  0  0  0
 11 13  1  0  0  0  0
 12 13  1  0  0  0  0
 14 15  1  0  0  0  0
 15 19  1  0  0  0  0
 16 17  2  0  0  0  0
 16 21  1  0  0  0  0
 17 18  1  0  0  0  0
 18 19  2  0  0  0  0
 19 20  1  0  0  0  0
 20 21  2  0  0  0  0
M  END
>  <CHROM.1>
-33.57933988,-126.78343972,-79.92214024,-179.91226974,6.54803091,-25.60863331
33.46921692,-1.76455878,-0.30351063,-2.51802470

>  <Name>
ligand

>  <RI>
0

>  <Rbt.Current_Directory>
/home/itssahil/PROJECTS/Mol_Feturizer/Test_systems_manuscript/rnas/3sd3

>  <Rbt.Executable>
rbdock ($Id: //depot/dev/client3/rdock/2013.1/src/exe/rbdock.cxx#4 $)

>  <Rbt.Library>
libRbt.so (2013.1, Build901 2013/11/27)

>  <Rbt.Parameter_File>
/export/apps/rDock/src/rDock_2013.1_src/data/scripts/dock_solv.prm

>  <Rbt.Receptor>
prm/blind_docking_80.prm

>  <SCORE>
-12.1486

>  <SCORE.INTER>
-13.8098

>  <SCORE.INTER.CONST>
1

>  <SCORE.INTER.POLAR>
0

>  <SCORE.INTER.ROT>
4

>  <SCORE.INTER.SOLV>
8.79579

>  <SCORE.INTER.VDW>
-18.4051

>  <SCORE.INTER.norm>
-0.627717

>  <SCORE.INTRA>
1.66115

>  <SCORE.INTRA.DIHEDRAL>
4.41381

>  <SCORE.INTRA.DIHEDRAL.0>
2.54655

>  <SCORE.INTRA.POLAR>
0

>  <SCORE.INTRA.POLAR.0>
0

>  <SCORE.INTRA.REPUL>
0

>  <SCORE.INTRA.REPUL.0>
0

>  <SCORE.INTRA.SOLV>
-0.722507

>  <SCORE.INTRA.SOLV.lig_0>
-56.4922

>  <SCORE.INTRA.VDW>
-0.184501

>  <SCORE.INTRA.VDW.0>
-0.696801

>  <SCORE.INTRA.norm>
0.0755068

>  <SCORE.RESTR>
0

>  <SCORE.RESTR.CAVITY>
0

>  <SCORE.RESTR.norm>
0

>  <SCORE.SYSTEM>
0

>  <SCORE.SYSTEM.CONST>
0

>  <SCORE.SYSTEM.DIHEDRAL>
0

>  <SCORE.SYSTEM.SOLV>
0

>  <SCORE.SYSTEM.norm>
0

>  <SCORE.heavy>
22

>  <SCORE.norm>
-0.552211

>  <RMSD>
15.396

$$$$
ligand
 OpenBabel02271912143D
libRbt.so/2013.1/901 2013/11/27
 22 24  0  0  0  0  0  0  0  0999 V2000
   10.2772  -20.7804   37.9944 N   0  0  0  0  0  0  0  0  0  0  0  0
    8.7525  -21.1011   36.1764 N   0  0  0  0  0  0  0  0  0  0  0  0
    9.7089  -21.6130   36.9684 C   0  0  0  0  0  0  0  0  0  0  0  0
   10.1447  -22.8595   36.8337 N   0  0  0  0  0  0  0  0  0  0  0  0
    8.5716  -24.6998   31.8930 O   0  0  0  0  0  0  0  0  0  0  0  0
    9.6268  -23.6543   35.8792 C   0  0  0  0  0  0  0  0  0  0  0  0
    8.6207  -23.1416   35.0136 C   0  0  0  0  0  0  0  0  0  0  0  0
   10.0959  -24.9434   35.7613 O   0  0  0  0  0  0  0  0  0  0  0  0
    7.9591  -23.8851   33.9597 N   0  0  0  0  0  0  0  0  0  0  0  0
    6.5183  -23.6515   33.7968 C   0  0  2  0  0  0  0  0  0  0  0  0
    6.2310  -22.1868   33.6846 C   0  0  0  0  0  0  0  0  0  0  0  0
    8.1980  -21.8496   35.2029 C   0  0  0  0  0  0  0  0  0  0  0  0
    7.1926  -21.3195   34.3623 N   0  0  0  0  0  0  0  0  0  0  0  0
    5.6605  -24.2371   34.9329 C   0  0  0  0  0  0  0  0  0  0  0  0
    5.5762  -25.6874   34.8123 N   0  0  0  0  0  0  0  0  0  0  0  0
    4.4261  -27.5229   31.1503 C   0  0  0  0  0  0  0  0  0  0  0  0
    3.4572  -27.0573   32.0233 C   0  0  0  0  0  0  0  0  0  0  0  0
    3.8312  -26.4479   33.2366 C   0  0  0  0  0  0  0  0  0  0  0  0
    5.1731  -26.3149   33.5598 C   0  0  0  0  0  0  0  0  0  0  0  0
    6.1446  -26.7837   32.6803 C   0  0  0  0  0  0  0  0  0  0  0  0
    5.7719  -27.3861   31.4760 C   0  0  0  0  0  0  0  0  0  0  0  0
    8.6085  -24.8201   33.1061 C   0  0  0  0  0  0  0  0  0  0  0  0
  1  3  1  0  0  0  0
  2  3  2  0  0  0  0
  2 12  1  0  0  0  0
  3  4  1  0  0  0  0
  4  6  1  0  0  0  0
  5 22  1  0  0  0  0
  6  7  1  0  0  0  0
  6  8  2  0  0  0  0
  7 12  2  0  0  0  0
  7  9  1  0  0  0  0
  9 10  1  0  0  0  0
  9 22  1  0  0  0  0
 10 11  1  0  0  0  0
 10 14  1  1  0  0  0
 11 13  1  0  0  0  0
 12 13  1  0  0  0  0
 14 15  1  0  0  0  0
 15 19  1  0  0  0  0
 16 17  2  0  0  0  0
 16 21  1  0  0  0  0
 17 18  1  0  0  0  0
 18 19  2  0  0  0  0
 19 20  1  0  0  0  0
 20 21  2  0  0  0  0
M  END
>  <CHROM.1>
-123.90070799,-74.17530811,-51.80372788,-82.85657722,7.38292296,-24.12132366
34.33035127,0.91504274,-0.25049370,0.52389836

>  <Name>
ligand

>  <RI>
0

>  <Rbt.Current_Directory>
/home/itssahil/PROJECTS/Mol_Feturizer/Test_systems_manuscript/rnas/3sd3

>  <Rbt.Executable>
rbdock ($Id: //depot/dev/client3/rdock/2013.1/src/exe/rbdock.cxx#4 $)

>  <Rbt.Library>
libRbt.so (2013.1, Build901 2013/11/27)

>  <Rbt.Parameter_File>
/export/apps/rDock/src/rDock_2013.1_src/data/scripts/dock_solv.prm

>  <Rbt.Receptor>
prm/blind_docking_80.prm

>  <SCORE>
-13.1529

>  <SCORE.INTER>
-11.7066

>  <SCORE.INTER.CONST>
1

>  <SCORE.INTER.POLAR>
0

>  <SCORE.INTER.ROT>
4

>  <SCORE.INTER.SOLV>
10.7148

>  <SCORE.INTER.VDW>
-17.6427

>  <SCORE.INTER.norm>
-0.532118

>  <SCORE.INTRA>
-1.44634

>  <SCORE.INTRA.DIHEDRAL>
-0.193181

>  <SCORE.INTRA.DIHEDRAL.0>
2.54655

>  <SCORE.INTRA.POLAR>
0

>  <SCORE.INTRA.POLAR.0>
0

>  <SCORE.INTRA.REPUL>
0

>  <SCORE.INTRA.REPUL.0>
0

>  <SCORE.INTRA.SOLV>
-0.266786

>  <SCORE.INTRA.SOLV.lig_0>
-56.4922

>  <SCORE.INTRA.VDW>
-1.21635

>  <SCORE.INTRA.VDW.0>
-0.696801

>  <SCORE.INTRA.norm>
-0.0657426

>  <SCORE.RESTR>
0

>  <SCORE.RESTR.CAVITY>
0

>  <SCORE.RESTR.norm>
0

>  <SCORE.SYSTEM>
0

>  <SCORE.SYSTEM.CONST>
0

>  <SCORE.SYSTEM.DIHEDRAL>
0

>  <SCORE.SYSTEM.SOLV>
0

>  <SCORE.SYSTEM.norm>
0

>  <SCORE.heavy>
22

>  <SCORE.norm>
-0.597861

>  <RMSD>
15.409

$$$$
ligand
 OpenBabel02271912143D
libRbt.so/2013.1/901 2013/11/27
 22 24  0  0  0  0  0  0  0  0999 V2000
   10.4483  -20.0413   35.6222 N   0  0  0  0  0  0  0  0  0  0  0  0
   10.1163  -22.4125   35.6262 N   0  0  0  0  0  0  0  0  0  0  0  0
    9.7015  -21.2007   36.0308 C   0  0  0  0  0  0  0  0  0  0  0  0
    8.6273  -21.0407   36.7939 N   0  0  0  0  0  0  0  0  0  0  0  0
    5.9051  -25.3336   38.4521 O   0  0  0  0  0  0  0  0  0  0  0  0
    7.9156  -22.1128   37.1878 C   0  0  0  0  0  0  0  0  0  0  0  0
    8.3328  -23.4132   36.7885 C   0  0  0  0  0  0  0  0  0  0  0  0
    6.8051  -21.9191   37.9783 O   0  0  0  0  0  0  0  0  0  0  0  0
    7.6555  -24.6518   37.1174 N   0  0  0  0  0  0  0  0  0  0  0  0
    7.5853  -25.6634   36.0550 C   0  0  2  0  0  0  0  0  0  0  0  0
    8.9450  -25.9274   35.4876 C   0  0  0  0  0  0  0  0  0  0  0  0
    9.4440  -23.5219   35.9904 C   0  0  0  0  0  0  0  0  0  0  0  0
    9.8738  -24.8021   35.5720 N   0  0  0  0  0  0  0  0  0  0  0  0
    6.6336  -25.2918   34.9036 C   0  0  0  0  0  0  0  0  0  0  0  0
    6.0105  -26.4882   34.3510 N   0  0  0  0  0  0  0  0  0  0  0  0
    7.8980  -28.7149   31.2558 C   0  0  0  0  0  0  0  0  0  0  0  0
    8.2071  -28.9751   32.5803 C   0  0  0  0  0  0  0  0  0  0  0  0
    7.5852  -28.2423   33.6097 C   0  0  0  0  0  0  0  0  0  0  0  0
    6.6619  -27.2560   33.2970 C   0  0  0  0  0  0  0  0  0  0  0  0
    6.3532  -26.9970   31.9649 C   0  0  0  0  0  0  0  0  0  0  0  0
    6.9695  -27.7264   30.9449 C   0  0  0  0  0  0  0  0  0  0  0  0
    7.0530  -24.9288   38.3764 C   0  0  0  0  0  0  0  0  0  0  0  0
  1  3  1  0  0  0  0
  2  3  2  0  0  0  0
  2 12  1  0  0  0  0
  3  4  1  0  0  0  0
  4  6  1  0  0  0  0
  5 22  1  0  0  0  0
  6  7  1  0  0  0  0
  6  8  2  0  0  0  0
  7 12  2  0  0  0  0
  7  9  1  0  0  0  0
  9 10  1  0  0  0  0
  9 22  1  0  0  0  0
 10 11  1  0  0  0  0
 10 14  1  6  0  0  0
 11 13  1  0  0  0  0
 12 13  1  0  0  0  0
 14 15  1  0  0  0  0
 15 19  1  0  0  0  0
 16 17  2  0  0  0  0
 16 21  1  0  0  0  0
 17 18  1  0  0  0  0
 18 19  2  0  0  0  0
 19 20  1  0  0  0  0
 20 21  2  0  0  0  0
M  END
>  <CHROM.1>
129.07902247,-146.99604546,-86.94599973,86.21391970,7.92398499,-24.76253081
35.39947064,-1.27729944,-0.82737333,-2.28718283

>  <Name>
ligand

>  <RI>
0

>  <Rbt.Current_Directory>
/home/itssahil/PROJECTS/Mol_Feturizer/Test_systems_manuscript/rnas/3sd3

>  <Rbt.Executable>
rbdock ($Id: //depot/dev/client3/rdock/2013.1/src/exe/rbdock.cxx#4 $)

>  <Rbt.Library>
libRbt.so (2013.1, Build901 2013/11/27)

>  <Rbt.Parameter_File>
/export/apps/rDock/src/rDock_2013.1_src/data/scripts/dock_solv.prm

>  <Rbt.Receptor>
prm/blind_docking_100.prm

>  <SCORE>
-11.1281

>  <SCORE.INTER>
-11.2151

>  <SCORE.INTER.CONST>
1

>  <SCORE.INTER.POLAR>
0

>  <SCORE.INTER.ROT>
4

>  <SCORE.INTER.SOLV>
12.5327

>  <SCORE.INTER.VDW>
-17.921

>  <SCORE.INTER.norm>
-0.509779

>  <SCORE.INTRA>
0.0869935

>  <SCORE.INTRA.DIHEDRAL>
2.64324

>  <SCORE.INTRA.DIHEDRAL.0>
2.54655

>  <SCORE.INTRA.POLAR>
0

>  <SCORE.INTRA.POLAR.0>
0

>  <SCORE.INTRA.REPUL>
0

>  <SCORE.INTRA.REPUL.0>
0

>  <SCORE.INTRA.SOLV>
-0.783385

>  <SCORE.INTRA.SOLV.lig_0>
-56.4922

>  <SCORE.INTRA.VDW>
-0.842936

>  <SCORE.INTRA.VDW.0>
-0.696801

>  <SCORE.INTRA.norm>
0.00395425

>  <SCORE.RESTR>
0

>  <SCORE.RESTR.CAVITY>
0

>  <SCORE.RESTR.norm>
0

>  <SCORE.SYSTEM>
0

>  <SCORE.SYSTEM.CONST>
0

>  <SCORE.SYSTEM.DIHEDRAL>
0

>  <SCORE.SYSTEM.SOLV>
0

>  <SCORE.SYSTEM.norm>
0

>  <SCORE.heavy>
22

>  <SCORE.norm>
-0.505825

>  <RMSD>
15.462

$$$$
ligand
 OpenBabel02271912143D
libRbt.so/2013.1/901 2013/11/27
 22 24  0  0  0  0  0  0  0  0999 V2000
    2.4064  -27.5009   29.2465 N   0  0  0  0  0  0  0  0  0  0  0  0
    3.7619  -27.2034   31.1977 N   0  0  0  0  0  0  0  0  0  0  0  0
    3.6728  -27.6079   29.9200 C   0  0  0  0  0  0  0  0  0  0  0  0
    4.7141  -28.1020   29.2617 N   0  0  0  0  0  0  0  0  0  0  0  0
    9.0779  -28.9044   31.0743 O   0  0  0  0  0  0  0  0  0  0  0  0
    5.9075  -28.2115   29.8742 C   0  0  0  0  0  0  0  0  0  0  0  0
    6.0357  -27.8045   31.2315 C   0  0  0  0  0  0  0  0  0  0  0  0
    6.9716  -28.7265   29.1685 O   0  0  0  0  0  0  0  0  0  0  0  0
    7.2582  -27.8439   32.0094 N   0  0  0  0  0  0  0  0  0  0  0  0
    7.5029  -26.7061   32.9052 C   0  0  2  0  0  0  0  0  0  0  0  0
    6.3147  -26.4599   33.7815 C   0  0  0  0  0  0  0  0  0  0  0  0
    4.9307  -27.2902   31.8623 C   0  0  0  0  0  0  0  0  0  0  0  0
    5.0343  -26.8697   33.2081 N   0  0  0  0  0  0  0  0  0  0  0  0
    7.8535  -25.3996   32.1705 C   0  0  0  0  0  0  0  0  0  0  0  0
    8.3356  -24.3980   33.1137 N   0  0  0  0  0  0  0  0  0  0  0  0
    5.6391  -21.8428   35.1876 C   0  0  0  0  0  0  0  0  0  0  0  0
    5.6349  -21.8730   33.8031 C   0  0  0  0  0  0  0  0  0  0  0  0
    6.5243  -22.7173   33.1106 C   0  0  0  0  0  0  0  0  0  0  0  0
    7.4082  -23.5196   33.8160 C   0  0  0  0  0  0  0  0  0  0  0  0
    7.4100  -23.4873   35.2074 C   0  0  0  0  0  0  0  0  0  0  0  0
    6.5255  -22.6506   35.8930 C   0  0  0  0  0  0  0  0  0  0  0  0
    8.2208  -28.8897   31.9418 C   0  0  0  0  0  0  0  0  0  0  0  0
  1  3  1  0  0  0  0
  2  3  2  0  0  0  0
  2 12  1  0  0  0  0
  3  4  1  0  0  0  0
  4  6  1  0  0  0  0
  5 22  1  0  0  0  0
  6  7  1  0  0  0  0
  6  8  2  0  0  0  0
  7 12  2  0  0  0  0
  7  9  1  0  0  0  0
  9 10  1  0  0  0  0
  9 22  1  0  0  0  0
 10 11  1  0  0  0  0
 10 14  1  6  0  0  0
 11 13  1  0  0  0  0
 12 13  1  0  0  0  0
 14 15  1  0  0  0  0
 15 19  1  0  0  0  0
 16 17  2  0  0  0  0
 16 21  1  0  0  0  0
 17 18  1  0  0  0  0
 18 19  2  0  0  0  0
 19 20  1  0  0  0  0
 20 21  2  0  0  0  0
M  END
>  <CHROM.1>
83.38194291,-168.82570812,-86.88763412,-56.71614190,6.27226716,-26.22200458
32.14318443,1.74109897,0.32249427,-2.50702624

>  <Name>
ligand

>  <RI>
0

>  <Rbt.Current_Directory>
/home/itssahil/PROJECTS/Mol_Feturizer/Test_systems_manuscript/rnas/3sd3

>  <Rbt.Executable>
rbdock ($Id: //depot/dev/client3/rdock/2013.1/src/exe/rbdock.cxx#4 $)

>  <Rbt.Library>
libRbt.so (2013.1, Build901 2013/11/27)

>  <Rbt.Parameter_File>
/export/apps/rDock/src/rDock_2013.1_src/data/scripts/dock_solv.prm

>  <Rbt.Receptor>
prm/blind_docking_100.prm

>  <SCORE>
-17.1287

>  <SCORE.INTER>
-16.1936

>  <SCORE.INTER.CONST>
1

>  <SCORE.INTER.POLAR>
0

>  <SCORE.INTER.ROT>
4

>  <SCORE.INTER.SOLV>
9.43416

>  <SCORE.INTER.VDW>
-20.2071

>  <SCORE.INTER.norm>
-0.736072

>  <SCORE.INTRA>
-0.935151

>  <SCORE.INTRA.DIHEDRAL>
0.0112343

>  <SCORE.INTRA.DIHEDRAL.0>
2.54655

>  <SCORE.INTRA.POLAR>
0

>  <SCORE.INTRA.POLAR.0>
0

>  <SCORE.INTRA.REPUL>
0

>  <SCORE.INTRA.REPUL.0>
0

>  <SCORE.INTRA.SOLV>
-0.459256

>  <SCORE.INTRA.SOLV.lig_0>
-56.4922

>  <SCORE.INTRA.VDW>
-0.71114

>  <SCORE.INTRA.VDW.0>
-0.696801

>  <SCORE.INTRA.norm>
-0.0425069

>  <SCORE.RESTR>
0

>  <SCORE.RESTR.CAVITY>
0

>  <SCORE.RESTR.norm>
0

>  <SCORE.SYSTEM>
0

>  <SCORE.SYSTEM.CONST>
0

>  <SCORE.SYSTEM.DIHEDRAL>
0

>  <SCORE.SYSTEM.SOLV>
0

>  <SCORE.SYSTEM.norm>
0

>  <SCORE.heavy>
22

>  <SCORE.norm>
-0.778579

>  <RMSD>
15.502

$$$$
ligand
 OpenBabel02271912143D
libRbt.so/2013.1/901 2013/11/27
 22 24  0  0  0  0  0  0  0  0999 V2000
    2.4270  -27.5192   29.1928 N   0  0  0  0  0  0  0  0  0  0  0  0
    3.7566  -27.1802   31.1550 N   0  0  0  0  0  0  0  0  0  0  0  0
    3.6842  -27.6124   29.8853 C   0  0  0  0  0  0  0  0  0  0  0  0
    4.7337  -28.1216   29.2520 N   0  0  0  0  0  0  0  0  0  0  0  0
    8.9985  -28.9529   31.0761 O   0  0  0  0  0  0  0  0  0  0  0  0
    5.9186  -28.2185   29.8826 C   0  0  0  0  0  0  0  0  0  0  0  0
    6.0291  -27.7821   31.2323 C   0  0  0  0  0  0  0  0  0  0  0  0
    6.9916  -28.7496   29.2028 O   0  0  0  0  0  0  0  0  0  0  0  0
    7.2410  -27.8053   32.0272 N   0  0  0  0  0  0  0  0  0  0  0  0
    7.4749  -26.6484   32.9012 C   0  0  2  0  0  0  0  0  0  0  0  0
    6.2753  -26.3823   33.7559 C   0  0  0  0  0  0  0  0  0  0  0  0
    4.9163  -27.2533   31.8369 C   0  0  0  0  0  0  0  0  0  0  0  0
    5.0023  -26.8036   33.1744 N   0  0  0  0  0  0  0  0  0  0  0  0
    7.8366  -25.3586   32.1429 C   0  0  0  0  0  0  0  0  0  0  0  0
    8.3251  -24.3434   33.0681 N   0  0  0  0  0  0  0  0  0  0  0  0
    5.6365  -21.8511   35.2271 C   0  0  0  0  0  0  0  0  0  0  0  0
    5.6187  -21.8493   33.8424 C   0  0  0  0  0  0  0  0  0  0  0  0
    6.5054  -22.6726   33.1218 C   0  0  0  0  0  0  0  0  0  0  0  0
    7.4004  -23.4864   33.7997 C   0  0  0  0  0  0  0  0  0  0  0  0
    7.4159  -23.4861   35.1913 C   0  0  0  0  0  0  0  0  0  0  0  0
    6.5340  -22.6703   35.9048 C   0  0  0  0  0  0  0  0  0  0  0  0
    8.2033  -28.8531   31.9954 C   0  0  0  0  0  0  0  0  0  0  0  0
  1  3  1  0  0  0  0
  2  3  2  0  0  0  0
  2 12  1  0  0  0  0
  3  4  1  0  0  0  0
  4  6  1  0  0  0  0
  5 22  1  0  0  0  0
  6  7  1  0  0  0  0
  6  8  2  0  0  0  0
  7 12  2  0  0  0  0
  7  9  1  0  0  0  0
  9 10  1  0  0  0  0
  9 22  1  0  0  0  0
 10 11  1  0  0  0  0
 10 14  1  6  0  0  0
 11 13  1  0  0  0  0
 12 13  1  0  0  0  0
 14 15  1  0  0  0  0
 15 19  1  0  0  0  0
 16 17  2  0  0  0  0
 16 21  1  0  0  0  0
 17 18  1  0  0  0  0
 18 19  2  0  0  0  0
 19 20  1  0  0  0  0
 20 21  2  0  0  0  0
M  END
>  <CHROM.1>
76.93257701,-168.01696826,-84.00544574,-58.96550750,6.26178096,-26.20385384
32.13770904,1.74089799,0.32685333,-2.50782599

>  <Name>
ligand

>  <RI>
0

>  <Rbt.Current_Directory>
/home/itssahil/PROJECTS/Mol_Feturizer/Test_systems_manuscript/rnas/3sd3

>  <Rbt.Executable>
rbdock ($Id: //depot/dev/client3/rdock/2013.1/src/exe/rbdock.cxx#4 $)

>  <Rbt.Library>
libRbt.so (2013.1, Build901 2013/11/27)

>  <Rbt.Parameter_File>
/export/apps/rDock/src/rDock_2013.1_src/data/scripts/dock_solv.prm

>  <Rbt.Receptor>
prm/blind_docking_60.prm

>  <SCORE>
-17.1935

>  <SCORE.INTER>
-16.2836

>  <SCORE.INTER.CONST>
1

>  <SCORE.INTER.POLAR>
0

>  <SCORE.INTER.ROT>
4

>  <SCORE.INTER.SOLV>
9.36789

>  <SCORE.INTER.VDW>
-20.245

>  <SCORE.INTER.norm>
-0.740164

>  <SCORE.INTRA>
-0.909874

>  <SCORE.INTRA.DIHEDRAL>
-0.00859435

>  <SCORE.INTRA.DIHEDRAL.0>
2.54655

>  <SCORE.INTRA.POLAR>
0

>  <SCORE.INTRA.POLAR.0>
0

>  <SCORE.INTRA.REPUL>
0

>  <SCORE.INTRA.REPUL.0>
0

>  <SCORE.INTRA.SOLV>
-0.449215

>  <SCORE.INTRA.SOLV.lig_0>
-56.4922

>  <SCORE.INTRA.VDW>
-0.680969

>  <SCORE.INTRA.VDW.0>
-0.696801

>  <SCORE.INTRA.norm>
-0.0413579

>  <SCORE.RESTR>
0

>  <SCORE.RESTR.CAVITY>
0

>  <SCORE.RESTR.norm>
0

>  <SCORE.SYSTEM>
0

>  <SCORE.SYSTEM.CONST>
0

>  <SCORE.SYSTEM.DIHEDRAL>
0

>  <SCORE.SYSTEM.SOLV>
0

>  <SCORE.SYSTEM.norm>
0

>  <SCORE.heavy>
22

>  <SCORE.norm>
-0.781522

>  <RMSD>
15.503

$$$$
ligand
 OpenBabel02271912143D
libRbt.so/2013.1/901 2013/11/27
 22 24  0  0  0  0  0  0  0  0999 V2000
    2.4001  -27.5730   29.2311 N   0  0  0  0  0  0  0  0  0  0  0  0
    3.7398  -27.2146   31.1829 N   0  0  0  0  0  0  0  0  0  0  0  0
    3.6628  -27.6520   29.9152 C   0  0  0  0  0  0  0  0  0  0  0  0
    4.7127  -28.1534   29.2765 N   0  0  0  0  0  0  0  0  0  0  0  0
    9.0300  -28.9088   31.1000 O   0  0  0  0  0  0  0  0  0  0  0  0
    5.9028  -28.2370   29.8992 C   0  0  0  0  0  0  0  0  0  0  0  0
    6.0185  -27.7948   31.2466 C   0  0  0  0  0  0  0  0  0  0  0  0
    6.9761  -28.7604   29.2138 O   0  0  0  0  0  0  0  0  0  0  0  0
    7.2360  -27.8038   32.0332 N   0  0  0  0  0  0  0  0  0  0  0  0
    7.4649  -26.6417   32.9016 C   0  0  2  0  0  0  0  0  0  0  0  0
    6.2687  -26.3838   33.7636 C   0  0  0  0  0  0  0  0  0  0  0  0
    4.9049  -27.2744   31.8570 C   0  0  0  0  0  0  0  0  0  0  0  0
    4.9958  -26.8191   33.1924 N   0  0  0  0  0  0  0  0  0  0  0  0
    7.8092  -25.3511   32.1363 C   0  0  0  0  0  0  0  0  0  0  0  0
    8.3209  -24.3375   33.0506 N   0  0  0  0  0  0  0  0  0  0  0  0
    5.6877  -21.8598   35.2929 C   0  0  0  0  0  0  0  0  0  0  0  0
    5.6245  -21.8603   33.9096 C   0  0  0  0  0  0  0  0  0  0  0  0
    6.4927  -22.6789   33.1615 C   0  0  0  0  0  0  0  0  0  0  0  0
    7.4148  -23.4855   33.8109 C   0  0  0  0  0  0  0  0  0  0  0  0
    7.4759  -23.4830   35.2013 C   0  0  0  0  0  0  0  0  0  0  0  0
    6.6124  -22.6719   35.9421 C   0  0  0  0  0  0  0  0  0  0  0  0
    8.2079  -28.8426   31.9984 C   0  0  0  0  0  0  0  0  0  0  0  0
  1  3  1  0  0  0  0
  2  3  2  0  0  0  0
  2 12  1  0  0  0  0
  3  4  1  0  0  0  0
  4  6  1  0  0  0  0
  5 22  1  0  0  0  0
  6  7  1  0  0  0  0
  6  8  2  0  0  0  0
  7 12  2  0  0  0  0
  7  9  1  0  0  0  0
  9 10  1  0  0  0  0
  9 22  1  0  0  0  0
 10 11  1  0  0  0  0
 10 14  1  6  0  0  0
 11 13  1  0  0  0  0
 12 13  1  0  0  0  0
 14 15  1  0  0  0  0
 15 19  1  0  0  0  0
 16 17  2  0  0  0  0
 16 21  1  0  0  0  0
 17 18  1  0  0  0  0
 18 19  2  0  0  0  0
 19 20  1  0  0  0  0
 20 21  2  0  0  0  0
M  END
>  <CHROM.1>
79.72796047,-166.82966870,-83.67170385,-58.53329886,6.26262304,-26.21185328
32.15738316,1.75084496,0.31207975,-2.50722074

>  <Name>
ligand

>  <RI>
0

>  <Rbt.Current_Directory>
/home/itssahil/PROJECTS/Mol_Feturizer/Test_systems_manuscript/rnas/3sd3

>  <Rbt.Executable>
rbdock ($Id: //depot/dev/client3/rdock/2013.1/src/exe/rbdock.cxx#4 $)

>  <Rbt.Library>
libRbt.so (2013.1, Build901 2013/11/27)

>  <Rbt.Parameter_File>
/export/apps/rDock/src/rDock_2013.1_src/data/scripts/dock_solv.prm

>  <Rbt.Receptor>
prm/blind_docking_60.prm

>  <SCORE>
-17.1724

>  <SCORE.INTER>
-16.2433

>  <SCORE.INTER.CONST>
1

>  <SCORE.INTER.POLAR>
0

>  <SCORE.INTER.ROT>
4

>  <SCORE.INTER.SOLV>
9.26707

>  <SCORE.INTER.VDW>
-20.1845

>  <SCORE.INTER.norm>
-0.73833

>  <SCORE.INTRA>
-0.929107

>  <SCORE.INTRA.DIHEDRAL>
0.0794245

>  <SCORE.INTRA.DIHEDRAL.0>
2.54655

>  <SCORE.INTRA.POLAR>
0

>  <SCORE.INTRA.POLAR.0>
0

>  <SCORE.INTRA.REPUL>
0

>  <SCORE.INTRA.REPUL.0>
0

>  <SCORE.INTRA.SOLV>
-0.471943

>  <SCORE.INTRA.SOLV.lig_0>
-56.4922

>  <SCORE.INTRA.VDW>
-0.732848

>  <SCORE.INTRA.VDW.0>
-0.696801

>  <SCORE.INTRA.norm>
-0.0422321

>  <SCORE.RESTR>
0

>  <SCORE.RESTR.CAVITY>
0

>  <SCORE.RESTR.norm>
0

>  <SCORE.SYSTEM>
0

>  <SCORE.SYSTEM.CONST>
0

>  <SCORE.SYSTEM.DIHEDRAL>
0

>  <SCORE.SYSTEM.SOLV>
0

>  <SCORE.SYSTEM.norm>
0

>  <SCORE.heavy>
22

>  <SCORE.norm>
-0.780562

>  <RMSD>
15.510

$$$$
ligand
 OpenBabel02271912143D
libRbt.so/2013.1/901 2013/11/27
 22 24  0  0  0  0  0  0  0  0999 V2000
    2.3735  -27.5692   29.2529 N   0  0  0  0  0  0  0  0  0  0  0  0
    3.7335  -27.2175   31.1919 N   0  0  0  0  0  0  0  0  0  0  0  0
    3.6425  -27.6533   29.9246 C   0  0  0  0  0  0  0  0  0  0  0  0
    4.6844  -28.1578   29.2751 N   0  0  0  0  0  0  0  0  0  0  0  0
    9.0931  -28.8621   31.1278 O   0  0  0  0  0  0  0  0  0  0  0  0
    5.8802  -28.2461   29.8862 C   0  0  0  0  0  0  0  0  0  0  0  0
    6.0106  -27.8057   31.2328 C   0  0  0  0  0  0  0  0  0  0  0  0
    6.9449  -28.7725   29.1898 O   0  0  0  0  0  0  0  0  0  0  0  0
    7.2357  -27.8198   32.0074 N   0  0  0  0  0  0  0  0  0  0  0  0
    7.4772  -26.6594   32.8747 C   0  0  2  0  0  0  0  0  0  0  0  0
    6.2904  -26.3982   33.7486 C   0  0  0  0  0  0  0  0  0  0  0  0
    4.9048  -27.2821   31.8546 C   0  0  0  0  0  0  0  0  0  0  0  0
    5.0104  -26.8285   33.1894 N   0  0  0  0  0  0  0  0  0  0  0  0
    7.8185  -25.3693   32.1074 C   0  0  0  0  0  0  0  0  0  0  0  0
    8.2979  -24.3425   33.0244 N   0  0  0  0  0  0  0  0  0  0  0  0
    5.5869  -21.8597   35.1664 C   0  0  0  0  0  0  0  0  0  0  0  0
    5.5765  -21.8595   33.7817 C   0  0  0  0  0  0  0  0  0  0  0  0
    6.4706  -22.6797   33.0666 C   0  0  0  0  0  0  0  0  0  0  0  0
    7.3655  -23.4888   33.7502 C   0  0  0  0  0  0  0  0  0  0  0  0
    7.3736  -23.4870   35.1419 C   0  0  0  0  0  0  0  0  0  0  0  0
    6.4844  -22.6743   35.8498 C   0  0  0  0  0  0  0  0  0  0  0  0
    8.2035  -28.8619   31.9620 C   0  0  0  0  0  0  0  0  0  0  0  0
  1  3  1  0  0  0  0
  2  3  2  0  0  0  0
  2 12  1  0  0  0  0
  3  4  1  0  0  0  0
  4  6  1  0  0  0  0
  5 22  1  0  0  0  0
  6  7  1  0  0  0  0
  6  8  2  0  0  0  0
  7 12  2  0  0  0  0
  7  9  1  0  0  0  0
  9 10  1  0  0  0  0
  9 22  1  0  0  0  0
 10 11  1  0  0  0  0
 10 14  1  6  0  0  0
 11 13  1  0  0  0  0
 12 13  1  0  0  0  0
 14 15  1  0  0  0  0
 15 19  1  0  0  0  0
 16 17  2  0  0  0  0
 16 21  1  0  0  0  0
 17 18  1  0  0  0  0
 18 19  2  0  0  0  0
 19 20  1  0  0  0  0
 20 21  2  0  0  0  0
M  END
>  <CHROM.1>
86.61146749,-168.83967206,-84.32943550,-59.55193212,6.24216162,-26.21647048
32.12731581,1.74013889,0.31089882,-2.51424253

>  <Name>
ligand

>  <RI>
0

>  <Rbt.Current_Directory>
/home/itssahil/PROJECTS/Mol_Feturizer/Test_systems_manuscript/rnas/3sd3

>  <Rbt.Executable>
rbdock ($Id: //depot/dev/client3/rdock/2013.1/src/exe/rbdock.cxx#4 $)

>  <Rbt.Library>
libRbt.so (2013.1, Build901 2013/11/27)

>  <Rbt.Parameter_File>
/export/apps/rDock/src/rDock_2013.1_src/data/scripts/dock_solv.prm

>  <Rbt.Receptor>
prm/blind_docking_100.prm

>  <SCORE>
-17.1221

>  <SCORE.INTER>
-16.1333

>  <SCORE.INTER.CONST>
1

>  <SCORE.INTER.POLAR>
0

>  <SCORE.INTER.ROT>
4

>  <SCORE.INTER.SOLV>
9.43057

>  <SCORE.INTER.VDW>
-20.1657

>  <SCORE.INTER.norm>
-0.733334

>  <SCORE.INTRA>
-0.988722

>  <SCORE.INTRA.DIHEDRAL>
-0.0692229

>  <SCORE.INTRA.DIHEDRAL.0>
2.54655

>  <SCORE.INTRA.POLAR>
0

>  <SCORE.INTRA.POLAR.0>
0

>  <SCORE.INTRA.REPUL>
0

>  <SCORE.INTRA.REPUL.0>
0

>  <SCORE.INTRA.SOLV>
-0.466949

>  <SCORE.INTRA.SOLV.lig_0>
-56.4922

>  <SCORE.INTRA.VDW>
-0.720636

>  <SCORE.INTRA.VDW.0>
-0.696801

>  <SCORE.INTRA.norm>
-0.0449419

>  <SCORE.RESTR>
0

>  <SCORE.RESTR.CAVITY>
0

>  <SCORE.RESTR.norm>
0

>  <SCORE.SYSTEM>
0

>  <SCORE.SYSTEM.CONST>
0

>  <SCORE.SYSTEM.DIHEDRAL>
0

>  <SCORE.SYSTEM.SOLV>
0

>  <SCORE.SYSTEM.norm>
0

>  <SCORE.heavy>
22

>  <SCORE.norm>
-0.778275

>  <RMSD>
15.517

$$$$
ligand
 OpenBabel02271912143D
libRbt.so/2013.1/901 2013/11/27
 22 24  0  0  0  0  0  0  0  0999 V2000
    2.3039  -27.5723   29.2385 N   0  0  0  0  0  0  0  0  0  0  0  0
    3.6753  -27.2361   31.1722 N   0  0  0  0  0  0  0  0  0  0  0  0
    3.5762  -27.6644   29.9030 C   0  0  0  0  0  0  0  0  0  0  0  0
    4.6129  -28.1688   29.2452 N   0  0  0  0  0  0  0  0  0  0  0  0
    9.0536  -28.8772   31.0979 O   0  0  0  0  0  0  0  0  0  0  0  0
    5.8116  -28.2647   29.8494 C   0  0  0  0  0  0  0  0  0  0  0  0
    5.9505  -27.8323   31.1978 C   0  0  0  0  0  0  0  0  0  0  0  0
    6.8707  -28.7909   29.1445 O   0  0  0  0  0  0  0  0  0  0  0  0
    7.1797  -27.8549   31.9658 N   0  0  0  0  0  0  0  0  0  0  0  0
    7.4297  -26.7002   32.8382 C   0  0  2  0  0  0  0  0  0  0  0  0
    6.2484  -26.4399   33.7199 C   0  0  0  0  0  0  0  0  0  0  0  0
    4.8499  -27.3084   31.8283 C   0  0  0  0  0  0  0  0  0  0  0  0
    4.9640  -26.8627   33.1651 N   0  0  0  0  0  0  0  0  0  0  0  0
    7.7714  -25.4070   32.0764 C   0  0  0  0  0  0  0  0  0  0  0  0
    8.2936  -24.3993   32.9912 N   0  0  0  0  0  0  0  0  0  0  0  0
    5.6646  -21.8731   35.1839 C   0  0  0  0  0  0  0  0  0  0  0  0
    6.5441  -22.7045   35.8569 C   0  0  0  0  0  0  0  0  0  0  0  0
    7.4176  -23.5424   35.1370 C   0  0  0  0  0  0  0  0  0  0  0  0
    7.3964  -23.5370   33.7505 C   0  0  0  0  0  0  0  0  0  0  0  0
    6.5115  -22.7002   33.0770 C   0  0  0  0  0  0  0  0  0  0  0  0
    5.6470  -21.8679   33.7927 C   0  0  0  0  0  0  0  0  0  0  0  0
    8.1436  -28.9000   31.9095 C   0  0  0  0  0  0  0  0  0  0  0  0
  1  3  1  0  0  0  0
  2  3  2  0  0  0  0
  2 12  1  0  0  0  0
  3  4  1  0  0  0  0
  4  6  1  0  0  0  0
  5 22  1  0  0  0  0
  6  7  1  0  0  0  0
  6  8  2  0  0  0  0
  7 12  2  0  0  0  0
  7  9  1  0  0  0  0
  9 10  1  0  0  0  0
  9 22  1  0  0  0  0
 10 11  1  0  0  0  0
 10 14  1  6  0  0  0
 11 13  1  0  0  0  0
 12 13  1  0  0  0  0
 14 15  1  0  0  0  0
 15 19  1  0  0  0  0
 16 17  2  0  0  0  0
 16 21  1  0  0  0  0
 17 18  1  0  0  0  0
 18 19  2  0  0  0  0
 19 20  1  0  0  0  0
 20 21  2  0  0  0  0
M  END
>  <CHROM.1>
88.95231821,-167.29231240,-84.44828700,119.91990547,6.21494809,-26.24409431
32.10507253,1.76119785,0.30754827,-2.51412252

>  <Name>
ligand

>  <RI>
0

>  <Rbt.Current_Directory>
/home/itssahil/PROJECTS/Mol_Feturizer/Test_systems_manuscript/rnas/3sd3

>  <Rbt.Executable>
rbdock ($Id: //depot/dev/client3/rdock/2013.1/src/exe/rbdock.cxx#4 $)

>  <Rbt.Library>
libRbt.so (2013.1, Build901 2013/11/27)

>  <Rbt.Parameter_File>
/export/apps/rDock/src/rDock_2013.1_src/data/scripts/dock_solv.prm

>  <Rbt.Receptor>
prm/blind_docking_100.prm

>  <SCORE>
-17.001

>  <SCORE.INTER>
-16.0247

>  <SCORE.INTER.CONST>
1

>  <SCORE.INTER.POLAR>
0

>  <SCORE.INTER.ROT>
4

>  <SCORE.INTER.SOLV>
9.35257

>  <SCORE.INTER.VDW>
-20.0673

>  <SCORE.INTER.norm>
-0.728394

>  <SCORE.INTRA>
-0.976299

>  <SCORE.INTRA.DIHEDRAL>
0.0589907

>  <SCORE.INTRA.DIHEDRAL.0>
2.54655

>  <SCORE.INTRA.POLAR>
0

>  <SCORE.INTRA.POLAR.0>
0

>  <SCORE.INTRA.REPUL>
0

>  <SCORE.INTRA.REPUL.0>
0

>  <SCORE.INTRA.SOLV>
-0.494336

>  <SCORE.INTRA.SOLV.lig_0>
-56.4922

>  <SCORE.INTRA.VDW>
-0.758626

>  <SCORE.INTRA.VDW.0>
-0.696801

>  <SCORE.INTRA.norm>
-0.0443772

>  <SCORE.RESTR>
0

>  <SCORE.RESTR.CAVITY>
0

>  <SCORE.RESTR.norm>
0

>  <SCORE.SYSTEM>
0

>  <SCORE.SYSTEM.CONST>
0

>  <SCORE.SYSTEM.DIHEDRAL>
0

>  <SCORE.SYSTEM.SOLV>
0

>  <SCORE.SYSTEM.norm>
0

>  <SCORE.heavy>
22

>  <SCORE.norm>
-0.772771

>  <RMSD>
15.530

$$$$
ligand
 OpenBabel02271912143D
libRbt.so/2013.1/901 2013/11/27
 22 24  0  0  0  0  0  0  0  0999 V2000
    2.3842  -27.5620   29.2412 N   0  0  0  0  0  0  0  0  0  0  0  0
    3.7332  -27.1991   31.1858 N   0  0  0  0  0  0  0  0  0  0  0  0
    3.6495  -27.6421   29.9205 C   0  0  0  0  0  0  0  0  0  0  0  0
    4.6950  -28.1501   29.2798 N   0  0  0  0  0  0  0  0  0  0  0  0
    9.0620  -28.8715   31.1293 O   0  0  0  0  0  0  0  0  0  0  0  0
    5.8874  -28.2349   29.8981 C   0  0  0  0  0  0  0  0  0  0  0  0
    6.0101  -27.7868   31.2429 C   0  0  0  0  0  0  0  0  0  0  0  0
    6.9560  -28.7651   29.2107 O   0  0  0  0  0  0  0  0  0  0  0  0
    7.2308  -27.7964   32.0245 N   0  0  0  0  0  0  0  0  0  0  0  0
    7.4673  -26.6311   32.8865 C   0  0  2  0  0  0  0  0  0  0  0  0
    6.2756  -26.3651   33.7522 C   0  0  0  0  0  0  0  0  0  0  0  0
    4.9008  -27.2598   31.8554 C   0  0  0  0  0  0  0  0  0  0  0  0
    4.9988  -26.7987   33.1882 N   0  0  0  0  0  0  0  0  0  0  0  0
    7.8129  -25.3453   32.1138 C   0  0  0  0  0  0  0  0  0  0  0  0
    8.2709  -24.3078   33.0297 N   0  0  0  0  0  0  0  0  0  0  0  0
    5.5081  -21.9272   35.2208 C   0  0  0  0  0  0  0  0  0  0  0  0
    5.5449  -21.8462   33.8389 C   0  0  0  0  0  0  0  0  0  0  0  0
    6.4564  -22.6322   33.1076 C   0  0  0  0  0  0  0  0  0  0  0  0
    7.3211  -23.4885   33.7724 C   0  0  0  0  0  0  0  0  0  0  0  0
    7.2816  -23.5678   35.1613 C   0  0  0  0  0  0  0  0  0  0  0  0
    6.3752  -22.7889   35.8852 C   0  0  0  0  0  0  0  0  0  0  0  0
    8.1990  -28.8386   31.9905 C   0  0  0  0  0  0  0  0  0  0  0  0
  1  3  1  0  0  0  0
  2  3  2  0  0  0  0
  2 12  1  0  0  0  0
  3  4  1  0  0  0  0
  4  6  1  0  0  0  0
  5 22  1  0  0  0  0
  6  7  1  0  0  0  0
  6  8  2  0  0  0  0
  7 12  2  0  0  0  0
  7  9  1  0  0  0  0
  9 10  1  0  0  0  0
  9 22  1  0  0  0  0
 10 11  1  0  0  0  0
 10 14  1  6  0  0  0
 11 13  1  0  0  0  0
 12 13  1  0  0  0  0
 14 15  1  0  0  0  0
 15 19  1  0  0  0  0
 16 17  2  0  0  0  0
 16 21  1  0  0  0  0
 17 18  1  0  0  0  0
 18 19  2  0  0  0  0
 19 20  1  0  0  0  0
 20 21  2  0  0  0  0
M  END
>  <CHROM.1>
83.71241843,-169.56012218,-81.92639761,-64.28869924,6.22348655,-26.21131880
32.14155995,1.72848409,0.31145070,-2.50456165

>  <Name>
ligand

>  <RI>
0

>  <Rbt.Current_Directory>
/home/itssahil/PROJECTS/Mol_Feturizer/Test_systems_manuscript/rnas/3sd3

>  <Rbt.Executable>
rbdock ($Id: //depot/dev/client3/rdock/2013.1/src/exe/rbdock.cxx#4 $)

>  <Rbt.Library>
libRbt.so (2013.1, Build901 2013/11/27)

>  <Rbt.Parameter_File>
/export/apps/rDock/src/rDock_2013.1_src/data/scripts/dock_solv.prm

>  <Rbt.Receptor>
prm/blind_docking_100.prm

>  <SCORE>
-17.1055

>  <SCORE.INTER>
-16.141

>  <SCORE.INTER.CONST>
1

>  <SCORE.INTER.POLAR>
0

>  <SCORE.INTER.ROT>
4

>  <SCORE.INTER.SOLV>
9.35367

>  <SCORE.INTER.VDW>
-20.1452

>  <SCORE.INTER.norm>
-0.733681

>  <SCORE.INTRA>
-0.964546

>  <SCORE.INTRA.DIHEDRAL>
-0.192383

>  <SCORE.INTRA.DIHEDRAL.0>
2.54655

>  <SCORE.INTRA.POLAR>
0

>  <SCORE.INTRA.POLAR.0>
0

>  <SCORE.INTRA.REPUL>
0

>  <SCORE.INTRA.REPUL.0>
0

>  <SCORE.INTRA.SOLV>
-0.446378

>  <SCORE.INTRA.SOLV.lig_0>
-56.4922

>  <SCORE.INTRA.VDW>
-0.645166

>  <SCORE.INTRA.VDW.0>
-0.696801

>  <SCORE.INTRA.norm>
-0.043843

>  <SCORE.RESTR>
0

>  <SCORE.RESTR.CAVITY>
0

>  <SCORE.RESTR.norm>
0

>  <SCORE.SYSTEM>
0

>  <SCORE.SYSTEM.CONST>
0

>  <SCORE.SYSTEM.DIHEDRAL>
0

>  <SCORE.SYSTEM.SOLV>
0

>  <SCORE.SYSTEM.norm>
0

>  <SCORE.heavy>
22

>  <SCORE.norm>
-0.777524

>  <RMSD>
15.540

$$$$
ligand
 OpenBabel02271912143D
libRbt.so/2013.1/901 2013/11/27
 22 24  0  0  0  0  0  0  0  0999 V2000
    2.2670  -28.9690   30.3880 N   0  0  0  0  0  0  0  0  0  0  0  0
    4.1767  -27.5729   30.7576 N   0  0  0  0  0  0  0  0  0  0  0  0
    3.1760  -28.3006   31.2801 C   0  0  0  0  0  0  0  0  0  0  0  0
    3.0004  -28.4215   32.5902 N   0  0  0  0  0  0  0  0  0  0  0  0
    4.6174  -24.9362   35.0559 O   0  0  0  0  0  0  0  0  0  0  0  0
    3.8393  -27.8032   33.4417 C   0  0  0  0  0  0  0  0  0  0  0  0
    4.9033  -27.0134   32.9237 C   0  0  0  0  0  0  0  0  0  0  0  0
    3.6354  -27.9456   34.7959 O   0  0  0  0  0  0  0  0  0  0  0  0
    5.8927  -26.3111   33.7167 N   0  0  0  0  0  0  0  0  0  0  0  0
    7.2728  -26.3340   33.2148 C   0  0  2  0  0  0  0  0  0  0  0  0
    7.3208  -25.8974   31.7839 C   0  0  0  0  0  0  0  0  0  0  0  0
    5.0468  -26.9307   31.5613 C   0  0  0  0  0  0  0  0  0  0  0  0
    6.1019  -26.1600   31.0214 N   0  0  0  0  0  0  0  0  0  0  0  0
    7.9559  -27.7083   33.3346 C   0  0  0  0  0  0  0  0  0  0  0  0
    7.3242  -28.6711   32.4407 N   0  0  0  0  0  0  0  0  0  0  0  0
    9.1042  -29.7481   28.7294 C   0  0  0  0  0  0  0  0  0  0  0  0
    9.7894  -28.9301   29.6121 C   0  0  0  0  0  0  0  0  0  0  0  0
    9.2062  -28.5706   30.8426 C   0  0  0  0  0  0  0  0  0  0  0  0
    7.9417  -29.0351   31.1714 C   0  0  0  0  0  0  0  0  0  0  0  0
    7.2556  -29.8572   30.2823 C   0  0  0  0  0  0  0  0  0  0  0  0
    7.8365  -30.2146   29.0629 C   0  0  0  0  0  0  0  0  0  0  0  0
    5.6117  -25.6320   34.9352 C   0  0  0  0  0  0  0  0  0  0  0  0
  1  3  1  0  0  0  0
  2  3  2  0  0  0  0
  2 12  1  0  0  0  0
  3  4  1  0  0  0  0
  4  6  1  0  0  0  0
  5 22  1  0  0  0  0
  6  7  1  0  0  0  0
  6  8  2  0  0  0  0
  7 12  2  0  0  0  0
  7  9  1  0  0  0  0
  9 10  1  0  0  0  0
  9 22  1  0  0  0  0
 10 11  1  0  0  0  0
 10 14  1  6  0  0  0
 11 13  1  0  0  0  0
 12 13  1  0  0  0  0
 14 15  1  0  0  0  0
 15 19  1  0  0  0  0
 16 17  2  0  0  0  0
 16 21  1  0  0  0  0
 17 18  1  0  0  0  0
 18 19  2  0  0  0  0
 19 20  1  0  0  0  0
 20 21  2  0  0  0  0
M  END
>  <CHROM.1>
-42.71356307,67.44876262,101.71096581,6.17858750,5.97609870,-27.69783887
32.06135733,2.34259160,0.09941495,0.90492268

>  <Name>
ligand

>  <RI>
0

>  <Rbt.Current_Directory>
/home/itssahil/PROJECTS/Mol_Feturizer/Test_systems_manuscript/rnas/3sd3

>  <Rbt.Executable>
rbdock ($Id: //depot/dev/client3/rdock/2013.1/src/exe/rbdock.cxx#4 $)

>  <Rbt.Library>
libRbt.so (2013.1, Build901 2013/11/27)

>  <Rbt.Parameter_File>
/export/apps/rDock/src/rDock_2013.1_src/data/scripts/dock_solv.prm

>  <Rbt.Receptor>
prm/blind_docking_60.prm

>  <SCORE>
-15.002

>  <SCORE.INTER>
-15.1118

>  <SCORE.INTER.CONST>
1

>  <SCORE.INTER.POLAR>
0

>  <SCORE.INTER.ROT>
4

>  <SCORE.INTER.SOLV>
10.5335

>  <SCORE.INTER.VDW>
-19.8523

>  <SCORE.INTER.norm>
-0.686898

>  <SCORE.INTRA>
0.0684846

>  <SCORE.INTRA.DIHEDRAL>
0.216062

>  <SCORE.INTRA.DIHEDRAL.0>
2.54655

>  <SCORE.INTRA.POLAR>
0

>  <SCORE.INTRA.POLAR.0>
0

>  <SCORE.INTRA.REPUL>
0

>  <SCORE.INTRA.REPUL.0>
0

>  <SCORE.INTRA.SOLV>
2.06227

>  <SCORE.INTRA.SOLV.lig_0>
-56.4922

>  <SCORE.INTRA.VDW>
-1.07068

>  <SCORE.INTRA.VDW.0>
-0.696801

>  <SCORE.INTRA.norm>
0.00311294

>  <SCORE.RESTR>
0.0412828

>  <SCORE.RESTR.CAVITY>
0.0412828

>  <SCORE.RESTR.norm>
0.00187649

>  <SCORE.SYSTEM>
0

>  <SCORE.SYSTEM.CONST>
0

>  <SCORE.SYSTEM.DIHEDRAL>
0

>  <SCORE.SYSTEM.SOLV>
0

>  <SCORE.SYSTEM.norm>
0

>  <SCORE.heavy>
22

>  <SCORE.norm>
-0.681909

>  <RMSD>
15.580

$$$$
ligand
 OpenBabel02271912143D
libRbt.so/2013.1/901 2013/11/27
 22 24  0  0  0  0  0  0  0  0999 V2000
    6.1486  -19.4617   36.0799 N   0  0  0  0  0  0  0  0  0  0  0  0
    6.5415  -21.3185   34.6201 N   0  0  0  0  0  0  0  0  0  0  0  0
    6.6647  -20.7837   35.8461 C   0  0  0  0  0  0  0  0  0  0  0  0
    7.2465  -21.4355   36.8453 N   0  0  0  0  0  0  0  0  0  0  0  0
    9.2783  -26.1031   36.2829 O   0  0  0  0  0  0  0  0  0  0  0  0
    7.7369  -22.6730   36.6469 C   0  0  0  0  0  0  0  0  0  0  0  0
    7.6352  -23.2660   35.3576 C   0  0  0  0  0  0  0  0  0  0  0  0
    8.3348  -23.3275   37.7004 O   0  0  0  0  0  0  0  0  0  0  0  0
    8.0966  -24.5938   35.0038 N   0  0  0  0  0  0  0  0  0  0  0  0
    7.2352  -25.3692   34.1018 C   0  0  2  0  0  0  0  0  0  0  0  0
    6.8986  -24.5727   32.8800 C   0  0  0  0  0  0  0  0  0  0  0  0
    7.0146  -22.5534   34.3623 C   0  0  0  0  0  0  0  0  0  0  0  0
    6.8923  -23.1242   33.0747 N   0  0  0  0  0  0  0  0  0  0  0  0
    5.9262  -25.8512   34.7528 C   0  0  0  0  0  0  0  0  0  0  0  0
    5.4995  -27.1149   34.1645 N   0  0  0  0  0  0  0  0  0  0  0  0
    4.9047  -27.4906   29.9685 C   0  0  0  0  0  0  0  0  0  0  0  0
    6.1573  -27.7222   30.5117 C   0  0  0  0  0  0  0  0  0  0  0  0
    6.3606  -27.6004   31.8999 C   0  0  0  0  0  0  0  0  0  0  0  0
    5.3047  -27.2460   32.7259 C   0  0  0  0  0  0  0  0  0  0  0  0
    4.0469  -27.0140   32.1771 C   0  0  0  0  0  0  0  0  0  0  0  0
    3.8464  -27.1374   30.7998 C   0  0  0  0  0  0  0  0  0  0  0  0
    9.3001  -25.1813   35.4846 C   0  0  0  0  0  0  0  0  0  0  0  0
  1  3  1  0  0  0  0
  2  3  2  0  0  0  0
  2 12  1  0  0  0  0
  3  4  1  0  0  0  0
  4  6  1  0  0  0  0
  5 22  1  0  0  0  0
  6  7  1  0  0  0  0
  6  8  2  0  0  0  0
  7 12  2  0  0  0  0
  7  9  1  0  0  0  0
  9 10  1  0  0  0  0
  9 22  1  0  0  0  0
 10 11  1  0  0  0  0
 10 14  1  1  0  0  0
 11 13  1  0  0  0  0
 12 13  1  0  0  0  0
 14 15  1  0  0  0  0
 15 19  1  0  0  0  0
 16 17  2  0  0  0  0
 16 21  1  0  0  0  0
 17 18  1  0  0  0  0
 18 19  2  0  0  0  0
 19 20  1  0  0  0  0
 20 21  2  0  0  0  0
M  END
>  <CHROM.1>
109.38324400,-149.17738934,-55.40724247,88.18836740,6.76151784,-24.53529060
34.26524299,1.12317105,-0.83188888,0.36792597

>  <Name>
ligand

>  <RI>
0

>  <Rbt.Current_Directory>
/home/itssahil/PROJECTS/Mol_Feturizer/Test_systems_manuscript/rnas/3sd3

>  <Rbt.Executable>
rbdock ($Id: //depot/dev/client3/rdock/2013.1/src/exe/rbdock.cxx#4 $)

>  <Rbt.Library>
libRbt.so (2013.1, Build901 2013/11/27)

>  <Rbt.Parameter_File>
/export/apps/rDock/src/rDock_2013.1_src/data/scripts/dock_solv.prm

>  <Rbt.Receptor>
prm/blind_docking_60.prm

>  <SCORE>
-9.36354

>  <SCORE.INTER>
-9.1254

>  <SCORE.INTER.CONST>
1

>  <SCORE.INTER.POLAR>
0

>  <SCORE.INTER.ROT>
4

>  <SCORE.INTER.SOLV>
15.0426

>  <SCORE.INTER.VDW>
-17.3645

>  <SCORE.INTER.norm>
-0.414791

>  <SCORE.INTRA>
-0.238149

>  <SCORE.INTRA.DIHEDRAL>
1.83274

>  <SCORE.INTRA.DIHEDRAL.0>
2.54655

>  <SCORE.INTRA.POLAR>
0

>  <SCORE.INTRA.POLAR.0>
0

>  <SCORE.INTRA.REPUL>
0

>  <SCORE.INTRA.REPUL.0>
0

>  <SCORE.INTRA.SOLV>
-0.729416

>  <SCORE.INTRA.SOLV.lig_0>
-56.4922

>  <SCORE.INTRA.VDW>
-0.78981

>  <SCORE.INTRA.VDW.0>
-0.696801

>  <SCORE.INTRA.norm>
-0.010825

>  <SCORE.RESTR>
0

>  <SCORE.RESTR.CAVITY>
0

>  <SCORE.RESTR.norm>
0

>  <SCORE.SYSTEM>
0

>  <SCORE.SYSTEM.CONST>
0

>  <SCORE.SYSTEM.DIHEDRAL>
0

>  <SCORE.SYSTEM.SOLV>
0

>  <SCORE.SYSTEM.norm>
0

>  <SCORE.heavy>
22

>  <SCORE.norm>
-0.425616

>  <RMSD>
15.615

$$$$
ligand
 OpenBabel02271912143D
libRbt.so/2013.1/901 2013/11/27
 22 24  0  0  0  0  0  0  0  0999 V2000
    2.3724  -27.5498   29.2179 N   0  0  0  0  0  0  0  0  0  0  0  0
    3.7401  -27.2535   31.1607 N   0  0  0  0  0  0  0  0  0  0  0  0
    3.6452  -27.6487   29.8804 C   0  0  0  0  0  0  0  0  0  0  0  0
    4.6864  -28.1265   29.2100 N   0  0  0  0  0  0  0  0  0  0  0  0
    7.9873  -29.9402   31.2675 O   0  0  0  0  0  0  0  0  0  0  0  0
    5.8856  -28.2282   29.8122 C   0  0  0  0  0  0  0  0  0  0  0  0
    6.0204  -27.8307   31.1717 C   0  0  0  0  0  0  0  0  0  0  0  0
    6.9495  -28.7262   29.0941 O   0  0  0  0  0  0  0  0  0  0  0  0
    7.2494  -27.8632   31.9396 N   0  0  0  0  0  0  0  0  0  0  0  0
    7.4892  -26.7301   32.8426 C   0  0  2  0  0  0  0  0  0  0  0  0
    6.3054  -26.5035   33.7302 C   0  0  0  0  0  0  0  0  0  0  0  0
    4.9151  -27.3332   31.8153 C   0  0  0  0  0  0  0  0  0  0  0  0
    5.0249  -26.9223   33.1635 N   0  0  0  0  0  0  0  0  0  0  0  0
    7.8201  -25.4141   32.1157 C   0  0  0  0  0  0  0  0  0  0  0  0
    8.2466  -24.3980   33.0700 N   0  0  0  0  0  0  0  0  0  0  0  0
    5.4085  -22.1007   35.2537 C   0  0  0  0  0  0  0  0  0  0  0  0
    5.5688  -21.8892   33.8946 C   0  0  0  0  0  0  0  0  0  0  0  0
    6.5058  -22.6469   33.1658 C   0  0  0  0  0  0  0  0  0  0  0  0
    7.2718  -23.6064   33.8103 C   0  0  0  0  0  0  0  0  0  0  0  0
    7.1084  -23.8168   35.1763 C   0  0  0  0  0  0  0  0  0  0  0  0
    6.1768  -23.0656   35.8975 C   0  0  0  0  0  0  0  0  0  0  0  0
    8.2223  -28.8982   31.8560 C   0  0  0  0  0  0  0  0  0  0  0  0
  1  3  1  0  0  0  0
  2  3  2  0  0  0  0
  2 12  1  0  0  0  0
  3  4  1  0  0  0  0
  4  6  1  0  0  0  0
  5 22  1  0  0  0  0
  6  7  1  0  0  0  0
  6  8  2  0  0  0  0
  7 12  2  0  0  0  0
  7  9  1  0  0  0  0
  9 10  1  0  0  0  0
  9 22  1  0  0  0  0
 10 11  1  0  0  0  0
 10 14  1  6  0  0  0
 11 13  1  0  0  0  0
 12 13  1  0  0  0  0
 14 15  1  0  0  0  0
 15 19  1  0  0  0  0
 16 17  2  0  0  0  0
 16 21  1  0  0  0  0
 17 18  1  0  0  0  0
 18 19  2  0  0  0  0
 19 20  1  0  0  0  0
 20 21  2  0  0  0  0
M  END
>  <CHROM.1>
-11.14057549,-171.15938182,-82.88055296,-70.51956377,6.15062139,-26.34046423
32.12326890,1.71784070,0.38784303,-2.51456457

>  <Name>
ligand

>  <RI>
0

>  <Rbt.Current_Directory>
/home/itssahil/PROJECTS/Mol_Feturizer/Test_systems_manuscript/rnas/3sd3

>  <Rbt.Executable>
rbdock ($Id: //depot/dev/client3/rdock/2013.1/src/exe/rbdock.cxx#4 $)

>  <Rbt.Library>
libRbt.so (2013.1, Build901 2013/11/27)

>  <Rbt.Parameter_File>
/export/apps/rDock/src/rDock_2013.1_src/data/scripts/dock_solv.prm

>  <Rbt.Receptor>
prm/blind_docking_80.prm

>  <SCORE>
-16.5865

>  <SCORE.INTER>
-15.9132

>  <SCORE.INTER.CONST>
1

>  <SCORE.INTER.POLAR>
0

>  <SCORE.INTER.ROT>
4

>  <SCORE.INTER.SOLV>
9.49329

>  <SCORE.INTER.VDW>
-20.0399

>  <SCORE.INTER.norm>
-0.723326

>  <SCORE.INTRA>
-0.6733

>  <SCORE.INTRA.DIHEDRAL>
-0.260185

>  <SCORE.INTRA.DIHEDRAL.0>
2.54655

>  <SCORE.INTRA.POLAR>
0

>  <SCORE.INTRA.POLAR.0>
0

>  <SCORE.INTRA.REPUL>
0

>  <SCORE.INTRA.REPUL.0>
0

>  <SCORE.INTRA.SOLV>
-0.457152

>  <SCORE.INTRA.SOLV.lig_0>
-56.4922

>  <SCORE.INTRA.VDW>
-0.314631

>  <SCORE.INTRA.VDW.0>
-0.696801

>  <SCORE.INTRA.norm>
-0.0306045

>  <SCORE.RESTR>
0

>  <SCORE.RESTR.CAVITY>
0

>  <SCORE.RESTR.norm>
0

>  <SCORE.SYSTEM>
0

>  <SCORE.SYSTEM.CONST>
0

>  <SCORE.SYSTEM.DIHEDRAL>
0

>  <SCORE.SYSTEM.SOLV>
0

>  <SCORE.SYSTEM.norm>
0

>  <SCORE.heavy>
22

>  <SCORE.norm>
-0.75393

>  <RMSD>
15.637

$$$$
ligand
 OpenBabel02271912143D
libRbt.so/2013.1/901 2013/11/27
 22 24  0  0  0  0  0  0  0  0999 V2000
    2.5483  -27.4548   29.0509 N   0  0  0  0  0  0  0  0  0  0  0  0
    3.6993  -26.9842   31.0970 N   0  0  0  0  0  0  0  0  0  0  0  0
    3.7297  -27.5257   29.8682 C   0  0  0  0  0  0  0  0  0  0  0  0
    4.8129  -28.1227   29.3864 N   0  0  0  0  0  0  0  0  0  0  0  0
    8.1080  -29.2870   33.5775 O   0  0  0  0  0  0  0  0  0  0  0  0
    5.9281  -28.2005   30.1357 C   0  0  0  0  0  0  0  0  0  0  0  0
    5.9283  -27.6489   31.4472 C   0  0  0  0  0  0  0  0  0  0  0  0
    7.0382  -28.8242   29.6119 O   0  0  0  0  0  0  0  0  0  0  0  0
    7.0578  -27.6395   32.3556 N   0  0  0  0  0  0  0  0  0  0  0  0
    7.2546  -26.4171   33.1455 C   0  0  2  0  0  0  0  0  0  0  0  0
    5.9913  -26.0375   33.8530 C   0  0  0  0  0  0  0  0  0  0  0  0
    4.7855  -27.0330   31.8926 C   0  0  0  0  0  0  0  0  0  0  0  0
    4.7630  -26.4684   33.1885 N   0  0  0  0  0  0  0  0  0  0  0  0
    7.7380  -25.2124   32.3180 C   0  0  0  0  0  0  0  0  0  0  0  0
    8.2228  -24.1535   33.1948 N   0  0  0  0  0  0  0  0  0  0  0  0
    5.5026  -21.6597   35.3121 C   0  0  0  0  0  0  0  0  0  0  0  0
    6.4357  -22.4101   36.0076 C   0  0  0  0  0  0  0  0  0  0  0  0
    7.3396  -23.2369   35.3127 C   0  0  0  0  0  0  0  0  0  0  0  0
    7.2947  -23.3017   33.9283 C   0  0  0  0  0  0  0  0  0  0  0  0
    6.3559  -22.5462   33.2320 C   0  0  0  0  0  0  0  0  0  0  0  0
    5.4612  -21.7249   33.9228 C   0  0  0  0  0  0  0  0  0  0  0  0
    7.9758  -28.7161   32.5079 C   0  0  0  0  0  0  0  0  0  0  0  0
  1  3  1  0  0  0  0
  2  3  2  0  0  0  0
  2 12  1  0  0  0  0
  3  4  1  0  0  0  0
  4  6  1  0  0  0  0
  5 22  1  0  0  0  0
  6  7  1  0  0  0  0
  6  8  2  0  0  0  0
  7 12  2  0  0  0  0
  7  9  1  0  0  0  0
  9 10  1  0  0  0  0
  9 22  1  0  0  0  0
 10 11  1  0  0  0  0
 10 14  1  6  0  0  0
 11 13  1  0  0  0  0
 12 13  1  0  0  0  0
 14 15  1  0  0  0  0
 15 19  1  0  0  0  0
 16 17  2  0  0  0  0
 16 21  1  0  0  0  0
 17 18  1  0  0  0  0
 18 19  2  0  0  0  0
 19 20  1  0  0  0  0
 20 21  2  0  0  0  0
M  END
>  <CHROM.1>
-118.64918564,-165.95895901,-76.06661266,121.26572726,6.12080817,-26.07428030
32.41253369,1.79152497,0.56263998,-2.59732088

>  <Name>
ligand

>  <RI>
0

>  <Rbt.Current_Directory>
/home/itssahil/PROJECTS/Mol_Feturizer/Test_systems_manuscript/rnas/3sd3

>  <Rbt.Executable>
rbdock ($Id: //depot/dev/client3/rdock/2013.1/src/exe/rbdock.cxx#4 $)

>  <Rbt.Library>
libRbt.so (2013.1, Build901 2013/11/27)

>  <Rbt.Parameter_File>
/export/apps/rDock/src/rDock_2013.1_src/data/scripts/dock_solv.prm

>  <Rbt.Receptor>
prm/blind_docking_100.prm

>  <SCORE>
-17.0566

>  <SCORE.INTER>
-16.1224

>  <SCORE.INTER.CONST>
1

>  <SCORE.INTER.POLAR>
0

>  <SCORE.INTER.ROT>
4

>  <SCORE.INTER.SOLV>
10.7744

>  <SCORE.INTER.VDW>
-20.6064

>  <SCORE.INTER.norm>
-0.732835

>  <SCORE.INTRA>
-0.934209

>  <SCORE.INTRA.DIHEDRAL>
-0.0197953

>  <SCORE.INTRA.DIHEDRAL.0>
2.54655

>  <SCORE.INTRA.POLAR>
0

>  <SCORE.INTRA.POLAR.0>
0

>  <SCORE.INTRA.REPUL>
0

>  <SCORE.INTRA.REPUL.0>
0

>  <SCORE.INTRA.SOLV>
-0.821422

>  <SCORE.INTRA.SOLV.lig_0>
-56.4922

>  <SCORE.INTRA.VDW>
-0.513601

>  <SCORE.INTRA.VDW.0>
-0.696801

>  <SCORE.INTRA.norm>
-0.042464

>  <SCORE.RESTR>
0

>  <SCORE.RESTR.CAVITY>
0

>  <SCORE.RESTR.norm>
0

>  <SCORE.SYSTEM>
0

>  <SCORE.SYSTEM.CONST>
0

>  <SCORE.SYSTEM.DIHEDRAL>
0

>  <SCORE.SYSTEM.SOLV>
0

>  <SCORE.SYSTEM.norm>
0

>  <SCORE.heavy>
22

>  <SCORE.norm>
-0.775299

>  <RMSD>
15.676

$$$$
ligand
 OpenBabel02271912143D
libRbt.so/2013.1/901 2013/11/27
 22 24  0  0  0  0  0  0  0  0999 V2000
    7.3708  -28.1420   32.7159 N   0  0  0  0  0  0  0  0  0  0  0  0
    6.1061  -26.4048   33.7722 N   0  0  0  0  0  0  0  0  0  0  0  0
    7.2767  -27.0521   33.6497 C   0  0  0  0  0  0  0  0  0  0  0  0
    8.3459  -26.7181   34.3617 N   0  0  0  0  0  0  0  0  0  0  0  0
    8.1754  -22.8714   37.8798 O   0  0  0  0  0  0  0  0  0  0  0  0
    8.2784  -25.7020   35.2416 C   0  0  0  0  0  0  0  0  0  0  0  0
    7.0508  -25.0019   35.4069 C   0  0  0  0  0  0  0  0  0  0  0  0
    9.4021  -25.3753   35.9669 O   0  0  0  0  0  0  0  0  0  0  0  0
    6.8368  -23.8781   36.2971 N   0  0  0  0  0  0  0  0  0  0  0  0
    5.9970  -22.7868   35.7863 C   0  0  2  0  0  0  0  0  0  0  0  0
    4.6972  -23.3195   35.2692 C   0  0  0  0  0  0  0  0  0  0  0  0
    5.9788  -25.3804   34.6380 C   0  0  0  0  0  0  0  0  0  0  0  0
    4.7504  -24.6944   34.7764 N   0  0  0  0  0  0  0  0  0  0  0  0
    6.6653  -21.9541   34.6774 C   0  0  0  0  0  0  0  0  0  0  0  0
    7.8015  -21.2130   35.2111 N   0  0  0  0  0  0  0  0  0  0  0  0
    7.2046  -17.7194   37.5648 C   0  0  0  0  0  0  0  0  0  0  0  0
    8.3405  -17.8385   36.7817 C   0  0  0  0  0  0  0  0  0  0  0  0
    8.5436  -18.9919   35.9996 C   0  0  0  0  0  0  0  0  0  0  0  0
    7.6051  -20.0125   36.0143 C   0  0  0  0  0  0  0  0  0  0  0  0
    6.4644  -19.8900   36.8022 C   0  0  0  0  0  0  0  0  0  0  0  0
    6.2633  -18.7441   37.5760 C   0  0  0  0  0  0  0  0  0  0  0  0
    7.3964  -23.7673   37.6007 C   0  0  0  0  0  0  0  0  0  0  0  0
  1  3  1  0  0  0  0
  2  3  2  0  0  0  0
  2 12  1  0  0  0  0
  3  4  1  0  0  0  0
  4  6  1  0  0  0  0
  5 22  1  0  0  0  0
  6  7  1  0  0  0  0
  6  8  2  0  0  0  0
  7 12  2  0  0  0  0
  7  9  1  0  0  0  0
  9 10  1  0  0  0  0
  9 22  1  0  0  0  0
 10 11  1  0  0  0  0
 10 14  1  6  0  0  0
 11 13  1  0  0  0  0
 12 13  1  0  0  0  0
 14 15  1  0  0  0  0
 15 19  1  0  0  0  0
 16 17  2  0  0  0  0
 16 21  1  0  0  0  0
 17 18  1  0  0  0  0
 18 19  2  0  0  0  0
 19 20  1  0  0  0  0
 20 21  2  0  0  0  0
M  END
>  <CHROM.1>
117.24333433,-66.86751653,-76.30512175,-149.48747798,7.12981373,-23.17986194
35.63031589,1.60224401,0.36368976,-2.81214662

>  <Name>
ligand

>  <RI>
0

>  <Rbt.Current_Directory>
/home/itssahil/PROJECTS/Mol_Feturizer/Test_systems_manuscript/rnas/3sd3

>  <Rbt.Executable>
rbdock ($Id: //depot/dev/client3/rdock/2013.1/src/exe/rbdock.cxx#4 $)

>  <Rbt.Library>
libRbt.so (2013.1, Build901 2013/11/27)

>  <Rbt.Parameter_File>
/export/apps/rDock/src/rDock_2013.1_src/data/scripts/dock_solv.prm

>  <Rbt.Receptor>
prm/blind_docking_100.prm

>  <SCORE>
-10.66

>  <SCORE.INTER>
-9.73201

>  <SCORE.INTER.CONST>
1

>  <SCORE.INTER.POLAR>
0

>  <SCORE.INTER.ROT>
4

>  <SCORE.INTER.SOLV>
9.67361

>  <SCORE.INTER.VDW>
-15.9792

>  <SCORE.INTER.norm>
-0.442364

>  <SCORE.INTRA>
-0.927992

>  <SCORE.INTRA.DIHEDRAL>
-0.550083

>  <SCORE.INTRA.DIHEDRAL.0>
2.54655

>  <SCORE.INTRA.POLAR>
0

>  <SCORE.INTRA.POLAR.0>
0

>  <SCORE.INTRA.REPUL>
0

>  <SCORE.INTRA.REPUL.0>
0

>  <SCORE.INTRA.SOLV>
0.582431

>  <SCORE.INTRA.SOLV.lig_0>
-56.4922

>  <SCORE.INTRA.VDW>
-0.944166

>  <SCORE.INTRA.VDW.0>
-0.696801

>  <SCORE.INTRA.norm>
-0.0421815

>  <SCORE.RESTR>
0

>  <SCORE.RESTR.CAVITY>
0

>  <SCORE.RESTR.norm>
0

>  <SCORE.SYSTEM>
0

>  <SCORE.SYSTEM.CONST>
0

>  <SCORE.SYSTEM.DIHEDRAL>
0

>  <SCORE.SYSTEM.SOLV>
0

>  <SCORE.SYSTEM.norm>
0

>  <SCORE.heavy>
22

>  <SCORE.norm>
-0.484545

>  <RMSD>
15.963

$$$$
ligand
 OpenBabel02271912143D
libRbt.so/2013.1/901 2013/11/27
 22 24  0  0  0  0  0  0  0  0999 V2000
    7.4386   -6.4717   24.4596 N   0  0  0  0  0  0  0  0  0  0  0  0
    5.7092   -8.1026   24.1726 N   0  0  0  0  0  0  0  0  0  0  0  0
    6.9321   -7.6630   23.8327 C   0  0  0  0  0  0  0  0  0  0  0  0
    7.6851   -8.2920   22.9387 N   0  0  0  0  0  0  0  0  0  0  0  0
    6.1925  -12.4141   20.4461 O   0  0  0  0  0  0  0  0  0  0  0  0
    7.2291   -9.4076   22.3399 C   0  0  0  0  0  0  0  0  0  0  0  0
    5.9329   -9.8953   22.6662 C   0  0  0  0  0  0  0  0  0  0  0  0
    8.0304  -10.0412   21.4169 O   0  0  0  0  0  0  0  0  0  0  0  0
    5.3221  -11.0911   22.1201 N   0  0  0  0  0  0  0  0  0  0  0  0
    4.5494  -11.9190   23.0552 C   0  0  2  0  0  0  0  0  0  0  0  0
    3.5439  -11.0875   23.7886 C   0  0  0  0  0  0  0  0  0  0  0  0
    5.2000   -9.2135   23.6052 C   0  0  0  0  0  0  0  0  0  0  0  0
    3.9130   -9.6830   23.9540 N   0  0  0  0  0  0  0  0  0  0  0  0
    5.4149  -12.6685   24.0842 C   0  0  0  0  0  0  0  0  0  0  0  0
    4.5786  -13.4857   24.9548 N   0  0  0  0  0  0  0  0  0  0  0  0
    6.1834  -15.4050   28.3961 C   0  0  0  0  0  0  0  0  0  0  0  0
    6.9101  -15.3801   27.2176 C   0  0  0  0  0  0  0  0  0  0  0  0
    6.3851  -14.7456   26.0752 C   0  0  0  0  0  0  0  0  0  0  0  0
    5.1362  -14.1455   26.1290 C   0  0  0  0  0  0  0  0  0  0  0  0
    4.4082  -14.1719   27.3149 C   0  0  0  0  0  0  0  0  0  0  0  0
    4.9316  -14.7999   28.4480 C   0  0  0  0  0  0  0  0  0  0  0  0
    5.4415  -11.5075   20.7647 C   0  0  0  0  0  0  0  0  0  0  0  0
  1  3  1  0  0  0  0
  2  3  2  0  0  0  0
  2 12  1  0  0  0  0
  3  4  1  0  0  0  0
  4  6  1  0  0  0  0
  5 22  1  0  0  0  0
  6  7  1  0  0  0  0
  6  8  2  0  0  0  0
  7 12  2  0  0  0  0
  7  9  1  0  0  0  0
  9 10  1  0  0  0  0
  9 22  1  0  0  0  0
 10 11  1  0  0  0  0
 10 14  1  1  0  0  0
 11 13  1  0  0  0  0
 12 13  1  0  0  0  0
 14 15  1  0  0  0  0
 15 19  1  0  0  0  0
 16 17  2  0  0  0  0
 16 21  1  0  0  0  0
 17 18  1  0  0  0  0
 18 19  2  0  0  0  0
 19 20  1  0  0  0  0
 20 21  2  0  0  0  0
M  END
>  <CHROM.1>
103.06403548,-178.84667256,-171.31738681,-40.65624632,5.78783666,-11.35981055
24.05219306,-0.77105329,1.35800479,1.70527419

>  <Name>
ligand

>  <RI>
0

>  <Rbt.Current_Directory>
/home/itssahil/PROJECTS/Mol_Feturizer/Test_systems_manuscript/rnas/3sd3

>  <Rbt.Executable>
rbdock ($Id: //depot/dev/client3/rdock/2013.1/src/exe/rbdock.cxx#4 $)

>  <Rbt.Library>
libRbt.so (2013.1, Build901 2013/11/27)

>  <Rbt.Parameter_File>
/export/apps/rDock/src/rDock_2013.1_src/data/scripts/dock_solv.prm

>  <Rbt.Receptor>
prm/blind_docking_40.prm

>  <SCORE>
-14.0849

>  <SCORE.INTER>
-13.5063

>  <SCORE.INTER.CONST>
1

>  <SCORE.INTER.POLAR>
0

>  <SCORE.INTER.ROT>
4

>  <SCORE.INTER.SOLV>
15.1307

>  <SCORE.INTER.VDW>
-20.3144

>  <SCORE.INTER.norm>
-0.613921

>  <SCORE.INTRA>
-0.578636

>  <SCORE.INTRA.DIHEDRAL>
-0.864975

>  <SCORE.INTRA.DIHEDRAL.0>
2.54655

>  <SCORE.INTRA.POLAR>
0

>  <SCORE.INTRA.POLAR.0>
0

>  <SCORE.INTRA.REPUL>
0

>  <SCORE.INTRA.REPUL.0>
0

>  <SCORE.INTRA.SOLV>
-0.400263

>  <SCORE.INTRA.SOLV.lig_0>
-56.4922

>  <SCORE.INTRA.VDW>
0.0539835

>  <SCORE.INTRA.VDW.0>
-0.696801

>  <SCORE.INTRA.norm>
-0.0263016

>  <SCORE.RESTR>
0

>  <SCORE.RESTR.CAVITY>
0

>  <SCORE.RESTR.norm>
0

>  <SCORE.SYSTEM>
0

>  <SCORE.SYSTEM.CONST>
0

>  <SCORE.SYSTEM.DIHEDRAL>
0

>  <SCORE.SYSTEM.SOLV>
0

>  <SCORE.SYSTEM.norm>
0

>  <SCORE.heavy>
22

>  <SCORE.norm>
-0.640223

>  <RMSD>
16.543

$$$$
ligand
 OpenBabel02271912143D
libRbt.so/2013.1/901 2013/11/27
 22 24  0  0  0  0  0  0  0  0999 V2000
    7.7710  -20.7821   35.6883 N   0  0  0  0  0  0  0  0  0  0  0  0
    7.9385  -23.1189   35.1941 N   0  0  0  0  0  0  0  0  0  0  0  0
    7.1531  -22.0525   35.4181 C   0  0  0  0  0  0  0  0  0  0  0  0
    5.8285  -22.1347   35.3980 N   0  0  0  0  0  0  0  0  0  0  0  0
    4.4341  -27.4447   35.7944 O   0  0  0  0  0  0  0  0  0  0  0  0
    5.2308  -23.3143   35.1482 C   0  0  0  0  0  0  0  0  0  0  0  0
    6.0314  -24.4680   34.9188 C   0  0  0  0  0  0  0  0  0  0  0  0
    3.8553  -23.3721   35.1324 O   0  0  0  0  0  0  0  0  0  0  0  0
    5.5291  -25.7938   34.6172 N   0  0  0  0  0  0  0  0  0  0  0  0
    6.2693  -26.5621   33.6078 C   0  0  2  0  0  0  0  0  0  0  0  0
    7.7281  -26.6017   33.9405 C   0  0  0  0  0  0  0  0  0  0  0  0
    7.3963  -24.3258   34.9398 C   0  0  0  0  0  0  0  0  0  0  0  0
    8.2140  -25.4549   34.7053 N   0  0  0  0  0  0  0  0  0  0  0  0
    6.1044  -26.0268   32.1740 C   0  0  0  0  0  0  0  0  0  0  0  0
    6.0339  -27.1297   31.2232 N   0  0  0  0  0  0  0  0  0  0  0  0
    2.3755  -28.1251   29.2928 C   0  0  0  0  0  0  0  0  0  0  0  0
    2.7972  -28.8549   30.3915 C   0  0  0  0  0  0  0  0  0  0  0  0
    4.0067  -28.5300   31.0356 C   0  0  0  0  0  0  0  0  0  0  0  0
    4.7791  -27.4776   30.5680 C   0  0  0  0  0  0  0  0  0  0  0  0
    4.3527  -26.7458   29.4636 C   0  0  0  0  0  0  0  0  0  0  0  0
    3.1514  -27.0682   28.8270 C   0  0  0  0  0  0  0  0  0  0  0  0
    4.3756  -26.3721   35.2170 C   0  0  0  0  0  0  0  0  0  0  0  0
  1  3  1  0  0  0  0
  2  3  2  0  0  0  0
  2 12  1  0  0  0  0
  3  4  1  0  0  0  0
  4  6  1  0  0  0  0
  5 22  1  0  0  0  0
  6  7  1  0  0  0  0
  6  8  2  0  0  0  0
  7 12  2  0  0  0  0
  7  9  1  0  0  0  0
  9 10  1  0  0  0  0
  9 22  1  0  0  0  0
 10 11  1  0  0  0  0
 10 14  1  6  0  0  0
 11 13  1  0  0  0  0
 12 13  1  0  0  0  0
 14 15  1  0  0  0  0
 15 19  1  0  0  0  0
 16 17  2  0  0  0  0
 16 21  1  0  0  0  0
 17 18  1  0  0  0  0
 18 19  2  0  0  0  0
 19 20  1  0  0  0  0
 20 21  2  0  0  0  0
M  END
>  <CHROM.1>
-124.19111891,-142.32889577,107.96805759,-99.26347195,5.54901893,-25.49080711
33.42232012,-0.13075206,-1.16053801,-0.89632257

>  <Name>
ligand

>  <RI>
0

>  <Rbt.Current_Directory>
/home/itssahil/PROJECTS/Mol_Feturizer/Test_systems_manuscript/rnas/3sd3

>  <Rbt.Executable>
rbdock ($Id: //depot/dev/client3/rdock/2013.1/src/exe/rbdock.cxx#4 $)

>  <Rbt.Library>
libRbt.so (2013.1, Build901 2013/11/27)

>  <Rbt.Parameter_File>
/export/apps/rDock/src/rDock_2013.1_src/data/scripts/dock_solv.prm

>  <Rbt.Receptor>
prm/blind_docking_100.prm

>  <SCORE>
-7.6313

>  <SCORE.INTER>
-8.42321

>  <SCORE.INTER.CONST>
1

>  <SCORE.INTER.POLAR>
0

>  <SCORE.INTER.ROT>
4

>  <SCORE.INTER.SOLV>
8.42086

>  <SCORE.INTER.VDW>
-14.6891

>  <SCORE.INTER.norm>
-0.382873

>  <SCORE.INTRA>
0.791911

>  <SCORE.INTRA.DIHEDRAL>
3.81239

>  <SCORE.INTRA.DIHEDRAL.0>
2.54655

>  <SCORE.INTRA.POLAR>
0

>  <SCORE.INTRA.POLAR.0>
0

>  <SCORE.INTRA.REPUL>
0

>  <SCORE.INTRA.REPUL.0>
0

>  <SCORE.INTRA.SOLV>
-1.02104

>  <SCORE.INTRA.SOLV.lig_0>
-56.4922

>  <SCORE.INTRA.VDW>
-0.603767

>  <SCORE.INTRA.VDW.0>
-0.696801

>  <SCORE.INTRA.norm>
0.0359959

>  <SCORE.RESTR>
0

>  <SCORE.RESTR.CAVITY>
0

>  <SCORE.RESTR.norm>
0

>  <SCORE.SYSTEM>
0

>  <SCORE.SYSTEM.CONST>
0

>  <SCORE.SYSTEM.DIHEDRAL>
0

>  <SCORE.SYSTEM.SOLV>
0

>  <SCORE.SYSTEM.norm>
0

>  <SCORE.heavy>
22

>  <SCORE.norm>
-0.346877

>  <RMSD>
16.555

$$$$
ligand
 OpenBabel02271912143D
libRbt.so/2013.1/901 2013/11/27
 22 24  0  0  0  0  0  0  0  0999 V2000
    4.6555  -27.8340   30.5092 N   0  0  0  0  0  0  0  0  0  0  0  0
    4.5372  -27.7706   32.8998 N   0  0  0  0  0  0  0  0  0  0  0  0
    5.0314  -27.2454   31.7667 C   0  0  0  0  0  0  0  0  0  0  0  0
    5.8537  -26.2035   31.7715 N   0  0  0  0  0  0  0  0  0  0  0  0
    7.7752  -24.1820   35.3644 O   0  0  0  0  0  0  0  0  0  0  0  0
    6.2185  -25.6391   32.9375 C   0  0  0  0  0  0  0  0  0  0  0  0
    5.7242  -26.1770   34.1585 C   0  0  0  0  0  0  0  0  0  0  0  0
    7.0718  -24.5589   32.9145 O   0  0  0  0  0  0  0  0  0  0  0  0
    6.0127  -25.6618   35.4823 N   0  0  0  0  0  0  0  0  0  0  0  0
    4.8979  -25.6474   36.4382 C   0  0  2  0  0  0  0  0  0  0  0  0
    4.2508  -26.9950   36.5140 C   0  0  0  0  0  0  0  0  0  0  0  0
    4.8682  -27.2480   34.0967 C   0  0  0  0  0  0  0  0  0  0  0  0
    4.3556  -27.7950   35.2953 N   0  0  0  0  0  0  0  0  0  0  0  0
    3.8175  -24.5984   36.1186 C   0  0  0  0  0  0  0  0  0  0  0  0
    4.2372  -23.2791   36.5752 N   0  0  0  0  0  0  0  0  0  0  0  0
    7.3377  -21.1667   34.5687 C   0  0  0  0  0  0  0  0  0  0  0  0
    7.3143  -21.2082   35.9526 C   0  0  0  0  0  0  0  0  0  0  0  0
    6.2913  -21.9065   36.6229 C   0  0  0  0  0  0  0  0  0  0  0  0
    5.3033  -22.5531   35.8960 C   0  0  0  0  0  0  0  0  0  0  0  0
    5.3295  -22.5097   34.5052 C   0  0  0  0  0  0  0  0  0  0  0  0
    6.3464  -21.8183   33.8417 C   0  0  0  0  0  0  0  0  0  0  0  0
    7.2812  -25.1641   35.8923 C   0  0  0  0  0  0  0  0  0  0  0  0
  1  3  1  0  0  0  0
  2  3  2  0  0  0  0
  2 12  1  0  0  0  0
  3  4  1  0  0  0  0
  4  6  1  0  0  0  0
  5 22  1  0  0  0  0
  6  7  1  0  0  0  0
  6  8  2  0  0  0  0
  7 12  2  0  0  0  0
  7  9  1  0  0  0  0
  9 10  1  0  0  0  0
  9 22  1  0  0  0  0
 10 11  1  0  0  0  0
 10 14  1  6  0  0  0
 11 13  1  0  0  0  0
 12 13  1  0  0  0  0
 14 15  1  0  0  0  0
 15 19  1  0  0  0  0
 16 17  2  0  0  0  0
 16 21  1  0  0  0  0
 17 18  1  0  0  0  0
 18 19  2  0  0  0  0
 19 20  1  0  0  0  0
 20 21  2  0  0  0  0
M  END
>  <CHROM.1>
62.93443047,-80.11397891,71.30828604,-135.81689186,5.66448250,-24.93866388
34.54726072,-2.06130974,1.03703769,0.94946846

>  <Name>
ligand

>  <RI>
0

>  <Rbt.Current_Directory>
/home/itssahil/PROJECTS/Mol_Feturizer/Test_systems_manuscript/rnas/3sd3

>  <Rbt.Executable>
rbdock ($Id: //depot/dev/client3/rdock/2013.1/src/exe/rbdock.cxx#4 $)

>  <Rbt.Library>
libRbt.so (2013.1, Build901 2013/11/27)

>  <Rbt.Parameter_File>
/export/apps/rDock/src/rDock_2013.1_src/data/scripts/dock_solv.prm

>  <Rbt.Receptor>
prm/blind_docking_100.prm

>  <SCORE>
-10.4127

>  <SCORE.INTER>
-8.60474

>  <SCORE.INTER.CONST>
1

>  <SCORE.INTER.POLAR>
0

>  <SCORE.INTER.ROT>
4

>  <SCORE.INTER.SOLV>
6.99133

>  <SCORE.INTER.VDW>
-14.3336

>  <SCORE.INTER.norm>
-0.391124

>  <SCORE.INTRA>
-1.80798

>  <SCORE.INTRA.DIHEDRAL>
0.481605

>  <SCORE.INTRA.DIHEDRAL.0>
2.54655

>  <SCORE.INTRA.POLAR>
0

>  <SCORE.INTRA.POLAR.0>
0

>  <SCORE.INTRA.REPUL>
0

>  <SCORE.INTRA.REPUL.0>
0

>  <SCORE.INTRA.SOLV>
1.04443

>  <SCORE.INTRA.SOLV.lig_0>
-56.4922

>  <SCORE.INTRA.VDW>
-2.57099

>  <SCORE.INTRA.VDW.0>
-0.696801

>  <SCORE.INTRA.norm>
-0.0821808

>  <SCORE.RESTR>
0

>  <SCORE.RESTR.CAVITY>
0

>  <SCORE.RESTR.norm>
0

>  <SCORE.SYSTEM>
0

>  <SCORE.SYSTEM.CONST>
0

>  <SCORE.SYSTEM.DIHEDRAL>
0

>  <SCORE.SYSTEM.SOLV>
0

>  <SCORE.SYSTEM.norm>
0

>  <SCORE.heavy>
22

>  <SCORE.norm>
-0.473305

>  <RMSD>
16.576

$$$$
ligand
 OpenBabel02271912143D
libRbt.so/2013.1/901 2013/11/27
 22 24  0  0  0  0  0  0  0  0999 V2000
    6.7576   -6.4610   23.3275 N   0  0  0  0  0  0  0  0  0  0  0  0
    5.0322   -8.1177   23.2216 N   0  0  0  0  0  0  0  0  0  0  0  0
    6.3363   -7.8181   23.1050 C   0  0  0  0  0  0  0  0  0  0  0  0
    7.2455   -8.7330   22.7915 N   0  0  0  0  0  0  0  0  0  0  0  0
    6.1616  -12.2731   20.6269 O   0  0  0  0  0  0  0  0  0  0  0  0
    6.8718  -10.0081   22.5784 C   0  0  0  0  0  0  0  0  0  0  0  0
    5.4968  -10.3593   22.6809 C   0  0  0  0  0  0  0  0  0  0  0  0
    7.8348  -10.9376   22.2554 O   0  0  0  0  0  0  0  0  0  0  0  0
    4.9531  -11.6908   22.5006 N   0  0  0  0  0  0  0  0  0  0  0  0
    3.8801  -12.0916   23.4198 C   0  0  2  0  0  0  0  0  0  0  0  0
    2.7920  -11.0638   23.4402 C   0  0  0  0  0  0  0  0  0  0  0  0
    4.5993   -9.3774   23.0186 C   0  0  0  0  0  0  0  0  0  0  0  0
    3.2286   -9.7025   23.1363 N   0  0  0  0  0  0  0  0  0  0  0  0
    4.3559  -12.3354   24.8633 C   0  0  0  0  0  0  0  0  0  0  0  0
    4.2149  -13.7429   25.2156 N   0  0  0  0  0  0  0  0  0  0  0  0
    6.2566  -15.3802   28.5701 C   0  0  0  0  0  0  0  0  0  0  0  0
    5.0220  -14.7765   28.7405 C   0  0  0  0  0  0  0  0  0  0  0  0
    4.3406  -14.2334   27.6342 C   0  0  0  0  0  0  0  0  0  0  0  0
    4.9073  -14.3013   26.3705 C   0  0  0  0  0  0  0  0  0  0  0  0
    6.1481  -14.9088   26.2022 C   0  0  0  0  0  0  0  0  0  0  0  0
    6.8219  -15.4490   27.3006 C   0  0  0  0  0  0  0  0  0  0  0  0
    5.4027  -12.6164   21.5177 C   0  0  0  0  0  0  0  0  0  0  0  0
  1  3  1  0  0  0  0
  2  3  2  0  0  0  0
  2 12  1  0  0  0  0
  3  4  1  0  0  0  0
  4  6  1  0  0  0  0
  5 22  1  0  0  0  0
  6  7  1  0  0  0  0
  6  8  2  0  0  0  0
  7 12  2  0  0  0  0
  7  9  1  0  0  0  0
  9 10  1  0  0  0  0
  9 22  1  0  0  0  0
 10 11  1  0  0  0  0
 10 14  1  1  0  0  0
 11 13  1  0  0  0  0
 12 13  1  0  0  0  0
 14 15  1  0  0  0  0
 15 19  1  0  0  0  0
 16 17  2  0  0  0  0
 16 21  1  0  0  0  0
 17 18  1  0  0  0  0
 18 19  2  0  0  0  0
 19 20  1  0  0  0  0
 20 21  2  0  0  0  0
M  END
>  <CHROM.1>
-10.58708838,-113.66837110,163.60125888,86.12142421,5.40083421,-11.58240508
24.07301760,-1.00481049,1.43439226,1.89288926

>  <Name>
ligand

>  <RI>
0

>  <Rbt.Current_Directory>
/home/itssahil/PROJECTS/Mol_Feturizer/Test_systems_manuscript/rnas/3sd3

>  <Rbt.Executable>
rbdock ($Id: //depot/dev/client3/rdock/2013.1/src/exe/rbdock.cxx#4 $)

>  <Rbt.Library>
libRbt.so (2013.1, Build901 2013/11/27)

>  <Rbt.Parameter_File>
/export/apps/rDock/src/rDock_2013.1_src/data/scripts/dock_solv.prm

>  <Rbt.Receptor>
prm/blind_docking_40.prm

>  <SCORE>
-11.4199

>  <SCORE.INTER>
-12.858

>  <SCORE.INTER.CONST>
1

>  <SCORE.INTER.POLAR>
0

>  <SCORE.INTER.ROT>
4

>  <SCORE.INTER.SOLV>
8.12883

>  <SCORE.INTER.VDW>
-17.5483

>  <SCORE.INTER.norm>
-0.584454

>  <SCORE.INTRA>
1.43806

>  <SCORE.INTRA.DIHEDRAL>
4.34264

>  <SCORE.INTRA.DIHEDRAL.0>
2.54655

>  <SCORE.INTRA.POLAR>
0

>  <SCORE.INTRA.POLAR.0>
0

>  <SCORE.INTRA.REPUL>
0

>  <SCORE.INTRA.REPUL.0>
0

>  <SCORE.INTRA.SOLV>
-0.570302

>  <SCORE.INTRA.SOLV.lig_0>
-56.4922

>  <SCORE.INTRA.VDW>
-0.448105

>  <SCORE.INTRA.VDW.0>
-0.696801

>  <SCORE.INTRA.norm>
0.0653666

>  <SCORE.RESTR>
0

>  <SCORE.RESTR.CAVITY>
0

>  <SCORE.RESTR.norm>
0

>  <SCORE.SYSTEM>
0

>  <SCORE.SYSTEM.CONST>
0

>  <SCORE.SYSTEM.DIHEDRAL>
0

>  <SCORE.SYSTEM.SOLV>
0

>  <SCORE.SYSTEM.norm>
0

>  <SCORE.heavy>
22

>  <SCORE.norm>
-0.519087

>  <RMSD>
16.680

$$$$
ligand
 OpenBabel02271912143D
libRbt.so/2013.1/901 2013/11/27
 22 24  0  0  0  0  0  0  0  0999 V2000
   -0.1627  -10.5820   20.8903 N   0  0  0  0  0  0  0  0  0  0  0  0
    1.9762  -11.1157   21.8249 N   0  0  0  0  0  0  0  0  0  0  0  0
    1.2419  -10.8486   20.7323 C   0  0  0  0  0  0  0  0  0  0  0  0
    1.7708  -10.8233   19.5152 N   0  0  0  0  0  0  0  0  0  0  0  0
    6.2503  -13.5614   19.6022 O   0  0  0  0  0  0  0  0  0  0  0  0
    3.0827  -11.0711   19.3459 C   0  0  0  0  0  0  0  0  0  0  0  0
    3.8888  -11.3703   20.4795 C   0  0  0  0  0  0  0  0  0  0  0  0
    3.6063  -11.0378   18.0730 O   0  0  0  0  0  0  0  0  0  0  0  0
    5.3137  -11.6351   20.4520 N   0  0  0  0  0  0  0  0  0  0  0  0
    6.1087  -11.0631   21.5464 C   0  0  2  0  0  0  0  0  0  0  0  0
    5.5188  -11.4273   22.8730 C   0  0  0  0  0  0  0  0  0  0  0  0
    3.2944  -11.3725   21.7166 C   0  0  0  0  0  0  0  0  0  0  0  0
    4.0755  -11.6574   22.8599 N   0  0  0  0  0  0  0  0  0  0  0  0
    6.2555   -9.5324   21.4750 C   0  0  0  0  0  0  0  0  0  0  0  0
    7.2125   -9.0652   22.4704 N   0  0  0  0  0  0  0  0  0  0  0  0
    7.1053   -5.0562   23.8908 C   0  0  0  0  0  0  0  0  0  0  0  0
    6.7366   -6.0954   24.7285 C   0  0  0  0  0  0  0  0  0  0  0  0
    6.7708   -7.4248   24.2648 C   0  0  0  0  0  0  0  0  0  0  0  0
    7.1728   -7.6947   22.9654 C   0  0  0  0  0  0  0  0  0  0  0  0
    7.5430   -6.6481   22.1260 C   0  0  0  0  0  0  0  0  0  0  0  0
    7.5106   -5.3300   22.5883 C   0  0  0  0  0  0  0  0  0  0  0  0
    5.9724  -12.3853   19.4381 C   0  0  0  0  0  0  0  0  0  0  0  0
  1  3  1  0  0  0  0
  2  3  2  0  0  0  0
  2 12  1  0  0  0  0
  3  4  1  0  0  0  0
  4  6  1  0  0  0  0
  5 22  1  0  0  0  0
  6  7  1  0  0  0  0
  6  8  2  0  0  0  0
  7 12  2  0  0  0  0
  7  9  1  0  0  0  0
  9 10  1  0  0  0  0
  9 22  1  0  0  0  0
 10 11  1  0  0  0  0
 10 14  1  6  0  0  0
 11 13  1  0  0  0  0
 12 13  1  0  0  0  0
 14 15  1  0  0  0  0
 15 19  1  0  0  0  0
 16 17  2  0  0  0  0
 16 21  1  0  0  0  0
 17 18  1  0  0  0  0
 18 19  2  0  0  0  0
 19 20  1  0  0  0  0
 20 21  2  0  0  0  0
M  END
>  <CHROM.1>
-98.55000984,-171.59274341,-156.50920287,109.76824999,4.88124412,-9.99120334
21.45092445,2.19057545,0.04220259,-2.58661477

>  <Name>
ligand

>  <RI>
0

>  <Rbt.Current_Directory>
/home/itssahil/PROJECTS/Mol_Feturizer/Test_systems_manuscript/rnas/3sd3

>  <Rbt.Executable>
rbdock ($Id: //depot/dev/client3/rdock/2013.1/src/exe/rbdock.cxx#4 $)

>  <Rbt.Library>
libRbt.so (2013.1, Build901 2013/11/27)

>  <Rbt.Parameter_File>
/export/apps/rDock/src/rDock_2013.1_src/data/scripts/dock_solv.prm

>  <Rbt.Receptor>
prm/blind_docking_60.prm

>  <SCORE>
-10.3261

>  <SCORE.INTER>
-9.51217

>  <SCORE.INTER.CONST>
1

>  <SCORE.INTER.POLAR>
0

>  <SCORE.INTER.ROT>
4

>  <SCORE.INTER.SOLV>
7.85135

>  <SCORE.INTER.VDW>
-15.2252

>  <SCORE.INTER.norm>
-0.432371

>  <SCORE.INTRA>
-0.813921

>  <SCORE.INTRA.DIHEDRAL>
-0.227373

>  <SCORE.INTRA.DIHEDRAL.0>
2.54655

>  <SCORE.INTRA.POLAR>
0

>  <SCORE.INTRA.POLAR.0>
0

>  <SCORE.INTRA.REPUL>
0

>  <SCORE.INTRA.REPUL.0>
0

>  <SCORE.INTRA.SOLV>
-0.780426

>  <SCORE.INTRA.SOLV.lig_0>
-56.4922

>  <SCORE.INTRA.VDW>
-0.310022

>  <SCORE.INTRA.VDW.0>
-0.696801

>  <SCORE.INTRA.norm>
-0.0369964

>  <SCORE.RESTR>
0

>  <SCORE.RESTR.CAVITY>
0

>  <SCORE.RESTR.norm>
0

>  <SCORE.SYSTEM>
0

>  <SCORE.SYSTEM.CONST>
0

>  <SCORE.SYSTEM.DIHEDRAL>
0

>  <SCORE.SYSTEM.SOLV>
0

>  <SCORE.SYSTEM.norm>
0

>  <SCORE.heavy>
22

>  <SCORE.norm>
-0.469368

>  <RMSD>
18.384

$$$$
ligand
 OpenBabel02271912143D
libRbt.so/2013.1/901 2013/11/27
 22 24  0  0  0  0  0  0  0  0999 V2000
    5.7657  -12.4330   20.4804 N   0  0  0  0  0  0  0  0  0  0  0  0
    6.2092  -10.2052   19.7231 N   0  0  0  0  0  0  0  0  0  0  0  0
    5.6938  -11.0088   20.6680 C   0  0  0  0  0  0  0  0  0  0  0  0
    5.1217  -10.5305   21.7661 N   0  0  0  0  0  0  0  0  0  0  0  0
    4.5953   -5.5590   22.6788 O   0  0  0  0  0  0  0  0  0  0  0  0
    5.0433   -9.2010   21.9600 C   0  0  0  0  0  0  0  0  0  0  0  0
    5.5676   -8.3194   20.9740 C   0  0  0  0  0  0  0  0  0  0  0  0
    4.4457   -8.7311   23.1079 O   0  0  0  0  0  0  0  0  0  0  0  0
    5.5734   -6.8723   21.0574 N   0  0  0  0  0  0  0  0  0  0  0  0
    6.7816   -6.1918   20.5735 C   0  0  2  0  0  0  0  0  0  0  0  0
    7.1293   -6.6531   19.1927 C   0  0  0  0  0  0  0  0  0  0  0  0
    6.1586   -8.8661   19.8625 C   0  0  0  0  0  0  0  0  0  0  0  0
    6.6958   -8.0117   18.8726 N   0  0  0  0  0  0  0  0  0  0  0  0
    8.0097   -6.3834   21.4818 C   0  0  0  0  0  0  0  0  0  0  0  0
    9.0545   -5.4280   21.1343 N   0  0  0  0  0  0  0  0  0  0  0  0
   11.5476   -6.0613   17.7454 C   0  0  0  0  0  0  0  0  0  0  0  0
   10.8211   -4.8878   17.8583 C   0  0  0  0  0  0  0  0  0  0  0  0
    9.9947   -4.6716   18.9780 C   0  0  0  0  0  0  0  0  0  0  0  0
    9.9062   -5.6365   19.9699 C   0  0  0  0  0  0  0  0  0  0  0  0
   10.6376   -6.8149   19.8537 C   0  0  0  0  0  0  0  0  0  0  0  0
   11.4587   -7.0269   18.7432 C   0  0  0  0  0  0  0  0  0  0  0  0
    4.5064   -6.0933   21.5861 C   0  0  0  0  0  0  0  0  0  0  0  0
  1  3  1  0  0  0  0
  2  3  2  0  0  0  0
  2 12  1  0  0  0  0
  3  4  1  0  0  0  0
  4  6  1  0  0  0  0
  5 22  1  0  0  0  0
  6  7  1  0  0  0  0
  6  8  2  0  0  0  0
  7 12  2  0  0  0  0
  7  9  1  0  0  0  0
  9 10  1  0  0  0  0
  9 22  1  0  0  0  0
 10 11  1  0  0  0  0
 10 14  1  1  0  0  0
 11 13  1  0  0  0  0
 12 13  1  0  0  0  0
 14 15  1  0  0  0  0
 15 19  1  0  0  0  0
 16 17  2  0  0  0  0
 16 21  1  0  0  0  0
 17 18  1  0  0  0  0
 18 19  2  0  0  0  0
 19 20  1  0  0  0  0
 20 21  2  0  0  0  0
M  END
>  <CHROM.1>
106.16721135,-165.72156734,-77.95231618,123.76363525,7.17443891,-7.54472930
20.45864113,-2.69990093,0.56137845,0.25351331

>  <Name>
ligand

>  <RI>
0

>  <Rbt.Current_Directory>
/home/itssahil/PROJECTS/Mol_Feturizer/Test_systems_manuscript/rnas/3sd3

>  <Rbt.Executable>
rbdock ($Id: //depot/dev/client3/rdock/2013.1/src/exe/rbdock.cxx#4 $)

>  <Rbt.Library>
libRbt.so (2013.1, Build901 2013/11/27)

>  <Rbt.Parameter_File>
/export/apps/rDock/src/rDock_2013.1_src/data/scripts/dock_solv.prm

>  <Rbt.Receptor>
prm/blind_docking_40.prm

>  <SCORE>
-5.49967

>  <SCORE.INTER>
-4.56495

>  <SCORE.INTER.CONST>
1

>  <SCORE.INTER.POLAR>
0

>  <SCORE.INTER.ROT>
4

>  <SCORE.INTER.SOLV>
10.9908

>  <SCORE.INTER.VDW>
-12.9736

>  <SCORE.INTER.norm>
-0.207498

>  <SCORE.INTRA>
-0.934729

>  <SCORE.INTRA.DIHEDRAL>
0.0274599

>  <SCORE.INTRA.DIHEDRAL.0>
2.54655

>  <SCORE.INTRA.POLAR>
0

>  <SCORE.INTRA.POLAR.0>
0

>  <SCORE.INTRA.REPUL>
0

>  <SCORE.INTRA.REPUL.0>
0

>  <SCORE.INTRA.SOLV>
-0.565672

>  <SCORE.INTRA.SOLV.lig_0>
-56.4922

>  <SCORE.INTRA.VDW>
-0.665623

>  <SCORE.INTRA.VDW.0>
-0.696801

>  <SCORE.INTRA.norm>
-0.0424877

>  <SCORE.RESTR>
0

>  <SCORE.RESTR.CAVITY>
0

>  <SCORE.RESTR.norm>
0

>  <SCORE.SYSTEM>
0

>  <SCORE.SYSTEM.CONST>
0

>  <SCORE.SYSTEM.DIHEDRAL>
0

>  <SCORE.SYSTEM.SOLV>
0

>  <SCORE.SYSTEM.norm>
0

>  <SCORE.heavy>
22

>  <SCORE.norm>
-0.249985

>  <RMSD>
18.437

$$$$
ligand
 OpenBabel02271912143D
libRbt.so/2013.1/901 2013/11/27
 22 24  0  0  0  0  0  0  0  0999 V2000
    2.5489  -10.5549   24.2254 N   0  0  0  0  0  0  0  0  0  0  0  0
    4.1515  -10.4809   22.4480 N   0  0  0  0  0  0  0  0  0  0  0  0
    3.4653   -9.8203   23.3951 C   0  0  0  0  0  0  0  0  0  0  0  0
    3.6062   -8.5146   23.5876 N   0  0  0  0  0  0  0  0  0  0  0  0
    6.3554   -6.3187   19.2041 O   0  0  0  0  0  0  0  0  0  0  0  0
    4.4577   -7.8090   22.8206 C   0  0  0  0  0  0  0  0  0  0  0  0
    5.1920   -8.4736   21.7991 C   0  0  0  0  0  0  0  0  0  0  0  0
    4.5857   -6.4561   23.0416 O   0  0  0  0  0  0  0  0  0  0  0  0
    6.1564   -7.8497   20.9150 N   0  0  0  0  0  0  0  0  0  0  0  0
    7.3683   -8.6232   20.6150 C   0  0  2  0  0  0  0  0  0  0  0  0
    7.0125   -9.9974   20.1401 C   0  0  0  0  0  0  0  0  0  0  0  0
    5.0173   -9.8266   21.6494 C   0  0  0  0  0  0  0  0  0  0  0  0
    5.7424  -10.5121   20.6480 N   0  0  0  0  0  0  0  0  0  0  0  0
    8.3376   -8.7477   21.8044 C   0  0  0  0  0  0  0  0  0  0  0  0
    8.8832   -7.4424   22.1559 N   0  0  0  0  0  0  0  0  0  0  0  0
    6.7690   -4.8218   24.7566 C   0  0  0  0  0  0  0  0  0  0  0  0
    7.0110   -4.4464   23.4458 C   0  0  0  0  0  0  0  0  0  0  0  0
    7.7094   -5.3097   22.5795 C   0  0  0  0  0  0  0  0  0  0  0  0
    8.1580   -6.5383   23.0399 C   0  0  0  0  0  0  0  0  0  0  0  0
    7.9132   -6.9128   24.3578 C   0  0  0  0  0  0  0  0  0  0  0  0
    7.2182   -6.0561   25.2154 C   0  0  0  0  0  0  0  0  0  0  0  0
    6.0068   -6.5526   20.3492 C   0  0  0  0  0  0  0  0  0  0  0  0
  1  3  1  0  0  0  0
  2  3  2  0  0  0  0
  2 12  1  0  0  0  0
  3  4  1  0  0  0  0
  4  6  1  0  0  0  0
  5 22  1  0  0  0  0
  6  7  1  0  0  0  0
  6  8  2  0  0  0  0
  7 12  2  0  0  0  0
  7  9  1  0  0  0  0
  9 10  1  0  0  0  0
  9 22  1  0  0  0  0
 10 11  1  0  0  0  0
 10 14  1  1  0  0  0
 11 13  1  0  0  0  0
 12 13  1  0  0  0  0
 14 15  1  0  0  0  0
 15 19  1  0  0  0  0
 16 17  2  0  0  0  0
 16 21  1  0  0  0  0
 17 18  1  0  0  0  0
 18 19  2  0  0  0  0
 19 20  1  0  0  0  0
 20 21  2  0  0  0  0
M  END
>  <CHROM.1>
-141.54631431,-65.64488513,84.64116974,-116.56108864,6.04851376,-7.85509114
22.29698070,2.52322851,-0.68086551,-2.27725857

>  <Name>
ligand

>  <RI>
0

>  <Rbt.Current_Directory>
/home/itssahil/PROJECTS/Mol_Feturizer/Test_systems_manuscript/rnas/3sd3

>  <Rbt.Executable>
rbdock ($Id: //depot/dev/client3/rdock/2013.1/src/exe/rbdock.cxx#4 $)

>  <Rbt.Library>
libRbt.so (2013.1, Build901 2013/11/27)

>  <Rbt.Parameter_File>
/export/apps/rDock/src/rDock_2013.1_src/data/scripts/dock_solv.prm

>  <Rbt.Receptor>
prm/blind_docking_40.prm

>  <SCORE>
-12.5685

>  <SCORE.INTER>
-10.1425

>  <SCORE.INTER.CONST>
1

>  <SCORE.INTER.POLAR>
0

>  <SCORE.INTER.ROT>
4

>  <SCORE.INTER.SOLV>
10.1414

>  <SCORE.INTER.VDW>
-16.4088

>  <SCORE.INTER.norm>
-0.461024

>  <SCORE.INTRA>
-2.426

>  <SCORE.INTRA.DIHEDRAL>
-0.396474

>  <SCORE.INTRA.DIHEDRAL.0>
2.54655

>  <SCORE.INTRA.POLAR>
0

>  <SCORE.INTRA.POLAR.0>
0

>  <SCORE.INTRA.REPUL>
0

>  <SCORE.INTRA.REPUL.0>
0

>  <SCORE.INTRA.SOLV>
0.444031

>  <SCORE.INTRA.SOLV.lig_0>
-56.4922

>  <SCORE.INTRA.VDW>
-2.44977

>  <SCORE.INTRA.VDW.0>
-0.696801

>  <SCORE.INTRA.norm>
-0.110273

>  <SCORE.RESTR>
0

>  <SCORE.RESTR.CAVITY>
0

>  <SCORE.RESTR.norm>
0

>  <SCORE.SYSTEM>
0

>  <SCORE.SYSTEM.CONST>
0

>  <SCORE.SYSTEM.DIHEDRAL>
0

>  <SCORE.SYSTEM.SOLV>
0

>  <SCORE.SYSTEM.norm>
0

>  <SCORE.heavy>
22

>  <SCORE.norm>
-0.571296

>  <RMSD>
18.504

$$$$
ligand
 OpenBabel02271912143D
libRbt.so/2013.1/901 2013/11/27
 22 24  0  0  0  0  0  0  0  0999 V2000
    7.3841   -4.9340   25.8979 N   0  0  0  0  0  0  0  0  0  0  0  0
    8.5047   -5.9715   24.0538 N   0  0  0  0  0  0  0  0  0  0  0  0
    7.4470   -5.9496   24.8814 C   0  0  0  0  0  0  0  0  0  0  0  0
    6.4612   -6.8338   24.7904 N   0  0  0  0  0  0  0  0  0  0  0  0
    8.2034  -11.0222   22.3890 O   0  0  0  0  0  0  0  0  0  0  0  0
    6.5016   -7.7926   23.8469 C   0  0  0  0  0  0  0  0  0  0  0  0
    7.6131   -7.8539   22.9608 C   0  0  0  0  0  0  0  0  0  0  0  0
    5.4659   -8.6967   23.7736 O   0  0  0  0  0  0  0  0  0  0  0  0
    7.7809   -8.8132   21.8872 N   0  0  0  0  0  0  0  0  0  0  0  0
    8.3478   -8.3016   20.6326 C   0  0  2  0  0  0  0  0  0  0  0  0
    9.6200   -7.5575   20.8937 C   0  0  0  0  0  0  0  0  0  0  0  0
    8.5999   -6.9089   23.0907 C   0  0  0  0  0  0  0  0  0  0  0  0
    9.7103   -6.9422   22.2163 N   0  0  0  0  0  0  0  0  0  0  0  0
    7.3928   -7.3857   19.8460 C   0  0  0  0  0  0  0  0  0  0  0  0
    8.0387   -6.8964   18.6342 N   0  0  0  0  0  0  0  0  0  0  0  0
    9.8467   -3.0463   18.5408 C   0  0  0  0  0  0  0  0  0  0  0  0
    9.4717   -3.6617   17.3584 C   0  0  0  0  0  0  0  0  0  0  0  0
    8.8719   -4.9356   17.3824 C   0  0  0  0  0  0  0  0  0  0  0  0
    8.6574   -5.5772   18.5928 C   0  0  0  0  0  0  0  0  0  0  0  0
    9.0353   -4.9562   19.7796 C   0  0  0  0  0  0  0  0  0  0  0  0
    9.6283   -3.6913   19.7542 C   0  0  0  0  0  0  0  0  0  0  0  0
    7.4188  -10.1866   21.9725 C   0  0  0  0  0  0  0  0  0  0  0  0
  1  3  1  0  0  0  0
  2  3  2  0  0  0  0
  2 12  1  0  0  0  0
  3  4  1  0  0  0  0
  4  6  1  0  0  0  0
  5 22  1  0  0  0  0
  6  7  1  0  0  0  0
  6  8  2  0  0  0  0
  7 12  2  0  0  0  0
  7  9  1  0  0  0  0
  9 10  1  0  0  0  0
  9 22  1  0  0  0  0
 10 11  1  0  0  0  0
 10 14  1  1  0  0  0
 11 13  1  0  0  0  0
 12 13  1  0  0  0  0
 14 15  1  0  0  0  0
 15 19  1  0  0  0  0
 16 17  2  0  0  0  0
 16 21  1  0  0  0  0
 17 18  1  0  0  0  0
 18 19  2  0  0  0  0
 19 20  1  0  0  0  0
 20 21  2  0  0  0  0
M  END
>  <CHROM.1>
-88.56096424,178.67554336,-97.83650299,-158.67325391,8.13646408,-6.84943161
21.59328474,-3.03141652,-1.25618522,-2.47199374

>  <Name>
ligand

>  <RI>
0

>  <Rbt.Current_Directory>
/home/itssahil/PROJECTS/Mol_Feturizer/Test_systems_manuscript/rnas/3sd3

>  <Rbt.Executable>
rbdock ($Id: //depot/dev/client3/rdock/2013.1/src/exe/rbdock.cxx#4 $)

>  <Rbt.Library>
libRbt.so (2013.1, Build901 2013/11/27)

>  <Rbt.Parameter_File>
/export/apps/rDock/src/rDock_2013.1_src/data/scripts/dock_solv.prm

>  <Rbt.Receptor>
prm/blind_docking_40.prm

>  <SCORE>
-9.40567

>  <SCORE.INTER>
-9.78279

>  <SCORE.INTER.CONST>
1

>  <SCORE.INTER.POLAR>
0

>  <SCORE.INTER.ROT>
4

>  <SCORE.INTER.SOLV>
16.7414

>  <SCORE.INTER.VDW>
-18.369

>  <SCORE.INTER.norm>
-0.444672

>  <SCORE.INTRA>
0.377116

>  <SCORE.INTRA.DIHEDRAL>
-0.038707

>  <SCORE.INTRA.DIHEDRAL.0>
2.54655

>  <SCORE.INTRA.POLAR>
0

>  <SCORE.INTRA.POLAR.0>
0

>  <SCORE.INTRA.REPUL>
0

>  <SCORE.INTRA.REPUL.0>
0

>  <SCORE.INTRA.SOLV>
-0.304931

>  <SCORE.INTRA.SOLV.lig_0>
-56.4922

>  <SCORE.INTRA.VDW>
0.548935

>  <SCORE.INTRA.VDW.0>
-0.696801

>  <SCORE.INTRA.norm>
0.0171417

>  <SCORE.RESTR>
0

>  <SCORE.RESTR.CAVITY>
0

>  <SCORE.RESTR.norm>
0

>  <SCORE.SYSTEM>
0

>  <SCORE.SYSTEM.CONST>
0

>  <SCORE.SYSTEM.DIHEDRAL>
0

>  <SCORE.SYSTEM.SOLV>
0

>  <SCORE.SYSTEM.norm>
0

>  <SCORE.heavy>
22

>  <SCORE.norm>
-0.427531

>  <RMSD>
18.534

$$$$
ligand
 OpenBabel02271912143D
libRbt.so/2013.1/901 2013/11/27
 22 24  0  0  0  0  0  0  0  0999 V2000
    7.9691   -5.1422   26.7366 N   0  0  0  0  0  0  0  0  0  0  0  0
    6.6970   -4.9612   24.7162 N   0  0  0  0  0  0  0  0  0  0  0  0
    7.8056   -5.4042   25.3318 C   0  0  0  0  0  0  0  0  0  0  0  0
    8.7521   -6.0740   24.6857 N   0  0  0  0  0  0  0  0  0  0  0  0
    8.3973   -7.0244   19.5687 O   0  0  0  0  0  0  0  0  0  0  0  0
    8.6187   -6.3284   23.3709 C   0  0  0  0  0  0  0  0  0  0  0  0
    7.4631   -5.8633   22.6834 C   0  0  0  0  0  0  0  0  0  0  0  0
    9.6145   -7.0259   22.7248 O   0  0  0  0  0  0  0  0  0  0  0  0
    7.1753   -6.0809   21.2795 N   0  0  0  0  0  0  0  0  0  0  0  0
    5.7796   -6.3809   20.9345 C   0  0  2  0  0  0  0  0  0  0  0  0
    4.8596   -5.3558   21.5203 C   0  0  0  0  0  0  0  0  0  0  0  0
    6.5096   -5.1854   23.4009 C   0  0  0  0  0  0  0  0  0  0  0  0
    5.3476   -4.7211   22.7431 N   0  0  0  0  0  0  0  0  0  0  0  0
    5.3135   -7.7772   21.3849 C   0  0  0  0  0  0  0  0  0  0  0  0
    6.1520   -8.8108   20.7902 N   0  0  0  0  0  0  0  0  0  0  0  0
    5.6227  -12.9079   21.8074 C   0  0  0  0  0  0  0  0  0  0  0  0
    5.2174  -12.4469   20.5661 C   0  0  0  0  0  0  0  0  0  0  0  0
    5.3907  -11.0921   20.2228 C   0  0  0  0  0  0  0  0  0  0  0  0
    5.9668  -10.2162   21.1303 C   0  0  0  0  0  0  0  0  0  0  0  0
    6.3733  -10.6825   22.3770 C   0  0  0  0  0  0  0  0  0  0  0  0
    6.2027  -12.0274   22.7152 C   0  0  0  0  0  0  0  0  0  0  0  0
    8.1496   -6.0390   20.2433 C   0  0  0  0  0  0  0  0  0  0  0  0
  1  3  1  0  0  0  0
  2  3  2  0  0  0  0
  2 12  1  0  0  0  0
  3  4  1  0  0  0  0
  4  6  1  0  0  0  0
  5 22  1  0  0  0  0
  6  7  1  0  0  0  0
  6  8  2  0  0  0  0
  7 12  2  0  0  0  0
  7  9  1  0  0  0  0
  9 10  1  0  0  0  0
  9 22  1  0  0  0  0
 10 11  1  0  0  0  0
 10 14  1  1  0  0  0
 11 13  1  0  0  0  0
 12 13  1  0  0  0  0
 14 15  1  0  0  0  0
 15 19  1  0  0  0  0
 16 17  2  0  0  0  0
 16 21  1  0  0  0  0
 17 18  1  0  0  0  0
 18 19  2  0  0  0  0
 19 20  1  0  0  0  0
 20 21  2  0  0  0  0
M  END
>  <CHROM.1>
117.32455282,-58.53788528,176.05072172,106.82955272,6.84220506,-7.50202768
22.30048379,-0.59518604,1.25755700,2.64066010

>  <Name>
ligand

>  <RI>
0

>  <Rbt.Current_Directory>
/home/itssahil/PROJECTS/Mol_Feturizer/Test_systems_manuscript/rnas/3sd3

>  <Rbt.Executable>
rbdock ($Id: //depot/dev/client3/rdock/2013.1/src/exe/rbdock.cxx#4 $)

>  <Rbt.Library>
libRbt.so (2013.1, Build901 2013/11/27)

>  <Rbt.Parameter_File>
/export/apps/rDock/src/rDock_2013.1_src/data/scripts/dock_solv.prm

>  <Rbt.Receptor>
prm/blind_docking_40.prm

>  <SCORE>
-8.68653

>  <SCORE.INTER>
-7.62621

>  <SCORE.INTER.CONST>
1

>  <SCORE.INTER.POLAR>
0

>  <SCORE.INTER.ROT>
4

>  <SCORE.INTER.SOLV>
13.326

>  <SCORE.INTER.VDW>
-15.7928

>  <SCORE.INTER.norm>
-0.346646

>  <SCORE.INTRA>
-1.06032

>  <SCORE.INTRA.DIHEDRAL>
-0.891861

>  <SCORE.INTRA.DIHEDRAL.0>
2.54655

>  <SCORE.INTRA.POLAR>
0

>  <SCORE.INTRA.POLAR.0>
0

>  <SCORE.INTRA.REPUL>
0

>  <SCORE.INTRA.REPUL.0>
0

>  <SCORE.INTRA.SOLV>
0.615794

>  <SCORE.INTRA.SOLV.lig_0>
-56.4922

>  <SCORE.INTRA.VDW>
-0.92229

>  <SCORE.INTRA.VDW.0>
-0.696801

>  <SCORE.INTRA.norm>
-0.0481965

>  <SCORE.RESTR>
0

>  <SCORE.RESTR.CAVITY>
0

>  <SCORE.RESTR.norm>
0

>  <SCORE.SYSTEM>
0

>  <SCORE.SYSTEM.CONST>
0

>  <SCORE.SYSTEM.DIHEDRAL>
0

>  <SCORE.SYSTEM.SOLV>
0

>  <SCORE.SYSTEM.norm>
0

>  <SCORE.heavy>
22

>  <SCORE.norm>
-0.394842

>  <RMSD>
18.551

$$$$
ligand
 OpenBabel02271912143D
libRbt.so/2013.1/901 2013/11/27
 22 24  0  0  0  0  0  0  0  0999 V2000
    8.7306   -6.2513   26.7040 N   0  0  0  0  0  0  0  0  0  0  0  0
    7.3625   -7.4927   25.1809 N   0  0  0  0  0  0  0  0  0  0  0  0
    7.9936   -6.3434   25.4723 C   0  0  0  0  0  0  0  0  0  0  0  0
    7.9581   -5.2932   24.6614 N   0  0  0  0  0  0  0  0  0  0  0  0
    4.4136   -4.9567   21.9850 O   0  0  0  0  0  0  0  0  0  0  0  0
    7.2732   -5.3587   23.5047 C   0  0  0  0  0  0  0  0  0  0  0  0
    6.5820   -6.5562   23.1693 C   0  0  0  0  0  0  0  0  0  0  0  0
    7.2530   -4.2555   22.6812 O   0  0  0  0  0  0  0  0  0  0  0  0
    5.8251   -6.7780   21.9531 N   0  0  0  0  0  0  0  0  0  0  0  0
    5.9490   -8.1048   21.3357 C   0  0  2  0  0  0  0  0  0  0  0  0
    5.6808   -9.1811   22.3407 C   0  0  0  0  0  0  0  0  0  0  0  0
    6.6604   -7.6161   24.0376 C   0  0  0  0  0  0  0  0  0  0  0  0
    5.9904   -8.8206   23.7229 N   0  0  0  0  0  0  0  0  0  0  0  0
    7.3214   -8.3645   20.6887 C   0  0  0  0  0  0  0  0  0  0  0  0
    8.3878   -7.8175   21.5186 N   0  0  0  0  0  0  0  0  0  0  0  0
   10.7748   -4.5757   20.1423 C   0  0  0  0  0  0  0  0  0  0  0  0
   11.3803   -5.7413   20.5811 C   0  0  0  0  0  0  0  0  0  0  0  0
   10.5959   -6.8184   21.0370 C   0  0  0  0  0  0  0  0  0  0  0  0
    9.2134   -6.7119   21.0487 C   0  0  0  0  0  0  0  0  0  0  0  0
    8.6077   -5.5393   20.6070 C   0  0  0  0  0  0  0  0  0  0  0  0
    9.3873   -4.4724   20.1529 C   0  0  0  0  0  0  0  0  0  0  0  0
    5.0024   -5.7992   21.3286 C   0  0  0  0  0  0  0  0  0  0  0  0
  1  3  1  0  0  0  0
  2  3  2  0  0  0  0
  2 12  1  0  0  0  0
  3  4  1  0  0  0  0
  4  6  1  0  0  0  0
  5 22  1  0  0  0  0
  6  7  1  0  0  0  0
  6  8  2  0  0  0  0
  7 12  2  0  0  0  0
  7  9  1  0  0  0  0
  9 10  1  0  0  0  0
  9 22  1  0  0  0  0
 10 11  1  0  0  0  0
 10 14  1  1  0  0  0
 11 13  1  0  0  0  0
 12 13  1  0  0  0  0
 14 15  1  0  0  0  0
 15 19  1  0  0  0  0
 16 17  2  0  0  0  0
 16 21  1  0  0  0  0
 17 18  1  0  0  0  0
 18 19  2  0  0  0  0
 19 20  1  0  0  0  0
 20 21  2  0  0  0  0
M  END
>  <CHROM.1>
-32.10613597,39.84227652,-114.44729174,-125.97950593,7.55062500,-6.49771324
22.48227381,-2.46615887,-0.42374976,-1.57213625

>  <Name>
ligand

>  <RI>
0

>  <Rbt.Current_Directory>
/home/itssahil/PROJECTS/Mol_Feturizer/Test_systems_manuscript/rnas/3sd3

>  <Rbt.Executable>
rbdock ($Id: //depot/dev/client3/rdock/2013.1/src/exe/rbdock.cxx#4 $)

>  <Rbt.Library>
libRbt.so (2013.1, Build901 2013/11/27)

>  <Rbt.Parameter_File>
/export/apps/rDock/src/rDock_2013.1_src/data/scripts/dock_solv.prm

>  <Rbt.Receptor>
prm/blind_docking_40.prm

>  <SCORE>
-10.5141

>  <SCORE.INTER>
-10.3209

>  <SCORE.INTER.CONST>
1

>  <SCORE.INTER.POLAR>
0

>  <SCORE.INTER.ROT>
4

>  <SCORE.INTER.SOLV>
16.5566

>  <SCORE.INTER.VDW>
-18.6662

>  <SCORE.INTER.norm>
-0.469133

>  <SCORE.INTRA>
-0.193172

>  <SCORE.INTRA.DIHEDRAL>
1.53615

>  <SCORE.INTRA.DIHEDRAL.0>
2.54655

>  <SCORE.INTRA.POLAR>
0

>  <SCORE.INTRA.POLAR.0>
0

>  <SCORE.INTRA.REPUL>
0

>  <SCORE.INTRA.REPUL.0>
0

>  <SCORE.INTRA.SOLV>
2.5256

>  <SCORE.INTRA.SOLV.lig_0>
-56.4922

>  <SCORE.INTRA.VDW>
-2.22405

>  <SCORE.INTRA.VDW.0>
-0.696801

>  <SCORE.INTRA.norm>
-0.00878054

>  <SCORE.RESTR>
0

>  <SCORE.RESTR.CAVITY>
0

>  <SCORE.RESTR.norm>
0

>  <SCORE.SYSTEM>
0

>  <SCORE.SYSTEM.CONST>
0

>  <SCORE.SYSTEM.DIHEDRAL>
0

>  <SCORE.SYSTEM.SOLV>
0

>  <SCORE.SYSTEM.norm>
0

>  <SCORE.heavy>
22

>  <SCORE.norm>
-0.477914

>  <RMSD>
18.560

$$$$
ligand
 OpenBabel02271912143D
libRbt.so/2013.1/901 2013/11/27
 22 24  0  0  0  0  0  0  0  0999 V2000
   11.0479   -5.5869   18.9801 N   0  0  0  0  0  0  0  0  0  0  0  0
    9.7088   -5.8523   20.9471 N   0  0  0  0  0  0  0  0  0  0  0  0
    9.7769   -5.8355   19.6058 C   0  0  0  0  0  0  0  0  0  0  0  0
    8.7107   -6.0402   18.8422 N   0  0  0  0  0  0  0  0  0  0  0  0
    4.3644   -5.1468   21.7888 O   0  0  0  0  0  0  0  0  0  0  0  0
    7.5121   -6.2734   19.4080 C   0  0  0  0  0  0  0  0  0  0  0  0
    7.4000   -6.2860   20.8264 C   0  0  0  0  0  0  0  0  0  0  0  0
    6.4223   -6.4835   18.5933 O   0  0  0  0  0  0  0  0  0  0  0  0
    6.1839   -6.5441   21.5717 N   0  0  0  0  0  0  0  0  0  0  0  0
    6.3174   -7.3669   22.7809 C   0  0  2  0  0  0  0  0  0  0  0  0
    7.3904   -6.8242   23.6722 C   0  0  0  0  0  0  0  0  0  0  0  0
    8.5354   -6.0796   21.5692 C   0  0  0  0  0  0  0  0  0  0  0  0
    8.4526   -6.0967   22.9804 N   0  0  0  0  0  0  0  0  0  0  0  0
    6.6165   -8.8496   22.4948 C   0  0  0  0  0  0  0  0  0  0  0  0
    5.5401   -9.4450   21.7125 N   0  0  0  0  0  0  0  0  0  0  0  0
    5.7789  -13.4792   20.3822 C   0  0  0  0  0  0  0  0  0  0  0  0
    4.9020  -13.1381   21.3982 C   0  0  0  0  0  0  0  0  0  0  0  0
    4.8174  -11.8044   21.8426 C   0  0  0  0  0  0  0  0  0  0  0  0
    5.6153  -10.8296   21.2629 C   0  0  0  0  0  0  0  0  0  0  0  0
    6.4955  -11.1754   20.2418 C   0  0  0  0  0  0  0  0  0  0  0  0
    6.5766  -12.4987   19.8007 C   0  0  0  0  0  0  0  0  0  0  0  0
    4.8954   -6.0711   21.1964 C   0  0  0  0  0  0  0  0  0  0  0  0
  1  3  1  0  0  0  0
  2  3  2  0  0  0  0
  2 12  1  0  0  0  0
  3  4  1  0  0  0  0
  4  6  1  0  0  0  0
  5 22  1  0  0  0  0
  6  7  1  0  0  0  0
  6  8  2  0  0  0  0
  7 12  2  0  0  0  0
  7  9  1  0  0  0  0
  9 10  1  0  0  0  0
  9 22  1  0  0  0  0
 10 11  1  0  0  0  0
 10 14  1  6  0  0  0
 11 13  1  0  0  0  0
 12 13  1  0  0  0  0
 14 15  1  0  0  0  0
 15 19  1  0  0  0  0
 16 17  2  0  0  0  0
 16 21  1  0  0  0  0
 17 18  1  0  0  0  0
 18 19  2  0  0  0  0
 19 20  1  0  0  0  0
 20 21  2  0  0  0  0
M  END
>  <CHROM.1>
-105.40084692,-60.54069062,177.34636636,107.78395394,6.95275034,-7.93496338
21.00338743,-1.00390373,-0.66252950,-2.85970435

>  <Name>
ligand

>  <RI>
0

>  <Rbt.Current_Directory>
/home/itssahil/PROJECTS/Mol_Feturizer/Test_systems_manuscript/rnas/3sd3

>  <Rbt.Executable>
rbdock ($Id: //depot/dev/client3/rdock/2013.1/src/exe/rbdock.cxx#4 $)

>  <Rbt.Library>
libRbt.so (2013.1, Build901 2013/11/27)

>  <Rbt.Parameter_File>
/export/apps/rDock/src/rDock_2013.1_src/data/scripts/dock_solv.prm

>  <Rbt.Receptor>
prm/blind_docking_60.prm

>  <SCORE>
-8.06606

>  <SCORE.INTER>
-6.69943

>  <SCORE.INTER.CONST>
1

>  <SCORE.INTER.POLAR>
0

>  <SCORE.INTER.ROT>
4

>  <SCORE.INTER.SOLV>
9.01827

>  <SCORE.INTER.VDW>
-13.739

>  <SCORE.INTER.norm>
-0.30452

>  <SCORE.INTRA>
-1.36663

>  <SCORE.INTRA.DIHEDRAL>
-0.884719

>  <SCORE.INTRA.DIHEDRAL.0>
2.54655

>  <SCORE.INTRA.POLAR>
0

>  <SCORE.INTRA.POLAR.0>
0

>  <SCORE.INTRA.REPUL>
0

>  <SCORE.INTRA.REPUL.0>
0

>  <SCORE.INTRA.SOLV>
-0.285217

>  <SCORE.INTRA.SOLV.lig_0>
-56.4922

>  <SCORE.INTRA.VDW>
-0.781662

>  <SCORE.INTRA.VDW.0>
-0.696801

>  <SCORE.INTRA.norm>
-0.0621195

>  <SCORE.RESTR>
0

>  <SCORE.RESTR.CAVITY>
0

>  <SCORE.RESTR.norm>
0

>  <SCORE.SYSTEM>
0

>  <SCORE.SYSTEM.CONST>
0

>  <SCORE.SYSTEM.DIHEDRAL>
0

>  <SCORE.SYSTEM.SOLV>
0

>  <SCORE.SYSTEM.norm>
0

>  <SCORE.heavy>
22

>  <SCORE.norm>
-0.366639

>  <RMSD>
18.607

$$$$
ligand
 OpenBabel02271912143D
libRbt.so/2013.1/901 2013/11/27
 22 24  0  0  0  0  0  0  0  0999 V2000
    7.3722   -5.5682   25.1953 N   0  0  0  0  0  0  0  0  0  0  0  0
    7.6578   -7.5776   23.9250 N   0  0  0  0  0  0  0  0  0  0  0  0
    6.8241   -6.6468   24.4175 C   0  0  0  0  0  0  0  0  0  0  0  0
    5.5139   -6.6917   24.2095 N   0  0  0  0  0  0  0  0  0  0  0  0
    3.2991  -10.5372   21.5375 O   0  0  0  0  0  0  0  0  0  0  0  0
    4.9811   -7.6932   23.4855 C   0  0  0  0  0  0  0  0  0  0  0  0
    5.8328   -8.7038   22.9586 C   0  0  0  0  0  0  0  0  0  0  0  0
    3.6193   -7.7157   23.2839 O   0  0  0  0  0  0  0  0  0  0  0  0
    5.4046   -9.8252   22.1460 N   0  0  0  0  0  0  0  0  0  0  0  0
    6.2797  -10.1965   21.0266 C   0  0  2  0  0  0  0  0  0  0  0  0
    7.6888  -10.3794   21.4971 C   0  0  0  0  0  0  0  0  0  0  0  0
    7.1813   -8.6040   23.1937 C   0  0  0  0  0  0  0  0  0  0  0  0
    8.0501   -9.5903   22.6731 N   0  0  0  0  0  0  0  0  0  0  0  0
    6.2737   -9.1819   19.8689 C   0  0  0  0  0  0  0  0  0  0  0  0
    5.5748   -7.9644   20.2617 N   0  0  0  0  0  0  0  0  0  0  0  0
    7.6618   -4.6485   21.9203 C   0  0  0  0  0  0  0  0  0  0  0  0
    8.3689   -5.6988   21.3594 C   0  0  0  0  0  0  0  0  0  0  0  0
    7.6841   -6.7989   20.8078 C   0  0  0  0  0  0  0  0  0  0  0  0
    6.2980   -6.8323   20.8276 C   0  0  0  0  0  0  0  0  0  0  0  0
    5.5901   -5.7753   21.3919 C   0  0  0  0  0  0  0  0  0  0  0  0
    6.2710   -4.6836   21.9368 C   0  0  0  0  0  0  0  0  0  0  0  0
    4.2029  -10.5577   22.3562 C   0  0  0  0  0  0  0  0  0  0  0  0
  1  3  1  0  0  0  0
  2  3  2  0  0  0  0
  2 12  1  0  0  0  0
  3  4  1  0  0  0  0
  4  6  1  0  0  0  0
  5 22  1  0  0  0  0
  6  7  1  0  0  0  0
  6  8  2  0  0  0  0
  7 12  2  0  0  0  0
  7  9  1  0  0  0  0
  9 10  1  0  0  0  0
  9 22  1  0  0  0  0
 10 11  1  0  0  0  0
 10 14  1  6  0  0  0
 11 13  1  0  0  0  0
 12 13  1  0  0  0  0
 14 15  1  0  0  0  0
 15 19  1  0  0  0  0
 16 17  2  0  0  0  0
 16 21  1  0  0  0  0
 17 18  1  0  0  0  0
 18 19  2  0  0  0  0
 19 20  1  0  0  0  0
 20 21  2  0  0  0  0
M  END
>  <CHROM.1>
114.22691335,10.10068338,92.69819300,10.45494648,6.18918414,-7.90518067,22.29501905
0.96120527,0.77877761,0.75054126

>  <Name>
ligand

>  <RI>
0

>  <Rbt.Current_Directory>
/home/itssahil/PROJECTS/Mol_Feturizer/Test_systems_manuscript/rnas/3sd3

>  <Rbt.Executable>
rbdock ($Id: //depot/dev/client3/rdock/2013.1/src/exe/rbdock.cxx#4 $)

>  <Rbt.Library>
libRbt.so (2013.1, Build901 2013/11/27)

>  <Rbt.Parameter_File>
/export/apps/rDock/src/rDock_2013.1_src/data/scripts/dock_solv.prm

>  <Rbt.Receptor>
prm/blind_docking_100.prm

>  <SCORE>
-7.09399

>  <SCORE.INTER>
-7.73191

>  <SCORE.INTER.CONST>
1

>  <SCORE.INTER.POLAR>
0

>  <SCORE.INTER.ROT>
4

>  <SCORE.INTER.SOLV>
15.7942

>  <SCORE.INTER.VDW>
-16.686

>  <SCORE.INTER.norm>
-0.35145

>  <SCORE.INTRA>
0.637921

>  <SCORE.INTRA.DIHEDRAL>
4.6067

>  <SCORE.INTRA.DIHEDRAL.0>
2.54655

>  <SCORE.INTRA.POLAR>
0

>  <SCORE.INTRA.POLAR.0>
0

>  <SCORE.INTRA.REPUL>
0

>  <SCORE.INTRA.REPUL.0>
0

>  <SCORE.INTRA.SOLV>
3.71482

>  <SCORE.INTRA.SOLV.lig_0>
-56.4922

>  <SCORE.INTRA.VDW>
-3.52284

>  <SCORE.INTRA.VDW.0>
-0.696801

>  <SCORE.INTRA.norm>
0.0289964

>  <SCORE.RESTR>
0

>  <SCORE.RESTR.CAVITY>
0

>  <SCORE.RESTR.norm>
0

>  <SCORE.SYSTEM>
0

>  <SCORE.SYSTEM.CONST>
0

>  <SCORE.SYSTEM.DIHEDRAL>
0

>  <SCORE.SYSTEM.SOLV>
0

>  <SCORE.SYSTEM.norm>
0

>  <SCORE.heavy>
22

>  <SCORE.norm>
-0.322454

>  <RMSD>
18.671

$$$$
ligand
 OpenBabel02271912143D
libRbt.so/2013.1/901 2013/11/27
 22 24  0  0  0  0  0  0  0  0999 V2000
   12.0260   -4.4943   19.0626 N   0  0  0  0  0  0  0  0  0  0  0  0
    9.8024   -5.3825   19.0579 N   0  0  0  0  0  0  0  0  0  0  0  0
   11.0012   -5.3082   19.6594 C   0  0  0  0  0  0  0  0  0  0  0  0
   11.2684   -5.9608   20.7838 N   0  0  0  0  0  0  0  0  0  0  0  0
    7.8958   -9.9140   21.2426 O   0  0  0  0  0  0  0  0  0  0  0  0
   10.3236   -6.7285   21.3575 C   0  0  0  0  0  0  0  0  0  0  0  0
    9.0460   -6.8407   20.7414 C   0  0  0  0  0  0  0  0  0  0  0  0
   10.6264   -7.3942   22.5240 O   0  0  0  0  0  0  0  0  0  0  0  0
    7.9295   -7.6099   21.2543 N   0  0  0  0  0  0  0  0  0  0  0  0
    6.5991   -7.0012   21.1260 C   0  0  2  0  0  0  0  0  0  0  0  0
    6.3515   -6.5677   19.7149 C   0  0  0  0  0  0  0  0  0  0  0  0
    8.8183   -6.1363   19.5857 C   0  0  0  0  0  0  0  0  0  0  0  0
    7.5541   -6.2233   18.9591 N   0  0  0  0  0  0  0  0  0  0  0  0
    6.3727   -5.7978   22.0589 C   0  0  0  0  0  0  0  0  0  0  0  0
    6.0144   -6.2509   23.3974 N   0  0  0  0  0  0  0  0  0  0  0  0
    8.5081   -5.4082   26.7399 C   0  0  0  0  0  0  0  0  0  0  0  0
    7.5571   -4.4853   26.3380 C   0  0  0  0  0  0  0  0  0  0  0  0
    6.7278   -4.7585   25.2330 C   0  0  0  0  0  0  0  0  0  0  0  0
    6.8645   -5.9539   24.5437 C   0  0  0  0  0  0  0  0  0  0  0  0
    7.8210   -6.8795   24.9500 C   0  0  0  0  0  0  0  0  0  0  0  0
    8.6415   -6.6078   26.0479 C   0  0  0  0  0  0  0  0  0  0  0  0
    8.0495   -8.8838   21.8769 C   0  0  0  0  0  0  0  0  0  0  0  0
  1  3  1  0  0  0  0
  2  3  2  0  0  0  0
  2 12  1  0  0  0  0
  3  4  1  0  0  0  0
  4  6  1  0  0  0  0
  5 22  1  0  0  0  0
  6  7  1  0  0  0  0
  6  8  2  0  0  0  0
  7 12  2  0  0  0  0
  7  9  1  0  0  0  0
  9 10  1  0  0  0  0
  9 22  1  0  0  0  0
 10 11  1  0  0  0  0
 10 14  1  1  0  0  0
 11 13  1  0  0  0  0
 12 13  1  0  0  0  0
 14 15  1  0  0  0  0
 15 19  1  0  0  0  0
 16 17  2  0  0  0  0
 16 21  1  0  0  0  0
 17 18  1  0  0  0  0
 18 19  2  0  0  0  0
 19 20  1  0  0  0  0
 20 21  2  0  0  0  0
M  END
>  <CHROM.1>
-95.58371327,-81.43052760,117.43322208,86.14040123,8.45665908,-6.45226001
22.00550033,-1.13063427,0.44395461,1.32499266

>  <Name>
ligand

>  <RI>
0

>  <Rbt.Current_Directory>
/home/itssahil/PROJECTS/Mol_Feturizer/Test_systems_manuscript/rnas/3sd3

>  <Rbt.Executable>
rbdock ($Id: //depot/dev/client3/rdock/2013.1/src/exe/rbdock.cxx#4 $)

>  <Rbt.Library>
libRbt.so (2013.1, Build901 2013/11/27)

>  <Rbt.Parameter_File>
/export/apps/rDock/src/rDock_2013.1_src/data/scripts/dock_solv.prm

>  <Rbt.Receptor>
prm/blind_docking_40.prm

>  <SCORE>
-10.3911

>  <SCORE.INTER>
-9.69912

>  <SCORE.INTER.CONST>
1

>  <SCORE.INTER.POLAR>
0

>  <SCORE.INTER.ROT>
4

>  <SCORE.INTER.SOLV>
9.19684

>  <SCORE.INTER.VDW>
-15.7984

>  <SCORE.INTER.norm>
-0.440869

>  <SCORE.INTRA>
-0.69199

>  <SCORE.INTRA.DIHEDRAL>
1.76448

>  <SCORE.INTRA.DIHEDRAL.0>
2.54655

>  <SCORE.INTRA.POLAR>
0

>  <SCORE.INTRA.POLAR.0>
0

>  <SCORE.INTRA.REPUL>
0

>  <SCORE.INTRA.REPUL.0>
0

>  <SCORE.INTRA.SOLV>
-0.479952

>  <SCORE.INTRA.SOLV.lig_0>
-56.4922

>  <SCORE.INTRA.VDW>
-1.33425

>  <SCORE.INTRA.VDW.0>
-0.696801

>  <SCORE.INTRA.norm>
-0.0314541

>  <SCORE.RESTR>
0

>  <SCORE.RESTR.CAVITY>
0

>  <SCORE.RESTR.norm>
0

>  <SCORE.SYSTEM>
0

>  <SCORE.SYSTEM.CONST>
0

>  <SCORE.SYSTEM.DIHEDRAL>
0

>  <SCORE.SYSTEM.SOLV>
0

>  <SCORE.SYSTEM.norm>
0

>  <SCORE.heavy>
22

>  <SCORE.norm>
-0.472323

>  <RMSD>
18.735

$$$$
ligand
 OpenBabel02271912143D
libRbt.so/2013.1/901 2013/11/27
 22 24  0  0  0  0  0  0  0  0999 V2000
    2.2660  -11.3687   24.9575 N   0  0  0  0  0  0  0  0  0  0  0  0
    4.2668  -10.7844   23.7792 N   0  0  0  0  0  0  0  0  0  0  0  0
    3.0796  -10.3985   24.2752 C   0  0  0  0  0  0  0  0  0  0  0  0
    2.6355   -9.1535   24.1552 N   0  0  0  0  0  0  0  0  0  0  0  0
    5.0114   -5.5427   21.7576 O   0  0  0  0  0  0  0  0  0  0  0  0
    3.3811   -8.2310   23.5193 C   0  0  0  0  0  0  0  0  0  0  0  0
    4.6386   -8.6072   22.9702 C   0  0  0  0  0  0  0  0  0  0  0  0
    2.8976   -6.9466   23.4095 O   0  0  0  0  0  0  0  0  0  0  0  0
    5.5548   -7.7200   22.2812 N   0  0  0  0  0  0  0  0  0  0  0  0
    6.9840   -7.9033   22.5651 C   0  0  2  0  0  0  0  0  0  0  0  0
    7.3790   -9.3351   22.3796 C   0  0  0  0  0  0  0  0  0  0  0  0
    5.0557   -9.9047   23.1318 C   0  0  0  0  0  0  0  0  0  0  0  0
    6.3057  -10.3014   22.6038 N   0  0  0  0  0  0  0  0  0  0  0  0
    7.4005   -7.4555   23.9777 C   0  0  0  0  0  0  0  0  0  0  0  0
    7.2244   -6.0163   24.1288 N   0  0  0  0  0  0  0  0  0  0  0  0
    8.2919   -4.0633   27.7548 C   0  0  0  0  0  0  0  0  0  0  0  0
    7.1276   -3.7065   27.0953 C   0  0  0  0  0  0  0  0  0  0  0  0
    6.7681   -4.3497   25.8952 C   0  0  0  0  0  0  0  0  0  0  0  0
    7.5823   -5.3420   25.3706 C   0  0  0  0  0  0  0  0  0  0  0  0
    8.7518   -5.6985   26.0357 C   0  0  0  0  0  0  0  0  0  0  0  0
    9.1059   -5.0608   27.2274 C   0  0  0  0  0  0  0  0  0  0  0  0
    5.1552   -6.6935   21.3804 C   0  0  0  0  0  0  0  0  0  0  0  0
  1  3  1  0  0  0  0
  2  3  2  0  0  0  0
  2 12  1  0  0  0  0
  3  4  1  0  0  0  0
  4  6  1  0  0  0  0
  5 22  1  0  0  0  0
  6  7  1  0  0  0  0
  6  8  2  0  0  0  0
  7 12  2  0  0  0  0
  7  9  1  0  0  0  0
  9 10  1  0  0  0  0
  9 22  1  0  0  0  0
 10 11  1  0  0  0  0
 10 14  1  1  0  0  0
 11 13  1  0  0  0  0
 12 13  1  0  0  0  0
 14 15  1  0  0  0  0
 15 19  1  0  0  0  0
 16 17  2  0  0  0  0
 16 21  1  0  0  0  0
 17 18  1  0  0  0  0
 18 19  2  0  0  0  0
 19 20  1  0  0  0  0
 20 21  2  0  0  0  0
M  END
>  <CHROM.1>
95.15551019,-65.00240982,-178.44018954,-138.70821958,5.69585276,-7.52753918
24.02170935,2.44990365,-0.70733575,-1.96008823

>  <Name>
ligand

>  <RI>
0

>  <Rbt.Current_Directory>
/home/itssahil/PROJECTS/Mol_Feturizer/Test_systems_manuscript/rnas/3sd3

>  <Rbt.Executable>
rbdock ($Id: //depot/dev/client3/rdock/2013.1/src/exe/rbdock.cxx#4 $)

>  <Rbt.Library>
libRbt.so (2013.1, Build901 2013/11/27)

>  <Rbt.Parameter_File>
/export/apps/rDock/src/rDock_2013.1_src/data/scripts/dock_solv.prm

>  <Rbt.Receptor>
prm/blind_docking_40.prm

>  <SCORE>
-11.8482

>  <SCORE.INTER>
-10.9711

>  <SCORE.INTER.CONST>
1

>  <SCORE.INTER.POLAR>
0

>  <SCORE.INTER.ROT>
4

>  <SCORE.INTER.SOLV>
8.74558

>  <SCORE.INTER.VDW>
-16.496

>  <SCORE.INTER.norm>
-0.498689

>  <SCORE.INTRA>
-0.877033

>  <SCORE.INTRA.DIHEDRAL>
-0.852958

>  <SCORE.INTRA.DIHEDRAL.0>
2.54655

>  <SCORE.INTRA.POLAR>
0

>  <SCORE.INTRA.POLAR.0>
0

>  <SCORE.INTRA.REPUL>
0

>  <SCORE.INTRA.REPUL.0>
0

>  <SCORE.INTRA.SOLV>
0.507839

>  <SCORE.INTRA.SOLV.lig_0>
-56.4922

>  <SCORE.INTRA.VDW>
-0.704474

>  <SCORE.INTRA.VDW.0>
-0.696801

>  <SCORE.INTRA.norm>
-0.0398652

>  <SCORE.RESTR>
0

>  <SCORE.RESTR.CAVITY>
0

>  <SCORE.RESTR.norm>
0

>  <SCORE.SYSTEM>
0

>  <SCORE.SYSTEM.CONST>
0

>  <SCORE.SYSTEM.DIHEDRAL>
0

>  <SCORE.SYSTEM.SOLV>
0

>  <SCORE.SYSTEM.norm>
0

>  <SCORE.heavy>
22

>  <SCORE.norm>
-0.538554

>  <RMSD>
18.780

$$$$
ligand
 OpenBabel02271912143D
libRbt.so/2013.1/901 2013/11/27
 22 24  0  0  0  0  0  0  0  0999 V2000
    5.8134  -12.1420   20.9121 N   0  0  0  0  0  0  0  0  0  0  0  0
    6.5580   -9.9218   20.4130 N   0  0  0  0  0  0  0  0  0  0  0  0
    5.7169  -10.7184   21.0928 C   0  0  0  0  0  0  0  0  0  0  0  0
    4.8020  -10.2338   21.9235 N   0  0  0  0  0  0  0  0  0  0  0  0
    4.2403   -5.0645   22.6078 O   0  0  0  0  0  0  0  0  0  0  0  0
    4.6947   -8.9047   22.1057 C   0  0  0  0  0  0  0  0  0  0  0  0
    5.5609   -8.0299   21.3924 C   0  0  0  0  0  0  0  0  0  0  0  0
    3.7380   -8.4282   22.9736 O   0  0  0  0  0  0  0  0  0  0  0  0
    5.5748   -6.5847   21.5042 N   0  0  0  0  0  0  0  0  0  0  0  0
    6.8939   -5.9389   21.5001 C   0  0  2  0  0  0  0  0  0  0  0  0
    7.7012   -6.3960   20.3255 C   0  0  0  0  0  0  0  0  0  0  0  0
    6.4964   -8.5833   20.5545 C   0  0  0  0  0  0  0  0  0  0  0  0
    7.3753   -7.7361   19.8415 N   0  0  0  0  0  0  0  0  0  0  0  0
    7.7091   -6.1804   22.7833 C   0  0  0  0  0  0  0  0  0  0  0  0
    6.8677   -6.0093   23.9615 N   0  0  0  0  0  0  0  0  0  0  0  0
    8.4899   -4.6439   27.6500 C   0  0  0  0  0  0  0  0  0  0  0  0
    8.9798   -5.8002   27.0663 C   0  0  0  0  0  0  0  0  0  0  0  0
    8.4478   -6.2570   25.8450 C   0  0  0  0  0  0  0  0  0  0  0  0
    7.4294   -5.5488   25.2253 C   0  0  0  0  0  0  0  0  0  0  0  0
    6.9393   -4.3870   25.8143 C   0  0  0  0  0  0  0  0  0  0  0  0
    7.4696   -3.9339   27.0249 C   0  0  0  0  0  0  0  0  0  0  0  0
    4.4103   -5.7771   21.6328 C   0  0  0  0  0  0  0  0  0  0  0  0
  1  3  1  0  0  0  0
  2  3  2  0  0  0  0
  2 12  1  0  0  0  0
  3  4  1  0  0  0  0
  4  6  1  0  0  0  0
  5 22  1  0  0  0  0
  6  7  1  0  0  0  0
  6  8  2  0  0  0  0
  7 12  2  0  0  0  0
  7  9  1  0  0  0  0
  9 10  1  0  0  0  0
  9 22  1  0  0  0  0
 10 11  1  0  0  0  0
 10 14  1  1  0  0  0
 11 13  1  0  0  0  0
 12 13  1  0  0  0  0
 14 15  1  0  0  0  0
 15 19  1  0  0  0  0
 16 17  2  0  0  0  0
 16 21  1  0  0  0  0
 17 18  1  0  0  0  0
 18 19  2  0  0  0  0
 19 20  1  0  0  0  0
 20 21  2  0  0  0  0
M  END
>  <CHROM.1>
119.74987264,-44.58287156,-150.24939639,-58.53136385,6.37603192,-7.17669234
22.81859389,-2.29643251,-1.12044847,0.17423627

>  <Name>
ligand

>  <RI>
0

>  <Rbt.Current_Directory>
/home/itssahil/PROJECTS/Mol_Feturizer/Test_systems_manuscript/rnas/3sd3

>  <Rbt.Executable>
rbdock ($Id: //depot/dev/client3/rdock/2013.1/src/exe/rbdock.cxx#4 $)

>  <Rbt.Library>
libRbt.so (2013.1, Build901 2013/11/27)

>  <Rbt.Parameter_File>
/export/apps/rDock/src/rDock_2013.1_src/data/scripts/dock_solv.prm

>  <Rbt.Receptor>
prm/blind_docking_60.prm

>  <SCORE>
-10.4341

>  <SCORE.INTER>
-10.2803

>  <SCORE.INTER.CONST>
1

>  <SCORE.INTER.POLAR>
0

>  <SCORE.INTER.ROT>
4

>  <SCORE.INTER.SOLV>
7.8886

>  <SCORE.INTER.VDW>
-15.7497

>  <SCORE.INTER.norm>
-0.467286

>  <SCORE.INTRA>
-0.153802

>  <SCORE.INTRA.DIHEDRAL>
0.502004

>  <SCORE.INTRA.DIHEDRAL.0>
2.54655

>  <SCORE.INTRA.POLAR>
0

>  <SCORE.INTRA.POLAR.0>
0

>  <SCORE.INTRA.REPUL>
0

>  <SCORE.INTRA.REPUL.0>
0

>  <SCORE.INTRA.SOLV>
0.925079

>  <SCORE.INTRA.SOLV.lig_0>
-56.4922

>  <SCORE.INTRA.VDW>
-0.867343

>  <SCORE.INTRA.VDW.0>
-0.696801

>  <SCORE.INTRA.norm>
-0.00699099

>  <SCORE.RESTR>
0

>  <SCORE.RESTR.CAVITY>
0

>  <SCORE.RESTR.norm>
0

>  <SCORE.SYSTEM>
0

>  <SCORE.SYSTEM.CONST>
0

>  <SCORE.SYSTEM.DIHEDRAL>
0

>  <SCORE.SYSTEM.SOLV>
0

>  <SCORE.SYSTEM.norm>
0

>  <SCORE.heavy>
22

>  <SCORE.norm>
-0.474277

>  <RMSD>
18.857

$$$$
ligand
 OpenBabel02271912143D
libRbt.so/2013.1/901 2013/11/27
 22 24  0  0  0  0  0  0  0  0999 V2000
    3.1196  -11.6246   23.5359 N   0  0  0  0  0  0  0  0  0  0  0  0
    4.7550  -10.3937   22.2936 N   0  0  0  0  0  0  0  0  0  0  0  0
    3.6752  -10.3743   23.0923 C   0  0  0  0  0  0  0  0  0  0  0  0
    3.1068   -9.2404   23.4834 N   0  0  0  0  0  0  0  0  0  0  0  0
    4.5290   -4.7532   22.0921 O   0  0  0  0  0  0  0  0  0  0  0  0
    3.6106   -8.0600   23.0784 C   0  0  0  0  0  0  0  0  0  0  0  0
    4.7463   -8.0426   22.2215 C   0  0  0  0  0  0  0  0  0  0  0  0
    3.0026   -6.8986   23.4992 O   0  0  0  0  0  0  0  0  0  0  0  0
    5.4075   -6.8518   21.7256 N   0  0  0  0  0  0  0  0  0  0  0  0
    6.8748   -6.8894   21.6734 C   0  0  2  0  0  0  0  0  0  0  0  0
    7.3454   -8.1096   20.9453 C   0  0  0  0  0  0  0  0  0  0  0  0
    5.3023   -9.2429   21.8559 C   0  0  0  0  0  0  0  0  0  0  0  0
    6.4371   -9.2526   21.0128 N   0  0  0  0  0  0  0  0  0  0  0  0
    7.5480   -6.8500   23.0572 C   0  0  0  0  0  0  0  0  0  0  0  0
    7.1092   -5.6777   23.8043 N   0  0  0  0  0  0  0  0  0  0  0  0
    8.4187   -5.0375   27.8014 C   0  0  0  0  0  0  0  0  0  0  0  0
    7.4836   -4.1865   27.2367 C   0  0  0  0  0  0  0  0  0  0  0  0
    7.0452   -4.3935   25.9144 C   0  0  0  0  0  0  0  0  0  0  0  0
    7.5522   -5.4509   25.1744 C   0  0  0  0  0  0  0  0  0  0  0  0
    8.4918   -6.3046   25.7447 C   0  0  0  0  0  0  0  0  0  0  0  0
    8.9240   -6.0992   27.0575 C   0  0  0  0  0  0  0  0  0  0  0  0
    4.7314   -5.6696   21.3132 C   0  0  0  0  0  0  0  0  0  0  0  0
  1  3  1  0  0  0  0
  2  3  2  0  0  0  0
  2 12  1  0  0  0  0
  3  4  1  0  0  0  0
  4  6  1  0  0  0  0
  5 22  1  0  0  0  0
  6  7  1  0  0  0  0
  6  8  2  0  0  0  0
  7 12  2  0  0  0  0
  7  9  1  0  0  0  0
  9 10  1  0  0  0  0
  9 22  1  0  0  0  0
 10 11  1  0  0  0  0
 10 14  1  1  0  0  0
 11 13  1  0  0  0  0
 12 13  1  0  0  0  0
 14 15  1  0  0  0  0
 15 19  1  0  0  0  0
 16 17  2  0  0  0  0
 16 21  1  0  0  0  0
 17 18  1  0  0  0  0
 18 19  2  0  0  0  0
 19 20  1  0  0  0  0
 20 21  2  0  0  0  0
M  END
>  <CHROM.1>
92.47015197,-55.86775799,176.77597159,-174.70007722,5.79671822,-7.26338987
23.42851305,2.81242898,-0.96135215,-1.22872424

>  <Name>
ligand

>  <RI>
0

>  <Rbt.Current_Directory>
/home/itssahil/PROJECTS/Mol_Feturizer/Test_systems_manuscript/rnas/3sd3

>  <Rbt.Executable>
rbdock ($Id: //depot/dev/client3/rdock/2013.1/src/exe/rbdock.cxx#4 $)

>  <Rbt.Library>
libRbt.so (2013.1, Build901 2013/11/27)

>  <Rbt.Parameter_File>
/export/apps/rDock/src/rDock_2013.1_src/data/scripts/dock_solv.prm

>  <Rbt.Receptor>
prm/blind_docking_60.prm

>  <SCORE>
-11.042

>  <SCORE.INTER>
-10.5954

>  <SCORE.INTER.CONST>
1

>  <SCORE.INTER.POLAR>
0

>  <SCORE.INTER.ROT>
4

>  <SCORE.INTER.SOLV>
6.36011

>  <SCORE.INTER.VDW>
-15.4503

>  <SCORE.INTER.norm>
-0.481607

>  <SCORE.INTRA>
-0.446651

>  <SCORE.INTRA.DIHEDRAL>
-0.86447

>  <SCORE.INTRA.DIHEDRAL.0>
2.54655

>  <SCORE.INTRA.POLAR>
0

>  <SCORE.INTRA.POLAR.0>
0

>  <SCORE.INTRA.REPUL>
0

>  <SCORE.INTRA.REPUL.0>
0

>  <SCORE.INTRA.SOLV>
0.676856

>  <SCORE.INTRA.SOLV.lig_0>
-56.4922

>  <SCORE.INTRA.VDW>
-0.352844

>  <SCORE.INTRA.VDW.0>
-0.696801

>  <SCORE.INTRA.norm>
-0.0203023

>  <SCORE.RESTR>
0

>  <SCORE.RESTR.CAVITY>
0

>  <SCORE.RESTR.norm>
0

>  <SCORE.SYSTEM>
0

>  <SCORE.SYSTEM.CONST>
0

>  <SCORE.SYSTEM.DIHEDRAL>
0

>  <SCORE.SYSTEM.SOLV>
0

>  <SCORE.SYSTEM.norm>
0

>  <SCORE.heavy>
22

>  <SCORE.norm>
-0.501909

>  <RMSD>
18.913

$$$$
ligand
 OpenBabel02271912143D
libRbt.so/2013.1/901 2013/11/27
 22 24  0  0  0  0  0  0  0  0999 V2000
    7.9996   -5.3407   26.5962 N   0  0  0  0  0  0  0  0  0  0  0  0
    6.7236   -5.1596   24.5783 N   0  0  0  0  0  0  0  0  0  0  0  0
    7.8503   -5.5691   25.1840 C   0  0  0  0  0  0  0  0  0  0  0  0
    8.8274   -6.1760   24.5215 N   0  0  0  0  0  0  0  0  0  0  0  0
    8.7151   -7.0279   19.5544 O   0  0  0  0  0  0  0  0  0  0  0  0
    8.7077   -6.3981   23.1996 C   0  0  0  0  0  0  0  0  0  0  0  0
    7.5331   -5.9665   22.5225 C   0  0  0  0  0  0  0  0  0  0  0  0
    9.7354   -7.0303   22.5364 O   0  0  0  0  0  0  0  0  0  0  0  0
    7.2576   -6.1563   21.1121 N   0  0  0  0  0  0  0  0  0  0  0  0
    5.8777   -6.5097   20.7547 C   0  0  2  0  0  0  0  0  0  0  0  0
    4.9108   -5.5450   21.3672 C   0  0  0  0  0  0  0  0  0  0  0  0
    6.5485   -5.3540   23.2566 C   0  0  0  0  0  0  0  0  0  0  0  0
    5.3675   -4.9243   22.6091 N   0  0  0  0  0  0  0  0  0  0  0  0
    5.4753   -7.9382   21.1633 C   0  0  0  0  0  0  0  0  0  0  0  0
    5.5871   -8.1060   22.6070 N   0  0  0  0  0  0  0  0  0  0  0  0
    3.5294  -11.2445   24.6113 C   0  0  0  0  0  0  0  0  0  0  0  0
    3.0207   -9.9568   24.6400 C   0  0  0  0  0  0  0  0  0  0  0  0
    3.6965   -8.9136   23.9778 C   0  0  0  0  0  0  0  0  0  0  0  0
    4.8755   -9.1752   23.2964 C   0  0  0  0  0  0  0  0  0  0  0  0
    5.3842  -10.4704   23.2692 C   0  0  0  0  0  0  0  0  0  0  0  0
    4.7114  -11.5046   23.9249 C   0  0  0  0  0  0  0  0  0  0  0  0
    8.2306   -6.0399   20.0802 C   0  0  0  0  0  0  0  0  0  0  0  0
  1  3  1  0  0  0  0
  2  3  2  0  0  0  0
  2 12  1  0  0  0  0
  3  4  1  0  0  0  0
  4  6  1  0  0  0  0
  5 22  1  0  0  0  0
  6  7  1  0  0  0  0
  6  8  2  0  0  0  0
  7 12  2  0  0  0  0
  7  9  1  0  0  0  0
  9 10  1  0  0  0  0
  9 22  1  0  0  0  0
 10 11  1  0  0  0  0
 10 14  1  1  0  0  0
 11 13  1  0  0  0  0
 12 13  1  0  0  0  0
 14 15  1  0  0  0  0
 15 19  1  0  0  0  0
 16 17  2  0  0  0  0
 16 21  1  0  0  0  0
 17 18  1  0  0  0  0
 18 19  2  0  0  0  0
 19 20  1  0  0  0  0
 20 21  2  0  0  0  0
M  END
>  <CHROM.1>
102.88854292,60.13024181,159.82890019,-100.73112690,6.48489477,-7.21516584
22.89575219,-0.19904236,0.83242611,1.49125553

>  <Name>
ligand

>  <RI>
0

>  <Rbt.Current_Directory>
/home/itssahil/PROJECTS/Mol_Feturizer/Test_systems_manuscript/rnas/3sd3

>  <Rbt.Executable>
rbdock ($Id: //depot/dev/client3/rdock/2013.1/src/exe/rbdock.cxx#4 $)

>  <Rbt.Library>
libRbt.so (2013.1, Build901 2013/11/27)

>  <Rbt.Parameter_File>
/export/apps/rDock/src/rDock_2013.1_src/data/scripts/dock_solv.prm

>  <Rbt.Receptor>
prm/blind_docking_100.prm

>  <SCORE>
-10.7836

>  <SCORE.INTER>
-10.3547

>  <SCORE.INTER.CONST>
1

>  <SCORE.INTER.POLAR>
0

>  <SCORE.INTER.ROT>
4

>  <SCORE.INTER.SOLV>
12.8816

>  <SCORE.INTER.VDW>
-17.4637

>  <SCORE.INTER.norm>
-0.470669

>  <SCORE.INTRA>
-0.428897

>  <SCORE.INTRA.DIHEDRAL>
-0.628221

>  <SCORE.INTRA.DIHEDRAL.0>
2.54655

>  <SCORE.INTRA.POLAR>
0

>  <SCORE.INTRA.POLAR.0>
0

>  <SCORE.INTRA.REPUL>
0

>  <SCORE.INTRA.REPUL.0>
0

>  <SCORE.INTRA.SOLV>
1.96929

>  <SCORE.INTRA.SOLV.lig_0>
-56.4922

>  <SCORE.INTRA.VDW>
-1.09943

>  <SCORE.INTRA.VDW.0>
-0.696801

>  <SCORE.INTRA.norm>
-0.0194953

>  <SCORE.RESTR>
0

>  <SCORE.RESTR.CAVITY>
0

>  <SCORE.RESTR.norm>
0

>  <SCORE.SYSTEM>
0

>  <SCORE.SYSTEM.CONST>
0

>  <SCORE.SYSTEM.DIHEDRAL>
0

>  <SCORE.SYSTEM.SOLV>
0

>  <SCORE.SYSTEM.norm>
0

>  <SCORE.heavy>
22

>  <SCORE.norm>
-0.490164

>  <RMSD>
19.014

$$$$
ligand
 OpenBabel02271912143D
libRbt.so/2013.1/901 2013/11/27
 22 24  0  0  0  0  0  0  0  0999 V2000
    7.8468   -4.7005   27.0040 N   0  0  0  0  0  0  0  0  0  0  0  0
    6.1757   -5.0792   25.3316 N   0  0  0  0  0  0  0  0  0  0  0  0
    7.4628   -5.1779   25.7027 C   0  0  0  0  0  0  0  0  0  0  0  0
    8.3885   -5.7005   24.9079 N   0  0  0  0  0  0  0  0  0  0  0  0
    6.2781   -6.2897   19.6882 O   0  0  0  0  0  0  0  0  0  0  0  0
    8.0500   -6.1518   23.6861 C   0  0  0  0  0  0  0  0  0  0  0  0
    6.6979   -6.0518   23.2546 C   0  0  0  0  0  0  0  0  0  0  0  0
    9.0292   -6.6901   22.8818 O   0  0  0  0  0  0  0  0  0  0  0  0
    6.1855   -6.5138   21.9798 N   0  0  0  0  0  0  0  0  0  0  0  0
    4.8669   -7.1603   21.9978 C   0  0  2  0  0  0  0  0  0  0  0  0
    3.8658   -6.2967   22.6996 C   0  0  0  0  0  0  0  0  0  0  0  0
    5.7784   -5.5134   24.1196 C   0  0  0  0  0  0  0  0  0  0  0  0
    4.4267   -5.4116   23.7185 N   0  0  0  0  0  0  0  0  0  0  0  0
    4.8652   -8.5522   22.6554 C   0  0  0  0  0  0  0  0  0  0  0  0
    5.7236   -9.4675   21.9136 N   0  0  0  0  0  0  0  0  0  0  0  0
    4.1204  -12.9080   19.9916 C   0  0  0  0  0  0  0  0  0  0  0  0
    4.1199  -11.6881   19.3364 C   0  0  0  0  0  0  0  0  0  0  0  0
    4.6499  -10.5456   19.9666 C   0  0  0  0  0  0  0  0  0  0  0  0
    5.1723  -10.6411   21.2475 C   0  0  0  0  0  0  0  0  0  0  0  0
    5.1716  -11.8685   21.9035 C   0  0  0  0  0  0  0  0  0  0  0  0
    4.6473  -13.0015   21.2760 C   0  0  0  0  0  0  0  0  0  0  0  0
    6.8801   -6.3952   20.7436 C   0  0  0  0  0  0  0  0  0  0  0  0
  1  3  1  0  0  0  0
  2  3  2  0  0  0  0
  2 12  1  0  0  0  0
  3  4  1  0  0  0  0
  4  6  1  0  0  0  0
  5 22  1  0  0  0  0
  6  7  1  0  0  0  0
  6  8  2  0  0  0  0
  7 12  2  0  0  0  0
  7  9  1  0  0  0  0
  9 10  1  0  0  0  0
  9 22  1  0  0  0  0
 10 11  1  0  0  0  0
 10 14  1  1  0  0  0
 11 13  1  0  0  0  0
 12 13  1  0  0  0  0
 14 15  1  0  0  0  0
 15 19  1  0  0  0  0
 16 17  2  0  0  0  0
 16 21  1  0  0  0  0
 17 18  1  0  0  0  0
 18 19  2  0  0  0  0
 19 20  1  0  0  0  0
 20 21  2  0  0  0  0
M  END
>  <CHROM.1>
-150.66955986,-62.17963128,-116.08203434,85.53969937,5.97779425,-7.68739051
22.56431639,-0.37920878,1.21539283,2.57315225

>  <Name>
ligand

>  <RI>
0

>  <Rbt.Current_Directory>
/home/itssahil/PROJECTS/Mol_Feturizer/Test_systems_manuscript/rnas/3sd3

>  <Rbt.Executable>
rbdock ($Id: //depot/dev/client3/rdock/2013.1/src/exe/rbdock.cxx#4 $)

>  <Rbt.Library>
libRbt.so (2013.1, Build901 2013/11/27)

>  <Rbt.Parameter_File>
/export/apps/rDock/src/rDock_2013.1_src/data/scripts/dock_solv.prm

>  <Rbt.Receptor>
prm/blind_docking_100.prm

>  <SCORE>
-7.60328

>  <SCORE.INTER>
-7.00894

>  <SCORE.INTER.CONST>
1

>  <SCORE.INTER.POLAR>
0

>  <SCORE.INTER.ROT>
4

>  <SCORE.INTER.SOLV>
11.9414

>  <SCORE.INTER.VDW>
-14.9198

>  <SCORE.INTER.norm>
-0.318588

>  <SCORE.INTRA>
-0.594342

>  <SCORE.INTRA.DIHEDRAL>
0.262877

>  <SCORE.INTRA.DIHEDRAL.0>
2.54655

>  <SCORE.INTRA.POLAR>
0

>  <SCORE.INTRA.POLAR.0>
0

>  <SCORE.INTRA.REPUL>
0

>  <SCORE.INTRA.REPUL.0>
0

>  <SCORE.INTRA.SOLV>
-0.0442774

>  <SCORE.INTRA.SOLV.lig_0>
-56.4922

>  <SCORE.INTRA.VDW>
-0.703642

>  <SCORE.INTRA.VDW.0>
-0.696801

>  <SCORE.INTRA.norm>
-0.0270155

>  <SCORE.RESTR>
0

>  <SCORE.RESTR.CAVITY>
0

>  <SCORE.RESTR.norm>
0

>  <SCORE.SYSTEM>
0

>  <SCORE.SYSTEM.CONST>
0

>  <SCORE.SYSTEM.DIHEDRAL>
0

>  <SCORE.SYSTEM.SOLV>
0

>  <SCORE.SYSTEM.norm>
0

>  <SCORE.heavy>
22

>  <SCORE.norm>
-0.345604

>  <RMSD>
19.016

$$$$
ligand
 OpenBabel02271912143D
libRbt.so/2013.1/901 2013/11/27
 22 24  0  0  0  0  0  0  0  0999 V2000
    2.8065  -10.7724   23.9315 N   0  0  0  0  0  0  0  0  0  0  0  0
    3.4600   -8.5053   23.5241 N   0  0  0  0  0  0  0  0  0  0  0  0
    3.8145   -9.7980   23.6102 C   0  0  0  0  0  0  0  0  0  0  0  0
    5.0624  -10.2027   23.4087 N   0  0  0  0  0  0  0  0  0  0  0  0
    8.2381   -6.2428   24.1881 O   0  0  0  0  0  0  0  0  0  0  0  0
    6.0205   -9.3067   23.1080 C   0  0  0  0  0  0  0  0  0  0  0  0
    5.6838   -7.9271   23.0208 C   0  0  0  0  0  0  0  0  0  0  0  0
    7.3068   -9.7529   22.9029 O   0  0  0  0  0  0  0  0  0  0  0  0
    6.6021   -6.8567   22.6858 N   0  0  0  0  0  0  0  0  0  0  0  0
    6.0847   -5.7987   21.8084 C   0  0  2  0  0  0  0  0  0  0  0  0
    4.7957   -5.2554   22.3411 C   0  0  0  0  0  0  0  0  0  0  0  0
    4.3766   -7.5635   23.2273 C   0  0  0  0  0  0  0  0  0  0  0  0
    4.0143   -6.2000   23.1370 N   0  0  0  0  0  0  0  0  0  0  0  0
    5.8664   -6.2488   20.3526 C   0  0  0  0  0  0  0  0  0  0  0  0
    7.1164   -6.7262   19.7738 N   0  0  0  0  0  0  0  0  0  0  0  0
   10.2050   -4.0072   18.6929 C   0  0  0  0  0  0  0  0  0  0  0  0
    9.4152   -4.5806   17.7106 C   0  0  0  0  0  0  0  0  0  0  0  0
    8.3905   -5.4807   18.0618 C   0  0  0  0  0  0  0  0  0  0  0  0
    8.1723   -5.7956   19.3944 C   0  0  0  0  0  0  0  0  0  0  0  0
    8.9676   -5.2175   20.3794 C   0  0  0  0  0  0  0  0  0  0  0  0
    9.9824   -4.3231   20.0295 C   0  0  0  0  0  0  0  0  0  0  0  0
    7.9507   -6.7848   23.1340 C   0  0  0  0  0  0  0  0  0  0  0  0
  1  3  1  0  0  0  0
  2  3  2  0  0  0  0
  2 12  1  0  0  0  0
  3  4  1  0  0  0  0
  4  6  1  0  0  0  0
  5 22  1  0  0  0  0
  6  7  1  0  0  0  0
  6  8  2  0  0  0  0
  7 12  2  0  0  0  0
  7  9  1  0  0  0  0
  9 10  1  0  0  0  0
  9 22  1  0  0  0  0
 10 11  1  0  0  0  0
 10 14  1  6  0  0  0
 11 13  1  0  0  0  0
 12 13  1  0  0  0  0
 14 15  1  0  0  0  0
 15 19  1  0  0  0  0
 16 17  2  0  0  0  0
 16 21  1  0  0  0  0
 17 18  1  0  0  0  0
 18 19  2  0  0  0  0
 19 20  1  0  0  0  0
 20 21  2  0  0  0  0
M  END
>  <CHROM.1>
-88.78374281,-58.93576173,-73.84505051,-104.10227393,6.51411556,-7.02725232
21.84105199,2.23023599,-0.03779035,2.37862793

>  <Name>
ligand

>  <RI>
0

>  <Rbt.Current_Directory>
/home/itssahil/PROJECTS/Mol_Feturizer/Test_systems_manuscript/rnas/3sd3

>  <Rbt.Executable>
rbdock ($Id: //depot/dev/client3/rdock/2013.1/src/exe/rbdock.cxx#4 $)

>  <Rbt.Library>
libRbt.so (2013.1, Build901 2013/11/27)

>  <Rbt.Parameter_File>
/export/apps/rDock/src/rDock_2013.1_src/data/scripts/dock_solv.prm

>  <Rbt.Receptor>
prm/blind_docking_60.prm

>  <SCORE>
-11.6588

>  <SCORE.INTER>
-9.92917

>  <SCORE.INTER.CONST>
1

>  <SCORE.INTER.POLAR>
0

>  <SCORE.INTER.ROT>
4

>  <SCORE.INTER.SOLV>
9.65609

>  <SCORE.INTER.VDW>
-16.1048

>  <SCORE.INTER.norm>
-0.451326

>  <SCORE.INTRA>
-1.72966

>  <SCORE.INTRA.DIHEDRAL>
-0.727222

>  <SCORE.INTRA.DIHEDRAL.0>
2.54655

>  <SCORE.INTRA.POLAR>
0

>  <SCORE.INTRA.POLAR.0>
0

>  <SCORE.INTRA.REPUL>
0

>  <SCORE.INTRA.REPUL.0>
0

>  <SCORE.INTRA.SOLV>
-0.139312

>  <SCORE.INTRA.SOLV.lig_0>
-56.4922

>  <SCORE.INTRA.VDW>
-1.29639

>  <SCORE.INTRA.VDW.0>
-0.696801

>  <SCORE.INTRA.norm>
-0.0786207

>  <SCORE.RESTR>
0

>  <SCORE.RESTR.CAVITY>
0

>  <SCORE.RESTR.norm>
0

>  <SCORE.SYSTEM>
0

>  <SCORE.SYSTEM.CONST>
0

>  <SCORE.SYSTEM.DIHEDRAL>
0

>  <SCORE.SYSTEM.SOLV>
0

>  <SCORE.SYSTEM.norm>
0

>  <SCORE.heavy>
22

>  <SCORE.norm>
-0.529947

>  <RMSD>
19.021

$$$$
ligand
 OpenBabel02271912143D
libRbt.so/2013.1/901 2013/11/27
 22 24  0  0  0  0  0  0  0  0999 V2000
    5.2225  -11.9511   20.0177 N   0  0  0  0  0  0  0  0  0  0  0  0
    6.0090   -9.7427   20.5047 N   0  0  0  0  0  0  0  0  0  0  0  0
    5.1119  -10.7137   20.7425 C   0  0  0  0  0  0  0  0  0  0  0  0
    4.1293  -10.5669   21.6227 N   0  0  0  0  0  0  0  0  0  0  0  0
    2.8568   -6.1995   22.3049 O   0  0  0  0  0  0  0  0  0  0  0  0
    4.0078   -9.4165   22.3103 C   0  0  0  0  0  0  0  0  0  0  0  0
    4.9328   -8.3612   22.0751 C   0  0  0  0  0  0  0  0  0  0  0  0
    2.9803   -9.2904   23.2181 O   0  0  0  0  0  0  0  0  0  0  0  0
    4.9381   -7.0806   22.7541 N   0  0  0  0  0  0  0  0  0  0  0  0
    6.2531   -6.5327   23.1114 C   0  0  2  0  0  0  0  0  0  0  0  0
    7.1581   -6.5141   21.9193 C   0  0  0  0  0  0  0  0  0  0  0  0
    5.9364   -8.5690   21.1624 C   0  0  0  0  0  0  0  0  0  0  0  0
    6.8741   -7.5397   20.9175 N   0  0  0  0  0  0  0  0  0  0  0  0
    6.9547   -7.2921   24.2519 C   0  0  0  0  0  0  0  0  0  0  0  0
    8.1157   -6.5464   24.7221 N   0  0  0  0  0  0  0  0  0  0  0  0
    7.6873   -3.4361   27.5933 C   0  0  0  0  0  0  0  0  0  0  0  0
    8.6991   -4.3709   27.7341 C   0  0  0  0  0  0  0  0  0  0  0  0
    8.8470   -5.4024   26.7867 C   0  0  0  0  0  0  0  0  0  0  0  0
    7.9764   -5.4841   25.7105 C   0  0  0  0  0  0  0  0  0  0  0  0
    6.9605   -4.5429   25.5716 C   0  0  0  0  0  0  0  0  0  0  0  0
    6.8165   -3.5190   26.5113 C   0  0  0  0  0  0  0  0  0  0  0  0
    3.7675   -6.3502   23.1019 C   0  0  0  0  0  0  0  0  0  0  0  0
  1  3  1  0  0  0  0
  2  3  2  0  0  0  0
  2 12  1  0  0  0  0
  3  4  1  0  0  0  0
  4  6  1  0  0  0  0
  5 22  1  0  0  0  0
  6  7  1  0  0  0  0
  6  8  2  0  0  0  0
  7 12  2  0  0  0  0
  7  9  1  0  0  0  0
  9 10  1  0  0  0  0
  9 22  1  0  0  0  0
 10 11  1  0  0  0  0
 10 14  1  1  0  0  0
 11 13  1  0  0  0  0
 12 13  1  0  0  0  0
 14 15  1  0  0  0  0
 15 19  1  0  0  0  0
 16 17  2  0  0  0  0
 16 21  1  0  0  0  0
 17 18  1  0  0  0  0
 18 19  2  0  0  0  0
 19 20  1  0  0  0  0
 20 21  2  0  0  0  0
M  END
>  <CHROM.1>
-45.76502845,-168.95037755,84.21890540,134.62394057,5.92045221,-7.31486627
23.30108314,-1.96736623,-0.12633593,0.73439760

>  <Name>
ligand

>  <RI>
0

>  <Rbt.Current_Directory>
/home/itssahil/PROJECTS/Mol_Feturizer/Test_systems_manuscript/rnas/3sd3

>  <Rbt.Executable>
rbdock ($Id: //depot/dev/client3/rdock/2013.1/src/exe/rbdock.cxx#4 $)

>  <Rbt.Library>
libRbt.so (2013.1, Build901 2013/11/27)

>  <Rbt.Parameter_File>
/export/apps/rDock/src/rDock_2013.1_src/data/scripts/dock_solv.prm

>  <Rbt.Receptor>
prm/blind_docking_60.prm

>  <SCORE>
-8.80783

>  <SCORE.INTER>
-7.98071

>  <SCORE.INTER.CONST>
1

>  <SCORE.INTER.POLAR>
0

>  <SCORE.INTER.ROT>
4

>  <SCORE.INTER.SOLV>
8.31556

>  <SCORE.INTER.VDW>
-14.359

>  <SCORE.INTER.norm>
-0.36276

>  <SCORE.INTRA>
-0.827119

>  <SCORE.INTRA.DIHEDRAL>
-0.07306

>  <SCORE.INTRA.DIHEDRAL.0>
2.54655

>  <SCORE.INTRA.POLAR>
0

>  <SCORE.INTRA.POLAR.0>
0

>  <SCORE.INTRA.REPUL>
0

>  <SCORE.INTRA.REPUL.0>
0

>  <SCORE.INTRA.SOLV>
-0.638204

>  <SCORE.INTRA.SOLV.lig_0>
-56.4922

>  <SCORE.INTRA.VDW>
-0.471487

>  <SCORE.INTRA.VDW.0>
-0.696801

>  <SCORE.INTRA.norm>
-0.0375963

>  <SCORE.RESTR>
0

>  <SCORE.RESTR.CAVITY>
0

>  <SCORE.RESTR.norm>
0

>  <SCORE.SYSTEM>
0

>  <SCORE.SYSTEM.CONST>
0

>  <SCORE.SYSTEM.DIHEDRAL>
0

>  <SCORE.SYSTEM.SOLV>
0

>  <SCORE.SYSTEM.norm>
0

>  <SCORE.heavy>
22

>  <SCORE.norm>
-0.400356

>  <RMSD>
19.048

$$$$
ligand
 OpenBabel02271912143D
libRbt.so/2013.1/901 2013/11/27
 22 24  0  0  0  0  0  0  0  0999 V2000
    0.0324  -10.5839   21.1277 N   0  0  0  0  0  0  0  0  0  0  0  0
    2.3525  -10.3973   21.6889 N   0  0  0  0  0  0  0  0  0  0  0  0
    1.4188  -10.7986   20.8107 C   0  0  0  0  0  0  0  0  0  0  0  0
    1.7351  -11.3854   19.6629 N   0  0  0  0  0  0  0  0  0  0  0  0
    6.0858  -13.5574   19.9714 O   0  0  0  0  0  0  0  0  0  0  0  0
    3.0265  -11.5964   19.3481 C   0  0  0  0  0  0  0  0  0  0  0  0
    4.0421  -11.1957   20.2604 C   0  0  0  0  0  0  0  0  0  0  0  0
    3.3274  -12.2063   18.1510 O   0  0  0  0  0  0  0  0  0  0  0  0
    5.4687  -11.3385   20.0466 N   0  0  0  0  0  0  0  0  0  0  0  0
    6.3138  -10.2223   20.4904 C   0  0  2  0  0  0  0  0  0  0  0  0
    6.0152   -9.8685   21.9138 C   0  0  0  0  0  0  0  0  0  0  0  0
    3.6612  -10.5833   21.4280 C   0  0  0  0  0  0  0  0  0  0  0  0
    4.6516  -10.1670   22.3470 N   0  0  0  0  0  0  0  0  0  0  0  0
    6.1750   -8.9552   19.6273 C   0  0  0  0  0  0  0  0  0  0  0  0
    7.0846   -7.9170   20.0963 N   0  0  0  0  0  0  0  0  0  0  0  0
    5.6162   -4.5604   22.2592 C   0  0  0  0  0  0  0  0  0  0  0  0
    6.9606   -4.8865   22.3202 C   0  0  0  0  0  0  0  0  0  0  0  0
    7.4533   -5.9958   21.6058 C   0  0  0  0  0  0  0  0  0  0  0  0
    6.5902   -6.7652   20.8405 C   0  0  0  0  0  0  0  0  0  0  0  0
    5.2395   -6.4349   20.7811 C   0  0  0  0  0  0  0  0  0  0  0  0
    4.7528   -5.3328   21.4887 C   0  0  0  0  0  0  0  0  0  0  0  0
    6.0801  -12.4652   19.4289 C   0  0  0  0  0  0  0  0  0  0  0  0
  1  3  1  0  0  0  0
  2  3  2  0  0  0  0
  2 12  1  0  0  0  0
  3  4  1  0  0  0  0
  4  6  1  0  0  0  0
  5 22  1  0  0  0  0
  6  7  1  0  0  0  0
  6  8  2  0  0  0  0
  7 12  2  0  0  0  0
  7  9  1  0  0  0  0
  9 10  1  0  0  0  0
  9 22  1  0  0  0  0
 10 11  1  0  0  0  0
 10 14  1  6  0  0  0
 11 13  1  0  0  0  0
 12 13  1  0  0  0  0
 14 15  1  0  0  0  0
 15 19  1  0  0  0  0
 16 17  2  0  0  0  0
 16 21  1  0  0  0  0
 17 18  1  0  0  0  0
 18 19  2  0  0  0  0
 19 20  1  0  0  0  0
 20 21  2  0  0  0  0
M  END
>  <CHROM.1>
-67.91134382,-177.57455413,-105.49575378,161.32243865,4.71570044,-9.57359037
20.66399623,2.04573950,-0.12809865,-2.81548574

>  <Name>
ligand

>  <RI>
0

>  <Rbt.Current_Directory>
/home/itssahil/PROJECTS/Mol_Feturizer/Test_systems_manuscript/rnas/3sd3

>  <Rbt.Executable>
rbdock ($Id: //depot/dev/client3/rdock/2013.1/src/exe/rbdock.cxx#4 $)

>  <Rbt.Library>
libRbt.so (2013.1, Build901 2013/11/27)

>  <Rbt.Parameter_File>
/export/apps/rDock/src/rDock_2013.1_src/data/scripts/dock_solv.prm

>  <Rbt.Receptor>
prm/blind_docking_60.prm

>  <SCORE>
-9.47983

>  <SCORE.INTER>
-9.13141

>  <SCORE.INTER.CONST>
1

>  <SCORE.INTER.POLAR>
0

>  <SCORE.INTER.ROT>
4

>  <SCORE.INTER.SOLV>
6.56361

>  <SCORE.INTER.VDW>
-14.5421

>  <SCORE.INTER.norm>
-0.415064

>  <SCORE.INTRA>
-0.34842

>  <SCORE.INTRA.DIHEDRAL>
0.158288

>  <SCORE.INTRA.DIHEDRAL.0>
2.54655

>  <SCORE.INTRA.POLAR>
0

>  <SCORE.INTRA.POLAR.0>
0

>  <SCORE.INTRA.REPUL>
0

>  <SCORE.INTRA.REPUL.0>
0

>  <SCORE.INTRA.SOLV>
-0.612705

>  <SCORE.INTRA.SOLV.lig_0>
-56.4922

>  <SCORE.INTRA.VDW>
-0.121211

>  <SCORE.INTRA.VDW.0>
-0.696801

>  <SCORE.INTRA.norm>
-0.0158373

>  <SCORE.RESTR>
0

>  <SCORE.RESTR.CAVITY>
0

>  <SCORE.RESTR.norm>
0

>  <SCORE.SYSTEM>
0

>  <SCORE.SYSTEM.CONST>
0

>  <SCORE.SYSTEM.DIHEDRAL>
0

>  <SCORE.SYSTEM.SOLV>
0

>  <SCORE.SYSTEM.norm>
0

>  <SCORE.heavy>
22

>  <SCORE.norm>
-0.430901

>  <RMSD>
19.056

$$$$
ligand
 OpenBabel02271912143D
libRbt.so/2013.1/901 2013/11/27
 22 24  0  0  0  0  0  0  0  0999 V2000
    4.9887  -11.8988   21.8435 N   0  0  0  0  0  0  0  0  0  0  0  0
    5.7009   -9.7916   20.9572 N   0  0  0  0  0  0  0  0  0  0  0  0
    4.9462  -10.4611   21.8440 C   0  0  0  0  0  0  0  0  0  0  0  0
    4.1645   -9.8388   22.7178 N   0  0  0  0  0  0  0  0  0  0  0  0
    3.5461   -4.9857   22.9851 O   0  0  0  0  0  0  0  0  0  0  0  0
    4.1096   -8.4943   22.7339 C   0  0  0  0  0  0  0  0  0  0  0  0
    4.8861   -7.7525   21.8004 C   0  0  0  0  0  0  0  0  0  0  0  0
    3.2915   -7.8736   23.6509 O   0  0  0  0  0  0  0  0  0  0  0  0
    4.9438   -6.3066   21.7155 N   0  0  0  0  0  0  0  0  0  0  0  0
    6.2621   -5.7170   21.4482 C   0  0  2  0  0  0  0  0  0  0  0  0
    6.8903   -6.3525   20.2475 C   0  0  0  0  0  0  0  0  0  0  0  0
    5.6858   -8.4447   20.9259 C   0  0  0  0  0  0  0  0  0  0  0  0
    6.4744   -7.7307   19.9948 N   0  0  0  0  0  0  0  0  0  0  0  0
    7.2418   -5.8210   22.6311 C   0  0  0  0  0  0  0  0  0  0  0  0
    6.6183   -5.3301   23.8539 N   0  0  0  0  0  0  0  0  0  0  0  0
    8.6346   -5.6204   27.5891 C   0  0  0  0  0  0  0  0  0  0  0  0
    7.8239   -4.5293   27.3253 C   0  0  0  0  0  0  0  0  0  0  0  0
    7.1529   -4.4276   26.0912 C   0  0  0  0  0  0  0  0  0  0  0  0
    7.3053   -5.4214   25.1364 C   0  0  0  0  0  0  0  0  0  0  0  0
    8.1207   -6.5170   25.4045 C   0  0  0  0  0  0  0  0  0  0  0  0
    8.7839   -6.6174   26.6301 C   0  0  0  0  0  0  0  0  0  0  0  0
    3.8244   -5.4457   21.8905 C   0  0  0  0  0  0  0  0  0  0  0  0
  1  3  1  0  0  0  0
  2  3  2  0  0  0  0
  2 12  1  0  0  0  0
  3  4  1  0  0  0  0
  4  6  1  0  0  0  0
  5 22  1  0  0  0  0
  6  7  1  0  0  0  0
  6  8  2  0  0  0  0
  7 12  2  0  0  0  0
  7  9  1  0  0  0  0
  9 10  1  0  0  0  0
  9 22  1  0  0  0  0
 10 11  1  0  0  0  0
 10 14  1  1  0  0  0
 11 13  1  0  0  0  0
 12 13  1  0  0  0  0
 14 15  1  0  0  0  0
 15 19  1  0  0  0  0
 16 17  2  0  0  0  0
 16 21  1  0  0  0  0
 17 18  1  0  0  0  0
 18 19  2  0  0  0  0
 19 20  1  0  0  0  0
 20 21  2  0  0  0  0
M  END
>  <CHROM.1>
91.78006503,-50.70391479,175.10583954,144.92604892,5.88366979,-7.07432001
23.06755817,-2.61497660,-1.05707206,-0.09807573

>  <Name>
ligand

>  <RI>
0

>  <Rbt.Current_Directory>
/home/itssahil/PROJECTS/Mol_Feturizer/Test_systems_manuscript/rnas/3sd3

>  <Rbt.Executable>
rbdock ($Id: //depot/dev/client3/rdock/2013.1/src/exe/rbdock.cxx#4 $)

>  <Rbt.Library>
libRbt.so (2013.1, Build901 2013/11/27)

>  <Rbt.Parameter_File>
/export/apps/rDock/src/rDock_2013.1_src/data/scripts/dock_solv.prm

>  <Rbt.Receptor>
prm/blind_docking_40.prm

>  <SCORE>
-11.6445

>  <SCORE.INTER>
-11.0383

>  <SCORE.INTER.CONST>
1

>  <SCORE.INTER.POLAR>
0

>  <SCORE.INTER.ROT>
4

>  <SCORE.INTER.SOLV>
10.2512

>  <SCORE.INTER.VDW>
-17.0426

>  <SCORE.INTER.norm>
-0.50174

>  <SCORE.INTRA>
-0.606255

>  <SCORE.INTRA.DIHEDRAL>
-0.606402

>  <SCORE.INTRA.DIHEDRAL.0>
2.54655

>  <SCORE.INTRA.POLAR>
0

>  <SCORE.INTRA.POLAR.0>
0

>  <SCORE.INTRA.REPUL>
0

>  <SCORE.INTRA.REPUL.0>
0

>  <SCORE.INTRA.SOLV>
0.816015

>  <SCORE.INTRA.SOLV.lig_0>
-56.4922

>  <SCORE.INTRA.VDW>
-0.711062

>  <SCORE.INTRA.VDW.0>
-0.696801

>  <SCORE.INTRA.norm>
-0.0275571

>  <SCORE.RESTR>
0

>  <SCORE.RESTR.CAVITY>
0

>  <SCORE.RESTR.norm>
0

>  <SCORE.SYSTEM>
0

>  <SCORE.SYSTEM.CONST>
0

>  <SCORE.SYSTEM.DIHEDRAL>
0

>  <SCORE.SYSTEM.SOLV>
0

>  <SCORE.SYSTEM.norm>
0

>  <SCORE.heavy>
22

>  <SCORE.norm>
-0.529297

>  <RMSD>
19.083

$$$$
ligand
 OpenBabel02271912143D
libRbt.so/2013.1/901 2013/11/27
 22 24  0  0  0  0  0  0  0  0999 V2000
    5.7465  -11.1619   20.1550 N   0  0  0  0  0  0  0  0  0  0  0  0
    5.8149   -8.8088   20.5924 N   0  0  0  0  0  0  0  0  0  0  0  0
    5.2801  -10.0080   20.8758 C   0  0  0  0  0  0  0  0  0  0  0  0
    4.3373  -10.1603   21.7976 N   0  0  0  0  0  0  0  0  0  0  0  0
    2.0944   -5.3677   22.6931 O   0  0  0  0  0  0  0  0  0  0  0  0
    3.8865   -9.0931   22.4824 C   0  0  0  0  0  0  0  0  0  0  0  0
    4.4213   -7.8053   22.1998 C   0  0  0  0  0  0  0  0  0  0  0  0
    2.9088   -9.2787   23.4338 O   0  0  0  0  0  0  0  0  0  0  0  0
    4.0495   -6.5747   22.8695 N   0  0  0  0  0  0  0  0  0  0  0  0
    5.1376   -5.6336   23.1648 C   0  0  2  0  0  0  0  0  0  0  0  0
    5.9423   -5.3549   21.9338 C   0  0  0  0  0  0  0  0  0  0  0  0
    5.4021   -7.7048   21.2450 C   0  0  0  0  0  0  0  0  0  0  0  0
    5.9566   -6.4377   20.9523 N   0  0  0  0  0  0  0  0  0  0  0  0
    6.0878   -6.1103   24.2781 C   0  0  0  0  0  0  0  0  0  0  0  0
    7.0710   -5.0788   24.5855 N   0  0  0  0  0  0  0  0  0  0  0  0
   10.1004   -5.7312   27.5006 C   0  0  0  0  0  0  0  0  0  0  0  0
   10.2589   -6.2272   26.2174 C   0  0  0  0  0  0  0  0  0  0  0  0
    9.2603   -6.0139   25.2475 C   0  0  0  0  0  0  0  0  0  0  0  0
    8.1140   -5.3070   25.5779 C   0  0  0  0  0  0  0  0  0  0  0  0
    7.9577   -4.8096   26.8683 C   0  0  0  0  0  0  0  0  0  0  0  0
    8.9503   -5.0203   27.8288 C   0  0  0  0  0  0  0  0  0  0  0  0
    2.7230   -6.2432   23.2638 C   0  0  0  0  0  0  0  0  0  0  0  0
  1  3  1  0  0  0  0
  2  3  2  0  0  0  0
  2 12  1  0  0  0  0
  3  4  1  0  0  0  0
  4  6  1  0  0  0  0
  5 22  1  0  0  0  0
  6  7  1  0  0  0  0
  6  8  2  0  0  0  0
  7 12  2  0  0  0  0
  7  9  1  0  0  0  0
  9 10  1  0  0  0  0
  9 22  1  0  0  0  0
 10 11  1  0  0  0  0
 10 14  1  1  0  0  0
 11 13  1  0  0  0  0
 12 13  1  0  0  0  0
 14 15  1  0  0  0  0
 15 19  1  0  0  0  0
 16 17  2  0  0  0  0
 16 21  1  0  0  0  0
 17 18  1  0  0  0  0
 18 19  2  0  0  0  0
 19 20  1  0  0  0  0
 20 21  2  0  0  0  0
M  END
>  <CHROM.1>
-109.25767669,-175.41327241,-177.90508895,80.96891962,5.83742195,-7.02113223
23.35992948,-2.29291395,-0.36503491,0.65831413

>  <Name>
ligand

>  <RI>
0

>  <Rbt.Current_Directory>
/home/itssahil/PROJECTS/Mol_Feturizer/Test_systems_manuscript/rnas/3sd3

>  <Rbt.Executable>
rbdock ($Id: //depot/dev/client3/rdock/2013.1/src/exe/rbdock.cxx#4 $)

>  <Rbt.Library>
libRbt.so (2013.1, Build901 2013/11/27)

>  <Rbt.Parameter_File>
/export/apps/rDock/src/rDock_2013.1_src/data/scripts/dock_solv.prm

>  <Rbt.Receptor>
prm/blind_docking_40.prm

>  <SCORE>
-9.2282

>  <SCORE.INTER>
-8.25032

>  <SCORE.INTER.CONST>
1

>  <SCORE.INTER.POLAR>
0

>  <SCORE.INTER.ROT>
4

>  <SCORE.INTER.SOLV>
10.8896

>  <SCORE.INTER.VDW>
-15.3967

>  <SCORE.INTER.norm>
-0.375014

>  <SCORE.INTRA>
-0.978844

>  <SCORE.INTRA.DIHEDRAL>
-0.811124

>  <SCORE.INTRA.DIHEDRAL.0>
2.54655

>  <SCORE.INTRA.POLAR>
0

>  <SCORE.INTRA.POLAR.0>
0

>  <SCORE.INTRA.REPUL>
0

>  <SCORE.INTRA.REPUL.0>
0

>  <SCORE.INTRA.SOLV>
-0.730593

>  <SCORE.INTRA.SOLV.lig_0>
-56.4922

>  <SCORE.INTRA.VDW>
-0.207985

>  <SCORE.INTRA.VDW.0>
-0.696801

>  <SCORE.INTRA.norm>
-0.0444929

>  <SCORE.RESTR>
0.000961907

>  <SCORE.RESTR.CAVITY>
0.000961907

>  <SCORE.RESTR.norm>
4.37231e-05

>  <SCORE.SYSTEM>
0

>  <SCORE.SYSTEM.CONST>
0

>  <SCORE.SYSTEM.DIHEDRAL>
0

>  <SCORE.SYSTEM.SOLV>
0

>  <SCORE.SYSTEM.norm>
0

>  <SCORE.heavy>
22

>  <SCORE.norm>
-0.419464

>  <RMSD>
19.123

$$$$
ligand
 OpenBabel02271912143D
libRbt.so/2013.1/901 2013/11/27
 22 24  0  0  0  0  0  0  0  0999 V2000
   10.2816   -5.7997   19.5570 N   0  0  0  0  0  0  0  0  0  0  0  0
    9.0476   -5.5587   21.5946 N   0  0  0  0  0  0  0  0  0  0  0  0
    9.0428   -5.8587   20.2854 C   0  0  0  0  0  0  0  0  0  0  0  0
    7.9334   -6.2067   19.6450 N   0  0  0  0  0  0  0  0  0  0  0  0
    3.8295   -4.4619   22.3800 O   0  0  0  0  0  0  0  0  0  0  0  0
    6.7639   -6.2668   20.3082 C   0  0  0  0  0  0  0  0  0  0  0  0
    6.7292   -5.9433   21.6934 C   0  0  0  0  0  0  0  0  0  0  0  0
    5.6282   -6.6313   19.6206 O   0  0  0  0  0  0  0  0  0  0  0  0
    5.5516   -5.9851   22.5375 N   0  0  0  0  0  0  0  0  0  0  0  0
    5.7377   -6.5049   23.8984 C   0  0  2  0  0  0  0  0  0  0  0  0
    6.8662   -5.7988   24.5828 C   0  0  0  0  0  0  0  0  0  0  0  0
    7.9065   -5.6006   22.3098 C   0  0  0  0  0  0  0  0  0  0  0  0
    7.9005   -5.2840   23.6876 N   0  0  0  0  0  0  0  0  0  0  0  0
    5.9973   -8.0212   23.9554 C   0  0  0  0  0  0  0  0  0  0  0  0
    4.8145   -8.7573   23.5261 N   0  0  0  0  0  0  0  0  0  0  0  0
    4.2773  -12.8407   24.5930 C   0  0  0  0  0  0  0  0  0  0  0  0
    3.4403  -11.8729   25.1226 C   0  0  0  0  0  0  0  0  0  0  0  0
    3.6121  -10.5196   24.7727 C   0  0  0  0  0  0  0  0  0  0  0  0
    4.6232  -10.1539   23.8971 C   0  0  0  0  0  0  0  0  0  0  0  0
    5.4628  -11.1288   23.3663 C   0  0  0  0  0  0  0  0  0  0  0  0
    5.2895  -12.4713   23.7128 C   0  0  0  0  0  0  0  0  0  0  0  0
    4.2521   -5.5772   22.1253 C   0  0  0  0  0  0  0  0  0  0  0  0
  1  3  1  0  0  0  0
  2  3  2  0  0  0  0
  2 12  1  0  0  0  0
  3  4  1  0  0  0  0
  4  6  1  0  0  0  0
  5 22  1  0  0  0  0
  6  7  1  0  0  0  0
  6  8  2  0  0  0  0
  7 12  2  0  0  0  0
  7  9  1  0  0  0  0
  9 10  1  0  0  0  0
  9 22  1  0  0  0  0
 10 11  1  0  0  0  0
 10 14  1  6  0  0  0
 11 13  1  0  0  0  0
 12 13  1  0  0  0  0
 14 15  1  0  0  0  0
 15 19  1  0  0  0  0
 16 17  2  0  0  0  0
 16 21  1  0  0  0  0
 17 18  1  0  0  0  0
 18 19  2  0  0  0  0
 19 20  1  0  0  0  0
 20 21  2  0  0  0  0
M  END
>  <CHROM.1>
-96.84764050,-66.74325601,-159.25308389,112.00875597,6.14666958,-7.46331103
22.54469557,-0.94962616,-0.63273160,3.00662108

>  <Name>
ligand

>  <RI>
0

>  <Rbt.Current_Directory>
/home/itssahil/PROJECTS/Mol_Feturizer/Test_systems_manuscript/rnas/3sd3

>  <Rbt.Executable>
rbdock ($Id: //depot/dev/client3/rdock/2013.1/src/exe/rbdock.cxx#4 $)

>  <Rbt.Library>
libRbt.so (2013.1, Build901 2013/11/27)

>  <Rbt.Parameter_File>
/export/apps/rDock/src/rDock_2013.1_src/data/scripts/dock_solv.prm

>  <Rbt.Receptor>
prm/blind_docking_40.prm

>  <SCORE>
-10.3456

>  <SCORE.INTER>
-9.2655

>  <SCORE.INTER.CONST>
1

>  <SCORE.INTER.POLAR>
0

>  <SCORE.INTER.ROT>
4

>  <SCORE.INTER.SOLV>
14.2359

>  <SCORE.INTER.VDW>
-17.189

>  <SCORE.INTER.norm>
-0.421159

>  <SCORE.INTRA>
-1.08015

>  <SCORE.INTRA.DIHEDRAL>
-0.41132

>  <SCORE.INTRA.DIHEDRAL.0>
2.54655

>  <SCORE.INTRA.POLAR>
0

>  <SCORE.INTRA.POLAR.0>
0

>  <SCORE.INTRA.REPUL>
0

>  <SCORE.INTRA.REPUL.0>
0

>  <SCORE.INTRA.SOLV>
-0.37757

>  <SCORE.INTRA.SOLV.lig_0>
-56.4922

>  <SCORE.INTRA.VDW>
-0.685707

>  <SCORE.INTRA.VDW.0>
-0.696801

>  <SCORE.INTRA.norm>
-0.0490978

>  <SCORE.RESTR>
0

>  <SCORE.RESTR.CAVITY>
0

>  <SCORE.RESTR.norm>
0

>  <SCORE.SYSTEM>
0

>  <SCORE.SYSTEM.CONST>
0

>  <SCORE.SYSTEM.DIHEDRAL>
0

>  <SCORE.SYSTEM.SOLV>
0

>  <SCORE.SYSTEM.norm>
0

>  <SCORE.heavy>
22

>  <SCORE.norm>
-0.470257

>  <RMSD>
19.158

$$$$
ligand
 OpenBabel02271912143D
libRbt.so/2013.1/901 2013/11/27
 22 24  0  0  0  0  0  0  0  0999 V2000
    8.2787   -5.2286   26.5132 N   0  0  0  0  0  0  0  0  0  0  0  0
    8.8490   -6.2340   24.4163 N   0  0  0  0  0  0  0  0  0  0  0  0
    7.9988   -5.4716   25.1234 C   0  0  0  0  0  0  0  0  0  0  0  0
    6.9115   -4.9375   24.5811 N   0  0  0  0  0  0  0  0  0  0  0  0
    5.7875   -5.9836   19.4184 O   0  0  0  0  0  0  0  0  0  0  0  0
    6.6310   -5.1538   23.2827 C   0  0  0  0  0  0  0  0  0  0  0  0
    7.5028   -5.9668   22.5060 C   0  0  0  0  0  0  0  0  0  0  0  0
    5.4973   -4.5874   22.7445 O   0  0  0  0  0  0  0  0  0  0  0  0
    7.3403   -6.2672   21.0973 N   0  0  0  0  0  0  0  0  0  0  0  0
    8.5632   -6.2828   20.2842 C   0  0  2  0  0  0  0  0  0  0  0  0
    9.5993   -7.1655   20.9070 C   0  0  0  0  0  0  0  0  0  0  0  0
    8.6191   -6.4857   23.1128 C   0  0  0  0  0  0  0  0  0  0  0  0
    9.5064   -7.2890   22.3604 N   0  0  0  0  0  0  0  0  0  0  0  0
    9.1756   -4.8893   20.0543 C   0  0  0  0  0  0  0  0  0  0  0  0
    9.9652   -4.8754   18.8290 N   0  0  0  0  0  0  0  0  0  0  0  0
   13.2160   -2.1686   18.3738 C   0  0  0  0  0  0  0  0  0  0  0  0
   12.7929   -2.9270   17.2952 C   0  0  0  0  0  0  0  0  0  0  0  0
   11.7169   -3.8241   17.4389 C   0  0  0  0  0  0  0  0  0  0  0  0
   11.0798   -3.9505   18.6640 C   0  0  0  0  0  0  0  0  0  0  0  0
   11.5071   -3.1868   19.7462 C   0  0  0  0  0  0  0  0  0  0  0  0
   12.5734   -2.2956   19.6013 C   0  0  0  0  0  0  0  0  0  0  0  0
    6.0895   -6.5239   20.4692 C   0  0  0  0  0  0  0  0  0  0  0  0
  1  3  1  0  0  0  0
  2  3  2  0  0  0  0
  2 12  1  0  0  0  0
  3  4  1  0  0  0  0
  4  6  1  0  0  0  0
  5 22  1  0  0  0  0
  6  7  1  0  0  0  0
  6  8  2  0  0  0  0
  7 12  2  0  0  0  0
  7  9  1  0  0  0  0
  9 10  1  0  0  0  0
  9 22  1  0  0  0  0
 10 11  1  0  0  0  0
 10 14  1  1  0  0  0
 11 13  1  0  0  0  0
 12 13  1  0  0  0  0
 14 15  1  0  0  0  0
 15 19  1  0  0  0  0
 16 17  2  0  0  0  0
 16 21  1  0  0  0  0
 17 18  1  0  0  0  0
 18 19  2  0  0  0  0
 19 20  1  0  0  0  0
 20 21  2  0  0  0  0
M  END
>  <CHROM.1>
132.92762732,-154.73595328,-152.98232097,-171.76623752,8.91970059,-5.14003253
21.26848545,-2.34441499,-0.46344400,-1.55999259

>  <Name>
ligand

>  <RI>
0

>  <Rbt.Current_Directory>
/home/itssahil/PROJECTS/Mol_Feturizer/Test_systems_manuscript/rnas/3sd3

>  <Rbt.Executable>
rbdock ($Id: //depot/dev/client3/rdock/2013.1/src/exe/rbdock.cxx#4 $)

>  <Rbt.Library>
libRbt.so (2013.1, Build901 2013/11/27)

>  <Rbt.Parameter_File>
/export/apps/rDock/src/rDock_2013.1_src/data/scripts/dock_solv.prm

>  <Rbt.Receptor>
prm/blind_docking_100.prm

>  <SCORE>
-9.8176

>  <SCORE.INTER>
-10.482

>  <SCORE.INTER.CONST>
1

>  <SCORE.INTER.POLAR>
0

>  <SCORE.INTER.ROT>
4

>  <SCORE.INTER.SOLV>
14.733

>  <SCORE.INTER.VDW>
-18.1656

>  <SCORE.INTER.norm>
-0.476452

>  <SCORE.INTRA>
0.664355

>  <SCORE.INTRA.DIHEDRAL>
1.60218

>  <SCORE.INTRA.DIHEDRAL.0>
2.54655

>  <SCORE.INTRA.POLAR>
0

>  <SCORE.INTRA.POLAR.0>
0

>  <SCORE.INTRA.REPUL>
0

>  <SCORE.INTRA.REPUL.0>
0

>  <SCORE.INTRA.SOLV>
-0.78721

>  <SCORE.INTRA.SOLV.lig_0>
-56.4922

>  <SCORE.INTRA.VDW>
0.256869

>  <SCORE.INTRA.VDW.0>
-0.696801

>  <SCORE.INTRA.norm>
0.0301979

>  <SCORE.RESTR>
0

>  <SCORE.RESTR.CAVITY>
0

>  <SCORE.RESTR.norm>
0

>  <SCORE.SYSTEM>
0

>  <SCORE.SYSTEM.CONST>
0

>  <SCORE.SYSTEM.DIHEDRAL>
0

>  <SCORE.SYSTEM.SOLV>
0

>  <SCORE.SYSTEM.norm>
0

>  <SCORE.heavy>
22

>  <SCORE.norm>
-0.446254

>  <RMSD>
19.277

$$$$
ligand
 OpenBabel02271912143D
libRbt.so/2013.1/901 2013/11/27
 22 24  0  0  0  0  0  0  0  0999 V2000
    2.5373  -11.5431   24.5247 N   0  0  0  0  0  0  0  0  0  0  0  0
    4.3714  -10.2820   23.6423 N   0  0  0  0  0  0  0  0  0  0  0  0
    3.0839  -10.3105   24.0241 C   0  0  0  0  0  0  0  0  0  0  0  0
    2.3028   -9.2396   23.9535 N   0  0  0  0  0  0  0  0  0  0  0  0
    3.7077   -4.8527   22.1533 O   0  0  0  0  0  0  0  0  0  0  0  0
    2.7947   -8.0771   23.4870 C   0  0  0  0  0  0  0  0  0  0  0  0
    4.1510   -8.0132   23.0617 C   0  0  0  0  0  0  0  0  0  0  0  0
    1.9636   -6.9812   23.4250 O   0  0  0  0  0  0  0  0  0  0  0  0
    4.8203   -6.8294   22.5600 N   0  0  0  0  0  0  0  0  0  0  0  0
    6.2082   -6.6261   22.9950 C   0  0  2  0  0  0  0  0  0  0  0  0
    7.0253   -7.8545   22.7424 C   0  0  0  0  0  0  0  0  0  0  0  0
    4.9182   -9.1464   23.1661 C   0  0  0  0  0  0  0  0  0  0  0  0
    6.2715   -9.1066   22.7592 N   0  0  0  0  0  0  0  0  0  0  0  0
    6.3450   -6.2389   24.4786 C   0  0  0  0  0  0  0  0  0  0  0  0
    7.7304   -5.9131   24.7947 N   0  0  0  0  0  0  0  0  0  0  0  0
    8.7255   -3.5110   28.1623 C   0  0  0  0  0  0  0  0  0  0  0  0
    7.5373   -3.2927   27.4855 C   0  0  0  0  0  0  0  0  0  0  0  0
    7.2015   -4.0849   26.3707 C   0  0  0  0  0  0  0  0  0  0  0  0
    8.0632   -5.0854   25.9475 C   0  0  0  0  0  0  0  0  0  0  0  0
    9.2567   -5.3026   26.6297 C   0  0  0  0  0  0  0  0  0  0  0  0
    9.5874   -4.5171   27.7370 C   0  0  0  0  0  0  0  0  0  0  0  0
    4.2162   -5.8663   21.7043 C   0  0  0  0  0  0  0  0  0  0  0  0
  1  3  1  0  0  0  0
  2  3  2  0  0  0  0
  2 12  1  0  0  0  0
  3  4  1  0  0  0  0
  4  6  1  0  0  0  0
  5 22  1  0  0  0  0
  6  7  1  0  0  0  0
  6  8  2  0  0  0  0
  7 12  2  0  0  0  0
  7  9  1  0  0  0  0
  9 10  1  0  0  0  0
  9 22  1  0  0  0  0
 10 11  1  0  0  0  0
 10 14  1  1  0  0  0
 11 13  1  0  0  0  0
 12 13  1  0  0  0  0
 14 15  1  0  0  0  0
 15 19  1  0  0  0  0
 16 17  2  0  0  0  0
 16 21  1  0  0  0  0
 17 18  1  0  0  0  0
 18 19  2  0  0  0  0
 19 20  1  0  0  0  0
 20 21  2  0  0  0  0
M  END
>  <CHROM.1>
95.37944265,-173.78275404,158.13238070,-31.98885750,5.47797627,-6.98195644
24.25182850,-2.63409499,-0.71853087,-0.23691272

>  <Name>
ligand

>  <RI>
0

>  <Rbt.Current_Directory>
/home/itssahil/PROJECTS/Mol_Feturizer/Test_systems_manuscript/rnas/3sd3

>  <Rbt.Executable>
rbdock ($Id: //depot/dev/client3/rdock/2013.1/src/exe/rbdock.cxx#4 $)

>  <Rbt.Library>
libRbt.so (2013.1, Build901 2013/11/27)

>  <Rbt.Parameter_File>
/export/apps/rDock/src/rDock_2013.1_src/data/scripts/dock_solv.prm

>  <Rbt.Receptor>
prm/blind_docking_40.prm

>  <SCORE>
-9.62979

>  <SCORE.INTER>
-9.22408

>  <SCORE.INTER.CONST>
1

>  <SCORE.INTER.POLAR>
0

>  <SCORE.INTER.ROT>
4

>  <SCORE.INTER.SOLV>
8.16023

>  <SCORE.INTER.VDW>
-15.1361

>  <SCORE.INTER.norm>
-0.419276

>  <SCORE.INTRA>
-0.408381

>  <SCORE.INTRA.DIHEDRAL>
-0.440944

>  <SCORE.INTRA.DIHEDRAL.0>
2.54655

>  <SCORE.INTRA.POLAR>
0

>  <SCORE.INTRA.POLAR.0>
0

>  <SCORE.INTRA.REPUL>
0

>  <SCORE.INTRA.REPUL.0>
0

>  <SCORE.INTRA.SOLV>
-0.455301

>  <SCORE.INTRA.SOLV.lig_0>
-56.4922

>  <SCORE.INTRA.VDW>
0.0397416

>  <SCORE.INTRA.VDW.0>
-0.696801

>  <SCORE.INTRA.norm>
-0.0185628

>  <SCORE.RESTR>
0.00267425

>  <SCORE.RESTR.CAVITY>
0.00267425

>  <SCORE.RESTR.norm>
0.000121557

>  <SCORE.SYSTEM>
0

>  <SCORE.SYSTEM.CONST>
0

>  <SCORE.SYSTEM.DIHEDRAL>
0

>  <SCORE.SYSTEM.SOLV>
0

>  <SCORE.SYSTEM.norm>
0

>  <SCORE.heavy>
22

>  <SCORE.norm>
-0.437718

>  <RMSD>
19.277

$$$$
ligand
 OpenBabel02271912143D
libRbt.so/2013.1/901 2013/11/27
 22 24  0  0  0  0  0  0  0  0999 V2000
    1.5372   -5.4946   23.3071 N   0  0  0  0  0  0  0  0  0  0  0  0
    2.9512   -7.4172   23.1143 N   0  0  0  0  0  0  0  0  0  0  0  0
    2.6758   -6.1592   22.7323 C   0  0  0  0  0  0  0  0  0  0  0  0
    3.4198   -5.5127   21.8433 N   0  0  0  0  0  0  0  0  0  0  0  0
    6.4238   -9.1976   19.1450 O   0  0  0  0  0  0  0  0  0  0  0  0
    4.4888   -6.1172   21.2929 C   0  0  0  0  0  0  0  0  0  0  0  0
    4.8032   -7.4542   21.6646 C   0  0  0  0  0  0  0  0  0  0  0  0
    5.2442   -5.4240   20.3740 O   0  0  0  0  0  0  0  0  0  0  0  0
    5.9310   -8.2206   21.1731 N   0  0  0  0  0  0  0  0  0  0  0  0
    6.6286   -9.0636   22.1527 C   0  0  2  0  0  0  0  0  0  0  0  0
    5.6576   -9.9403   22.8802 C   0  0  0  0  0  0  0  0  0  0  0  0
    4.0080   -8.0731   22.5963 C   0  0  0  0  0  0  0  0  0  0  0  0
    4.3047   -9.3982   22.9897 N   0  0  0  0  0  0  0  0  0  0  0  0
    7.4468   -8.2692   23.1867 C   0  0  0  0  0  0  0  0  0  0  0  0
    6.5933   -7.3212   23.8925 N   0  0  0  0  0  0  0  0  0  0  0  0
    8.1810   -4.6607   26.8084 C   0  0  0  0  0  0  0  0  0  0  0  0
    8.7282   -5.9236   26.6554 C   0  0  0  0  0  0  0  0  0  0  0  0
    8.2079   -6.8087   25.6914 C   0  0  0  0  0  0  0  0  0  0  0  0
    7.1436   -6.4161   24.8940 C   0  0  0  0  0  0  0  0  0  0  0  0
    6.5959   -5.1462   25.0499 C   0  0  0  0  0  0  0  0  0  0  0  0
    7.1146   -4.2685   26.0054 C   0  0  0  0  0  0  0  0  0  0  0  0
    6.4004   -8.1889   19.8301 C   0  0  0  0  0  0  0  0  0  0  0  0
  1  3  1  0  0  0  0
  2  3  2  0  0  0  0
  2 12  1  0  0  0  0
  3  4  1  0  0  0  0
  4  6  1  0  0  0  0
  5 22  1  0  0  0  0
  6  7  1  0  0  0  0
  6  8  2  0  0  0  0
  7 12  2  0  0  0  0
  7  9  1  0  0  0  0
  9 10  1  0  0  0  0
  9 22  1  0  0  0  0
 10 11  1  0  0  0  0
 10 14  1  1  0  0  0
 11 13  1  0  0  0  0
 12 13  1  0  0  0  0
 14 15  1  0  0  0  0
 15 19  1  0  0  0  0
 16 17  2  0  0  0  0
 16 21  1  0  0  0  0
 17 18  1  0  0  0  0
 18 19  2  0  0  0  0
 19 20  1  0  0  0  0
 20 21  2  0  0  0  0
M  END
>  <CHROM.1>
-119.73636965,56.75890264,-177.89945597,-33.17167525,5.62096450,-7.08198110
22.92806583,2.13031700,0.41818398,-2.25117266

>  <Name>
ligand

>  <RI>
0

>  <Rbt.Current_Directory>
/home/itssahil/PROJECTS/Mol_Feturizer/Test_systems_manuscript/rnas/3sd3

>  <Rbt.Executable>
rbdock ($Id: //depot/dev/client3/rdock/2013.1/src/exe/rbdock.cxx#4 $)

>  <Rbt.Library>
libRbt.so (2013.1, Build901 2013/11/27)

>  <Rbt.Parameter_File>
/export/apps/rDock/src/rDock_2013.1_src/data/scripts/dock_solv.prm

>  <Rbt.Receptor>
prm/blind_docking_40.prm

>  <SCORE>
-12.0311

>  <SCORE.INTER>
-11.8223

>  <SCORE.INTER.CONST>
1

>  <SCORE.INTER.POLAR>
0

>  <SCORE.INTER.ROT>
4

>  <SCORE.INTER.SOLV>
10.5417

>  <SCORE.INTER.VDW>
-17.6621

>  <SCORE.INTER.norm>
-0.537377

>  <SCORE.INTRA>
-0.208781

>  <SCORE.INTRA.DIHEDRAL>
-0.872546

>  <SCORE.INTRA.DIHEDRAL.0>
2.54655

>  <SCORE.INTRA.POLAR>
0

>  <SCORE.INTRA.POLAR.0>
0

>  <SCORE.INTRA.REPUL>
0

>  <SCORE.INTRA.REPUL.0>
0

>  <SCORE.INTRA.SOLV>
1.75011

>  <SCORE.INTRA.SOLV.lig_0>
-56.4922

>  <SCORE.INTRA.VDW>
-0.647563

>  <SCORE.INTRA.VDW.0>
-0.696801

>  <SCORE.INTRA.norm>
-0.00949003

>  <SCORE.RESTR>
0

>  <SCORE.RESTR.CAVITY>
0

>  <SCORE.RESTR.norm>
0

>  <SCORE.SYSTEM>
0

>  <SCORE.SYSTEM.CONST>
0

>  <SCORE.SYSTEM.DIHEDRAL>
0

>  <SCORE.SYSTEM.SOLV>
0

>  <SCORE.SYSTEM.norm>
0

>  <SCORE.heavy>
22

>  <SCORE.norm>
-0.546867

>  <RMSD>
19.291

$$$$
ligand
 OpenBabel02271912143D
libRbt.so/2013.1/901 2013/11/27
 22 24  0  0  0  0  0  0  0  0999 V2000
    7.9821   -7.4762   17.9212 N   0  0  0  0  0  0  0  0  0  0  0  0
    6.5355   -6.4841   19.5510 N   0  0  0  0  0  0  0  0  0  0  0  0
    7.1779   -7.5780   19.1094 C   0  0  0  0  0  0  0  0  0  0  0  0
    7.0935   -8.7463   19.7336 N   0  0  0  0  0  0  0  0  0  0  0  0
    4.2526   -9.4843   23.8716 O   0  0  0  0  0  0  0  0  0  0  0  0
    6.3455   -8.8627   20.8462 C   0  0  0  0  0  0  0  0  0  0  0  0
    5.6408   -7.7277   21.3358 C   0  0  0  0  0  0  0  0  0  0  0  0
    6.2756  -10.0856   21.4750 O   0  0  0  0  0  0  0  0  0  0  0  0
    4.8181   -7.6989   22.5289 N   0  0  0  0  0  0  0  0  0  0  0  0
    4.9119   -6.4929   23.3618 C   0  0  2  0  0  0  0  0  0  0  0  0
    4.7039   -5.2631   22.5342 C   0  0  0  0  0  0  0  0  0  0  0  0
    5.7711   -6.5409   20.6590 C   0  0  0  0  0  0  0  0  0  0  0  0
    5.0888   -5.3961   21.1305 N   0  0  0  0  0  0  0  0  0  0  0  0
    6.2471   -6.3600   24.1163 C   0  0  0  0  0  0  0  0  0  0  0  0
    6.2130   -5.2121   25.0143 N   0  0  0  0  0  0  0  0  0  0  0  0
    9.5412   -4.2222   27.4728 C   0  0  0  0  0  0  0  0  0  0  0  0
    9.6466   -5.2480   26.5486 C   0  0  0  0  0  0  0  0  0  0  0  0
    8.5489   -5.5801   25.7311 C   0  0  0  0  0  0  0  0  0  0  0  0
    7.3583   -4.8797   25.8525 C   0  0  0  0  0  0  0  0  0  0  0  0
    7.2555   -3.8491   26.7822 C   0  0  0  0  0  0  0  0  0  0  0  0
    8.3462   -3.5195   27.5910 C   0  0  0  0  0  0  0  0  0  0  0  0
    3.9584   -8.7563   22.9384 C   0  0  0  0  0  0  0  0  0  0  0  0
  1  3  1  0  0  0  0
  2  3  2  0  0  0  0
  2 12  1  0  0  0  0
  3  4  1  0  0  0  0
  4  6  1  0  0  0  0
  5 22  1  0  0  0  0
  6  7  1  0  0  0  0
  6  8  2  0  0  0  0
  7 12  2  0  0  0  0
  7  9  1  0  0  0  0
  9 10  1  0  0  0  0
  9 22  1  0  0  0  0
 10 11  1  0  0  0  0
 10 14  1  6  0  0  0
 11 13  1  0  0  0  0
 12 13  1  0  0  0  0
 14 15  1  0  0  0  0
 15 19  1  0  0  0  0
 16 17  2  0  0  0  0
 16 21  1  0  0  0  0
 17 18  1  0  0  0  0
 18 19  2  0  0  0  0
 19 20  1  0  0  0  0
 20 21  2  0  0  0  0
M  END
>  <CHROM.1>
105.47766486,-174.57848731,179.43580139,5.56316828,6.44955407,-6.71144280
22.91765449,-1.89921040,0.65276097,1.26649746

>  <Name>
ligand

>  <RI>
0

>  <Rbt.Current_Directory>
/home/itssahil/PROJECTS/Mol_Feturizer/Test_systems_manuscript/rnas/3sd3

>  <Rbt.Executable>
rbdock ($Id: //depot/dev/client3/rdock/2013.1/src/exe/rbdock.cxx#4 $)

>  <Rbt.Library>
libRbt.so (2013.1, Build901 2013/11/27)

>  <Rbt.Parameter_File>
/export/apps/rDock/src/rDock_2013.1_src/data/scripts/dock_solv.prm

>  <Rbt.Receptor>
prm/blind_docking_80.prm

>  <SCORE>
-10.146

>  <SCORE.INTER>
-9.82497

>  <SCORE.INTER.CONST>
1

>  <SCORE.INTER.POLAR>
0

>  <SCORE.INTER.ROT>
4

>  <SCORE.INTER.SOLV>
12.271

>  <SCORE.INTER.VDW>
-16.907

>  <SCORE.INTER.norm>
-0.44659

>  <SCORE.INTRA>
-0.320976

>  <SCORE.INTRA.DIHEDRAL>
-0.819051

>  <SCORE.INTRA.DIHEDRAL.0>
2.54655

>  <SCORE.INTRA.POLAR>
0

>  <SCORE.INTRA.POLAR.0>
0

>  <SCORE.INTRA.REPUL>
0

>  <SCORE.INTRA.REPUL.0>
0

>  <SCORE.INTRA.SOLV>
-0.477517

>  <SCORE.INTRA.SOLV.lig_0>
-56.4922

>  <SCORE.INTRA.VDW>
0.327308

>  <SCORE.INTRA.VDW.0>
-0.696801

>  <SCORE.INTRA.norm>
-0.0145898

>  <SCORE.RESTR>
0

>  <SCORE.RESTR.CAVITY>
0

>  <SCORE.RESTR.norm>
0

>  <SCORE.SYSTEM>
0

>  <SCORE.SYSTEM.CONST>
0

>  <SCORE.SYSTEM.DIHEDRAL>
0

>  <SCORE.SYSTEM.SOLV>
0

>  <SCORE.SYSTEM.norm>
0

>  <SCORE.heavy>
22

>  <SCORE.norm>
-0.46118

>  <RMSD>
19.363

$$$$
ligand
 OpenBabel02271912143D
libRbt.so/2013.1/901 2013/11/27
 22 24  0  0  0  0  0  0  0  0999 V2000
    5.8411  -11.7239   21.3873 N   0  0  0  0  0  0  0  0  0  0  0  0
    6.0481   -9.3425   21.2488 N   0  0  0  0  0  0  0  0  0  0  0  0
    5.3530  -10.4047   21.6877 C   0  0  0  0  0  0  0  0  0  0  0  0
    4.2328  -10.2750   22.3879 N   0  0  0  0  0  0  0  0  0  0  0  0
    2.1150   -5.9303   23.5123 O   0  0  0  0  0  0  0  0  0  0  0  0
    3.7587   -9.0495   22.6786 C   0  0  0  0  0  0  0  0  0  0  0  0
    4.4623   -7.9014   22.2190 C   0  0  0  0  0  0  0  0  0  0  0  0
    2.5952   -8.9428   23.4070 O   0  0  0  0  0  0  0  0  0  0  0  0
    4.0840   -6.5254   22.4735 N   0  0  0  0  0  0  0  0  0  0  0  0
    5.1761   -5.5879   22.7657 C   0  0  2  0  0  0  0  0  0  0  0  0
    6.2366   -5.6689   21.7125 C   0  0  0  0  0  0  0  0  0  0  0  0
    5.6211   -8.0913   21.5086 C   0  0  0  0  0  0  0  0  0  0  0  0
    6.3440   -6.9667   21.0489 N   0  0  0  0  0  0  0  0  0  0  0  0
    5.8302   -5.8040   24.1424 C   0  0  0  0  0  0  0  0  0  0  0  0
    6.7771   -4.7337   24.4304 N   0  0  0  0  0  0  0  0  0  0  0  0
    8.5713   -4.3775   28.2716 C   0  0  0  0  0  0  0  0  0  0  0  0
    7.5968   -3.4756   27.8786 C   0  0  0  0  0  0  0  0  0  0  0  0
    6.9983   -3.5885   26.6088 C   0  0  0  0  0  0  0  0  0  0  0  0
    7.3864   -4.6042   25.7483 C   0  0  0  0  0  0  0  0  0  0  0  0
    8.3659   -5.5093   26.1462 C   0  0  0  0  0  0  0  0  0  0  0  0
    8.9572   -5.3971   27.4072 C   0  0  0  0  0  0  0  0  0  0  0  0
    2.7439   -6.0471   22.4739 C   0  0  0  0  0  0  0  0  0  0  0  0
  1  3  1  0  0  0  0
  2  3  2  0  0  0  0
  2 12  1  0  0  0  0
  3  4  1  0  0  0  0
  4  6  1  0  0  0  0
  5 22  1  0  0  0  0
  6  7  1  0  0  0  0
  6  8  2  0  0  0  0
  7 12  2  0  0  0  0
  7  9  1  0  0  0  0
  9 10  1  0  0  0  0
  9 22  1  0  0  0  0
 10 11  1  0  0  0  0
 10 14  1  1  0  0  0
 11 13  1  0  0  0  0
 12 13  1  0  0  0  0
 14 15  1  0  0  0  0
 15 19  1  0  0  0  0
 16 17  2  0  0  0  0
 16 21  1  0  0  0  0
 17 18  1  0  0  0  0
 18 19  2  0  0  0  0
 19 20  1  0  0  0  0
 20 21  2  0  0  0  0
M  END
>  <CHROM.1>
96.69152362,-172.53111847,171.21756604,-107.04314504,5.57214950,-6.86770259
23.59726987,-2.06094063,-0.40363264,0.58503359

>  <Name>
ligand

>  <RI>
0

>  <Rbt.Current_Directory>
/home/itssahil/PROJECTS/Mol_Feturizer/Test_systems_manuscript/rnas/3sd3

>  <Rbt.Executable>
rbdock ($Id: //depot/dev/client3/rdock/2013.1/src/exe/rbdock.cxx#4 $)

>  <Rbt.Library>
libRbt.so (2013.1, Build901 2013/11/27)

>  <Rbt.Parameter_File>
/export/apps/rDock/src/rDock_2013.1_src/data/scripts/dock_solv.prm

>  <Rbt.Receptor>
prm/blind_docking_40.prm

>  <SCORE>
-8.47938

>  <SCORE.INTER>
-7.56636

>  <SCORE.INTER.CONST>
1

>  <SCORE.INTER.POLAR>
0

>  <SCORE.INTER.ROT>
4

>  <SCORE.INTER.SOLV>
9.91602

>  <SCORE.INTER.VDW>
-14.6162

>  <SCORE.INTER.norm>
-0.343926

>  <SCORE.INTRA>
-0.913013

>  <SCORE.INTRA.DIHEDRAL>
-0.669646

>  <SCORE.INTRA.DIHEDRAL.0>
2.54655

>  <SCORE.INTRA.POLAR>
0

>  <SCORE.INTRA.POLAR.0>
0

>  <SCORE.INTRA.REPUL>
0

>  <SCORE.INTRA.REPUL.0>
0

>  <SCORE.INTRA.SOLV>
-0.477287

>  <SCORE.INTRA.SOLV.lig_0>
-56.4922

>  <SCORE.INTRA.VDW>
-0.339546

>  <SCORE.INTRA.VDW.0>
-0.696801

>  <SCORE.INTRA.norm>
-0.0415006

>  <SCORE.RESTR>
0

>  <SCORE.RESTR.CAVITY>
0

>  <SCORE.RESTR.norm>
0

>  <SCORE.SYSTEM>
0

>  <SCORE.SYSTEM.CONST>
0

>  <SCORE.SYSTEM.DIHEDRAL>
0

>  <SCORE.SYSTEM.SOLV>
0

>  <SCORE.SYSTEM.norm>
0

>  <SCORE.heavy>
22

>  <SCORE.norm>
-0.385426

>  <RMSD>
19.511

$$$$
ligand
 OpenBabel02271912143D
libRbt.so/2013.1/901 2013/11/27
 22 24  0  0  0  0  0  0  0  0999 V2000
    1.0467   -9.3759   23.8985 N   0  0  0  0  0  0  0  0  0  0  0  0
    2.3537   -7.4310   23.4066 N   0  0  0  0  0  0  0  0  0  0  0  0
    2.3214   -8.7444   23.6860 C   0  0  0  0  0  0  0  0  0  0  0  0
    3.4260   -9.4752   23.7721 N   0  0  0  0  0  0  0  0  0  0  0  0
    7.3709   -6.4184   24.7955 O   0  0  0  0  0  0  0  0  0  0  0  0
    4.6286   -8.9032   23.5778 C   0  0  0  0  0  0  0  0  0  0  0  0
    4.7018   -7.5112   23.2923 C   0  0  0  0  0  0  0  0  0  0  0  0
    5.7587   -9.6839   23.6719 O   0  0  0  0  0  0  0  0  0  0  0  0
    5.9200   -6.7674   23.0396 N   0  0  0  0  0  0  0  0  0  0  0  0
    5.8616   -5.7530   21.9791 C   0  0  2  0  0  0  0  0  0  0  0  0
    4.7025   -4.8309   22.1947 C   0  0  0  0  0  0  0  0  0  0  0  0
    3.5289   -6.8040   23.2035 C   0  0  0  0  0  0  0  0  0  0  0  0
    3.5740   -5.4216   22.9115 N   0  0  0  0  0  0  0  0  0  0  0  0
    5.7669   -6.3413   20.5597 C   0  0  0  0  0  0  0  0  0  0  0  0
    7.0709   -6.8210   20.1187 N   0  0  0  0  0  0  0  0  0  0  0  0
   10.0316   -4.1238   18.6831 C   0  0  0  0  0  0  0  0  0  0  0  0
    9.8810   -4.3224   20.0452 C   0  0  0  0  0  0  0  0  0  0  0  0
    8.9035   -5.2145   20.5269 C   0  0  0  0  0  0  0  0  0  0  0  0
    8.0879   -5.8951   19.6357 C   0  0  0  0  0  0  0  0  0  0  0  0
    8.2417   -5.6935   18.2672 C   0  0  0  0  0  0  0  0  0  0  0  0
    9.2134   -4.8097   17.7908 C   0  0  0  0  0  0  0  0  0  0  0  0
    7.1456   -6.9727   23.7328 C   0  0  0  0  0  0  0  0  0  0  0  0
  1  3  1  0  0  0  0
  2  3  2  0  0  0  0
  2 12  1  0  0  0  0
  3  4  1  0  0  0  0
  4  6  1  0  0  0  0
  5 22  1  0  0  0  0
  6  7  1  0  0  0  0
  6  8  2  0  0  0  0
  7 12  2  0  0  0  0
  7  9  1  0  0  0  0
  9 10  1  0  0  0  0
  9 22  1  0  0  0  0
 10 11  1  0  0  0  0
 10 14  1  6  0  0  0
 11 13  1  0  0  0  0
 12 13  1  0  0  0  0
 14 15  1  0  0  0  0
 15 19  1  0  0  0  0
 16 17  2  0  0  0  0
 16 21  1  0  0  0  0
 17 18  1  0  0  0  0
 18 19  2  0  0  0  0
 19 20  1  0  0  0  0
 20 21  2  0  0  0  0
M  END
>  <CHROM.1>
-85.44096814,-77.48339196,-78.48051456,82.82422608,5.82435796,-6.75154697
22.04981307,2.38373854,0.12855210,2.08833598

>  <Name>
ligand

>  <RI>
0

>  <Rbt.Current_Directory>
/home/itssahil/PROJECTS/Mol_Feturizer/Test_systems_manuscript/rnas/3sd3

>  <Rbt.Executable>
rbdock ($Id: //depot/dev/client3/rdock/2013.1/src/exe/rbdock.cxx#4 $)

>  <Rbt.Library>
libRbt.so (2013.1, Build901 2013/11/27)

>  <Rbt.Parameter_File>
/export/apps/rDock/src/rDock_2013.1_src/data/scripts/dock_solv.prm

>  <Rbt.Receptor>
prm/blind_docking_60.prm

>  <SCORE>
-12.2056

>  <SCORE.INTER>
-11.0617

>  <SCORE.INTER.CONST>
1

>  <SCORE.INTER.POLAR>
0

>  <SCORE.INTER.ROT>
4

>  <SCORE.INTER.SOLV>
9.49114

>  <SCORE.INTER.VDW>
-16.8048

>  <SCORE.INTER.norm>
-0.502803

>  <SCORE.INTRA>
-1.14393

>  <SCORE.INTRA.DIHEDRAL>
0.374608

>  <SCORE.INTRA.DIHEDRAL.0>
2.54655

>  <SCORE.INTRA.POLAR>
0

>  <SCORE.INTRA.POLAR.0>
0

>  <SCORE.INTRA.REPUL>
0

>  <SCORE.INTRA.REPUL.0>
0

>  <SCORE.INTRA.SOLV>
-0.505294

>  <SCORE.INTRA.SOLV.lig_0>
-56.4922

>  <SCORE.INTRA.VDW>
-1.07859

>  <SCORE.INTRA.VDW.0>
-0.696801

>  <SCORE.INTRA.norm>
-0.051997

>  <SCORE.RESTR>
0

>  <SCORE.RESTR.CAVITY>
0

>  <SCORE.RESTR.norm>
0

>  <SCORE.SYSTEM>
0

>  <SCORE.SYSTEM.CONST>
0

>  <SCORE.SYSTEM.DIHEDRAL>
0

>  <SCORE.SYSTEM.SOLV>
0

>  <SCORE.SYSTEM.norm>
0

>  <SCORE.heavy>
22

>  <SCORE.norm>
-0.5548

>  <RMSD>
19.532

$$$$
ligand
 OpenBabel02271912143D
libRbt.so/2013.1/901 2013/11/27
 22 24  0  0  0  0  0  0  0  0999 V2000
    8.2736   -4.8460   27.0936 N   0  0  0  0  0  0  0  0  0  0  0  0
    6.5681   -5.2081   25.4525 N   0  0  0  0  0  0  0  0  0  0  0  0
    7.8619   -5.3147   25.7977 C   0  0  0  0  0  0  0  0  0  0  0  0
    8.7692   -5.8375   24.9821 N   0  0  0  0  0  0  0  0  0  0  0  0
    8.0348   -5.6555   20.6689 O   0  0  0  0  0  0  0  0  0  0  0  0
    8.4046   -6.2808   23.7649 C   0  0  0  0  0  0  0  0  0  0  0  0
    7.0447   -6.1723   23.3606 C   0  0  0  0  0  0  0  0  0  0  0  0
    9.3652   -6.8195   22.9387 O   0  0  0  0  0  0  0  0  0  0  0  0
    6.5052   -6.6252   22.0938 N   0  0  0  0  0  0  0  0  0  0  0  0
    5.1841   -7.2657   22.1345 C   0  0  2  0  0  0  0  0  0  0  0  0
    4.2012   -6.4011   22.8603 C   0  0  0  0  0  0  0  0  0  0  0  0
    6.1451   -5.6341   24.2464 C   0  0  0  0  0  0  0  0  0  0  0  0
    4.7861   -5.5239   23.8725 N   0  0  0  0  0  0  0  0  0  0  0  0
    5.1887   -8.6609   22.7849 C   0  0  0  0  0  0  0  0  0  0  0  0
    3.8901   -9.3031   22.6226 N   0  0  0  0  0  0  0  0  0  0  0  0
    1.1148   -9.4741   25.8429 C   0  0  0  0  0  0  0  0  0  0  0  0
    0.9895   -8.4916   24.8751 C   0  0  0  0  0  0  0  0  0  0  0  0
    1.9043   -8.4301   23.8060 C   0  0  0  0  0  0  0  0  0  0  0  0
    2.9347   -9.3542   23.7224 C   0  0  0  0  0  0  0  0  0  0  0  0
    3.0579  -10.3406   24.6965 C   0  0  0  0  0  0  0  0  0  0  0  0
    2.1482  -10.4016   25.7553 C   0  0  0  0  0  0  0  0  0  0  0  0
    7.1759   -6.5033   20.8448 C   0  0  0  0  0  0  0  0  0  0  0  0
  1  3  1  0  0  0  0
  2  3  2  0  0  0  0
  2 12  1  0  0  0  0
  3  4  1  0  0  0  0
  4  6  1  0  0  0  0
  5 22  1  0  0  0  0
  6  7  1  0  0  0  0
  6  8  2  0  0  0  0
  7 12  2  0  0  0  0
  7  9  1  0  0  0  0
  9 10  1  0  0  0  0
  9 22  1  0  0  0  0
 10 11  1  0  0  0  0
 10 14  1  1  0  0  0
 11 13  1  0  0  0  0
 12 13  1  0  0  0  0
 14 15  1  0  0  0  0
 15 19  1  0  0  0  0
 16 17  2  0  0  0  0
 16 21  1  0  0  0  0
 17 18  1  0  0  0  0
 18 19  2  0  0  0  0
 19 20  1  0  0  0  0
 20 21  2  0  0  0  0
M  END
>  <CHROM.1>
-23.75231397,-172.18179004,-102.10999604,97.73561576,5.56683199,-7.13941859
23.75375053,-0.02165849,0.55097382,1.36784097

>  <Name>
ligand

>  <RI>
0

>  <Rbt.Current_Directory>
/home/itssahil/PROJECTS/Mol_Feturizer/Test_systems_manuscript/rnas/3sd3

>  <Rbt.Executable>
rbdock ($Id: //depot/dev/client3/rdock/2013.1/src/exe/rbdock.cxx#4 $)

>  <Rbt.Library>
libRbt.so (2013.1, Build901 2013/11/27)

>  <Rbt.Parameter_File>
/export/apps/rDock/src/rDock_2013.1_src/data/scripts/dock_solv.prm

>  <Rbt.Receptor>
prm/blind_docking_60.prm

>  <SCORE>
-9.6138

>  <SCORE.INTER>
-8.82057

>  <SCORE.INTER.CONST>
1

>  <SCORE.INTER.POLAR>
0

>  <SCORE.INTER.ROT>
4

>  <SCORE.INTER.SOLV>
11.4005

>  <SCORE.INTER.VDW>
-15.9472

>  <SCORE.INTER.norm>
-0.400935

>  <SCORE.INTRA>
-0.793229

>  <SCORE.INTRA.DIHEDRAL>
0.242989

>  <SCORE.INTRA.DIHEDRAL.0>
2.54655

>  <SCORE.INTRA.POLAR>
0

>  <SCORE.INTRA.POLAR.0>
0

>  <SCORE.INTRA.REPUL>
0

>  <SCORE.INTRA.REPUL.0>
0

>  <SCORE.INTRA.SOLV>
-0.501903

>  <SCORE.INTRA.SOLV.lig_0>
-56.4922

>  <SCORE.INTRA.VDW>
-0.663771

>  <SCORE.INTRA.VDW.0>
-0.696801

>  <SCORE.INTRA.norm>
-0.0360558

>  <SCORE.RESTR>
0

>  <SCORE.RESTR.CAVITY>
0

>  <SCORE.RESTR.norm>
0

>  <SCORE.SYSTEM>
0

>  <SCORE.SYSTEM.CONST>
0

>  <SCORE.SYSTEM.DIHEDRAL>
0

>  <SCORE.SYSTEM.SOLV>
0

>  <SCORE.SYSTEM.norm>
0

>  <SCORE.heavy>
22

>  <SCORE.norm>
-0.436991

>  <RMSD>
19.774

$$$$
ligand
 OpenBabel02271912143D
libRbt.so/2013.1/901 2013/11/27
 22 24  0  0  0  0  0  0  0  0999 V2000
    2.3859  -10.7667   24.3010 N   0  0  0  0  0  0  0  0  0  0  0  0
    4.4793   -9.8540   23.5816 N   0  0  0  0  0  0  0  0  0  0  0  0
    3.1824   -9.6508   23.8662 C   0  0  0  0  0  0  0  0  0  0  0  0
    2.6149   -8.4557   23.7586 N   0  0  0  0  0  0  0  0  0  0  0  0
    4.9608   -5.6894   20.5637 O   0  0  0  0  0  0  0  0  0  0  0  0
    3.3426   -7.3990   23.3523 C   0  0  0  0  0  0  0  0  0  0  0  0
    4.7166   -7.5797   23.0302 C   0  0  0  0  0  0  0  0  0  0  0  0
    2.7299   -6.1703   23.2500 O   0  0  0  0  0  0  0  0  0  0  0  0
    5.6247   -6.5339   22.6024 N   0  0  0  0  0  0  0  0  0  0  0  0
    6.9892   -6.5880   23.1430 C   0  0  2  0  0  0  0  0  0  0  0  0
    7.5883   -7.9427   22.9279 C   0  0  0  0  0  0  0  0  0  0  0  0
    5.2567   -8.8337   23.1692 C   0  0  0  0  0  0  0  0  0  0  0  0
    6.6221   -9.0376   22.8647 N   0  0  0  0  0  0  0  0  0  0  0  0
    7.0798   -6.2403   24.6399 C   0  0  0  0  0  0  0  0  0  0  0  0
    6.5494   -4.9049   24.8859 N   0  0  0  0  0  0  0  0  0  0  0  0
    5.8294   -3.5348   28.8490 C   0  0  0  0  0  0  0  0  0  0  0  0
    4.7638   -3.8628   28.0277 C   0  0  0  0  0  0  0  0  0  0  0  0
    4.9954   -4.3179   26.7151 C   0  0  0  0  0  0  0  0  0  0  0  0
    6.2935   -4.4364   26.2423 C   0  0  0  0  0  0  0  0  0  0  0  0
    7.3624   -4.1061   27.0701 C   0  0  0  0  0  0  0  0  0  0  0  0
    7.1311   -3.6568   28.3728 C   0  0  0  0  0  0  0  0  0  0  0  0
    5.2714   -5.4726   21.7230 C   0  0  0  0  0  0  0  0  0  0  0  0
  1  3  1  0  0  0  0
  2  3  2  0  0  0  0
  2 12  1  0  0  0  0
  3  4  1  0  0  0  0
  4  6  1  0  0  0  0
  5 22  1  0  0  0  0
  6  7  1  0  0  0  0
  6  8  2  0  0  0  0
  7 12  2  0  0  0  0
  7  9  1  0  0  0  0
  9 10  1  0  0  0  0
  9 22  1  0  0  0  0
 10 11  1  0  0  0  0
 10 14  1  1  0  0  0
 11 13  1  0  0  0  0
 12 13  1  0  0  0  0
 14 15  1  0  0  0  0
 15 19  1  0  0  0  0
 16 17  2  0  0  0  0
 16 21  1  0  0  0  0
 17 18  1  0  0  0  0
 18 19  2  0  0  0  0
 19 20  1  0  0  0  0
 20 21  2  0  0  0  0
M  END
>  <CHROM.1>
-64.84559524,-58.24571659,168.54483513,-106.87021996,5.23557071,-6.64195784
24.27574026,2.00772097,-0.73217158,-2.08014142

>  <Name>
ligand

>  <RI>
0

>  <Rbt.Current_Directory>
/home/itssahil/PROJECTS/Mol_Feturizer/Test_systems_manuscript/rnas/3sd3

>  <Rbt.Executable>
rbdock ($Id: //depot/dev/client3/rdock/2013.1/src/exe/rbdock.cxx#4 $)

>  <Rbt.Library>
libRbt.so (2013.1, Build901 2013/11/27)

>  <Rbt.Parameter_File>
/export/apps/rDock/src/rDock_2013.1_src/data/scripts/dock_solv.prm

>  <Rbt.Receptor>
prm/blind_docking_60.prm

>  <SCORE>
-12.5994

>  <SCORE.INTER>
-11.1876

>  <SCORE.INTER.CONST>
1

>  <SCORE.INTER.POLAR>
0

>  <SCORE.INTER.ROT>
4

>  <SCORE.INTER.SOLV>
11.1675

>  <SCORE.INTER.VDW>
-17.4476

>  <SCORE.INTER.norm>
-0.508528

>  <SCORE.INTRA>
-1.4118

>  <SCORE.INTRA.DIHEDRAL>
-0.787139

>  <SCORE.INTRA.DIHEDRAL.0>
2.54655

>  <SCORE.INTRA.POLAR>
0

>  <SCORE.INTRA.POLAR.0>
0

>  <SCORE.INTRA.REPUL>
0

>  <SCORE.INTRA.REPUL.0>
0

>  <SCORE.INTRA.SOLV>
-0.172883

>  <SCORE.INTRA.SOLV.lig_0>
-56.4922

>  <SCORE.INTRA.VDW>
-0.931785

>  <SCORE.INTRA.VDW.0>
-0.696801

>  <SCORE.INTRA.norm>
-0.0641726

>  <SCORE.RESTR>
0

>  <SCORE.RESTR.CAVITY>
0

>  <SCORE.RESTR.norm>
0

>  <SCORE.SYSTEM>
0

>  <SCORE.SYSTEM.CONST>
0

>  <SCORE.SYSTEM.DIHEDRAL>
0

>  <SCORE.SYSTEM.SOLV>
0

>  <SCORE.SYSTEM.norm>
0

>  <SCORE.heavy>
22

>  <SCORE.norm>
-0.5727

>  <RMSD>
19.851

$$$$
ligand
 OpenBabel02271912143D
libRbt.so/2013.1/901 2013/11/27
 22 24  0  0  0  0  0  0  0  0999 V2000
    2.3112  -10.6153   24.2876 N   0  0  0  0  0  0  0  0  0  0  0  0
    4.4423   -9.7721   23.5946 N   0  0  0  0  0  0  0  0  0  0  0  0
    3.1464   -9.5289   23.8509 C   0  0  0  0  0  0  0  0  0  0  0  0
    2.6144   -8.3205   23.7138 N   0  0  0  0  0  0  0  0  0  0  0  0
    4.9286   -5.6722   20.5782 O   0  0  0  0  0  0  0  0  0  0  0  0
    3.3786   -7.2909   23.3053 C   0  0  0  0  0  0  0  0  0  0  0  0
    4.7530   -7.5143   23.0125 C   0  0  0  0  0  0  0  0  0  0  0  0
    2.8023   -6.0476   23.1721 O   0  0  0  0  0  0  0  0  0  0  0  0
    5.6977   -6.5010   22.5862 N   0  0  0  0  0  0  0  0  0  0  0  0
    7.0496   -6.5837   23.1538 C   0  0  2  0  0  0  0  0  0  0  0  0
    7.6149   -7.9577   22.9714 C   0  0  0  0  0  0  0  0  0  0  0  0
    5.2553   -8.7803   23.1815 C   0  0  0  0  0  0  0  0  0  0  0  0
    6.6200   -9.0265   22.9065 N   0  0  0  0  0  0  0  0  0  0  0  0
    7.1216   -6.2146   24.6465 C   0  0  0  0  0  0  0  0  0  0  0  0
    6.6322   -4.8582   24.8603 N   0  0  0  0  0  0  0  0  0  0  0  0
    5.7697   -3.4255   28.7724 C   0  0  0  0  0  0  0  0  0  0  0  0
    7.0771   -3.4431   28.3164 C   0  0  0  0  0  0  0  0  0  0  0  0
    7.3693   -3.9152   27.0221 C   0  0  0  0  0  0  0  0  0  0  0  0
    6.3459   -4.3656   26.2020 C   0  0  0  0  0  0  0  0  0  0  0  0
    5.0328   -4.3465   26.6631 C   0  0  0  0  0  0  0  0  0  0  0  0
    4.7444   -3.8758   27.9466 C   0  0  0  0  0  0  0  0  0  0  0  0
    5.3905   -5.4445   21.6837 C   0  0  0  0  0  0  0  0  0  0  0  0
  1  3  1  0  0  0  0
  2  3  2  0  0  0  0
  2 12  1  0  0  0  0
  3  4  1  0  0  0  0
  4  6  1  0  0  0  0
  5 22  1  0  0  0  0
  6  7  1  0  0  0  0
  6  8  2  0  0  0  0
  7 12  2  0  0  0  0
  7  9  1  0  0  0  0
  9 10  1  0  0  0  0
  9 22  1  0  0  0  0
 10 11  1  0  0  0  0
 10 14  1  1  0  0  0
 11 13  1  0  0  0  0
 12 13  1  0  0  0  0
 14 15  1  0  0  0  0
 15 19  1  0  0  0  0
 16 17  2  0  0  0  0
 16 21  1  0  0  0  0
 17 18  1  0  0  0  0
 18 19  2  0  0  0  0
 19 20  1  0  0  0  0
 20 21  2  0  0  0  0
M  END
>  <CHROM.1>
-55.13908819,-58.62206174,167.61736974,80.54005400,5.25144871,-6.57335542
24.25366247,1.99700160,-0.69412295,-2.10803170

>  <Name>
ligand

>  <RI>
0

>  <Rbt.Current_Directory>
/home/itssahil/PROJECTS/Mol_Feturizer/Test_systems_manuscript/rnas/3sd3

>  <Rbt.Executable>
rbdock ($Id: //depot/dev/client3/rdock/2013.1/src/exe/rbdock.cxx#4 $)

>  <Rbt.Library>
libRbt.so (2013.1, Build901 2013/11/27)

>  <Rbt.Parameter_File>
/export/apps/rDock/src/rDock_2013.1_src/data/scripts/dock_solv.prm

>  <Rbt.Receptor>
prm/blind_docking_60.prm

>  <SCORE>
-12.646

>  <SCORE.INTER>
-11.205

>  <SCORE.INTER.CONST>
1

>  <SCORE.INTER.POLAR>
0

>  <SCORE.INTER.ROT>
4

>  <SCORE.INTER.SOLV>
11.2837

>  <SCORE.INTER.VDW>
-17.4979

>  <SCORE.INTER.norm>
-0.509317

>  <SCORE.INTRA>
-1.44105

>  <SCORE.INTRA.DIHEDRAL>
-0.788175

>  <SCORE.INTRA.DIHEDRAL.0>
2.54655

>  <SCORE.INTRA.POLAR>
0

>  <SCORE.INTRA.POLAR.0>
0

>  <SCORE.INTRA.REPUL>
0

>  <SCORE.INTRA.REPUL.0>
0

>  <SCORE.INTRA.SOLV>
-0.138297

>  <SCORE.INTRA.SOLV.lig_0>
-56.4922

>  <SCORE.INTRA.VDW>
-0.977817

>  <SCORE.INTRA.VDW.0>
-0.696801

>  <SCORE.INTRA.norm>
-0.0655024

>  <SCORE.RESTR>
0

>  <SCORE.RESTR.CAVITY>
0

>  <SCORE.RESTR.norm>
0

>  <SCORE.SYSTEM>
0

>  <SCORE.SYSTEM.CONST>
0

>  <SCORE.SYSTEM.DIHEDRAL>
0

>  <SCORE.SYSTEM.SOLV>
0

>  <SCORE.SYSTEM.norm>
0

>  <SCORE.heavy>
22

>  <SCORE.norm>
-0.574819

>  <RMSD>
19.892

$$$$
ligand
 OpenBabel02271912143D
libRbt.so/2013.1/901 2013/11/27
 22 24  0  0  0  0  0  0  0  0999 V2000
    6.4510  -11.0740   21.2072 N   0  0  0  0  0  0  0  0  0  0  0  0
    6.9675   -8.7382   21.3087 N   0  0  0  0  0  0  0  0  0  0  0  0
    6.1008   -9.7288   21.5766 C   0  0  0  0  0  0  0  0  0  0  0  0
    4.9346   -9.5051   22.1697 N   0  0  0  0  0  0  0  0  0  0  0  0
    3.9010   -3.9626   22.1693 O   0  0  0  0  0  0  0  0  0  0  0  0
    4.5876   -8.2536   22.5223 C   0  0  0  0  0  0  0  0  0  0  0  0
    5.4757   -7.1777   22.2426 C   0  0  0  0  0  0  0  0  0  0  0  0
    3.3727   -8.0491   23.1369 O   0  0  0  0  0  0  0  0  0  0  0  0
    5.2461   -5.7875   22.5827 N   0  0  0  0  0  0  0  0  0  0  0  0
    6.4072   -5.0300   23.0677 C   0  0  2  0  0  0  0  0  0  0  0  0
    7.5600   -5.1701   22.1232 C   0  0  0  0  0  0  0  0  0  0  0  0
    6.6737   -7.4651   21.6378 C   0  0  0  0  0  0  0  0  0  0  0  0
    7.5779   -6.4151   21.3577 N   0  0  0  0  0  0  0  0  0  0  0  0
    6.8717   -5.4380   24.4774 C   0  0  0  0  0  0  0  0  0  0  0  0
    7.0129   -4.2623   25.3277 N   0  0  0  0  0  0  0  0  0  0  0  0
    5.7471   -4.3236   29.3891 C   0  0  0  0  0  0  0  0  0  0  0  0
    4.8178   -4.1394   28.3791 C   0  0  0  0  0  0  0  0  0  0  0  0
    5.2301   -4.1191   27.0327 C   0  0  0  0  0  0  0  0  0  0  0  0
    6.5703   -4.2820   26.7164 C   0  0  0  0  0  0  0  0  0  0  0  0
    7.5020   -4.4671   27.7337 C   0  0  0  0  0  0  0  0  0  0  0  0
    7.0910   -4.4892   29.0689 C   0  0  0  0  0  0  0  0  0  0  0  0
    3.9845   -5.1356   22.4924 C   0  0  0  0  0  0  0  0  0  0  0  0
  1  3  1  0  0  0  0
  2  3  2  0  0  0  0
  2 12  1  0  0  0  0
  3  4  1  0  0  0  0
  4  6  1  0  0  0  0
  5 22  1  0  0  0  0
  6  7  1  0  0  0  0
  6  8  2  0  0  0  0
  7 12  2  0  0  0  0
  7  9  1  0  0  0  0
  9 10  1  0  0  0  0
  9 22  1  0  0  0  0
 10 11  1  0  0  0  0
 10 14  1  1  0  0  0
 11 13  1  0  0  0  0
 12 13  1  0  0  0  0
 14 15  1  0  0  0  0
 15 19  1  0  0  0  0
 16 17  2  0  0  0  0
 16 21  1  0  0  0  0
 17 18  1  0  0  0  0
 18 19  2  0  0  0  0
 19 20  1  0  0  0  0
 20 21  2  0  0  0  0
M  END
>  <CHROM.1>
-145.05172191,-129.38315080,138.81826567,-79.99197407,5.87552127,-6.25496314
23.85935839,-1.80692584,-1.35953035,0.71649330

>  <Name>
ligand

>  <RI>
0

>  <Rbt.Current_Directory>
/home/itssahil/PROJECTS/Mol_Feturizer/Test_systems_manuscript/rnas/3sd3

>  <Rbt.Executable>
rbdock ($Id: //depot/dev/client3/rdock/2013.1/src/exe/rbdock.cxx#4 $)

>  <Rbt.Library>
libRbt.so (2013.1, Build901 2013/11/27)

>  <Rbt.Parameter_File>
/export/apps/rDock/src/rDock_2013.1_src/data/scripts/dock_solv.prm

>  <Rbt.Receptor>
prm/blind_docking_40.prm

>  <SCORE>
-8.63536

>  <SCORE.INTER>
-10.2094

>  <SCORE.INTER.CONST>
1

>  <SCORE.INTER.POLAR>
0

>  <SCORE.INTER.ROT>
4

>  <SCORE.INTER.SOLV>
12.2578

>  <SCORE.INTER.VDW>
-17.1589

>  <SCORE.INTER.norm>
-0.464065

>  <SCORE.INTRA>
1.57406

>  <SCORE.INTRA.DIHEDRAL>
4.90522

>  <SCORE.INTRA.DIHEDRAL.0>
2.54655

>  <SCORE.INTRA.POLAR>
0

>  <SCORE.INTRA.POLAR.0>
0

>  <SCORE.INTRA.REPUL>
0

>  <SCORE.INTRA.REPUL.0>
0

>  <SCORE.INTRA.SOLV>
-0.944489

>  <SCORE.INTRA.SOLV.lig_0>
-56.4922

>  <SCORE.INTRA.VDW>
-0.406303

>  <SCORE.INTRA.VDW.0>
-0.696801

>  <SCORE.INTRA.norm>
0.0715483

>  <SCORE.RESTR>
0

>  <SCORE.RESTR.CAVITY>
0

>  <SCORE.RESTR.norm>
0

>  <SCORE.SYSTEM>
0

>  <SCORE.SYSTEM.CONST>
0

>  <SCORE.SYSTEM.DIHEDRAL>
0

>  <SCORE.SYSTEM.SOLV>
0

>  <SCORE.SYSTEM.norm>
0

>  <SCORE.heavy>
22

>  <SCORE.norm>
-0.392516

>  <RMSD>
19.906

$$$$
ligand
 OpenBabel02271912143D
libRbt.so/2013.1/901 2013/11/27
 22 24  0  0  0  0  0  0  0  0999 V2000
    2.2271  -10.4415   24.0984 N   0  0  0  0  0  0  0  0  0  0  0  0
    4.3986   -9.6507   23.4722 N   0  0  0  0  0  0  0  0  0  0  0  0
    3.1083   -9.3701   23.7186 C   0  0  0  0  0  0  0  0  0  0  0  0
    2.6229   -8.1384   23.6226 N   0  0  0  0  0  0  0  0  0  0  0  0
    4.9681   -5.4407   20.6833 O   0  0  0  0  0  0  0  0  0  0  0  0
    3.4307   -7.1222   23.2676 C   0  0  0  0  0  0  0  0  0  0  0  0
    4.8007   -7.3845   22.9867 C   0  0  0  0  0  0  0  0  0  0  0  0
    2.9023   -5.8542   23.1761 O   0  0  0  0  0  0  0  0  0  0  0  0
    5.7885   -6.3906   22.6160 N   0  0  0  0  0  0  0  0  0  0  0  0
    7.1270   -6.5458   23.2000 C   0  0  2  0  0  0  0  0  0  0  0  0
    7.6448   -7.9314   22.9708 C   0  0  0  0  0  0  0  0  0  0  0  0
    5.2538   -8.6739   23.1119 C   0  0  0  0  0  0  0  0  0  0  0  0
    6.6130   -8.9592   22.8478 N   0  0  0  0  0  0  0  0  0  0  0  0
    7.1877   -6.2394   24.7074 C   0  0  0  0  0  0  0  0  0  0  0  0
    6.7934   -4.8595   24.9633 N   0  0  0  0  0  0  0  0  0  0  0  0
    5.5524   -3.6137   28.8374 C   0  0  0  0  0  0  0  0  0  0  0  0
    6.9009   -3.6598   28.5261 C   0  0  0  0  0  0  0  0  0  0  0  0
    7.3183   -4.0704   27.2453 C   0  0  0  0  0  0  0  0  0  0  0  0
    6.3772   -4.4314   26.2931 C   0  0  0  0  0  0  0  0  0  0  0  0
    5.0225   -4.3838   26.6088 C   0  0  0  0  0  0  0  0  0  0  0  0
    4.6100   -3.9742   27.8794 C   0  0  0  0  0  0  0  0  0  0  0  0
    5.5349   -5.2884   21.7524 C   0  0  0  0  0  0  0  0  0  0  0  0
  1  3  1  0  0  0  0
  2  3  2  0  0  0  0
  2 12  1  0  0  0  0
  3  4  1  0  0  0  0
  4  6  1  0  0  0  0
  5 22  1  0  0  0  0
  6  7  1  0  0  0  0
  6  8  2  0  0  0  0
  7 12  2  0  0  0  0
  7  9  1  0  0  0  0
  9 10  1  0  0  0  0
  9 22  1  0  0  0  0
 10 11  1  0  0  0  0
 10 14  1  1  0  0  0
 11 13  1  0  0  0  0
 12 13  1  0  0  0  0
 14 15  1  0  0  0  0
 15 19  1  0  0  0  0
 16 17  2  0  0  0  0
 16 21  1  0  0  0  0
 17 18  1  0  0  0  0
 18 19  2  0  0  0  0
 19 20  1  0  0  0  0
 20 21  2  0  0  0  0
M  END
>  <CHROM.1>
-48.16404728,-60.79139953,161.25592831,83.85018530,5.25966031,-6.51744671
24.26047472,1.96253096,-0.63402629,-2.10300207

>  <Name>
ligand

>  <RI>
0

>  <Rbt.Current_Directory>
/home/itssahil/PROJECTS/Mol_Feturizer/Test_systems_manuscript/rnas/3sd3

>  <Rbt.Executable>
rbdock ($Id: //depot/dev/client3/rdock/2013.1/src/exe/rbdock.cxx#4 $)

>  <Rbt.Library>
libRbt.so (2013.1, Build901 2013/11/27)

>  <Rbt.Parameter_File>
/export/apps/rDock/src/rDock_2013.1_src/data/scripts/dock_solv.prm

>  <Rbt.Receptor>
prm/blind_docking_40.prm

>  <SCORE>
-12.6398

>  <SCORE.INTER>
-11.2223

>  <SCORE.INTER.CONST>
1

>  <SCORE.INTER.POLAR>
0

>  <SCORE.INTER.ROT>
4

>  <SCORE.INTER.SOLV>
10.7718

>  <SCORE.INTER.VDW>
-17.3388

>  <SCORE.INTER.norm>
-0.510103

>  <SCORE.INTRA>
-1.41758

>  <SCORE.INTRA.DIHEDRAL>
-0.659777

>  <SCORE.INTRA.DIHEDRAL.0>
2.54655

>  <SCORE.INTRA.POLAR>
0

>  <SCORE.INTRA.POLAR.0>
0

>  <SCORE.INTRA.REPUL>
0

>  <SCORE.INTRA.REPUL.0>
0

>  <SCORE.INTRA.SOLV>
-0.14097

>  <SCORE.INTRA.SOLV.lig_0>
-56.4922

>  <SCORE.INTRA.VDW>
-1.01721

>  <SCORE.INTRA.VDW.0>
-0.696801

>  <SCORE.INTRA.norm>
-0.0644356

>  <SCORE.RESTR>
0

>  <SCORE.RESTR.CAVITY>
0

>  <SCORE.RESTR.norm>
0

>  <SCORE.SYSTEM>
0

>  <SCORE.SYSTEM.CONST>
0

>  <SCORE.SYSTEM.DIHEDRAL>
0

>  <SCORE.SYSTEM.SOLV>
0

>  <SCORE.SYSTEM.norm>
0

>  <SCORE.heavy>
22

>  <SCORE.norm>
-0.574538

>  <RMSD>
19.916

$$$$
ligand
 OpenBabel02271912143D
libRbt.so/2013.1/901 2013/11/27
 22 24  0  0  0  0  0  0  0  0999 V2000
    3.4511  -10.7683   24.0204 N   0  0  0  0  0  0  0  0  0  0  0  0
    5.3172   -9.2738   23.8894 N   0  0  0  0  0  0  0  0  0  0  0  0
    3.9962   -9.4669   23.7413 C   0  0  0  0  0  0  0  0  0  0  0  0
    3.1809   -8.4968   23.3465 N   0  0  0  0  0  0  0  0  0  0  0  0
    4.4542   -4.0953   22.0411 O   0  0  0  0  0  0  0  0  0  0  0  0
    3.6712   -7.2723   23.0793 C   0  0  0  0  0  0  0  0  0  0  0  0
    5.0677   -7.0348   23.2131 C   0  0  0  0  0  0  0  0  0  0  0  0
    2.8039   -6.2836   22.6722 O   0  0  0  0  0  0  0  0  0  0  0  0
    5.7312   -5.7669   22.9819 N   0  0  0  0  0  0  0  0  0  0  0  0
    6.8054   -5.4082   23.9169 C   0  0  2  0  0  0  0  0  0  0  0  0
    7.7982   -6.5225   24.0320 C   0  0  0  0  0  0  0  0  0  0  0  0
    5.8647   -8.0693   23.6353 C   0  0  0  0  0  0  0  0  0  0  0  0
    7.2542   -7.8565   23.7854 N   0  0  0  0  0  0  0  0  0  0  0  0
    6.3071   -5.0437   25.3270 C   0  0  0  0  0  0  0  0  0  0  0  0
    7.3604   -4.3778   26.0835 N   0  0  0  0  0  0  0  0  0  0  0  0
    6.5408   -0.8503   28.3165 C   0  0  0  0  0  0  0  0  0  0  0  0
    7.6134   -0.8796   27.4412 C   0  0  0  0  0  0  0  0  0  0  0  0
    7.8896   -2.0438   26.6983 C   0  0  0  0  0  0  0  0  0  0  0  0
    7.0869   -3.1650   26.8445 C   0  0  0  0  0  0  0  0  0  0  0  0
    6.0095   -3.1325   27.7249 C   0  0  0  0  0  0  0  0  0  0  0  0
    5.7356   -1.9759   28.4595 C   0  0  0  0  0  0  0  0  0  0  0  0
    5.3957   -4.8632   21.9352 C   0  0  0  0  0  0  0  0  0  0  0  0
  1  3  1  0  0  0  0
  2  3  2  0  0  0  0
  2 12  1  0  0  0  0
  3  4  1  0  0  0  0
  4  6  1  0  0  0  0
  5 22  1  0  0  0  0
  6  7  1  0  0  0  0
  6  8  2  0  0  0  0
  7 12  2  0  0  0  0
  7  9  1  0  0  0  0
  9 10  1  0  0  0  0
  9 22  1  0  0  0  0
 10 11  1  0  0  0  0
 10 14  1  1  0  0  0
 11 13  1  0  0  0  0
 12 13  1  0  0  0  0
 14 15  1  0  0  0  0
 15 19  1  0  0  0  0
 16 17  2  0  0  0  0
 16 21  1  0  0  0  0
 17 18  1  0  0  0  0
 18 19  2  0  0  0  0
 19 20  1  0  0  0  0
 20 21  2  0  0  0  0
M  END
>  <CHROM.1>
81.10878034,-165.36201718,133.80997005,-129.63721261,5.64797159,-5.65139616
24.57676913,-2.20490380,-0.98512022,0.01712780

>  <Name>
ligand

>  <RI>
0

>  <Rbt.Current_Directory>
/home/itssahil/PROJECTS/Mol_Feturizer/Test_systems_manuscript/rnas/3sd3

>  <Rbt.Executable>
rbdock ($Id: //depot/dev/client3/rdock/2013.1/src/exe/rbdock.cxx#4 $)

>  <Rbt.Library>
libRbt.so (2013.1, Build901 2013/11/27)

>  <Rbt.Parameter_File>
/export/apps/rDock/src/rDock_2013.1_src/data/scripts/dock_solv.prm

>  <Rbt.Receptor>
prm/blind_docking_40.prm

>  <SCORE>
-10.9452

>  <SCORE.INTER>
-10.8269

>  <SCORE.INTER.CONST>
1

>  <SCORE.INTER.POLAR>
0

>  <SCORE.INTER.ROT>
4

>  <SCORE.INTER.SOLV>
15.0934

>  <SCORE.INTER.VDW>
-18.5157

>  <SCORE.INTER.norm>
-0.49213

>  <SCORE.INTRA>
-0.118397

>  <SCORE.INTRA.DIHEDRAL>
0.858249

>  <SCORE.INTRA.DIHEDRAL.0>
2.54655

>  <SCORE.INTRA.POLAR>
0

>  <SCORE.INTRA.POLAR.0>
0

>  <SCORE.INTRA.REPUL>
0

>  <SCORE.INTRA.REPUL.0>
0

>  <SCORE.INTRA.SOLV>
-0.519361

>  <SCORE.INTRA.SOLV.lig_0>
-56.4922

>  <SCORE.INTRA.VDW>
-0.28784

>  <SCORE.INTRA.VDW.0>
-0.696801

>  <SCORE.INTRA.norm>
-0.00538167

>  <SCORE.RESTR>
0

>  <SCORE.RESTR.CAVITY>
0

>  <SCORE.RESTR.norm>
0

>  <SCORE.SYSTEM>
0

>  <SCORE.SYSTEM.CONST>
0

>  <SCORE.SYSTEM.DIHEDRAL>
0

>  <SCORE.SYSTEM.SOLV>
0

>  <SCORE.SYSTEM.norm>
0

>  <SCORE.heavy>
22

>  <SCORE.norm>
-0.497511

>  <RMSD>
20.397

$$$$
ligand
 OpenBabel02271912143D
libRbt.so/2013.1/901 2013/11/27
 22 24  0  0  0  0  0  0  0  0999 V2000
    6.2486    2.2578   27.7540 N   0  0  0  0  0  0  0  0  0  0  0  0
    7.3843    0.1673   28.0238 N   0  0  0  0  0  0  0  0  0  0  0  0
    6.2239    0.8437   28.0159 C   0  0  0  0  0  0  0  0  0  0  0  0
    5.0588    0.2494   28.2419 N   0  0  0  0  0  0  0  0  0  0  0  0
    4.9966   -3.4050   30.6241 O   0  0  0  0  0  0  0  0  0  0  0  0
    5.0143   -1.0726   28.4901 C   0  0  0  0  0  0  0  0  0  0  0  0
    6.2253   -1.8189   28.5187 C   0  0  0  0  0  0  0  0  0  0  0  0
    3.7928   -1.6646   28.7204 O   0  0  0  0  0  0  0  0  0  0  0  0
    6.3285   -3.2461   28.7503 N   0  0  0  0  0  0  0  0  0  0  0  0
    7.3118   -3.9735   27.9373 C   0  0  2  0  0  0  0  0  0  0  0  0
    8.6539   -3.3161   28.0199 C   0  0  0  0  0  0  0  0  0  0  0  0
    7.4015   -1.1577   28.2675 C   0  0  0  0  0  0  0  0  0  0  0  0
    8.6177   -1.8784   28.2806 N   0  0  0  0  0  0  0  0  0  0  0  0
    6.9177   -4.1063   26.4552 C   0  0  0  0  0  0  0  0  0  0  0  0
    7.7011   -5.1535   25.8113 N   0  0  0  0  0  0  0  0  0  0  0  0
    7.5414   -5.7718   21.6049 C   0  0  0  0  0  0  0  0  0  0  0  0
    6.7638   -4.7852   22.1877 C   0  0  0  0  0  0  0  0  0  0  0  0
    6.8127   -4.5748   23.5794 C   0  0  0  0  0  0  0  0  0  0  0  0
    7.6402   -5.3584   24.3694 C   0  0  0  0  0  0  0  0  0  0  0  0
    8.4206   -6.3490   23.7808 C   0  0  0  0  0  0  0  0  0  0  0  0
    8.3725   -6.5551   22.3997 C   0  0  0  0  0  0  0  0  0  0  0  0
    5.5362   -3.9679   29.6863 C   0  0  0  0  0  0  0  0  0  0  0  0
  1  3  1  0  0  0  0
  2  3  2  0  0  0  0
  2 12  1  0  0  0  0
  3  4  1  0  0  0  0
  4  6  1  0  0  0  0
  5 22  1  0  0  0  0
  6  7  1  0  0  0  0
  6  8  2  0  0  0  0
  7 12  2  0  0  0  0
  7  9  1  0  0  0  0
  9 10  1  0  0  0  0
  9 22  1  0  0  0  0
 10 11  1  0  0  0  0
 10 14  1  6  0  0  0
 11 13  1  0  0  0  0
 12 13  1  0  0  0  0
 14 15  1  0  0  0  0
 15 19  1  0  0  0  0
 16 17  2  0  0  0  0
 16 21  1  0  0  0  0
 17 18  1  0  0  0  0
 18 19  2  0  0  0  0
 19 20  1  0  0  0  0
 20 21  2  0  0  0  0
M  END
>  <CHROM.1>
-21.71923922,-162.84279553,-171.99304181,-1.24447061,6.71824106,-2.87969264
26.94685172,-2.66598713,-1.29022508,2.90283698

>  <Name>
ligand

>  <RI>
0

>  <Rbt.Current_Directory>
/home/itssahil/PROJECTS/Mol_Feturizer/Test_systems_manuscript/rnas/3sd3

>  <Rbt.Executable>
rbdock ($Id: //depot/dev/client3/rdock/2013.1/src/exe/rbdock.cxx#4 $)

>  <Rbt.Library>
libRbt.so (2013.1, Build901 2013/11/27)

>  <Rbt.Parameter_File>
/export/apps/rDock/src/rDock_2013.1_src/data/scripts/dock_solv.prm

>  <Rbt.Receptor>
prm/blind_docking_60.prm

>  <SCORE>
-9.50604

>  <SCORE.INTER>
-9.44407

>  <SCORE.INTER.CONST>
1

>  <SCORE.INTER.POLAR>
0

>  <SCORE.INTER.ROT>
4

>  <SCORE.INTER.SOLV>
7.59433

>  <SCORE.INTER.VDW>
-15.0942

>  <SCORE.INTER.norm>
-0.429276

>  <SCORE.INTRA>
-0.0619745

>  <SCORE.INTRA.DIHEDRAL>
0.11632

>  <SCORE.INTRA.DIHEDRAL.0>
2.54655

>  <SCORE.INTRA.POLAR>
0

>  <SCORE.INTRA.POLAR.0>
0

>  <SCORE.INTRA.REPUL>
0

>  <SCORE.INTRA.REPUL.0>
0

>  <SCORE.INTRA.SOLV>
-0.632328

>  <SCORE.INTRA.SOLV.lig_0>
-56.4922

>  <SCORE.INTRA.VDW>
0.196029

>  <SCORE.INTRA.VDW.0>
-0.696801

>  <SCORE.INTRA.norm>
-0.00281702

>  <SCORE.RESTR>
0

>  <SCORE.RESTR.CAVITY>
0

>  <SCORE.RESTR.norm>
0

>  <SCORE.SYSTEM>
0

>  <SCORE.SYSTEM.CONST>
0

>  <SCORE.SYSTEM.DIHEDRAL>
0

>  <SCORE.SYSTEM.SOLV>
0

>  <SCORE.SYSTEM.norm>
0

>  <SCORE.heavy>
22

>  <SCORE.norm>
-0.432093

>  <RMSD>
21.786

$$$$
ligand
 OpenBabel02271912143D
libRbt.so/2013.1/901 2013/11/27
 22 24  0  0  0  0  0  0  0  0999 V2000
    6.3065    2.3153   27.7915 N   0  0  0  0  0  0  0  0  0  0  0  0
    7.4320    0.2072   27.9395 N   0  0  0  0  0  0  0  0  0  0  0  0
    6.2858    0.8996   28.0446 C   0  0  0  0  0  0  0  0  0  0  0  0
    5.1383    0.3195   28.3741 N   0  0  0  0  0  0  0  0  0  0  0  0
    6.2074   -4.8367   30.3452 O   0  0  0  0  0  0  0  0  0  0  0  0
    5.0980   -1.0037   28.6160 C   0  0  0  0  0  0  0  0  0  0  0  0
    6.2955   -1.7669   28.5264 C   0  0  0  0  0  0  0  0  0  0  0  0
    3.8948   -1.5808   28.9551 O   0  0  0  0  0  0  0  0  0  0  0  0
    6.3991   -3.1972   28.7373 N   0  0  0  0  0  0  0  0  0  0  0  0
    7.2918   -3.9313   27.8311 C   0  0  2  0  0  0  0  0  0  0  0  0
    8.6452   -3.2931   27.7929 C   0  0  0  0  0  0  0  0  0  0  0  0
    7.4526   -1.1199   28.1712 C   0  0  0  0  0  0  0  0  0  0  0  0
    8.6542   -1.8573   28.0659 N   0  0  0  0  0  0  0  0  0  0  0  0
    6.7595   -4.0463   26.3913 C   0  0  0  0  0  0  0  0  0  0  0  0
    7.5864   -4.9610   25.6137 N   0  0  0  0  0  0  0  0  0  0  0  0
    6.1985   -6.5976   21.9399 C   0  0  0  0  0  0  0  0  0  0  0  0
    6.5817   -5.2683   22.0025 C   0  0  0  0  0  0  0  0  0  0  0  0
    7.0429   -4.7207   23.2153 C   0  0  0  0  0  0  0  0  0  0  0  0
    7.1122   -5.5134   24.3508 C   0  0  0  0  0  0  0  0  0  0  0  0
    6.7266   -6.8490   24.2848 C   0  0  0  0  0  0  0  0  0  0  0  0
    6.2713   -7.3914   23.0803 C   0  0  0  0  0  0  0  0  0  0  0  0
    5.6871   -3.9158   29.7381 C   0  0  0  0  0  0  0  0  0  0  0  0
  1  3  1  0  0  0  0
  2  3  2  0  0  0  0
  2 12  1  0  0  0  0
  3  4  1  0  0  0  0
  4  6  1  0  0  0  0
  5 22  1  0  0  0  0
  6  7  1  0  0  0  0
  6  8  2  0  0  0  0
  7 12  2  0  0  0  0
  7  9  1  0  0  0  0
  9 10  1  0  0  0  0
  9 22  1  0  0  0  0
 10 11  1  0  0  0  0
 10 14  1  6  0  0  0
 11 13  1  0  0  0  0
 12 13  1  0  0  0  0
 14 15  1  0  0  0  0
 15 19  1  0  0  0  0
 16 17  2  0  0  0  0
 16 21  1  0  0  0  0
 17 18  1  0  0  0  0
 18 19  2  0  0  0  0
 19 20  1  0  0  0  0
 20 21  2  0  0  0  0
M  END
>  <CHROM.1>
-141.89885655,-170.92385424,163.78380548,73.24387901,6.57656952,-3.03732021
26.95379728,-2.51914973,-1.47479267,2.93739914

>  <Name>
ligand

>  <RI>
0

>  <Rbt.Current_Directory>
/home/itssahil/PROJECTS/Mol_Feturizer/Test_systems_manuscript/rnas/3sd3

>  <Rbt.Executable>
rbdock ($Id: //depot/dev/client3/rdock/2013.1/src/exe/rbdock.cxx#4 $)

>  <Rbt.Library>
libRbt.so (2013.1, Build901 2013/11/27)

>  <Rbt.Parameter_File>
/export/apps/rDock/src/rDock_2013.1_src/data/scripts/dock_solv.prm

>  <Rbt.Receptor>
prm/blind_docking_80.prm

>  <SCORE>
-10.0977

>  <SCORE.INTER>
-9.42432

>  <SCORE.INTER.CONST>
1

>  <SCORE.INTER.POLAR>
0

>  <SCORE.INTER.ROT>
4

>  <SCORE.INTER.SOLV>
7.27213

>  <SCORE.INTER.VDW>
-14.9736

>  <SCORE.INTER.norm>
-0.428378

>  <SCORE.INTRA>
-0.673411

>  <SCORE.INTRA.DIHEDRAL>
-0.433135

>  <SCORE.INTRA.DIHEDRAL.0>
2.54655

>  <SCORE.INTRA.POLAR>
0

>  <SCORE.INTRA.POLAR.0>
0

>  <SCORE.INTRA.REPUL>
0

>  <SCORE.INTRA.REPUL.0>
0

>  <SCORE.INTRA.SOLV>
-0.765785

>  <SCORE.INTRA.SOLV.lig_0>
-56.4922

>  <SCORE.INTRA.VDW>
-0.0739514

>  <SCORE.INTRA.VDW.0>
-0.696801

>  <SCORE.INTRA.norm>
-0.0306096

>  <SCORE.RESTR>
0

>  <SCORE.RESTR.CAVITY>
0

>  <SCORE.RESTR.norm>
0

>  <SCORE.SYSTEM>
0

>  <SCORE.SYSTEM.CONST>
0

>  <SCORE.SYSTEM.DIHEDRAL>
0

>  <SCORE.SYSTEM.SOLV>
0

>  <SCORE.SYSTEM.norm>
0

>  <SCORE.heavy>
22

>  <SCORE.norm>
-0.458988

>  <RMSD>
21.813

$$$$
ligand
 OpenBabel02271912143D
libRbt.so/2013.1/901 2013/11/27
 22 24  0  0  0  0  0  0  0  0999 V2000
    5.8808    2.4614   27.5575 N   0  0  0  0  0  0  0  0  0  0  0  0
    7.1665    0.4579   27.8139 N   0  0  0  0  0  0  0  0  0  0  0  0
    5.9755    1.0709   27.9129 C   0  0  0  0  0  0  0  0  0  0  0  0
    4.8866    0.4351   28.3275 N   0  0  0  0  0  0  0  0  0  0  0  0
    5.2918   -4.7323   29.8092 O   0  0  0  0  0  0  0  0  0  0  0  0
    4.9543   -0.8657   28.6658 C   0  0  0  0  0  0  0  0  0  0  0  0
    6.2023   -1.5442   28.5853 C   0  0  0  0  0  0  0  0  0  0  0  0
    3.8100   -1.5018   29.0920 O   0  0  0  0  0  0  0  0  0  0  0  0
    6.4205   -2.9433   28.8949 N   0  0  0  0  0  0  0  0  0  0  0  0
    7.3355   -3.6763   28.0103 C   0  0  2  0  0  0  0  0  0  0  0  0
    8.6349   -2.9459   27.8737 C   0  0  0  0  0  0  0  0  0  0  0  0
    7.2949   -0.8431   28.1399 C   0  0  0  0  0  0  0  0  0  0  0  0
    8.5445   -1.4969   28.0417 N   0  0  0  0  0  0  0  0  0  0  0  0
    6.7659   -3.9373   26.6042 C   0  0  0  0  0  0  0  0  0  0  0  0
    7.6149   -4.8720   25.8758 N   0  0  0  0  0  0  0  0  0  0  0  0
    6.2138   -6.8564   22.3829 C   0  0  0  0  0  0  0  0  0  0  0  0
    6.4093   -5.4857   22.3665 C   0  0  0  0  0  0  0  0  0  0  0  0
    6.8739   -4.8228   23.5190 C   0  0  0  0  0  0  0  0  0  0  0  0
    7.1347   -5.5437   24.6745 C   0  0  0  0  0  0  0  0  0  0  0  0
    6.9373   -6.9213   24.6879 C   0  0  0  0  0  0  0  0  0  0  0  0
    6.4785   -7.5777   23.5429 C   0  0  0  0  0  0  0  0  0  0  0  0
    5.7984   -3.6349   29.9717 C   0  0  0  0  0  0  0  0  0  0  0  0
  1  3  1  0  0  0  0
  2  3  2  0  0  0  0
  2 12  1  0  0  0  0
  3  4  1  0  0  0  0
  4  6  1  0  0  0  0
  5 22  1  0  0  0  0
  6  7  1  0  0  0  0
  6  8  2  0  0  0  0
  7 12  2  0  0  0  0
  7  9  1  0  0  0  0
  9 10  1  0  0  0  0
  9 22  1  0  0  0  0
 10 11  1  0  0  0  0
 10 14  1  6  0  0  0
 11 13  1  0  0  0  0
 12 13  1  0  0  0  0
 14 15  1  0  0  0  0
 15 19  1  0  0  0  0
 16 17  2  0  0  0  0
 16 21  1  0  0  0  0
 17 18  1  0  0  0  0
 18 19  2  0  0  0  0
 19 20  1  0  0  0  0
 20 21  2  0  0  0  0
M  END
>  <CHROM.1>
133.40211658,-169.46169150,164.21035281,66.94136360,6.45615998,-2.92428837
27.05738530,-2.17924472,-1.37783147,-3.08669427

>  <Name>
ligand

>  <RI>
0

>  <Rbt.Current_Directory>
/home/itssahil/PROJECTS/Mol_Feturizer/Test_systems_manuscript/rnas/3sd3

>  <Rbt.Executable>
rbdock ($Id: //depot/dev/client3/rdock/2013.1/src/exe/rbdock.cxx#4 $)

>  <Rbt.Library>
libRbt.so (2013.1, Build901 2013/11/27)

>  <Rbt.Parameter_File>
/export/apps/rDock/src/rDock_2013.1_src/data/scripts/dock_solv.prm

>  <Rbt.Receptor>
prm/blind_docking_40.prm

>  <SCORE>
-10.5375

>  <SCORE.INTER>
-9.90654

>  <SCORE.INTER.CONST>
1

>  <SCORE.INTER.POLAR>
0

>  <SCORE.INTER.ROT>
4

>  <SCORE.INTER.SOLV>
8.18487

>  <SCORE.INTER.VDW>
-15.5993

>  <SCORE.INTER.norm>
-0.450297

>  <SCORE.INTRA>
-0.63094

>  <SCORE.INTRA.DIHEDRAL>
-0.299682

>  <SCORE.INTRA.DIHEDRAL.0>
2.54655

>  <SCORE.INTRA.POLAR>
0

>  <SCORE.INTRA.POLAR.0>
0

>  <SCORE.INTRA.REPUL>
0

>  <SCORE.INTRA.REPUL.0>
0

>  <SCORE.INTRA.SOLV>
-0.625329

>  <SCORE.INTRA.SOLV.lig_0>
-56.4922

>  <SCORE.INTRA.VDW>
-0.168434

>  <SCORE.INTRA.VDW.0>
-0.696801

>  <SCORE.INTRA.norm>
-0.0286791

>  <SCORE.RESTR>
0

>  <SCORE.RESTR.CAVITY>
0

>  <SCORE.RESTR.norm>
0

>  <SCORE.SYSTEM>
0

>  <SCORE.SYSTEM.CONST>
0

>  <SCORE.SYSTEM.DIHEDRAL>
0

>  <SCORE.SYSTEM.SOLV>
0

>  <SCORE.SYSTEM.norm>
0

>  <SCORE.heavy>
22

>  <SCORE.norm>
-0.478977

>  <RMSD>
21.938

$$$$
ligand
 OpenBabel02271912143D
libRbt.so/2013.1/901 2013/11/27
 22 24  0  0  0  0  0  0  0  0999 V2000
    1.0094   -1.2837   25.7647 N   0  0  0  0  0  0  0  0  0  0  0  0
    2.8263   -0.8084   27.2499 N   0  0  0  0  0  0  0  0  0  0  0  0
    2.0989   -1.7266   26.5928 C   0  0  0  0  0  0  0  0  0  0  0  0
    2.3534   -3.0261   26.6839 N   0  0  0  0  0  0  0  0  0  0  0  0
    5.9068   -4.9944   29.5385 O   0  0  0  0  0  0  0  0  0  0  0  0
    3.3676   -3.4611   27.4543 C   0  0  0  0  0  0  0  0  0  0  0  0
    4.1517   -2.5174   28.1748 C   0  0  0  0  0  0  0  0  0  0  0  0
    3.6109   -4.8140   27.5307 O   0  0  0  0  0  0  0  0  0  0  0  0
    5.2835   -2.8368   29.0222 N   0  0  0  0  0  0  0  0  0  0  0  0
    6.4336   -1.9261   28.9519 C   0  0  2  0  0  0  0  0  0  0  0  0
    5.9962   -0.5083   29.1492 C   0  0  0  0  0  0  0  0  0  0  0  0
    3.8532   -1.1850   28.0367 C   0  0  0  0  0  0  0  0  0  0  0  0
    4.6233   -0.2266   28.7346 N   0  0  0  0  0  0  0  0  0  0  0  0
    7.2224   -2.0204   27.6334 C   0  0  0  0  0  0  0  0  0  0  0  0
    8.0621   -3.2120   27.6258 N   0  0  0  0  0  0  0  0  0  0  0  0
    7.2719   -6.4057   24.9283 C   0  0  0  0  0  0  0  0  0  0  0  0
    8.4356   -6.4080   25.6789 C   0  0  0  0  0  0  0  0  0  0  0  0
    8.7027   -5.3544   26.5743 C   0  0  0  0  0  0  0  0  0  0  0  0
    7.7994   -4.3103   26.7041 C   0  0  0  0  0  0  0  0  0  0  0  0
    6.6307   -4.3108   25.9485 C   0  0  0  0  0  0  0  0  0  0  0  0
    6.3662   -5.3581   25.0621 C   0  0  0  0  0  0  0  0  0  0  0  0
    5.3485   -3.9668   29.8846 C   0  0  0  0  0  0  0  0  0  0  0  0
  1  3  1  0  0  0  0
  2  3  2  0  0  0  0
  2 12  1  0  0  0  0
  3  4  1  0  0  0  0
  4  6  1  0  0  0  0
  5 22  1  0  0  0  0
  6  7  1  0  0  0  0
  6  8  2  0  0  0  0
  7 12  2  0  0  0  0
  7  9  1  0  0  0  0
  9 10  1  0  0  0  0
  9 22  1  0  0  0  0
 10 11  1  0  0  0  0
 10 14  1  6  0  0  0
 11 13  1  0  0  0  0
 12 13  1  0  0  0  0
 14 15  1  0  0  0  0
 15 19  1  0  0  0  0
 16 17  2  0  0  0  0
 16 21  1  0  0  0  0
 17 18  1  0  0  0  0
 18 19  2  0  0  0  0
 19 20  1  0  0  0  0
 20 21  2  0  0  0  0
M  END
>  <CHROM.1>
96.87998664,-76.71512598,113.11705879,171.13920586,5.28629174,-3.17805037
27.47716426,2.54344122,-0.35670536,0.73887427

>  <Name>
ligand

>  <RI>
0

>  <Rbt.Current_Directory>
/home/itssahil/PROJECTS/Mol_Feturizer/Test_systems_manuscript/rnas/3sd3

>  <Rbt.Executable>
rbdock ($Id: //depot/dev/client3/rdock/2013.1/src/exe/rbdock.cxx#4 $)

>  <Rbt.Library>
libRbt.so (2013.1, Build901 2013/11/27)

>  <Rbt.Parameter_File>
/export/apps/rDock/src/rDock_2013.1_src/data/scripts/dock_solv.prm

>  <Rbt.Receptor>
prm/blind_docking_60.prm

>  <SCORE>
-13.1128

>  <SCORE.INTER>
-12.5051

>  <SCORE.INTER.CONST>
1

>  <SCORE.INTER.POLAR>
0

>  <SCORE.INTER.ROT>
4

>  <SCORE.INTER.SOLV>
9.65484

>  <SCORE.INTER.VDW>
-17.8217

>  <SCORE.INTER.norm>
-0.568415

>  <SCORE.INTRA>
-0.607679

>  <SCORE.INTRA.DIHEDRAL>
1.14127

>  <SCORE.INTRA.DIHEDRAL.0>
2.54655

>  <SCORE.INTRA.POLAR>
0

>  <SCORE.INTRA.POLAR.0>
0

>  <SCORE.INTRA.REPUL>
0

>  <SCORE.INTRA.REPUL.0>
0

>  <SCORE.INTRA.SOLV>
0.520737

>  <SCORE.INTRA.SOLV.lig_0>
-56.4922

>  <SCORE.INTRA.VDW>
-1.43868

>  <SCORE.INTRA.VDW.0>
-0.696801

>  <SCORE.INTRA.norm>
-0.0276218

>  <SCORE.RESTR>
0

>  <SCORE.RESTR.CAVITY>
0

>  <SCORE.RESTR.norm>
0

>  <SCORE.SYSTEM>
0

>  <SCORE.SYSTEM.CONST>
0

>  <SCORE.SYSTEM.DIHEDRAL>
0

>  <SCORE.SYSTEM.SOLV>
0

>  <SCORE.SYSTEM.norm>
0

>  <SCORE.heavy>
22

>  <SCORE.norm>
-0.596037

>  <RMSD>
22.170

$$$$
ligand
 OpenBabel02271912143D
libRbt.so/2013.1/901 2013/11/27
 22 24  0  0  0  0  0  0  0  0999 V2000
    5.5756    2.7997   27.3549 N   0  0  0  0  0  0  0  0  0  0  0  0
    6.8471    0.8439   27.8946 N   0  0  0  0  0  0  0  0  0  0  0  0
    5.6442    1.4342   27.8018 C   0  0  0  0  0  0  0  0  0  0  0  0
    4.5203    0.7984   28.1089 N   0  0  0  0  0  0  0  0  0  0  0  0
    4.9165   -2.5434   31.0941 O   0  0  0  0  0  0  0  0  0  0  0  0
    4.5630   -0.4791   28.5300 C   0  0  0  0  0  0  0  0  0  0  0  0
    5.8210   -1.1323   28.6525 C   0  0  0  0  0  0  0  0  0  0  0  0
    3.3826   -1.1159   28.8413 O   0  0  0  0  0  0  0  0  0  0  0  0
    6.0182   -2.5062   29.0705 N   0  0  0  0  0  0  0  0  0  0  0  0
    7.0520   -3.2673   28.3571 C   0  0  2  0  0  0  0  0  0  0  0  0
    8.3468   -2.5164   28.3469 C   0  0  0  0  0  0  0  0  0  0  0  0
    6.9516   -0.4331   28.3114 C   0  0  0  0  0  0  0  0  0  0  0  0
    8.2132   -1.0626   28.4152 N   0  0  0  0  0  0  0  0  0  0  0  0
    6.6751   -3.6211   26.9071 C   0  0  0  0  0  0  0  0  0  0  0  0
    7.6592   -4.5299   26.3320 N   0  0  0  0  0  0  0  0  0  0  0  0
    6.8335   -6.6415   22.7320 C   0  0  0  0  0  0  0  0  0  0  0  0
    7.2126   -7.3362   23.8683 C   0  0  0  0  0  0  0  0  0  0  0  0
    7.4864   -6.6433   25.0634 C   0  0  0  0  0  0  0  0  0  0  0  0
    7.3782   -5.2615   25.1029 C   0  0  0  0  0  0  0  0  0  0  0  0
    6.9968   -4.5661   23.9593 C   0  0  0  0  0  0  0  0  0  0  0  0
    6.7234   -5.2552   22.7750 C   0  0  0  0  0  0  0  0  0  0  0  0
    5.2712   -3.1492   30.0968 C   0  0  0  0  0  0  0  0  0  0  0  0
  1  3  1  0  0  0  0
  2  3  2  0  0  0  0
  2 12  1  0  0  0  0
  3  4  1  0  0  0  0
  4  6  1  0  0  0  0
  5 22  1  0  0  0  0
  6  7  1  0  0  0  0
  6  8  2  0  0  0  0
  7 12  2  0  0  0  0
  7  9  1  0  0  0  0
  9 10  1  0  0  0  0
  9 22  1  0  0  0  0
 10 11  1  0  0  0  0
 10 14  1  6  0  0  0
 11 13  1  0  0  0  0
 12 13  1  0  0  0  0
 14 15  1  0  0  0  0
 15 19  1  0  0  0  0
 16 17  2  0  0  0  0
 16 21  1  0  0  0  0
 17 18  1  0  0  0  0
 18 19  2  0  0  0  0
 19 20  1  0  0  0  0
 20 21  2  0  0  0  0
M  END
>  <CHROM.1>
-36.52213845,-171.98847016,165.29151912,-124.97730097,6.32180365,-2.46776215
27.30069794,-2.70116281,-1.31856504,2.66612529

>  <Name>
ligand

>  <RI>
0

>  <Rbt.Current_Directory>
/home/itssahil/PROJECTS/Mol_Feturizer/Test_systems_manuscript/rnas/3sd3

>  <Rbt.Executable>
rbdock ($Id: //depot/dev/client3/rdock/2013.1/src/exe/rbdock.cxx#4 $)

>  <Rbt.Library>
libRbt.so (2013.1, Build901 2013/11/27)

>  <Rbt.Parameter_File>
/export/apps/rDock/src/rDock_2013.1_src/data/scripts/dock_solv.prm

>  <Rbt.Receptor>
prm/blind_docking_100.prm

>  <SCORE>
-10.6475

>  <SCORE.INTER>
-9.87475

>  <SCORE.INTER.CONST>
1

>  <SCORE.INTER.POLAR>
0

>  <SCORE.INTER.ROT>
4

>  <SCORE.INTER.SOLV>
8.78247

>  <SCORE.INTER.VDW>
-15.7773

>  <SCORE.INTER.norm>
-0.448852

>  <SCORE.INTRA>
-0.772702

>  <SCORE.INTRA.DIHEDRAL>
-0.532959

>  <SCORE.INTRA.DIHEDRAL.0>
2.54655

>  <SCORE.INTRA.POLAR>
0

>  <SCORE.INTRA.POLAR.0>
0

>  <SCORE.INTRA.REPUL>
0

>  <SCORE.INTRA.REPUL.0>
0

>  <SCORE.INTRA.SOLV>
-0.579915

>  <SCORE.INTRA.SOLV.lig_0>
-56.4922

>  <SCORE.INTRA.VDW>
-0.216265

>  <SCORE.INTRA.VDW.0>
-0.696801

>  <SCORE.INTRA.norm>
-0.0351228

>  <SCORE.RESTR>
0

>  <SCORE.RESTR.CAVITY>
0

>  <SCORE.RESTR.norm>
0

>  <SCORE.SYSTEM>
0

>  <SCORE.SYSTEM.CONST>
0

>  <SCORE.SYSTEM.DIHEDRAL>
0

>  <SCORE.SYSTEM.SOLV>
0

>  <SCORE.SYSTEM.norm>
0

>  <SCORE.heavy>
22

>  <SCORE.norm>
-0.483975

>  <RMSD>
22.317

$$$$
ligand
 OpenBabel02271912143D
libRbt.so/2013.1/901 2013/11/27
 22 24  0  0  0  0  0  0  0  0999 V2000
    5.5169    2.8626   27.3055 N   0  0  0  0  0  0  0  0  0  0  0  0
    6.8169    0.9348   27.8769 N   0  0  0  0  0  0  0  0  0  0  0  0
    5.6057    1.5073   27.7787 C   0  0  0  0  0  0  0  0  0  0  0  0
    4.4919    0.8629   28.1041 N   0  0  0  0  0  0  0  0  0  0  0  0
    5.1861   -2.5122   31.2609 O   0  0  0  0  0  0  0  0  0  0  0  0
    4.5535   -0.4054   28.5500 C   0  0  0  0  0  0  0  0  0  0  0  0
    5.8207   -1.0395   28.6787 C   0  0  0  0  0  0  0  0  0  0  0  0
    3.3833   -1.0513   28.8798 O   0  0  0  0  0  0  0  0  0  0  0  0
    6.0381   -2.4022   29.1226 N   0  0  0  0  0  0  0  0  0  0  0  0
    7.0783   -3.1636   28.4190 C   0  0  2  0  0  0  0  0  0  0  0  0
    8.3630   -2.3961   28.3873 C   0  0  0  0  0  0  0  0  0  0  0  0
    6.9403   -0.3323   28.3182 C   0  0  0  0  0  0  0  0  0  0  0  0
    8.2105   -0.9430   28.4277 N   0  0  0  0  0  0  0  0  0  0  0  0
    6.6991   -3.5508   26.9782 C   0  0  0  0  0  0  0  0  0  0  0  0
    7.6903   -4.4608   26.4174 N   0  0  0  0  0  0  0  0  0  0  0  0
    6.8731   -6.7239   22.9085 C   0  0  0  0  0  0  0  0  0  0  0  0
    6.6604   -5.3556   22.9126 C   0  0  0  0  0  0  0  0  0  0  0  0
    6.9298   -4.6005   24.0704 C   0  0  0  0  0  0  0  0  0  0  0  0
    7.4076   -5.2283   25.2108 C   0  0  0  0  0  0  0  0  0  0  0  0
    7.6206   -6.6037   25.2036 C   0  0  0  0  0  0  0  0  0  0  0  0
    7.3548   -7.3510   24.0534 C   0  0  0  0  0  0  0  0  0  0  0  0
    5.3048   -3.0346   30.1653 C   0  0  0  0  0  0  0  0  0  0  0  0
  1  3  1  0  0  0  0
  2  3  2  0  0  0  0
  2 12  1  0  0  0  0
  3  4  1  0  0  0  0
  4  6  1  0  0  0  0
  5 22  1  0  0  0  0
  6  7  1  0  0  0  0
  6  8  2  0  0  0  0
  7 12  2  0  0  0  0
  7  9  1  0  0  0  0
  9 10  1  0  0  0  0
  9 22  1  0  0  0  0
 10 11  1  0  0  0  0
 10 14  1  6  0  0  0
 11 13  1  0  0  0  0
 12 13  1  0  0  0  0
 14 15  1  0  0  0  0
 15 19  1  0  0  0  0
 16 17  2  0  0  0  0
 16 21  1  0  0  0  0
 17 18  1  0  0  0  0
 18 19  2  0  0  0  0
 19 20  1  0  0  0  0
 20 21  2  0  0  0  0
M  END
>  <CHROM.1>
-51.97446697,-171.82242399,164.79077041,51.12600366,6.34449852,-2.41111541
27.36381886,-2.90818165,-1.33317440,2.42961647

>  <Name>
ligand

>  <RI>
0

>  <Rbt.Current_Directory>
/home/itssahil/PROJECTS/Mol_Feturizer/Test_systems_manuscript/rnas/3sd3

>  <Rbt.Executable>
rbdock ($Id: //depot/dev/client3/rdock/2013.1/src/exe/rbdock.cxx#4 $)

>  <Rbt.Library>
libRbt.so (2013.1, Build901 2013/11/27)

>  <Rbt.Parameter_File>
/export/apps/rDock/src/rDock_2013.1_src/data/scripts/dock_solv.prm

>  <Rbt.Receptor>
prm/blind_docking_40.prm

>  <SCORE>
-10.5301

>  <SCORE.INTER>
-9.76887

>  <SCORE.INTER.CONST>
1

>  <SCORE.INTER.POLAR>
0

>  <SCORE.INTER.ROT>
4

>  <SCORE.INTER.SOLV>
9.25205

>  <SCORE.INTER.VDW>
-15.8633

>  <SCORE.INTER.norm>
-0.44404

>  <SCORE.INTRA>
-0.761242

>  <SCORE.INTRA.DIHEDRAL>
-0.498059

>  <SCORE.INTRA.DIHEDRAL.0>
2.54655

>  <SCORE.INTRA.POLAR>
0

>  <SCORE.INTRA.POLAR.0>
0

>  <SCORE.INTRA.REPUL>
0

>  <SCORE.INTRA.REPUL.0>
0

>  <SCORE.INTRA.SOLV>
-0.649393

>  <SCORE.INTRA.SOLV.lig_0>
-56.4922

>  <SCORE.INTRA.VDW>
-0.187516

>  <SCORE.INTRA.VDW.0>
-0.696801

>  <SCORE.INTRA.norm>
-0.0346019

>  <SCORE.RESTR>
0

>  <SCORE.RESTR.CAVITY>
0

>  <SCORE.RESTR.norm>
0

>  <SCORE.SYSTEM>
0

>  <SCORE.SYSTEM.CONST>
0

>  <SCORE.SYSTEM.DIHEDRAL>
0

>  <SCORE.SYSTEM.SOLV>
0

>  <SCORE.SYSTEM.norm>
0

>  <SCORE.heavy>
22

>  <SCORE.norm>
-0.478642

>  <RMSD>
22.349

$$$$
ligand
 OpenBabel02271912143D
libRbt.so/2013.1/901 2013/11/27
 22 24  0  0  0  0  0  0  0  0999 V2000
    1.6105   -0.4536   28.7562 N   0  0  0  0  0  0  0  0  0  0  0  0
    3.8750    0.2451   28.4144 N   0  0  0  0  0  0  0  0  0  0  0  0
    3.0224   -0.6388   28.9584 C   0  0  0  0  0  0  0  0  0  0  0  0
    3.4414   -1.6746   29.6749 N   0  0  0  0  0  0  0  0  0  0  0  0
    8.1829   -2.6069   30.7548 O   0  0  0  0  0  0  0  0  0  0  0  0
    4.7582   -1.8651   29.8768 C   0  0  0  0  0  0  0  0  0  0  0  0
    5.6899   -0.9415   29.3259 C   0  0  0  0  0  0  0  0  0  0  0  0
    5.1663   -2.9478   30.6230 O   0  0  0  0  0  0  0  0  0  0  0  0
    7.1320   -1.0311   29.4424 N   0  0  0  0  0  0  0  0  0  0  0  0
    7.9101   -0.6762   28.2484 C   0  0  2  0  0  0  0  0  0  0  0  0
    7.4941    0.6638   27.7270 C   0  0  0  0  0  0  0  0  0  0  0  0
    5.2044    0.1060   28.5839 C   0  0  0  0  0  0  0  0  0  0  0  0
    6.1099    1.0323   28.0177 N   0  0  0  0  0  0  0  0  0  0  0  0
    7.8035   -1.7044   27.1078 C   0  0  0  0  0  0  0  0  0  0  0  0
    8.0742   -3.0476   27.6054 N   0  0  0  0  0  0  0  0  0  0  0  0
    7.6630   -6.4331   25.0617 C   0  0  0  0  0  0  0  0  0  0  0  0
    8.7257   -6.3594   25.9464 C   0  0  0  0  0  0  0  0  0  0  0  0
    8.8670   -5.2420   26.7918 C   0  0  0  0  0  0  0  0  0  0  0  0
    7.9410   -4.2113   26.7376 C   0  0  0  0  0  0  0  0  0  0  0  0
    6.8739   -4.2882   25.8475 C   0  0  0  0  0  0  0  0  0  0  0  0
    6.7340   -5.3985   25.0110 C   0  0  0  0  0  0  0  0  0  0  0  0
    7.8192   -1.4512   30.6154 C   0  0  0  0  0  0  0  0  0  0  0  0
  1  3  1  0  0  0  0
  2  3  2  0  0  0  0
  2 12  1  0  0  0  0
  3  4  1  0  0  0  0
  4  6  1  0  0  0  0
  5 22  1  0  0  0  0
  6  7  1  0  0  0  0
  6  8  2  0  0  0  0
  7 12  2  0  0  0  0
  7  9  1  0  0  0  0
  9 10  1  0  0  0  0
  9 22  1  0  0  0  0
 10 11  1  0  0  0  0
 10 14  1  6  0  0  0
 11 13  1  0  0  0  0
 12 13  1  0  0  0  0
 14 15  1  0  0  0  0
 15 19  1  0  0  0  0
 16 17  2  0  0  0  0
 16 21  1  0  0  0  0
 17 18  1  0  0  0  0
 18 19  2  0  0  0  0
 19 20  1  0  0  0  0
 20 21  2  0  0  0  0
M  END
>  <CHROM.1>
95.83842758,-50.66156257,175.54631335,139.37731755,6.35502184,-2.14703689
28.24037361,2.15456161,-0.10884519,0.64101833

>  <Name>
ligand

>  <RI>
0

>  <Rbt.Current_Directory>
/home/itssahil/PROJECTS/Mol_Feturizer/Test_systems_manuscript/rnas/3sd3

>  <Rbt.Executable>
rbdock ($Id: //depot/dev/client3/rdock/2013.1/src/exe/rbdock.cxx#4 $)

>  <Rbt.Library>
libRbt.so (2013.1, Build901 2013/11/27)

>  <Rbt.Parameter_File>
/export/apps/rDock/src/rDock_2013.1_src/data/scripts/dock_solv.prm

>  <Rbt.Receptor>
prm/blind_docking_60.prm

>  <SCORE>
-10.9787

>  <SCORE.INTER>
-10.3039

>  <SCORE.INTER.CONST>
1

>  <SCORE.INTER.POLAR>
0

>  <SCORE.INTER.ROT>
4

>  <SCORE.INTER.SOLV>
5.14053

>  <SCORE.INTER.VDW>
-14.8494

>  <SCORE.INTER.norm>
-0.468357

>  <SCORE.INTRA>
-0.674865

>  <SCORE.INTRA.DIHEDRAL>
-0.605623

>  <SCORE.INTRA.DIHEDRAL.0>
2.54655

>  <SCORE.INTRA.POLAR>
0

>  <SCORE.INTRA.POLAR.0>
0

>  <SCORE.INTRA.REPUL>
0

>  <SCORE.INTRA.REPUL.0>
0

>  <SCORE.INTRA.SOLV>
0.819687

>  <SCORE.INTRA.SOLV.lig_0>
-56.4922

>  <SCORE.INTRA.VDW>
-0.781897

>  <SCORE.INTRA.VDW.0>
-0.696801

>  <SCORE.INTRA.norm>
-0.0306757

>  <SCORE.RESTR>
0

>  <SCORE.RESTR.CAVITY>
0

>  <SCORE.RESTR.norm>
0

>  <SCORE.SYSTEM>
0

>  <SCORE.SYSTEM.CONST>
0

>  <SCORE.SYSTEM.DIHEDRAL>
0

>  <SCORE.SYSTEM.SOLV>
0

>  <SCORE.SYSTEM.norm>
0

>  <SCORE.heavy>
22

>  <SCORE.norm>
-0.499033

>  <RMSD>
22.448

$$$$
ligand
 OpenBabel02271912143D
libRbt.so/2013.1/901 2013/11/27
 22 24  0  0  0  0  0  0  0  0999 V2000
    3.0089    1.4602   30.6512 N   0  0  0  0  0  0  0  0  0  0  0  0
    3.8832   -0.7670   30.5604 N   0  0  0  0  0  0  0  0  0  0  0  0
    3.2565    0.2403   29.9305 C   0  0  0  0  0  0  0  0  0  0  0  0
    2.8597    0.1450   28.6675 N   0  0  0  0  0  0  0  0  0  0  0  0
    3.6147   -4.3624   25.9692 O   0  0  0  0  0  0  0  0  0  0  0  0
    3.0808   -0.9882   27.9761 C   0  0  0  0  0  0  0  0  0  0  0  0
    3.7309   -2.0807   28.6152 C   0  0  0  0  0  0  0  0  0  0  0  0
    2.6599   -1.0608   26.6672 O   0  0  0  0  0  0  0  0  0  0  0  0
    4.0537   -3.3488   27.9917 N   0  0  0  0  0  0  0  0  0  0  0  0
    5.3534   -3.9384   28.3381 C   0  0  2  0  0  0  0  0  0  0  0  0
    5.5203   -4.0108   29.8238 C   0  0  0  0  0  0  0  0  0  0  0  0
    4.1306   -1.9257   29.9189 C   0  0  0  0  0  0  0  0  0  0  0  0
    4.7872   -2.9928   30.5737 N   0  0  0  0  0  0  0  0  0  0  0  0
    6.5569   -3.1859   27.7423 C   0  0  0  0  0  0  0  0  0  0  0  0
    6.6334   -3.4049   26.3031 N   0  0  0  0  0  0  0  0  0  0  0  0
    7.5525   -7.2501   24.7312 C   0  0  0  0  0  0  0  0  0  0  0  0
    6.4319   -6.5711   24.2833 C   0  0  0  0  0  0  0  0  0  0  0  0
    6.1225   -5.2975   24.7988 C   0  0  0  0  0  0  0  0  0  0  0  0
    6.9407   -4.7219   25.7590 C   0  0  0  0  0  0  0  0  0  0  0  0
    8.0664   -5.4067   26.2071 C   0  0  0  0  0  0  0  0  0  0  0  0
    8.3731   -6.6692   25.6930 C   0  0  0  0  0  0  0  0  0  0  0  0
    3.2095   -4.0295   27.0703 C   0  0  0  0  0  0  0  0  0  0  0  0
  1  3  1  0  0  0  0
  2  3  2  0  0  0  0
  2 12  1  0  0  0  0
  3  4  1  0  0  0  0
  4  6  1  0  0  0  0
  5 22  1  0  0  0  0
  6  7  1  0  0  0  0
  6  8  2  0  0  0  0
  7 12  2  0  0  0  0
  7  9  1  0  0  0  0
  9 10  1  0  0  0  0
  9 22  1  0  0  0  0
 10 11  1  0  0  0  0
 10 14  1  6  0  0  0
 11 13  1  0  0  0  0
 12 13  1  0  0  0  0
 14 15  1  0  0  0  0
 15 19  1  0  0  0  0
 16 17  2  0  0  0  0
 16 21  1  0  0  0  0
 17 18  1  0  0  0  0
 18 19  2  0  0  0  0
 19 20  1  0  0  0  0
 20 21  2  0  0  0  0
M  END
>  <CHROM.1>
125.36583782,-71.81273286,-67.08987728,127.85840399,4.91231406,-3.12029051
27.68703611,-2.21920524,0.66577102,-2.05094579

>  <Name>
ligand

>  <RI>
0

>  <Rbt.Current_Directory>
/home/itssahil/PROJECTS/Mol_Feturizer/Test_systems_manuscript/rnas/3sd3

>  <Rbt.Executable>
rbdock ($Id: //depot/dev/client3/rdock/2013.1/src/exe/rbdock.cxx#4 $)

>  <Rbt.Library>
libRbt.so (2013.1, Build901 2013/11/27)

>  <Rbt.Parameter_File>
/export/apps/rDock/src/rDock_2013.1_src/data/scripts/dock_solv.prm

>  <Rbt.Receptor>
prm/blind_docking_60.prm

>  <SCORE>
-13.9037

>  <SCORE.INTER>
-12.766

>  <SCORE.INTER.CONST>
1

>  <SCORE.INTER.POLAR>
0

>  <SCORE.INTER.ROT>
4

>  <SCORE.INTER.SOLV>
12.7343

>  <SCORE.INTER.VDW>
-19.0221

>  <SCORE.INTER.norm>
-0.580274

>  <SCORE.INTRA>
-1.13765

>  <SCORE.INTRA.DIHEDRAL>
-0.393236

>  <SCORE.INTRA.DIHEDRAL.0>
2.54655

>  <SCORE.INTRA.POLAR>
0

>  <SCORE.INTRA.POLAR.0>
0

>  <SCORE.INTRA.REPUL>
0

>  <SCORE.INTRA.REPUL.0>
0

>  <SCORE.INTRA.SOLV>
0.559819

>  <SCORE.INTRA.SOLV.lig_0>
-56.4922

>  <SCORE.INTRA.VDW>
-1.22094

>  <SCORE.INTRA.VDW.0>
-0.696801

>  <SCORE.INTRA.norm>
-0.0517113

>  <SCORE.RESTR>
0

>  <SCORE.RESTR.CAVITY>
0

>  <SCORE.RESTR.norm>
0

>  <SCORE.SYSTEM>
0

>  <SCORE.SYSTEM.CONST>
0

>  <SCORE.SYSTEM.DIHEDRAL>
0

>  <SCORE.SYSTEM.SOLV>
0

>  <SCORE.SYSTEM.norm>
0

>  <SCORE.heavy>
22

>  <SCORE.norm>
-0.631985

>  <RMSD>
22.475

$$$$
ligand
 OpenBabel02271912143D
libRbt.so/2013.1/901 2013/11/27
 22 24  0  0  0  0  0  0  0  0999 V2000
    5.6183    3.7088   26.5354 N   0  0  0  0  0  0  0  0  0  0  0  0
    6.9360    1.9512   27.4880 N   0  0  0  0  0  0  0  0  0  0  0  0
    5.7176    2.4618   27.2452 C   0  0  0  0  0  0  0  0  0  0  0  0
    4.6058    1.8530   27.6392 N   0  0  0  0  0  0  0  0  0  0  0  0
    5.7288   -1.2989   31.5321 O   0  0  0  0  0  0  0  0  0  0  0  0
    4.6772    0.6860   28.3057 C   0  0  0  0  0  0  0  0  0  0  0  0
    5.9518    0.1219   28.5915 C   0  0  0  0  0  0  0  0  0  0  0  0
    3.5090    0.0749   28.7022 O   0  0  0  0  0  0  0  0  0  0  0  0
    6.1808   -1.1337   29.2786 N   0  0  0  0  0  0  0  0  0  0  0  0
    7.2658   -1.9770   28.7603 C   0  0  2  0  0  0  0  0  0  0  0  0
    8.5334   -1.1901   28.6394 C   0  0  0  0  0  0  0  0  0  0  0  0
    7.0692    0.7865   28.1520 C   0  0  0  0  0  0  0  0  0  0  0  0
    8.3472    0.2420   28.4149 N   0  0  0  0  0  0  0  0  0  0  0  0
    6.9549   -2.6240   27.3985 C   0  0  0  0  0  0  0  0  0  0  0  0
    7.9804   -3.6004   27.0521 N   0  0  0  0  0  0  0  0  0  0  0  0
    7.1069   -6.9384   24.5629 C   0  0  0  0  0  0  0  0  0  0  0  0
    6.4158   -5.7506   24.3924 C   0  0  0  0  0  0  0  0  0  0  0  0
    6.7008   -4.6416   25.2124 C   0  0  0  0  0  0  0  0  0  0  0  0
    7.6747   -4.7390   26.1947 C   0  0  0  0  0  0  0  0  0  0  0  0
    8.3676   -5.9341   26.3636 C   0  0  0  0  0  0  0  0  0  0  0  0
    8.0852   -7.0327   25.5478 C   0  0  0  0  0  0  0  0  0  0  0  0
    5.4194   -1.5926   30.3896 C   0  0  0  0  0  0  0  0  0  0  0  0
  1  3  1  0  0  0  0
  2  3  2  0  0  0  0
  2 12  1  0  0  0  0
  3  4  1  0  0  0  0
  4  6  1  0  0  0  0
  5 22  1  0  0  0  0
  6  7  1  0  0  0  0
  6  8  2  0  0  0  0
  7 12  2  0  0  0  0
  7  9  1  0  0  0  0
  9 10  1  0  0  0  0
  9 22  1  0  0  0  0
 10 11  1  0  0  0  0
 10 14  1  6  0  0  0
 11 13  1  0  0  0  0
 12 13  1  0  0  0  0
 14 15  1  0  0  0  0
 15 19  1  0  0  0  0
 16 17  2  0  0  0  0
 16 21  1  0  0  0  0
 17 18  1  0  0  0  0
 18 19  2  0  0  0  0
 19 20  1  0  0  0  0
 20 21  2  0  0  0  0
M  END
>  <CHROM.1>
-88.60527933,-171.19646164,152.28535374,30.55945008,6.54159578,-1.54831795
27.67056481,-3.13874217,-1.32946305,1.92874165

>  <Name>
ligand

>  <RI>
0

>  <Rbt.Current_Directory>
/home/itssahil/PROJECTS/Mol_Feturizer/Test_systems_manuscript/rnas/3sd3

>  <Rbt.Executable>
rbdock ($Id: //depot/dev/client3/rdock/2013.1/src/exe/rbdock.cxx#4 $)

>  <Rbt.Library>
libRbt.so (2013.1, Build901 2013/11/27)

>  <Rbt.Parameter_File>
/export/apps/rDock/src/rDock_2013.1_src/data/scripts/dock_solv.prm

>  <Rbt.Receptor>
prm/blind_docking_40.prm

>  <SCORE>
-10.1542

>  <SCORE.INTER>
-9.80606

>  <SCORE.INTER.CONST>
1

>  <SCORE.INTER.POLAR>
0

>  <SCORE.INTER.ROT>
4

>  <SCORE.INTER.SOLV>
14.3775

>  <SCORE.INTER.VDW>
-17.5965

>  <SCORE.INTER.norm>
-0.44573

>  <SCORE.INTRA>
-0.348188

>  <SCORE.INTRA.DIHEDRAL>
-0.0728563

>  <SCORE.INTRA.DIHEDRAL.0>
2.54655

>  <SCORE.INTRA.POLAR>
0

>  <SCORE.INTRA.POLAR.0>
0

>  <SCORE.INTRA.REPUL>
0

>  <SCORE.INTRA.REPUL.0>
0

>  <SCORE.INTRA.SOLV>
-0.779981

>  <SCORE.INTRA.SOLV.lig_0>
-56.4922

>  <SCORE.INTRA.VDW>
0.0782304

>  <SCORE.INTRA.VDW.0>
-0.696801

>  <SCORE.INTRA.norm>
-0.0158267

>  <SCORE.RESTR>
0

>  <SCORE.RESTR.CAVITY>
0

>  <SCORE.RESTR.norm>
0

>  <SCORE.SYSTEM>
0

>  <SCORE.SYSTEM.CONST>
0

>  <SCORE.SYSTEM.DIHEDRAL>
0

>  <SCORE.SYSTEM.SOLV>
0

>  <SCORE.SYSTEM.norm>
0

>  <SCORE.heavy>
22

>  <SCORE.norm>
-0.461557

>  <RMSD>
22.937

$$$$
ligand
 OpenBabel02271912143D
libRbt.so/2013.1/901 2013/11/27
 22 24  0  0  0  0  0  0  0  0999 V2000
    5.5739    4.0413   26.7049 N   0  0  0  0  0  0  0  0  0  0  0  0
    7.1006    2.3510   27.4431 N   0  0  0  0  0  0  0  0  0  0  0  0
    5.8279    2.7511   27.2876 C   0  0  0  0  0  0  0  0  0  0  0  0
    4.8004    1.9950   27.6543 N   0  0  0  0  0  0  0  0  0  0  0  0
    5.2006   -2.4201   29.8389 O   0  0  0  0  0  0  0  0  0  0  0  0
    5.0167    0.7851   28.2025 C   0  0  0  0  0  0  0  0  0  0  0  0
    6.3525    0.3338   28.3940 C   0  0  0  0  0  0  0  0  0  0  0  0
    3.9335    0.0204   28.5733 O   0  0  0  0  0  0  0  0  0  0  0  0
    6.7353   -0.9492   28.9493 N   0  0  0  0  0  0  0  0  0  0  0  0
    7.8788   -1.6220   28.3195 C   0  0  2  0  0  0  0  0  0  0  0  0
    9.0540   -0.6986   28.2370 C   0  0  0  0  0  0  0  0  0  0  0  0
    7.3781    1.1500   27.9872 C   0  0  0  0  0  0  0  0  0  0  0  0
    8.7142    0.7207   28.1575 N   0  0  0  0  0  0  0  0  0  0  0  0
    7.5810   -2.1688   26.9116 C   0  0  0  0  0  0  0  0  0  0  0  0
    6.7494   -3.3633   26.9941 N   0  0  0  0  0  0  0  0  0  0  0  0
    7.7752   -6.9099   24.8797 C   0  0  0  0  0  0  0  0  0  0  0  0
    8.5653   -6.4812   25.9331 C   0  0  0  0  0  0  0  0  0  0  0  0
    8.2308   -5.3086   26.6377 C   0  0  0  0  0  0  0  0  0  0  0  0
    7.1083   -4.5796   26.2753 C   0  0  0  0  0  0  0  0  0  0  0  0
    6.3160   -5.0130   25.2163 C   0  0  0  0  0  0  0  0  0  0  0  0
    6.6481   -6.1777   24.5197 C   0  0  0  0  0  0  0  0  0  0  0  0
    6.0697   -1.5868   30.0333 C   0  0  0  0  0  0  0  0  0  0  0  0
  1  3  1  0  0  0  0
  2  3  2  0  0  0  0
  2 12  1  0  0  0  0
  3  4  1  0  0  0  0
  4  6  1  0  0  0  0
  5 22  1  0  0  0  0
  6  7  1  0  0  0  0
  6  8  2  0  0  0  0
  7 12  2  0  0  0  0
  7  9  1  0  0  0  0
  9 10  1  0  0  0  0
  9 22  1  0  0  0  0
 10 11  1  0  0  0  0
 10 14  1  6  0  0  0
 11 13  1  0  0  0  0
 12 13  1  0  0  0  0
 14 15  1  0  0  0  0
 15 19  1  0  0  0  0
 16 17  2  0  0  0  0
 16 21  1  0  0  0  0
 17 18  1  0  0  0  0
 18 19  2  0  0  0  0
 19 20  1  0  0  0  0
 20 21  2  0  0  0  0
M  END
>  <CHROM.1>
95.10640091,-74.12603813,-130.32168942,67.81244990,6.70999524,-1.40271885
27.49803560,-1.79531727,-0.56140343,-2.99037846

>  <Name>
ligand

>  <RI>
0

>  <Rbt.Current_Directory>
/home/itssahil/PROJECTS/Mol_Feturizer/Test_systems_manuscript/rnas/3sd3

>  <Rbt.Executable>
rbdock ($Id: //depot/dev/client3/rdock/2013.1/src/exe/rbdock.cxx#4 $)

>  <Rbt.Library>
libRbt.so (2013.1, Build901 2013/11/27)

>  <Rbt.Parameter_File>
/export/apps/rDock/src/rDock_2013.1_src/data/scripts/dock_solv.prm

>  <Rbt.Receptor>
prm/blind_docking_80.prm

>  <SCORE>
-11.4711

>  <SCORE.INTER>
-11.1638

>  <SCORE.INTER.CONST>
1

>  <SCORE.INTER.POLAR>
0

>  <SCORE.INTER.ROT>
4

>  <SCORE.INTER.SOLV>
16.3175

>  <SCORE.INTER.VDW>
-19.1484

>  <SCORE.INTER.norm>
-0.507445

>  <SCORE.INTRA>
-0.30727

>  <SCORE.INTRA.DIHEDRAL>
0.841167

>  <SCORE.INTRA.DIHEDRAL.0>
2.54655

>  <SCORE.INTRA.POLAR>
0

>  <SCORE.INTRA.POLAR.0>
0

>  <SCORE.INTRA.REPUL>
0

>  <SCORE.INTRA.REPUL.0>
0

>  <SCORE.INTRA.SOLV>
0.323661

>  <SCORE.INTRA.SOLV.lig_0>
-56.4922

>  <SCORE.INTRA.VDW>
-0.889684

>  <SCORE.INTRA.VDW.0>
-0.696801

>  <SCORE.INTRA.norm>
-0.0139668

>  <SCORE.RESTR>
0

>  <SCORE.RESTR.CAVITY>
0

>  <SCORE.RESTR.norm>
0

>  <SCORE.SYSTEM>
0

>  <SCORE.SYSTEM.CONST>
0

>  <SCORE.SYSTEM.DIHEDRAL>
0

>  <SCORE.SYSTEM.SOLV>
0

>  <SCORE.SYSTEM.norm>
0

>  <SCORE.heavy>
22

>  <SCORE.norm>
-0.521411

>  <RMSD>
22.967

$$$$
ligand
 OpenBabel02271912143D
libRbt.so/2013.1/901 2013/11/27
 22 24  0  0  0  0  0  0  0  0999 V2000
    1.2845   -0.8520   27.5337 N   0  0  0  0  0  0  0  0  0  0  0  0
    3.3608    0.3345   27.6521 N   0  0  0  0  0  0  0  0  0  0  0  0
    2.6015   -0.6844   28.0871 C   0  0  0  0  0  0  0  0  0  0  0  0
    3.0275   -1.5387   29.0093 N   0  0  0  0  0  0  0  0  0  0  0  0
    6.2805    0.3271   31.8446 O   0  0  0  0  0  0  0  0  0  0  0  0
    4.2561   -1.3987   29.5405 C   0  0  0  0  0  0  0  0  0  0  0  0
    5.0834   -0.3231   29.1126 C   0  0  0  0  0  0  0  0  0  0  0  0
    4.6740   -2.2989   30.4947 O   0  0  0  0  0  0  0  0  0  0  0  0
    6.4310   -0.0618   29.5782 N   0  0  0  0  0  0  0  0  0  0  0  0
    7.4004    0.3807   28.5676 C   0  0  2  0  0  0  0  0  0  0  0  0
    6.8625    1.5444   27.7949 C   0  0  0  0  0  0  0  0  0  0  0  0
    4.5988    0.5250   28.1485 C   0  0  0  0  0  0  0  0  0  0  0  0
    5.4049    1.5960   27.6993 N   0  0  0  0  0  0  0  0  0  0  0  0
    7.8127   -0.7221   27.5758 C   0  0  0  0  0  0  0  0  0  0  0  0
    8.1795   -1.9388   28.2901 N   0  0  0  0  0  0  0  0  0  0  0  0
   10.6341   -4.8910   26.4568 C   0  0  0  0  0  0  0  0  0  0  0  0
    9.3138   -5.1807   26.7576 C   0  0  0  0  0  0  0  0  0  0  0  0
    8.4957   -4.2076   27.3636 C   0  0  0  0  0  0  0  0  0  0  0  0
    9.0132   -2.9562   27.6619 C   0  0  0  0  0  0  0  0  0  0  0  0
   10.3405   -2.6680   27.3583 C   0  0  0  0  0  0  0  0  0  0  0  0
   11.1502   -3.6338   26.7551 C   0  0  0  0  0  0  0  0  0  0  0  0
    6.8618   -0.2237   30.9247 C   0  0  0  0  0  0  0  0  0  0  0  0
  1  3  1  0  0  0  0
  2  3  2  0  0  0  0
  2 12  1  0  0  0  0
  3  4  1  0  0  0  0
  4  6  1  0  0  0  0
  5 22  1  0  0  0  0
  6  7  1  0  0  0  0
  6  8  2  0  0  0  0
  7 12  2  0  0  0  0
  7  9  1  0  0  0  0
  9 10  1  0  0  0  0
  9 22  1  0  0  0  0
 10 11  1  0  0  0  0
 10 14  1  6  0  0  0
 11 13  1  0  0  0  0
 12 13  1  0  0  0  0
 14 15  1  0  0  0  0
 15 19  1  0  0  0  0
 16 17  2  0  0  0  0
 16 21  1  0  0  0  0
 17 18  1  0  0  0  0
 18 19  2  0  0  0  0
 19 20  1  0  0  0  0
 20 21  2  0  0  0  0
M  END
>  <CHROM.1>
-54.28648594,-48.84543330,-159.21677991,-113.27639713,6.41445952,-1.22906094
28.45519932,2.58016760,-0.05360281,0.53184970

>  <Name>
ligand

>  <RI>
0

>  <Rbt.Current_Directory>
/home/itssahil/PROJECTS/Mol_Feturizer/Test_systems_manuscript/rnas/3sd3

>  <Rbt.Executable>
rbdock ($Id: //depot/dev/client3/rdock/2013.1/src/exe/rbdock.cxx#4 $)

>  <Rbt.Library>
libRbt.so (2013.1, Build901 2013/11/27)

>  <Rbt.Parameter_File>
/export/apps/rDock/src/rDock_2013.1_src/data/scripts/dock_solv.prm

>  <Rbt.Receptor>
prm/blind_docking_40.prm

>  <SCORE>
-9.0332

>  <SCORE.INTER>
-8.26048

>  <SCORE.INTER.CONST>
1

>  <SCORE.INTER.POLAR>
0

>  <SCORE.INTER.ROT>
4

>  <SCORE.INTER.SOLV>
6.69128

>  <SCORE.INTER.VDW>
-14.0041

>  <SCORE.INTER.norm>
-0.375476

>  <SCORE.INTRA>
-0.815552

>  <SCORE.INTRA.DIHEDRAL>
-0.153859

>  <SCORE.INTRA.DIHEDRAL.0>
2.54655

>  <SCORE.INTRA.POLAR>
0

>  <SCORE.INTRA.POLAR.0>
0

>  <SCORE.INTRA.REPUL>
0

>  <SCORE.INTRA.REPUL.0>
0

>  <SCORE.INTRA.SOLV>
0.0868805

>  <SCORE.INTRA.SOLV.lig_0>
-56.4922

>  <SCORE.INTRA.VDW>
-0.782063

>  <SCORE.INTRA.VDW.0>
-0.696801

>  <SCORE.INTRA.norm>
-0.0370705

>  <SCORE.RESTR>
0.0428331

>  <SCORE.RESTR.CAVITY>
0.0428331

>  <SCORE.RESTR.norm>
0.00194696

>  <SCORE.SYSTEM>
0

>  <SCORE.SYSTEM.CONST>
0

>  <SCORE.SYSTEM.DIHEDRAL>
0

>  <SCORE.SYSTEM.SOLV>
0

>  <SCORE.SYSTEM.norm>
0

>  <SCORE.heavy>
22

>  <SCORE.norm>
-0.4106

>  <RMSD>
23.041

$$$$
ligand
 OpenBabel02271912143D
libRbt.so/2013.1/901 2013/11/27
 22 24  0  0  0  0  0  0  0  0999 V2000
    5.6810    4.1944   26.6571 N   0  0  0  0  0  0  0  0  0  0  0  0
    7.1556    2.4628   27.4056 N   0  0  0  0  0  0  0  0  0  0  0  0
    5.8952    2.8952   27.2359 C   0  0  0  0  0  0  0  0  0  0  0  0
    4.8447    2.1630   27.5851 N   0  0  0  0  0  0  0  0  0  0  0  0
    6.1124   -1.0658   31.1078 O   0  0  0  0  0  0  0  0  0  0  0  0
    5.0237    0.9452   28.1293 C   0  0  0  0  0  0  0  0  0  0  0  0
    6.3452    0.4599   28.3355 C   0  0  0  0  0  0  0  0  0  0  0  0
    3.9171    0.2058   28.4818 O   0  0  0  0  0  0  0  0  0  0  0  0
    6.6889   -0.8351   28.8886 N   0  0  0  0  0  0  0  0  0  0  0  0
    7.8235   -1.5329   28.2699 C   0  0  2  0  0  0  0  0  0  0  0  0
    9.0221   -0.6385   28.2077 C   0  0  0  0  0  0  0  0  0  0  0  0
    7.3960    1.2525   27.9465 C   0  0  0  0  0  0  0  0  0  0  0  0
    8.7188    0.7892   28.1318 N   0  0  0  0  0  0  0  0  0  0  0  0
    7.5306   -2.0647   26.8553 C   0  0  0  0  0  0  0  0  0  0  0  0
    6.6905   -3.2542   26.9217 N   0  0  0  0  0  0  0  0  0  0  0  0
    7.8735   -6.8725   25.0219 C   0  0  0  0  0  0  0  0  0  0  0  0
    6.7888   -6.1610   24.5373 C   0  0  0  0  0  0  0  0  0  0  0  0
    6.3926   -4.9621   25.1610 C   0  0  0  0  0  0  0  0  0  0  0  0
    7.0889   -4.4929   26.2645 C   0  0  0  0  0  0  0  0  0  0  0  0
    8.1787   -5.2101   26.7492 C   0  0  0  0  0  0  0  0  0  0  0  0
    8.5718   -6.3982   26.1279 C   0  0  0  0  0  0  0  0  0  0  0  0
    5.9935   -1.4617   29.9604 C   0  0  0  0  0  0  0  0  0  0  0  0
  1  3  1  0  0  0  0
  2  3  2  0  0  0  0
  2 12  1  0  0  0  0
  3  4  1  0  0  0  0
  4  6  1  0  0  0  0
  5 22  1  0  0  0  0
  6  7  1  0  0  0  0
  6  8  2  0  0  0  0
  7 12  2  0  0  0  0
  7  9  1  0  0  0  0
  9 10  1  0  0  0  0
  9 22  1  0  0  0  0
 10 11  1  0  0  0  0
 10 14  1  6  0  0  0
 11 13  1  0  0  0  0
 12 13  1  0  0  0  0
 14 15  1  0  0  0  0
 15 19  1  0  0  0  0
 16 17  2  0  0  0  0
 16 21  1  0  0  0  0
 17 18  1  0  0  0  0
 18 19  2  0  0  0  0
 19 20  1  0  0  0  0
 20 21  2  0  0  0  0
M  END
>  <CHROM.1>
-73.49154482,-75.25502040,-126.33030050,-111.20789549,6.76799619,-1.22800560
27.54503920,3.02795472,-1.37578744,1.73675658

>  <Name>
ligand

>  <RI>
0

>  <Rbt.Current_Directory>
/home/itssahil/PROJECTS/Mol_Feturizer/Test_systems_manuscript/rnas/3sd3

>  <Rbt.Executable>
rbdock ($Id: //depot/dev/client3/rdock/2013.1/src/exe/rbdock.cxx#4 $)

>  <Rbt.Library>
libRbt.so (2013.1, Build901 2013/11/27)

>  <Rbt.Parameter_File>
/export/apps/rDock/src/rDock_2013.1_src/data/scripts/dock_solv.prm

>  <Rbt.Receptor>
prm/blind_docking_60.prm

>  <SCORE>
-11.3468

>  <SCORE.INTER>
-10.8775

>  <SCORE.INTER.CONST>
1

>  <SCORE.INTER.POLAR>
0

>  <SCORE.INTER.ROT>
4

>  <SCORE.INTER.SOLV>
16.9505

>  <SCORE.INTER.VDW>
-19.1685

>  <SCORE.INTER.norm>
-0.494432

>  <SCORE.INTRA>
-0.469267

>  <SCORE.INTRA.DIHEDRAL>
1.0444

>  <SCORE.INTRA.DIHEDRAL.0>
2.54655

>  <SCORE.INTRA.POLAR>
0

>  <SCORE.INTRA.POLAR.0>
0

>  <SCORE.INTRA.REPUL>
0

>  <SCORE.INTRA.REPUL.0>
0

>  <SCORE.INTRA.SOLV>
-0.459919

>  <SCORE.INTRA.SOLV.lig_0>
-56.4922

>  <SCORE.INTRA.VDW>
-0.761508

>  <SCORE.INTRA.VDW.0>
-0.696801

>  <SCORE.INTRA.norm>
-0.0213303

>  <SCORE.RESTR>
0

>  <SCORE.RESTR.CAVITY>
0

>  <SCORE.RESTR.norm>
0

>  <SCORE.SYSTEM>
0

>  <SCORE.SYSTEM.CONST>
0

>  <SCORE.SYSTEM.DIHEDRAL>
0

>  <SCORE.SYSTEM.SOLV>
0

>  <SCORE.SYSTEM.norm>
0

>  <SCORE.heavy>
22

>  <SCORE.norm>
-0.515762

>  <RMSD>
23.076

$$$$
ligand
 OpenBabel02271912143D
libRbt.so/2013.1/901 2013/11/27
 22 24  0  0  0  0  0  0  0  0999 V2000
    1.3826   -1.4336   26.9035 N   0  0  0  0  0  0  0  0  0  0  0  0
    3.0918    0.0660   27.6536 N   0  0  0  0  0  0  0  0  0  0  0  0
    2.6698   -1.2001   27.5013 C   0  0  0  0  0  0  0  0  0  0  0  0
    3.4016   -2.2390   27.8844 N   0  0  0  0  0  0  0  0  0  0  0  0
    7.6474   -2.0254   30.1333 O   0  0  0  0  0  0  0  0  0  0  0  0
    4.6083   -2.0418   28.4468 C   0  0  0  0  0  0  0  0  0  0  0  0
    5.0821   -0.7135   28.6354 C   0  0  0  0  0  0  0  0  0  0  0  0
    5.3475   -3.1367   28.8345 O   0  0  0  0  0  0  0  0  0  0  0  0
    6.3649   -0.3511   29.2048 N   0  0  0  0  0  0  0  0  0  0  0  0
    7.0672    0.7753   28.5763 C   0  0  2  0  0  0  0  0  0  0  0  0
    6.1673    1.9670   28.4742 C   0  0  0  0  0  0  0  0  0  0  0  0
    4.2907    0.3245   28.2114 C   0  0  0  0  0  0  0  0  0  0  0  0
    4.7429    1.6534   28.3786 N   0  0  0  0  0  0  0  0  0  0  0  0
    7.6263    0.4577   27.1776 C   0  0  0  0  0  0  0  0  0  0  0  0
    8.7042   -0.5193   27.2693 N   0  0  0  0  0  0  0  0  0  0  0  0
    7.8976   -4.6812   26.9098 C   0  0  0  0  0  0  0  0  0  0  0  0
    9.0766   -4.2549   27.4976 C   0  0  0  0  0  0  0  0  0  0  0  0
    9.3493   -2.8787   27.6206 C   0  0  0  0  0  0  0  0  0  0  0  0
    8.4360   -1.9472   27.1503 C   0  0  0  0  0  0  0  0  0  0  0  0
    7.2518   -2.3788   26.5601 C   0  0  0  0  0  0  0  0  0  0  0  0
    6.9819   -3.7445   26.4409 C   0  0  0  0  0  0  0  0  0  0  0  0
    6.9759   -1.0213   30.3013 C   0  0  0  0  0  0  0  0  0  0  0  0
  1  3  1  0  0  0  0
  2  3  2  0  0  0  0
  2 12  1  0  0  0  0
  3  4  1  0  0  0  0
  4  6  1  0  0  0  0
  5 22  1  0  0  0  0
  6  7  1  0  0  0  0
  6  8  2  0  0  0  0
  7 12  2  0  0  0  0
  7  9  1  0  0  0  0
  9 10  1  0  0  0  0
  9 22  1  0  0  0  0
 10 11  1  0  0  0  0
 10 14  1  6  0  0  0
 11 13  1  0  0  0  0
 12 13  1  0  0  0  0
 14 15  1  0  0  0  0
 15 19  1  0  0  0  0
 16 17  2  0  0  0  0
 16 21  1  0  0  0  0
 17 18  1  0  0  0  0
 18 19  2  0  0  0  0
 19 20  1  0  0  0  0
 20 21  2  0  0  0  0
M  END
>  <CHROM.1>
84.68751722,-67.44241690,92.08457908,-160.71568735,6.06876272,-1.28691766
28.04166218,2.67539700,-0.07712328,0.25940918

>  <Name>
ligand

>  <RI>
0

>  <Rbt.Current_Directory>
/home/itssahil/PROJECTS/Mol_Feturizer/Test_systems_manuscript/rnas/3sd3

>  <Rbt.Executable>
rbdock ($Id: //depot/dev/client3/rdock/2013.1/src/exe/rbdock.cxx#4 $)

>  <Rbt.Library>
libRbt.so (2013.1, Build901 2013/11/27)

>  <Rbt.Parameter_File>
/export/apps/rDock/src/rDock_2013.1_src/data/scripts/dock_solv.prm

>  <Rbt.Receptor>
prm/blind_docking_100.prm

>  <SCORE>
-11.1265

>  <SCORE.INTER>
-9.01914

>  <SCORE.INTER.CONST>
1

>  <SCORE.INTER.POLAR>
0

>  <SCORE.INTER.ROT>
4

>  <SCORE.INTER.SOLV>
7.21027

>  <SCORE.INTER.VDW>
-14.6829

>  <SCORE.INTER.norm>
-0.409961

>  <SCORE.INTRA>
-2.10737

>  <SCORE.INTRA.DIHEDRAL>
-0.086318

>  <SCORE.INTRA.DIHEDRAL.0>
2.54655

>  <SCORE.INTRA.POLAR>
0

>  <SCORE.INTRA.POLAR.0>
0

>  <SCORE.INTRA.REPUL>
0

>  <SCORE.INTRA.REPUL.0>
0

>  <SCORE.INTRA.SOLV>
1.12513

>  <SCORE.INTRA.SOLV.lig_0>
-56.4922

>  <SCORE.INTRA.VDW>
-2.62678

>  <SCORE.INTRA.VDW.0>
-0.696801

>  <SCORE.INTRA.norm>
-0.0957897

>  <SCORE.RESTR>
0

>  <SCORE.RESTR.CAVITY>
0

>  <SCORE.RESTR.norm>
0

>  <SCORE.SYSTEM>
0

>  <SCORE.SYSTEM.CONST>
0

>  <SCORE.SYSTEM.DIHEDRAL>
0

>  <SCORE.SYSTEM.SOLV>
0

>  <SCORE.SYSTEM.norm>
0

>  <SCORE.heavy>
22

>  <SCORE.norm>
-0.505751

>  <RMSD>
23.271

$$$$
ligand
 OpenBabel02271912143D
libRbt.so/2013.1/901 2013/11/27
 22 24  0  0  0  0  0  0  0  0999 V2000
    6.3825   -5.7644   24.1662 N   0  0  0  0  0  0  0  0  0  0  0  0
    5.5206   -4.6148   26.0816 N   0  0  0  0  0  0  0  0  0  0  0  0
    6.5883   -5.0918   25.4208 C   0  0  0  0  0  0  0  0  0  0  0  0
    7.8237   -4.9622   25.8886 N   0  0  0  0  0  0  0  0  0  0  0  0
    7.5418   -3.4734   31.2686 O   0  0  0  0  0  0  0  0  0  0  0  0
    8.0375   -4.3371   27.0611 C   0  0  0  0  0  0  0  0  0  0  0  0
    6.9287   -3.8302   27.7946 C   0  0  0  0  0  0  0  0  0  0  0  0
    9.3287   -4.2153   27.5233 O   0  0  0  0  0  0  0  0  0  0  0  0
    7.0085   -3.1188   29.0550 N   0  0  0  0  0  0  0  0  0  0  0  0
    6.0989   -1.9781   29.2235 C   0  0  2  0  0  0  0  0  0  0  0  0
    4.6891   -2.3786   28.9194 C   0  0  0  0  0  0  0  0  0  0  0  0
    5.6734   -3.9810   27.2606 C   0  0  0  0  0  0  0  0  0  0  0  0
    4.5559   -3.4777   27.9652 N   0  0  0  0  0  0  0  0  0  0  0  0
    6.4631   -0.7584   28.3578 C   0  0  0  0  0  0  0  0  0  0  0  0
    5.6319    0.3852   28.7132 N   0  0  0  0  0  0  0  0  0  0  0  0
    6.1204    4.1389   26.7708 C   0  0  0  0  0  0  0  0  0  0  0  0
    5.2562    3.1951   26.2416 C   0  0  0  0  0  0  0  0  0  0  0  0
    5.0893    1.9510   26.8802 C   0  0  0  0  0  0  0  0  0  0  0  0
    5.7931    1.6687   28.0411 C   0  0  0  0  0  0  0  0  0  0  0  0
    6.6607    2.6194   28.5707 C   0  0  0  0  0  0  0  0  0  0  0  0
    6.8236    3.8540   27.9371 C   0  0  0  0  0  0  0  0  0  0  0  0
    7.9103   -3.4448   30.1063 C   0  0  0  0  0  0  0  0  0  0  0  0
  1  3  1  0  0  0  0
  2  3  2  0  0  0  0
  2 12  1  0  0  0  0
  3  4  1  0  0  0  0
  4  6  1  0  0  0  0
  5 22  1  0  0  0  0
  6  7  1  0  0  0  0
  6  8  2  0  0  0  0
  7 12  2  0  0  0  0
  7  9  1  0  0  0  0
  9 10  1  0  0  0  0
  9 22  1  0  0  0  0
 10 11  1  0  0  0  0
 10 14  1  6  0  0  0
 11 13  1  0  0  0  0
 12 13  1  0  0  0  0
 14 15  1  0  0  0  0
 15 19  1  0  0  0  0
 16 17  2  0  0  0  0
 16 21  1  0  0  0  0
 17 18  1  0  0  0  0
 18 19  2  0  0  0  0
 19 20  1  0  0  0  0
 20 21  2  0  0  0  0
M  END
>  <CHROM.1>
-136.01586143,-172.25301785,179.44349913,88.65210065,6.49008911,-1.85658803
27.74540546,1.05053147,1.27556596,-2.55049648

>  <Name>
ligand

>  <RI>
0

>  <Rbt.Current_Directory>
/home/itssahil/PROJECTS/Mol_Feturizer/Test_systems_manuscript/rnas/3sd3

>  <Rbt.Executable>
rbdock ($Id: //depot/dev/client3/rdock/2013.1/src/exe/rbdock.cxx#4 $)

>  <Rbt.Library>
libRbt.so (2013.1, Build901 2013/11/27)

>  <Rbt.Parameter_File>
/export/apps/rDock/src/rDock_2013.1_src/data/scripts/dock_solv.prm

>  <Rbt.Receptor>
prm/blind_docking_80.prm

>  <SCORE>
-10.1648

>  <SCORE.INTER>
-9.29693

>  <SCORE.INTER.CONST>
1

>  <SCORE.INTER.POLAR>
0

>  <SCORE.INTER.ROT>
4

>  <SCORE.INTER.SOLV>
9.12393

>  <SCORE.INTER.VDW>
-15.5059

>  <SCORE.INTER.norm>
-0.422588

>  <SCORE.INTRA>
-0.867917

>  <SCORE.INTRA.DIHEDRAL>
-0.71016

>  <SCORE.INTRA.DIHEDRAL.0>
2.54655

>  <SCORE.INTRA.POLAR>
0

>  <SCORE.INTRA.POLAR.0>
0

>  <SCORE.INTRA.REPUL>
0

>  <SCORE.INTRA.REPUL.0>
0

>  <SCORE.INTRA.SOLV>
-0.757552

>  <SCORE.INTRA.SOLV.lig_0>
-56.4922

>  <SCORE.INTRA.VDW>
-0.134061

>  <SCORE.INTRA.VDW.0>
-0.696801

>  <SCORE.INTRA.norm>
-0.0394508

>  <SCORE.RESTR>
0

>  <SCORE.RESTR.CAVITY>
0

>  <SCORE.RESTR.norm>
0

>  <SCORE.SYSTEM>
0

>  <SCORE.SYSTEM.CONST>
0

>  <SCORE.SYSTEM.DIHEDRAL>
0

>  <SCORE.SYSTEM.SOLV>
0

>  <SCORE.SYSTEM.norm>
0

>  <SCORE.heavy>
22

>  <SCORE.norm>
-0.462038

>  <RMSD>
23.304

$$$$
ligand
 OpenBabel02271912143D
libRbt.so/2013.1/901 2013/11/27
 22 24  0  0  0  0  0  0  0  0999 V2000
    1.5304   -1.0807   27.3389 N   0  0  0  0  0  0  0  0  0  0  0  0
    2.6610   -1.3906   29.4266 N   0  0  0  0  0  0  0  0  0  0  0  0
    2.5999   -1.6542   28.1109 C   0  0  0  0  0  0  0  0  0  0  0  0
    3.4931   -2.4254   27.5033 N   0  0  0  0  0  0  0  0  0  0  0  0
    7.2791   -4.7124   29.8712 O   0  0  0  0  0  0  0  0  0  0  0  0
    4.5007   -2.9724   28.2080 C   0  0  0  0  0  0  0  0  0  0  0  0
    4.5897   -2.7250   29.6063 C   0  0  0  0  0  0  0  0  0  0  0  0
    5.4142   -3.7677   27.5533 O   0  0  0  0  0  0  0  0  0  0  0  0
    5.6276   -3.2271   30.4848 N   0  0  0  0  0  0  0  0  0  0  0  0
    6.1216   -2.3019   31.5129 C   0  0  2  0  0  0  0  0  0  0  0  0
    4.9829   -1.7285   32.2972 C   0  0  0  0  0  0  0  0  0  0  0  0
    3.6468   -1.9115   30.1831 C   0  0  0  0  0  0  0  0  0  0  0  0
    3.7185   -1.6423   31.5691 N   0  0  0  0  0  0  0  0  0  0  0  0
    6.9679   -1.1441   30.9534 C   0  0  0  0  0  0  0  0  0  0  0  0
    6.2817   -0.5037   29.8381 N   0  0  0  0  0  0  0  0  0  0  0  0
    8.0406   -0.3396   25.9676 C   0  0  0  0  0  0  0  0  0  0  0  0
    7.8569   -1.5623   26.5911 C   0  0  0  0  0  0  0  0  0  0  0  0
    7.2744   -1.6237   27.8718 C   0  0  0  0  0  0  0  0  0  0  0  0
    6.8850   -0.4569   28.5119 C   0  0  0  0  0  0  0  0  0  0  0  0
    7.0707    0.7705   27.8827 C   0  0  0  0  0  0  0  0  0  0  0  0
    7.6468    0.8295   26.6111 C   0  0  0  0  0  0  0  0  0  0  0  0
    6.1942   -4.5294   30.3975 C   0  0  0  0  0  0  0  0  0  0  0  0
  1  3  1  0  0  0  0
  2  3  2  0  0  0  0
  2 12  1  0  0  0  0
  3  4  1  0  0  0  0
  4  6  1  0  0  0  0
  5 22  1  0  0  0  0
  6  7  1  0  0  0  0
  6  8  2  0  0  0  0
  7 12  2  0  0  0  0
  7  9  1  0  0  0  0
  9 10  1  0  0  0  0
  9 22  1  0  0  0  0
 10 11  1  0  0  0  0
 10 14  1  6  0  0  0
 11 13  1  0  0  0  0
 12 13  1  0  0  0  0
 14 15  1  0  0  0  0
 15 19  1  0  0  0  0
 16 17  2  0  0  0  0
 16 21  1  0  0  0  0
 17 18  1  0  0  0  0
 18 19  2  0  0  0  0
 19 20  1  0  0  0  0
 20 21  2  0  0  0  0
M  END
>  <CHROM.1>
101.00335797,49.32260181,-120.06243769,56.13287468,5.44493288,-1.89939729
29.07362851,2.31678673,0.02512178,2.08310837

>  <Name>
ligand

>  <RI>
0

>  <Rbt.Current_Directory>
/home/itssahil/PROJECTS/Mol_Feturizer/Test_systems_manuscript/rnas/3sd3

>  <Rbt.Executable>
rbdock ($Id: //depot/dev/client3/rdock/2013.1/src/exe/rbdock.cxx#4 $)

>  <Rbt.Library>
libRbt.so (2013.1, Build901 2013/11/27)

>  <Rbt.Parameter_File>
/export/apps/rDock/src/rDock_2013.1_src/data/scripts/dock_solv.prm

>  <Rbt.Receptor>
prm/blind_docking_60.prm

>  <SCORE>
-11.7876

>  <SCORE.INTER>
-11.0011

>  <SCORE.INTER.CONST>
1

>  <SCORE.INTER.POLAR>
0

>  <SCORE.INTER.ROT>
4

>  <SCORE.INTER.SOLV>
6.79157

>  <SCORE.INTER.VDW>
-15.8646

>  <SCORE.INTER.norm>
-0.500048

>  <SCORE.INTRA>
-0.786515

>  <SCORE.INTRA.DIHEDRAL>
0.649511

>  <SCORE.INTRA.DIHEDRAL.0>
2.54655

>  <SCORE.INTRA.POLAR>
0

>  <SCORE.INTRA.POLAR.0>
0

>  <SCORE.INTRA.REPUL>
0

>  <SCORE.INTRA.REPUL.0>
0

>  <SCORE.INTRA.SOLV>
2.48274

>  <SCORE.INTRA.SOLV.lig_0>
-56.4922

>  <SCORE.INTRA.VDW>
-2.35264

>  <SCORE.INTRA.VDW.0>
-0.696801

>  <SCORE.INTRA.norm>
-0.0357507

>  <SCORE.RESTR>
0

>  <SCORE.RESTR.CAVITY>
0

>  <SCORE.RESTR.norm>
0

>  <SCORE.SYSTEM>
0

>  <SCORE.SYSTEM.CONST>
0

>  <SCORE.SYSTEM.DIHEDRAL>
0

>  <SCORE.SYSTEM.SOLV>
0

>  <SCORE.SYSTEM.norm>
0

>  <SCORE.heavy>
22

>  <SCORE.norm>
-0.535798

>  <RMSD>
23.471

$$$$
ligand
 OpenBabel02271912143D
libRbt.so/2013.1/901 2013/11/27
 22 24  0  0  0  0  0  0  0  0999 V2000
    2.1675   -4.4715   25.3594 N   0  0  0  0  0  0  0  0  0  0  0  0
    2.0980   -2.6826   26.9494 N   0  0  0  0  0  0  0  0  0  0  0  0
    2.7502   -3.7492   26.4583 C   0  0  0  0  0  0  0  0  0  0  0  0
    3.9122   -4.1560   26.9543 N   0  0  0  0  0  0  0  0  0  0  0  0
    6.1919   -2.1737   30.7808 O   0  0  0  0  0  0  0  0  0  0  0  0
    4.4736   -3.4945   27.9831 C   0  0  0  0  0  0  0  0  0  0  0  0
    3.8047   -2.3675   28.5370 C   0  0  0  0  0  0  0  0  0  0  0  0
    5.6798   -3.9367   28.4783 O   0  0  0  0  0  0  0  0  0  0  0  0
    4.2977   -1.5488   29.6269 N   0  0  0  0  0  0  0  0  0  0  0  0
    4.0830   -0.1007   29.5090 C   0  0  2  0  0  0  0  0  0  0  0  0
    2.6450    0.1973   29.2193 C   0  0  0  0  0  0  0  0  0  0  0  0
    2.6112   -1.9822   27.9796 C   0  0  0  0  0  0  0  0  0  0  0  0
    1.9314   -0.8598   28.5054 N   0  0  0  0  0  0  0  0  0  0  0  0
    4.9531    0.5719   28.4319 C   0  0  0  0  0  0  0  0  0  0  0  0
    6.3426    0.6386   28.8676 N   0  0  0  0  0  0  0  0  0  0  0  0
    9.2620   -1.9837   27.2238 C   0  0  0  0  0  0  0  0  0  0  0  0
    9.6453   -0.7509   27.7247 C   0  0  0  0  0  0  0  0  0  0  0  0
    8.6841    0.1213   28.2711 C   0  0  0  0  0  0  0  0  0  0  0  0
    7.3496   -0.2536   28.3063 C   0  0  0  0  0  0  0  0  0  0  0  0
    6.9673   -1.4932   27.8022 C   0  0  0  0  0  0  0  0  0  0  0  0
    7.9226   -2.3584   27.2625 C   0  0  0  0  0  0  0  0  0  0  0  0
    4.9781   -2.0558   30.7691 C   0  0  0  0  0  0  0  0  0  0  0  0
  1  3  1  0  0  0  0
  2  3  2  0  0  0  0
  2 12  1  0  0  0  0
  3  4  1  0  0  0  0
  4  6  1  0  0  0  0
  5 22  1  0  0  0  0
  6  7  1  0  0  0  0
  6  8  2  0  0  0  0
  7 12  2  0  0  0  0
  7  9  1  0  0  0  0
  9 10  1  0  0  0  0
  9 22  1  0  0  0  0
 10 11  1  0  0  0  0
 10 14  1  6  0  0  0
 11 13  1  0  0  0  0
 12 13  1  0  0  0  0
 14 15  1  0  0  0  0
 15 19  1  0  0  0  0
 16 17  2  0  0  0  0
 16 21  1  0  0  0  0
 17 18  1  0  0  0  0
 18 19  2  0  0  0  0
 19 20  1  0  0  0  0
 20 21  2  0  0  0  0
M  END
>  <CHROM.1>
89.87255339,-72.36483826,105.33209549,153.44175077,5.05573076,-1.78636243
28.27475105,-2.76067049,0.07829913,0.63935919

>  <Name>
ligand

>  <RI>
0

>  <Rbt.Current_Directory>
/home/itssahil/PROJECTS/Mol_Feturizer/Test_systems_manuscript/rnas/3sd3

>  <Rbt.Executable>
rbdock ($Id: //depot/dev/client3/rdock/2013.1/src/exe/rbdock.cxx#4 $)

>  <Rbt.Library>
libRbt.so (2013.1, Build901 2013/11/27)

>  <Rbt.Parameter_File>
/export/apps/rDock/src/rDock_2013.1_src/data/scripts/dock_solv.prm

>  <Rbt.Receptor>
prm/blind_docking_40.prm

>  <SCORE>
-9.93685

>  <SCORE.INTER>
-8.69421

>  <SCORE.INTER.CONST>
1

>  <SCORE.INTER.POLAR>
0

>  <SCORE.INTER.ROT>
4

>  <SCORE.INTER.SOLV>
6.07439

>  <SCORE.INTER.VDW>
-14.0876

>  <SCORE.INTER.norm>
-0.395191

>  <SCORE.INTRA>
-1.24265

>  <SCORE.INTRA.DIHEDRAL>
0.604582

>  <SCORE.INTRA.DIHEDRAL.0>
2.54655

>  <SCORE.INTRA.POLAR>
0

>  <SCORE.INTRA.POLAR.0>
0

>  <SCORE.INTRA.REPUL>
0

>  <SCORE.INTRA.REPUL.0>
0

>  <SCORE.INTRA.SOLV>
0.918498

>  <SCORE.INTRA.SOLV.lig_0>
-56.4922

>  <SCORE.INTRA.VDW>
-2.00419

>  <SCORE.INTRA.VDW.0>
-0.696801

>  <SCORE.INTRA.norm>
-0.0564839

>  <SCORE.RESTR>
0

>  <SCORE.RESTR.CAVITY>
0

>  <SCORE.RESTR.norm>
0

>  <SCORE.SYSTEM>
0

>  <SCORE.SYSTEM.CONST>
0

>  <SCORE.SYSTEM.DIHEDRAL>
0

>  <SCORE.SYSTEM.SOLV>
0

>  <SCORE.SYSTEM.norm>
0

>  <SCORE.heavy>
22

>  <SCORE.norm>
-0.451675

>  <RMSD>
23.512

$$$$
ligand
 OpenBabel02271912143D
libRbt.so/2013.1/901 2013/11/27
 22 24  0  0  0  0  0  0  0  0999 V2000
    1.9361   -4.3832   25.5717 N   0  0  0  0  0  0  0  0  0  0  0  0
    1.9806   -2.5962   27.1647 N   0  0  0  0  0  0  0  0  0  0  0  0
    2.5877   -3.6731   26.6394 C   0  0  0  0  0  0  0  0  0  0  0  0
    3.7666   -4.1009   27.0740 N   0  0  0  0  0  0  0  0  0  0  0  0
    6.2854   -2.0173   30.8424 O   0  0  0  0  0  0  0  0  0  0  0  0
    4.3923   -3.4512   28.0728 C   0  0  0  0  0  0  0  0  0  0  0  0
    3.7728   -2.3137   28.6617 C   0  0  0  0  0  0  0  0  0  0  0  0
    5.6146   -3.9152   28.5042 O   0  0  0  0  0  0  0  0  0  0  0  0
    4.3360   -1.5056   29.7252 N   0  0  0  0  0  0  0  0  0  0  0  0
    4.1407   -0.0538   29.6200 C   0  0  2  0  0  0  0  0  0  0  0  0
    2.6950    0.2696   29.4058 C   0  0  0  0  0  0  0  0  0  0  0  0
    2.5589   -1.9067   28.1675 C   0  0  0  0  0  0  0  0  0  0  0  0
    1.9270   -0.7736   28.7290 N   0  0  0  0  0  0  0  0  0  0  0  0
    4.9652    0.6055   28.4997 C   0  0  0  0  0  0  0  0  0  0  0  0
    6.3709    0.6813   28.8785 N   0  0  0  0  0  0  0  0  0  0  0  0
    9.2488   -1.9999   27.2567 C   0  0  0  0  0  0  0  0  0  0  0  0
    7.9142   -2.3660   27.3048 C   0  0  0  0  0  0  0  0  0  0  0  0
    6.9564   -1.4828   27.8395 C   0  0  0  0  0  0  0  0  0  0  0  0
    7.3501   -0.2435   28.3211 C   0  0  0  0  0  0  0  0  0  0  0  0
    8.6921    0.1217   28.2714 C   0  0  0  0  0  0  0  0  0  0  0  0
    9.6408   -0.7549   27.7386 C   0  0  0  0  0  0  0  0  0  0  0  0
    5.0660   -2.0265   30.8300 C   0  0  0  0  0  0  0  0  0  0  0  0
  1  3  1  0  0  0  0
  2  3  2  0  0  0  0
  2 12  1  0  0  0  0
  3  4  1  0  0  0  0
  4  6  1  0  0  0  0
  5 22  1  0  0  0  0
  6  7  1  0  0  0  0
  6  8  2  0  0  0  0
  7 12  2  0  0  0  0
  7  9  1  0  0  0  0
  9 10  1  0  0  0  0
  9 22  1  0  0  0  0
 10 11  1  0  0  0  0
 10 14  1  6  0  0  0
 11 13  1  0  0  0  0
 12 13  1  0  0  0  0
 14 15  1  0  0  0  0
 15 19  1  0  0  0  0
 16 17  2  0  0  0  0
 16 21  1  0  0  0  0
 17 18  1  0  0  0  0
 18 19  2  0  0  0  0
 19 20  1  0  0  0  0
 20 21  2  0  0  0  0
M  END
>  <CHROM.1>
98.75932800,-73.96119095,103.40701528,-24.17340906,5.03161183,-1.73868919
28.37192621,-2.78630463,0.08858331,0.63416384

>  <Name>
ligand

>  <RI>
0

>  <Rbt.Current_Directory>
/home/itssahil/PROJECTS/Mol_Feturizer/Test_systems_manuscript/rnas/3sd3

>  <Rbt.Executable>
rbdock ($Id: //depot/dev/client3/rdock/2013.1/src/exe/rbdock.cxx#4 $)

>  <Rbt.Library>
libRbt.so (2013.1, Build901 2013/11/27)

>  <Rbt.Parameter_File>
/export/apps/rDock/src/rDock_2013.1_src/data/scripts/dock_solv.prm

>  <Rbt.Receptor>
prm/blind_docking_40.prm

>  <SCORE>
-10.061

>  <SCORE.INTER>
-8.83402

>  <SCORE.INTER.CONST>
1

>  <SCORE.INTER.POLAR>
0

>  <SCORE.INTER.ROT>
4

>  <SCORE.INTER.SOLV>
5.01829

>  <SCORE.INTER.VDW>
-13.8288

>  <SCORE.INTER.norm>
-0.401546

>  <SCORE.INTRA>
-1.23131

>  <SCORE.INTRA.DIHEDRAL>
0.701497

>  <SCORE.INTRA.DIHEDRAL.0>
2.54655

>  <SCORE.INTRA.POLAR>
0

>  <SCORE.INTRA.POLAR.0>
0

>  <SCORE.INTRA.REPUL>
0

>  <SCORE.INTRA.REPUL.0>
0

>  <SCORE.INTRA.SOLV>
0.914556

>  <SCORE.INTRA.SOLV.lig_0>
-56.4922

>  <SCORE.INTRA.VDW>
-2.03934

>  <SCORE.INTRA.VDW.0>
-0.696801

>  <SCORE.INTRA.norm>
-0.0559686

>  <SCORE.RESTR>
0.00429565

>  <SCORE.RESTR.CAVITY>
0.00429565

>  <SCORE.RESTR.norm>
0.000195257

>  <SCORE.SYSTEM>
0

>  <SCORE.SYSTEM.CONST>
0

>  <SCORE.SYSTEM.DIHEDRAL>
0

>  <SCORE.SYSTEM.SOLV>
0

>  <SCORE.SYSTEM.norm>
0

>  <SCORE.heavy>
22

>  <SCORE.norm>
-0.45732

>  <RMSD>
23.568

$$$$
ligand
 OpenBabel02271912143D
libRbt.so/2013.1/901 2013/11/27
 22 24  0  0  0  0  0  0  0  0999 V2000
    1.3017   -0.9397   27.5391 N   0  0  0  0  0  0  0  0  0  0  0  0
    2.5168   -1.2785   29.5742 N   0  0  0  0  0  0  0  0  0  0  0  0
    2.4184   -1.4986   28.2528 C   0  0  0  0  0  0  0  0  0  0  0  0
    3.3169   -2.2140   27.5875 N   0  0  0  0  0  0  0  0  0  0  0  0
    7.2777   -4.5603   30.8137 O   0  0  0  0  0  0  0  0  0  0  0  0
    4.3685   -2.7465   28.2370 C   0  0  0  0  0  0  0  0  0  0  0  0
    4.4983   -2.5444   29.6394 C   0  0  0  0  0  0  0  0  0  0  0  0
    5.2865   -3.4836   27.5232 O   0  0  0  0  0  0  0  0  0  0  0  0
    5.5846   -3.0369   30.4632 N   0  0  0  0  0  0  0  0  0  0  0  0
    6.0807   -2.1297   31.5061 C   0  0  2  0  0  0  0  0  0  0  0  0
    4.9505   -1.6273   32.3492 C   0  0  0  0  0  0  0  0  0  0  0  0
    3.5474   -1.7876   30.2771 C   0  0  0  0  0  0  0  0  0  0  0  0
    3.6587   -1.5640   31.6686 N   0  0  0  0  0  0  0  0  0  0  0  0
    6.8636   -0.9222   30.9598 C   0  0  0  0  0  0  0  0  0  0  0  0
    6.2041   -0.3794   29.7784 N   0  0  0  0  0  0  0  0  0  0  0  0
    8.0936   -0.5216   25.9691 C   0  0  0  0  0  0  0  0  0  0  0  0
    7.6456    0.6880   26.4727 C   0  0  0  0  0  0  0  0  0  0  0  0
    7.0201    0.7421   27.7334 C   0  0  0  0  0  0  0  0  0  0  0  0
    6.8504   -0.4188   28.4725 C   0  0  0  0  0  0  0  0  0  0  0  0
    7.3019   -1.6330   27.9638 C   0  0  0  0  0  0  0  0  0  0  0  0
    7.9242   -1.6846   26.7138 C   0  0  0  0  0  0  0  0  0  0  0  0
    6.1950   -4.3131   30.3097 C   0  0  0  0  0  0  0  0  0  0  0  0
  1  3  1  0  0  0  0
  2  3  2  0  0  0  0
  2 12  1  0  0  0  0
  3  4  1  0  0  0  0
  4  6  1  0  0  0  0
  5 22  1  0  0  0  0
  6  7  1  0  0  0  0
  6  8  2  0  0  0  0
  7 12  2  0  0  0  0
  7  9  1  0  0  0  0
  9 10  1  0  0  0  0
  9 22  1  0  0  0  0
 10 11  1  0  0  0  0
 10 14  1  6  0  0  0
 11 13  1  0  0  0  0
 12 13  1  0  0  0  0
 14 15  1  0  0  0  0
 15 19  1  0  0  0  0
 16 17  2  0  0  0  0
 16 21  1  0  0  0  0
 17 18  1  0  0  0  0
 18 19  2  0  0  0  0
 19 20  1  0  0  0  0
 20 21  2  0  0  0  0
M  END
>  <CHROM.1>
163.39984786,41.71091180,-115.21827951,-125.26786794,5.37609618,-1.79060941
29.15139904,2.39152993,-0.01627315,2.03542954

>  <Name>
ligand

>  <RI>
0

>  <Rbt.Current_Directory>
/home/itssahil/PROJECTS/Mol_Feturizer/Test_systems_manuscript/rnas/3sd3

>  <Rbt.Executable>
rbdock ($Id: //depot/dev/client3/rdock/2013.1/src/exe/rbdock.cxx#4 $)

>  <Rbt.Library>
libRbt.so (2013.1, Build901 2013/11/27)

>  <Rbt.Parameter_File>
/export/apps/rDock/src/rDock_2013.1_src/data/scripts/dock_solv.prm

>  <Rbt.Receptor>
prm/blind_docking_40.prm

>  <SCORE>
-11.0145

>  <SCORE.INTER>
-11.1264

>  <SCORE.INTER.CONST>
1

>  <SCORE.INTER.POLAR>
0

>  <SCORE.INTER.ROT>
4

>  <SCORE.INTER.SOLV>
6.94395

>  <SCORE.INTER.VDW>
-15.9989

>  <SCORE.INTER.norm>
-0.505746

>  <SCORE.INTRA>
0.111931

>  <SCORE.INTRA.DIHEDRAL>
1.37771

>  <SCORE.INTRA.DIHEDRAL.0>
2.54655

>  <SCORE.INTRA.POLAR>
0

>  <SCORE.INTRA.POLAR.0>
0

>  <SCORE.INTRA.REPUL>
0

>  <SCORE.INTRA.REPUL.0>
0

>  <SCORE.INTRA.SOLV>
2.4356

>  <SCORE.INTRA.SOLV.lig_0>
-56.4922

>  <SCORE.INTRA.VDW>
-1.79472

>  <SCORE.INTRA.VDW.0>
-0.696801

>  <SCORE.INTRA.norm>
0.00508777

>  <SCORE.RESTR>
0

>  <SCORE.RESTR.CAVITY>
0

>  <SCORE.RESTR.norm>
0

>  <SCORE.SYSTEM>
0

>  <SCORE.SYSTEM.CONST>
0

>  <SCORE.SYSTEM.DIHEDRAL>
0

>  <SCORE.SYSTEM.SOLV>
0

>  <SCORE.SYSTEM.norm>
0

>  <SCORE.heavy>
22

>  <SCORE.norm>
-0.500658

>  <RMSD>
23.590

$$$$
ligand
 OpenBabel02271912143D
libRbt.so/2013.1/901 2013/11/27
 22 24  0  0  0  0  0  0  0  0999 V2000
    1.1587   -1.1522   27.2086 N   0  0  0  0  0  0  0  0  0  0  0  0
    2.2911   -1.3971   29.3040 N   0  0  0  0  0  0  0  0  0  0  0  0
    2.2951   -1.5889   27.9746 C   0  0  0  0  0  0  0  0  0  0  0  0
    3.3122   -2.1674   27.3479 N   0  0  0  0  0  0  0  0  0  0  0  0
    7.4057   -3.9365   29.7344 O   0  0  0  0  0  0  0  0  0  0  0  0
    4.3843   -2.5841   28.0466 C   0  0  0  0  0  0  0  0  0  0  0  0
    4.4091   -2.4087   29.4584 C   0  0  0  0  0  0  0  0  0  0  0  0
    5.4260   -3.1803   27.3722 O   0  0  0  0  0  0  0  0  0  0  0  0
    5.5008   -2.7865   30.3338 N   0  0  0  0  0  0  0  0  0  0  0  0
    5.8201   -1.8557   31.4241 C   0  0  2  0  0  0  0  0  0  0  0  0
    4.5904   -1.5223   32.2097 C   0  0  0  0  0  0  0  0  0  0  0  0
    3.3365   -1.7947   30.0553 C   0  0  0  0  0  0  0  0  0  0  0  0
    3.3409   -1.5999   31.4555 N   0  0  0  0  0  0  0  0  0  0  0  0
    6.4744   -0.5448   30.9517 C   0  0  0  0  0  0  0  0  0  0  0  0
    7.6932   -0.8246   30.2025 N   0  0  0  0  0  0  0  0  0  0  0  0
    7.9307   -0.0762   26.0210 C   0  0  0  0  0  0  0  0  0  0  0  0
    7.6838    0.9680   26.8963 C   0  0  0  0  0  0  0  0  0  0  0  0
    7.6049    0.7272   28.2817 C   0  0  0  0  0  0  0  0  0  0  0  0
    7.7730   -0.5591   28.7714 C   0  0  0  0  0  0  0  0  0  0  0  0
    8.0212   -1.6066   27.8893 C   0  0  0  0  0  0  0  0  0  0  0  0
    8.1013   -1.3656   26.5154 C   0  0  0  0  0  0  0  0  0  0  0  0
    6.2743   -3.9720   30.1885 C   0  0  0  0  0  0  0  0  0  0  0  0
  1  3  1  0  0  0  0
  2  3  2  0  0  0  0
  2 12  1  0  0  0  0
  3  4  1  0  0  0  0
  4  6  1  0  0  0  0
  5 22  1  0  0  0  0
  6  7  1  0  0  0  0
  6  8  2  0  0  0  0
  7 12  2  0  0  0  0
  7  9  1  0  0  0  0
  9 10  1  0  0  0  0
  9 22  1  0  0  0  0
 10 11  1  0  0  0  0
 10 14  1  6  0  0  0
 11 13  1  0  0  0  0
 12 13  1  0  0  0  0
 14 15  1  0  0  0  0
 15 19  1  0  0  0  0
 16 17  2  0  0  0  0
 16 21  1  0  0  0  0
 17 18  1  0  0  0  0
 18 19  2  0  0  0  0
 19 20  1  0  0  0  0
 20 21  2  0  0  0  0
M  END
>  <CHROM.1>
104.23735364,-57.30986880,111.89771050,60.76224675,5.45840358,-1.66650874
29.03807834,2.81891893,0.12620022,1.86153628

>  <Name>
ligand

>  <RI>
0

>  <Rbt.Current_Directory>
/home/itssahil/PROJECTS/Mol_Feturizer/Test_systems_manuscript/rnas/3sd3

>  <Rbt.Executable>
rbdock ($Id: //depot/dev/client3/rdock/2013.1/src/exe/rbdock.cxx#4 $)

>  <Rbt.Library>
libRbt.so (2013.1, Build901 2013/11/27)

>  <Rbt.Parameter_File>
/export/apps/rDock/src/rDock_2013.1_src/data/scripts/dock_solv.prm

>  <Rbt.Receptor>
prm/blind_docking_40.prm

>  <SCORE>
-12.9554

>  <SCORE.INTER>
-11.2751

>  <SCORE.INTER.CONST>
1

>  <SCORE.INTER.POLAR>
0

>  <SCORE.INTER.ROT>
4

>  <SCORE.INTER.SOLV>
6.65561

>  <SCORE.INTER.VDW>
-16.0019

>  <SCORE.INTER.norm>
-0.512505

>  <SCORE.INTRA>
-1.68027

>  <SCORE.INTRA.DIHEDRAL>
0.244596

>  <SCORE.INTRA.DIHEDRAL.0>
2.54655

>  <SCORE.INTRA.POLAR>
0

>  <SCORE.INTRA.POLAR.0>
0

>  <SCORE.INTRA.REPUL>
0

>  <SCORE.INTRA.REPUL.0>
0

>  <SCORE.INTRA.SOLV>
1.08829

>  <SCORE.INTRA.SOLV.lig_0>
-56.4922

>  <SCORE.INTRA.VDW>
-2.34671

>  <SCORE.INTRA.VDW.0>
-0.696801

>  <SCORE.INTRA.norm>
-0.0763761

>  <SCORE.RESTR>
0

>  <SCORE.RESTR.CAVITY>
0

>  <SCORE.RESTR.norm>
0

>  <SCORE.SYSTEM>
0

>  <SCORE.SYSTEM.CONST>
0

>  <SCORE.SYSTEM.DIHEDRAL>
0

>  <SCORE.SYSTEM.SOLV>
0

>  <SCORE.SYSTEM.norm>
0

>  <SCORE.heavy>
22

>  <SCORE.norm>
-0.588881

>  <RMSD>
23.600

$$$$
ligand
 OpenBabel02271912143D
libRbt.so/2013.1/901 2013/11/27
 22 24  0  0  0  0  0  0  0  0999 V2000
    1.1510   -1.1549   27.0702 N   0  0  0  0  0  0  0  0  0  0  0  0
    2.2310   -1.4225   29.1903 N   0  0  0  0  0  0  0  0  0  0  0  0
    2.2676   -1.6010   27.8595 C   0  0  0  0  0  0  0  0  0  0  0  0
    3.2990   -2.1749   27.2523 N   0  0  0  0  0  0  0  0  0  0  0  0
    5.6573   -5.1048   30.0332 O   0  0  0  0  0  0  0  0  0  0  0  0
    4.3530   -2.6002   27.9730 C   0  0  0  0  0  0  0  0  0  0  0  0
    4.3432   -2.4390   29.3866 C   0  0  0  0  0  0  0  0  0  0  0  0
    5.4103   -3.1913   27.3185 O   0  0  0  0  0  0  0  0  0  0  0  0
    5.4125   -2.8273   30.2849 N   0  0  0  0  0  0  0  0  0  0  0  0
    5.7060   -1.9080   31.3920 C   0  0  2  0  0  0  0  0  0  0  0  0
    4.4578   -1.5805   32.1504 C   0  0  0  0  0  0  0  0  0  0  0  0
    3.2571   -1.8293   29.9630 C   0  0  0  0  0  0  0  0  0  0  0  0
    3.2272   -1.6485   31.3648 N   0  0  0  0  0  0  0  0  0  0  0  0
    6.3735   -0.5935   30.9491 C   0  0  0  0  0  0  0  0  0  0  0  0
    7.6132   -0.8675   30.2327 N   0  0  0  0  0  0  0  0  0  0  0  0
    7.9537   -0.1307   26.0562 C   0  0  0  0  0  0  0  0  0  0  0  0
    7.6939    0.9174   26.9232 C   0  0  0  0  0  0  0  0  0  0  0  0
    7.5809    0.6804   28.3068 C   0  0  0  0  0  0  0  0  0  0  0  0
    7.7283   -0.6059   28.8033 C   0  0  0  0  0  0  0  0  0  0  0  0
    7.9896   -1.6572   27.9295 C   0  0  0  0  0  0  0  0  0  0  0  0
    8.1035   -1.4200   26.5573 C   0  0  0  0  0  0  0  0  0  0  0  0
    6.1878   -4.0125   30.1468 C   0  0  0  0  0  0  0  0  0  0  0  0
  1  3  1  0  0  0  0
  2  3  2  0  0  0  0
  2 12  1  0  0  0  0
  3  4  1  0  0  0  0
  4  6  1  0  0  0  0
  5 22  1  0  0  0  0
  6  7  1  0  0  0  0
  6  8  2  0  0  0  0
  7 12  2  0  0  0  0
  7  9  1  0  0  0  0
  9 10  1  0  0  0  0
  9 22  1  0  0  0  0
 10 11  1  0  0  0  0
 10 14  1  6  0  0  0
 11 13  1  0  0  0  0
 12 13  1  0  0  0  0
 14 15  1  0  0  0  0
 15 19  1  0  0  0  0
 16 17  2  0  0  0  0
 16 21  1  0  0  0  0
 17 18  1  0  0  0  0
 18 19  2  0  0  0  0
 19 20  1  0  0  0  0
 20 21  2  0  0  0  0
M  END
>  <CHROM.1>
-52.33079885,-57.56550420,111.12789648,61.56527723,5.31241821,-1.76516147
29.01688443,2.72644340,0.18615140,1.93357438

>  <Name>
ligand

>  <RI>
0

>  <Rbt.Current_Directory>
/home/itssahil/PROJECTS/Mol_Feturizer/Test_systems_manuscript/rnas/3sd3

>  <Rbt.Executable>
rbdock ($Id: //depot/dev/client3/rdock/2013.1/src/exe/rbdock.cxx#4 $)

>  <Rbt.Library>
libRbt.so (2013.1, Build901 2013/11/27)

>  <Rbt.Parameter_File>
/export/apps/rDock/src/rDock_2013.1_src/data/scripts/dock_solv.prm

>  <Rbt.Receptor>
prm/blind_docking_40.prm

>  <SCORE>
-13.9285

>  <SCORE.INTER>
-12.0795

>  <SCORE.INTER.CONST>
1

>  <SCORE.INTER.POLAR>
0

>  <SCORE.INTER.ROT>
4

>  <SCORE.INTER.SOLV>
7.67724

>  <SCORE.INTER.VDW>
-16.8788

>  <SCORE.INTER.norm>
-0.54907

>  <SCORE.INTRA>
-1.84892

>  <SCORE.INTRA.DIHEDRAL>
0.237866

>  <SCORE.INTRA.DIHEDRAL.0>
2.54655

>  <SCORE.INTRA.POLAR>
0

>  <SCORE.INTRA.POLAR.0>
0

>  <SCORE.INTRA.REPUL>
0

>  <SCORE.INTRA.REPUL.0>
0

>  <SCORE.INTRA.SOLV>
0.210425

>  <SCORE.INTRA.SOLV.lig_0>
-56.4922

>  <SCORE.INTRA.VDW>
-2.07307

>  <SCORE.INTRA.VDW.0>
-0.696801

>  <SCORE.INTRA.norm>
-0.0840419

>  <SCORE.RESTR>
0

>  <SCORE.RESTR.CAVITY>
0

>  <SCORE.RESTR.norm>
0

>  <SCORE.SYSTEM>
0

>  <SCORE.SYSTEM.CONST>
0

>  <SCORE.SYSTEM.DIHEDRAL>
0

>  <SCORE.SYSTEM.SOLV>
0

>  <SCORE.SYSTEM.norm>
0

>  <SCORE.heavy>
22

>  <SCORE.norm>
-0.633112

>  <RMSD>
23.603

$$$$
ligand
 OpenBabel02271912143D
libRbt.so/2013.1/901 2013/11/27
 22 24  0  0  0  0  0  0  0  0999 V2000
    1.1297   -1.1632   27.0059 N   0  0  0  0  0  0  0  0  0  0  0  0
    2.1801   -1.3892   29.1456 N   0  0  0  0  0  0  0  0  0  0  0  0
    2.2347   -1.5944   27.8193 C   0  0  0  0  0  0  0  0  0  0  0  0
    3.2737   -2.1813   27.2381 N   0  0  0  0  0  0  0  0  0  0  0  0
    5.6526   -4.9831   29.7303 O   0  0  0  0  0  0  0  0  0  0  0  0
    4.3172   -2.5931   27.9816 C   0  0  0  0  0  0  0  0  0  0  0  0
    4.2881   -2.4035   29.3914 C   0  0  0  0  0  0  0  0  0  0  0  0
    5.3826   -3.1983   27.3537 O   0  0  0  0  0  0  0  0  0  0  0  0
    5.3445   -2.7747   30.3119 N   0  0  0  0  0  0  0  0  0  0  0  0
    5.6239   -1.8336   31.4043 C   0  0  2  0  0  0  0  0  0  0  0  0
    4.3657   -1.4898   32.1387 C   0  0  0  0  0  0  0  0  0  0  0  0
    3.1949   -1.7814   29.9404 C   0  0  0  0  0  0  0  0  0  0  0  0
    3.1460   -1.5724   31.3378 N   0  0  0  0  0  0  0  0  0  0  0  0
    6.2990   -0.5289   30.9443 C   0  0  0  0  0  0  0  0  0  0  0  0
    7.5445   -0.8188   30.2444 N   0  0  0  0  0  0  0  0  0  0  0  0
    7.9321   -0.1341   26.0632 C   0  0  0  0  0  0  0  0  0  0  0  0
    7.7222    0.9326   26.9208 C   0  0  0  0  0  0  0  0  0  0  0  0
    7.5940    0.7129   28.3060 C   0  0  0  0  0  0  0  0  0  0  0  0
    7.6762   -0.5750   28.8133 C   0  0  0  0  0  0  0  0  0  0  0  0
    7.8874   -1.6451   27.9488 C   0  0  0  0  0  0  0  0  0  0  0  0
    8.0166   -1.4252   26.5751 C   0  0  0  0  0  0  0  0  0  0  0  0
    6.1202   -3.9631   30.2083 C   0  0  0  0  0  0  0  0  0  0  0  0
  1  3  1  0  0  0  0
  2  3  2  0  0  0  0
  2 12  1  0  0  0  0
  3  4  1  0  0  0  0
  4  6  1  0  0  0  0
  5 22  1  0  0  0  0
  6  7  1  0  0  0  0
  6  8  2  0  0  0  0
  7 12  2  0  0  0  0
  7  9  1  0  0  0  0
  9 10  1  0  0  0  0
  9 22  1  0  0  0  0
 10 11  1  0  0  0  0
 10 14  1  6  0  0  0
 11 13  1  0  0  0  0
 12 13  1  0  0  0  0
 14 15  1  0  0  0  0
 15 19  1  0  0  0  0
 16 17  2  0  0  0  0
 16 21  1  0  0  0  0
 17 18  1  0  0  0  0
 18 19  2  0  0  0  0
 19 20  1  0  0  0  0
 20 21  2  0  0  0  0
M  END
>  <CHROM.1>
-30.70757181,-57.25979349,111.51963042,64.10714999,5.26372722,-1.72886262
28.99958428,2.75989504,0.20303861,1.87799122

>  <Name>
ligand

>  <RI>
0

>  <Rbt.Current_Directory>
/home/itssahil/PROJECTS/Mol_Feturizer/Test_systems_manuscript/rnas/3sd3

>  <Rbt.Executable>
rbdock ($Id: //depot/dev/client3/rdock/2013.1/src/exe/rbdock.cxx#4 $)

>  <Rbt.Library>
libRbt.so (2013.1, Build901 2013/11/27)

>  <Rbt.Parameter_File>
/export/apps/rDock/src/rDock_2013.1_src/data/scripts/dock_solv.prm

>  <Rbt.Receptor>
prm/blind_docking_40.prm

>  <SCORE>
-13.8445

>  <SCORE.INTER>
-11.9754

>  <SCORE.INTER.CONST>
1

>  <SCORE.INTER.POLAR>
0

>  <SCORE.INTER.ROT>
4

>  <SCORE.INTER.SOLV>
7.35481

>  <SCORE.INTER.VDW>
-16.7019

>  <SCORE.INTER.norm>
-0.544338

>  <SCORE.INTRA>
-1.86906

>  <SCORE.INTRA.DIHEDRAL>
0.232799

>  <SCORE.INTRA.DIHEDRAL.0>
2.54655

>  <SCORE.INTRA.POLAR>
0

>  <SCORE.INTRA.POLAR.0>
0

>  <SCORE.INTRA.REPUL>
0

>  <SCORE.INTRA.REPUL.0>
0

>  <SCORE.INTRA.SOLV>
0.321972

>  <SCORE.INTRA.SOLV.lig_0>
-56.4922

>  <SCORE.INTRA.VDW>
-2.14645

>  <SCORE.INTRA.VDW.0>
-0.696801

>  <SCORE.INTRA.norm>
-0.0849574

>  <SCORE.RESTR>
0

>  <SCORE.RESTR.CAVITY>
0

>  <SCORE.RESTR.norm>
0

>  <SCORE.SYSTEM>
0

>  <SCORE.SYSTEM.CONST>
0

>  <SCORE.SYSTEM.DIHEDRAL>
0

>  <SCORE.SYSTEM.SOLV>
0

>  <SCORE.SYSTEM.norm>
0

>  <SCORE.heavy>
22

>  <SCORE.norm>
-0.629296

>  <RMSD>
23.654

$$$$
ligand
 OpenBabel02271912143D
libRbt.so/2013.1/901 2013/11/27
 22 24  0  0  0  0  0  0  0  0999 V2000
    0.7967   -0.6224   28.4664 N   0  0  0  0  0  0  0  0  0  0  0  0
    2.2989   -1.0939   30.2704 N   0  0  0  0  0  0  0  0  0  0  0  0
    2.0120   -1.2098   28.9633 C   0  0  0  0  0  0  0  0  0  0  0  0
    2.8129   -1.8478   28.1187 N   0  0  0  0  0  0  0  0  0  0  0  0
    5.4007   -5.0758   29.9932 O   0  0  0  0  0  0  0  0  0  0  0  0
    3.9541   -2.4052   28.5638 C   0  0  0  0  0  0  0  0  0  0  0  0
    4.2840   -2.3130   29.9448 C   0  0  0  0  0  0  0  0  0  0  0  0
    4.7674   -3.0606   27.6668 O   0  0  0  0  0  0  0  0  0  0  0  0
    5.4844   -2.8437   30.5599 N   0  0  0  0  0  0  0  0  0  0  0  0
    6.1159   -2.0113   31.5920 C   0  0  2  0  0  0  0  0  0  0  0  0
    5.1144   -1.6053   32.6277 C   0  0  0  0  0  0  0  0  0  0  0  0
    3.4268   -1.6327   30.7731 C   0  0  0  0  0  0  0  0  0  0  0  0
    3.7366   -1.5186   32.1477 N   0  0  0  0  0  0  0  0  0  0  0  0
    6.7963   -0.7454   31.0404 C   0  0  0  0  0  0  0  0  0  0  0  0
    7.8720   -1.1032   30.1238 N   0  0  0  0  0  0  0  0  0  0  0  0
    7.8486    0.2062   26.0758 C   0  0  0  0  0  0  0  0  0  0  0  0
    7.7123    1.1278   27.1003 C   0  0  0  0  0  0  0  0  0  0  0  0
    7.7202    0.7011   28.4424 C   0  0  0  0  0  0  0  0  0  0  0  0
    7.8629   -0.6457   28.7398 C   0  0  0  0  0  0  0  0  0  0  0  0
    7.9999   -1.5697   27.7081 C   0  0  0  0  0  0  0  0  0  0  0  0
    7.9940   -1.1444   26.3771 C   0  0  0  0  0  0  0  0  0  0  0  0
    6.0815   -4.0885   30.2152 C   0  0  0  0  0  0  0  0  0  0  0  0
  1  3  1  0  0  0  0
  2  3  2  0  0  0  0
  2 12  1  0  0  0  0
  3  4  1  0  0  0  0
  4  6  1  0  0  0  0
  5 22  1  0  0  0  0
  6  7  1  0  0  0  0
  6  8  2  0  0  0  0
  7 12  2  0  0  0  0
  7  9  1  0  0  0  0
  9 10  1  0  0  0  0
  9 22  1  0  0  0  0
 10 11  1  0  0  0  0
 10 14  1  6  0  0  0
 11 13  1  0  0  0  0
 12 13  1  0  0  0  0
 14 15  1  0  0  0  0
 15 19  1  0  0  0  0
 16 17  2  0  0  0  0
 16 21  1  0  0  0  0
 17 18  1  0  0  0  0
 18 19  2  0  0  0  0
 19 20  1  0  0  0  0
 20 21  2  0  0  0  0
M  END
>  <CHROM.1>
-40.61647422,-61.79325574,121.15608215,53.19992289,5.31264981,-1.64767419
29.40066902,2.60849945,0.05049475,2.03971648

>  <Name>
ligand

>  <RI>
0

>  <Rbt.Current_Directory>
/home/itssahil/PROJECTS/Mol_Feturizer/Test_systems_manuscript/rnas/3sd3

>  <Rbt.Executable>
rbdock ($Id: //depot/dev/client3/rdock/2013.1/src/exe/rbdock.cxx#4 $)

>  <Rbt.Library>
libRbt.so (2013.1, Build901 2013/11/27)

>  <Rbt.Parameter_File>
/export/apps/rDock/src/rDock_2013.1_src/data/scripts/dock_solv.prm

>  <Rbt.Receptor>
prm/blind_docking_40.prm

>  <SCORE>
-13.2366

>  <SCORE.INTER>
-11.8835

>  <SCORE.INTER.CONST>
1

>  <SCORE.INTER.POLAR>
0

>  <SCORE.INTER.ROT>
4

>  <SCORE.INTER.SOLV>
7.79433

>  <SCORE.INTER.VDW>
-16.7871

>  <SCORE.INTER.norm>
-0.54016

>  <SCORE.INTRA>
-1.35313

>  <SCORE.INTRA.DIHEDRAL>
0.272598

>  <SCORE.INTRA.DIHEDRAL.0>
2.54655

>  <SCORE.INTRA.POLAR>
0

>  <SCORE.INTRA.POLAR.0>
0

>  <SCORE.INTRA.REPUL>
0

>  <SCORE.INTRA.REPUL.0>
0

>  <SCORE.INTRA.SOLV>
-0.0300975

>  <SCORE.INTRA.SOLV.lig_0>
-56.4922

>  <SCORE.INTRA.VDW>
-1.47438

>  <SCORE.INTRA.VDW.0>
-0.696801

>  <SCORE.INTRA.norm>
-0.0615057

>  <SCORE.RESTR>
0

>  <SCORE.RESTR.CAVITY>
0

>  <SCORE.RESTR.norm>
0

>  <SCORE.SYSTEM>
0

>  <SCORE.SYSTEM.CONST>
0

>  <SCORE.SYSTEM.DIHEDRAL>
0

>  <SCORE.SYSTEM.SOLV>
0

>  <SCORE.SYSTEM.norm>
0

>  <SCORE.heavy>
22

>  <SCORE.norm>
-0.601666

>  <RMSD>
23.752

$$$$
ligand
 OpenBabel02271912143D
libRbt.so/2013.1/901 2013/11/27
 22 24  0  0  0  0  0  0  0  0999 V2000
   10.4386   -2.4933   28.2038 N   0  0  0  0  0  0  0  0  0  0  0  0
    9.1315   -2.1955   30.1876 N   0  0  0  0  0  0  0  0  0  0  0  0
    9.4732   -1.7495   28.9676 C   0  0  0  0  0  0  0  0  0  0  0  0
    8.9493   -0.6467   28.4468 N   0  0  0  0  0  0  0  0  0  0  0  0
    5.7283    2.3010   30.7724 O   0  0  0  0  0  0  0  0  0  0  0  0
    8.0452    0.0642   29.1457 C   0  0  0  0  0  0  0  0  0  0  0  0
    7.6688   -0.3717   30.4468 C   0  0  0  0  0  0  0  0  0  0  0  0
    7.5165    1.2037   28.5822 O   0  0  0  0  0  0  0  0  0  0  0  0
    6.6958    0.2779   31.3026 N   0  0  0  0  0  0  0  0  0  0  0  0
    5.7993   -0.6025   32.0630 C   0  0  2  0  0  0  0  0  0  0  0  0
    6.5844   -1.6270   32.8210 C   0  0  0  0  0  0  0  0  0  0  0  0
    8.2324   -1.5244   30.9337 C   0  0  0  0  0  0  0  0  0  0  0  0
    7.8679   -1.9840   32.2200 N   0  0  0  0  0  0  0  0  0  0  0  0
    4.7533   -1.3252   31.1951 C   0  0  0  0  0  0  0  0  0  0  0  0
    5.3922   -1.9572   30.0473 N   0  0  0  0  0  0  0  0  0  0  0  0
    3.0713   -3.4301   26.7999 C   0  0  0  0  0  0  0  0  0  0  0  0
    4.0089   -4.2494   27.4058 C   0  0  0  0  0  0  0  0  0  0  0  0
    4.7797   -3.7683   28.4818 C   0  0  0  0  0  0  0  0  0  0  0  0
    4.6014   -2.4701   28.9353 C   0  0  0  0  0  0  0  0  0  0  0  0
    3.6581   -1.6491   28.3245 C   0  0  0  0  0  0  0  0  0  0  0  0
    2.8927   -2.1286   27.2585 C   0  0  0  0  0  0  0  0  0  0  0  0
    6.5518    1.6877   31.4305 C   0  0  0  0  0  0  0  0  0  0  0  0
  1  3  1  0  0  0  0
  2  3  2  0  0  0  0
  2 12  1  0  0  0  0
  3  4  1  0  0  0  0
  4  6  1  0  0  0  0
  5 22  1  0  0  0  0
  6  7  1  0  0  0  0
  6  8  2  0  0  0  0
  7 12  2  0  0  0  0
  7  9  1  0  0  0  0
  9 10  1  0  0  0  0
  9 22  1  0  0  0  0
 10 11  1  0  0  0  0
 10 14  1  6  0  0  0
 11 13  1  0  0  0  0
 12 13  1  0  0  0  0
 14 15  1  0  0  0  0
 15 19  1  0  0  0  0
 16 17  2  0  0  0  0
 16 21  1  0  0  0  0
 17 18  1  0  0  0  0
 18 19  2  0  0  0  0
 19 20  1  0  0  0  0
 20 21  2  0  0  0  0
M  END
>  <CHROM.1>
95.48119368,49.48639983,-167.45549076,-128.32638611,6.50690361,-1.20551556
29.79019421,-0.71674819,0.00064912,-2.35386173

>  <Name>
ligand

>  <RI>
0

>  <Rbt.Current_Directory>
/home/itssahil/PROJECTS/Mol_Feturizer/Test_systems_manuscript/rnas/3sd3

>  <Rbt.Executable>
rbdock ($Id: //depot/dev/client3/rdock/2013.1/src/exe/rbdock.cxx#4 $)

>  <Rbt.Library>
libRbt.so (2013.1, Build901 2013/11/27)

>  <Rbt.Parameter_File>
/export/apps/rDock/src/rDock_2013.1_src/data/scripts/dock_solv.prm

>  <Rbt.Receptor>
prm/blind_docking_100.prm

>  <SCORE>
-7.10936

>  <SCORE.INTER>
-6.83525

>  <SCORE.INTER.CONST>
1

>  <SCORE.INTER.POLAR>
0

>  <SCORE.INTER.ROT>
4

>  <SCORE.INTER.SOLV>
7.87426

>  <SCORE.INTER.VDW>
-13.4483

>  <SCORE.INTER.norm>
-0.310693

>  <SCORE.INTRA>
-0.274115

>  <SCORE.INTRA.DIHEDRAL>
-0.440491

>  <SCORE.INTRA.DIHEDRAL.0>
2.54655

>  <SCORE.INTRA.POLAR>
0

>  <SCORE.INTRA.POLAR.0>
0

>  <SCORE.INTRA.REPUL>
0

>  <SCORE.INTRA.REPUL.0>
0

>  <SCORE.INTRA.SOLV>
2.12702

>  <SCORE.INTRA.SOLV.lig_0>
-56.4922

>  <SCORE.INTRA.VDW>
-1.11738

>  <SCORE.INTRA.VDW.0>
-0.696801

>  <SCORE.INTRA.norm>
-0.0124598

>  <SCORE.RESTR>
0

>  <SCORE.RESTR.CAVITY>
0

>  <SCORE.RESTR.norm>
0

>  <SCORE.SYSTEM>
0

>  <SCORE.SYSTEM.CONST>
0

>  <SCORE.SYSTEM.DIHEDRAL>
0

>  <SCORE.SYSTEM.SOLV>
0

>  <SCORE.SYSTEM.norm>
0

>  <SCORE.heavy>
22

>  <SCORE.norm>
-0.323153

>  <RMSD>
23.881

$$$$
ligand
 OpenBabel02271912143D
libRbt.so/2013.1/901 2013/11/27
 22 24  0  0  0  0  0  0  0  0999 V2000
    1.0572   -0.0390   29.3898 N   0  0  0  0  0  0  0  0  0  0  0  0
    2.5416   -1.5627   28.2907 N   0  0  0  0  0  0  0  0  0  0  0  0
    2.3886   -0.4762   29.0655 C   0  0  0  0  0  0  0  0  0  0  0  0
    3.4249    0.2044   29.5395 N   0  0  0  0  0  0  0  0  0  0  0  0
    8.2728   -1.0440   28.4598 O   0  0  0  0  0  0  0  0  0  0  0  0
    4.6786   -0.1876   29.2468 C   0  0  0  0  0  0  0  0  0  0  0  0
    4.8785   -1.3270   28.4183 C   0  0  0  0  0  0  0  0  0  0  0  0
    5.7358    0.5354   29.7518 O   0  0  0  0  0  0  0  0  0  0  0  0
    6.1654   -1.8757   28.0390 N   0  0  0  0  0  0  0  0  0  0  0  0
    6.2729   -3.3402   28.0145 C   0  0  2  0  0  0  0  0  0  0  0  0
    5.1708   -3.9361   27.1954 C   0  0  0  0  0  0  0  0  0  0  0  0
    3.7729   -2.0013   27.9638 C   0  0  0  0  0  0  0  0  0  0  0  0
    3.9447   -3.1421   27.1468 N   0  0  0  0  0  0  0  0  0  0  0  0
    6.2565   -3.9890   29.4103 C   0  0  0  0  0  0  0  0  0  0  0  0
    6.6293   -3.0154   30.4293 N   0  0  0  0  0  0  0  0  0  0  0  0
    3.6922   -1.3552   33.0212 C   0  0  0  0  0  0  0  0  0  0  0  0
    5.0353   -1.1109   33.2536 C   0  0  0  0  0  0  0  0  0  0  0  0
    6.0125   -1.6567   32.3989 C   0  0  0  0  0  0  0  0  0  0  0  0
    5.6298   -2.4425   31.3224 C   0  0  0  0  0  0  0  0  0  0  0  0
    4.2792   -2.6862   31.0913 C   0  0  0  0  0  0  0  0  0  0  0  0
    3.3108   -2.1422   31.9390 C   0  0  0  0  0  0  0  0  0  0  0  0
    7.3088   -1.0933   27.7145 C   0  0  0  0  0  0  0  0  0  0  0  0
  1  3  1  0  0  0  0
  2  3  2  0  0  0  0
  2 12  1  0  0  0  0
  3  4  1  0  0  0  0
  4  6  1  0  0  0  0
  5 22  1  0  0  0  0
  6  7  1  0  0  0  0
  6  8  2  0  0  0  0
  7 12  2  0  0  0  0
  7  9  1  0  0  0  0
  9 10  1  0  0  0  0
  9 22  1  0  0  0  0
 10 11  1  0  0  0  0
 10 14  1  1  0  0  0
 11 13  1  0  0  0  0
 12 13  1  0  0  0  0
 14 15  1  0  0  0  0
 15 19  1  0  0  0  0
 16 17  2  0  0  0  0
 16 21  1  0  0  0  0
 17 18  1  0  0  0  0
 18 19  2  0  0  0  0
 19 20  1  0  0  0  0
 20 21  2  0  0  0  0
M  END
>  <CHROM.1>
109.35726914,-20.93662288,105.68303330,171.40507364,4.89639483,-1.69961669
29.51327844,2.36626716,-0.32885993,1.42587917

>  <Name>
ligand

>  <RI>
0

>  <Rbt.Current_Directory>
/home/itssahil/PROJECTS/Mol_Feturizer/Test_systems_manuscript/rnas/3sd3

>  <Rbt.Executable>
rbdock ($Id: //depot/dev/client3/rdock/2013.1/src/exe/rbdock.cxx#4 $)

>  <Rbt.Library>
libRbt.so (2013.1, Build901 2013/11/27)

>  <Rbt.Parameter_File>
/export/apps/rDock/src/rDock_2013.1_src/data/scripts/dock_solv.prm

>  <Rbt.Receptor>
prm/blind_docking_100.prm

>  <SCORE>
-9.62885

>  <SCORE.INTER>
-9.29634

>  <SCORE.INTER.CONST>
1

>  <SCORE.INTER.POLAR>
0

>  <SCORE.INTER.ROT>
4

>  <SCORE.INTER.SOLV>
7.80107

>  <SCORE.INTER.VDW>
-15.0646

>  <SCORE.INTER.norm>
-0.422561

>  <SCORE.INTRA>
-0.332505

>  <SCORE.INTRA.DIHEDRAL>
3.92929

>  <SCORE.INTRA.DIHEDRAL.0>
2.54655

>  <SCORE.INTRA.POLAR>
0

>  <SCORE.INTRA.POLAR.0>
0

>  <SCORE.INTRA.REPUL>
0

>  <SCORE.INTRA.REPUL.0>
0

>  <SCORE.INTRA.SOLV>
1.90343

>  <SCORE.INTRA.SOLV.lig_0>
-56.4922

>  <SCORE.INTRA.VDW>
-3.24887

>  <SCORE.INTRA.VDW.0>
-0.696801

>  <SCORE.INTRA.norm>
-0.0151139

>  <SCORE.RESTR>
0

>  <SCORE.RESTR.CAVITY>
0

>  <SCORE.RESTR.norm>
0

>  <SCORE.SYSTEM>
0

>  <SCORE.SYSTEM.CONST>
0

>  <SCORE.SYSTEM.DIHEDRAL>
0

>  <SCORE.SYSTEM.SOLV>
0

>  <SCORE.SYSTEM.norm>
0

>  <SCORE.heavy>
22

>  <SCORE.norm>
-0.437675

>  <RMSD>
23.929

$$$$
ligand
 OpenBabel02271912143D
libRbt.so/2013.1/901 2013/11/27
 22 24  0  0  0  0  0  0  0  0999 V2000
    1.7824   -1.0805   27.5081 N   0  0  0  0  0  0  0  0  0  0  0  0
    3.5406    0.5448   27.5224 N   0  0  0  0  0  0  0  0  0  0  0  0
    2.9762   -0.5320   28.0936 C   0  0  0  0  0  0  0  0  0  0  0  0
    3.4844   -1.1035   29.1784 N   0  0  0  0  0  0  0  0  0  0  0  0
    5.8903    1.5298   31.8670 O   0  0  0  0  0  0  0  0  0  0  0  0
    4.6002   -0.6050   29.7421 C   0  0  0  0  0  0  0  0  0  0  0  0
    5.2181    0.5426   29.1714 C   0  0  0  0  0  0  0  0  0  0  0  0
    5.1071   -1.2171   30.8663 O   0  0  0  0  0  0  0  0  0  0  0  0
    6.4301    1.1734   29.6553 N   0  0  0  0  0  0  0  0  0  0  0  0
    7.3748    1.6482   28.6359 C   0  0  2  0  0  0  0  0  0  0  0  0
    6.6783    2.5166   27.6352 C   0  0  0  0  0  0  0  0  0  0  0  0
    4.6581    1.0881   28.0434 C   0  0  0  0  0  0  0  0  0  0  0  0
    5.2584    2.2229   27.4514 N   0  0  0  0  0  0  0  0  0  0  0  0
    8.1022    0.5173   27.8865 C   0  0  0  0  0  0  0  0  0  0  0  0
    7.1695   -0.5493   27.5438 N   0  0  0  0  0  0  0  0  0  0  0  0
    8.4921   -4.5540   26.9830 C   0  0  0  0  0  0  0  0  0  0  0  0
    9.3554   -3.6097   27.5128 C   0  0  0  0  0  0  0  0  0  0  0  0
    8.9235   -2.2826   27.7019 C   0  0  0  0  0  0  0  0  0  0  0  0
    7.6311   -1.9190   27.3552 C   0  0  0  0  0  0  0  0  0  0  0  0
    6.7657   -2.8704   26.8230 C   0  0  0  0  0  0  0  0  0  0  0  0
    7.1951   -4.1871   26.6381 C   0  0  0  0  0  0  0  0  0  0  0  0
    6.7567    1.3382   31.0304 C   0  0  0  0  0  0  0  0  0  0  0  0
  1  3  1  0  0  0  0
  2  3  2  0  0  0  0
  2 12  1  0  0  0  0
  3  4  1  0  0  0  0
  4  6  1  0  0  0  0
  5 22  1  0  0  0  0
  6  7  1  0  0  0  0
  6  8  2  0  0  0  0
  7 12  2  0  0  0  0
  7  9  1  0  0  0  0
  9 10  1  0  0  0  0
  9 22  1  0  0  0  0
 10 11  1  0  0  0  0
 10 14  1  6  0  0  0
 11 13  1  0  0  0  0
 12 13  1  0  0  0  0
 14 15  1  0  0  0  0
 15 19  1  0  0  0  0
 16 17  2  0  0  0  0
 16 21  1  0  0  0  0
 17 18  1  0  0  0  0
 18 19  2  0  0  0  0
 19 20  1  0  0  0  0
 20 21  2  0  0  0  0
M  END
>  <CHROM.1>
-33.38300888,43.03908359,-154.18770941,10.29685236,6.01572785,-0.42111416
28.48274326,2.20142154,-0.02607619,0.48328968

>  <Name>
ligand

>  <RI>
0

>  <Rbt.Current_Directory>
/home/itssahil/PROJECTS/Mol_Feturizer/Test_systems_manuscript/rnas/3sd3

>  <Rbt.Executable>
rbdock ($Id: //depot/dev/client3/rdock/2013.1/src/exe/rbdock.cxx#4 $)

>  <Rbt.Library>
libRbt.so (2013.1, Build901 2013/11/27)

>  <Rbt.Parameter_File>
/export/apps/rDock/src/rDock_2013.1_src/data/scripts/dock_solv.prm

>  <Rbt.Receptor>
prm/blind_docking_40.prm

>  <SCORE>
-7.69002

>  <SCORE.INTER>
-8.17609

>  <SCORE.INTER.CONST>
1

>  <SCORE.INTER.POLAR>
0

>  <SCORE.INTER.ROT>
4

>  <SCORE.INTER.SOLV>
8.55761

>  <SCORE.INTER.VDW>
-14.5699

>  <SCORE.INTER.norm>
-0.37164

>  <SCORE.INTRA>
0.486074

>  <SCORE.INTRA.DIHEDRAL>
0.473234

>  <SCORE.INTRA.DIHEDRAL.0>
2.54655

>  <SCORE.INTRA.POLAR>
0

>  <SCORE.INTRA.POLAR.0>
0

>  <SCORE.INTRA.REPUL>
0

>  <SCORE.INTRA.REPUL.0>
0

>  <SCORE.INTRA.SOLV>
2.08079

>  <SCORE.INTRA.SOLV.lig_0>
-56.4922

>  <SCORE.INTRA.VDW>
-0.790938

>  <SCORE.INTRA.VDW.0>
-0.696801

>  <SCORE.INTRA.norm>
0.0220943

>  <SCORE.RESTR>
0

>  <SCORE.RESTR.CAVITY>
0

>  <SCORE.RESTR.norm>
0

>  <SCORE.SYSTEM>
0

>  <SCORE.SYSTEM.CONST>
0

>  <SCORE.SYSTEM.DIHEDRAL>
0

>  <SCORE.SYSTEM.SOLV>
0

>  <SCORE.SYSTEM.norm>
0

>  <SCORE.heavy>
22

>  <SCORE.norm>
-0.349546

>  <RMSD>
23.981

$$$$
ligand
 OpenBabel02271912143D
libRbt.so/2013.1/901 2013/11/27
 22 24  0  0  0  0  0  0  0  0999 V2000
    1.9781   -3.8568   26.0752 N   0  0  0  0  0  0  0  0  0  0  0  0
    2.2720   -2.0238   27.5873 N   0  0  0  0  0  0  0  0  0  0  0  0
    2.8178   -3.0589   26.9278 C   0  0  0  0  0  0  0  0  0  0  0  0
    4.1040   -3.3672   27.0386 N   0  0  0  0  0  0  0  0  0  0  0  0
    5.8962   -1.4940   31.4195 O   0  0  0  0  0  0  0  0  0  0  0  0
    4.9063   -2.6338   27.8320 C   0  0  0  0  0  0  0  0  0  0  0  0
    4.3597   -1.5374   28.5557 C   0  0  0  0  0  0  0  0  0  0  0  0
    6.2368   -2.9744   27.9285 O   0  0  0  0  0  0  0  0  0  0  0  0
    5.1041   -0.6499   29.4270 N   0  0  0  0  0  0  0  0  0  0  0  0
    4.7535    0.7750   29.3669 C   0  0  2  0  0  0  0  0  0  0  0  0
    3.2786    0.9628   29.5399 C   0  0  0  0  0  0  0  0  0  0  0  0
    3.0261   -1.2548   28.3968 C   0  0  0  0  0  0  0  0  0  0  0  0
    2.4607   -0.1648   29.0974 N   0  0  0  0  0  0  0  0  0  0  0  0
    5.1899    1.4690   28.0640 C   0  0  0  0  0  0  0  0  0  0  0  0
    6.6275    1.7105   28.0721 N   0  0  0  0  0  0  0  0  0  0  0  0
    9.3580   -1.3150   26.8505 C   0  0  0  0  0  0  0  0  0  0  0  0
    9.2882   -0.9452   28.1832 C   0  0  0  0  0  0  0  0  0  0  0  0
    8.3859    0.0548   28.5942 C   0  0  0  0  0  0  0  0  0  0  0  0
    7.5659    0.6730   27.6624 C   0  0  0  0  0  0  0  0  0  0  0  0
    7.6382    0.2992   26.3237 C   0  0  0  0  0  0  0  0  0  0  0  0
    8.5324   -0.6948   25.9179 C   0  0  0  0  0  0  0  0  0  0  0  0
    6.1437   -1.0694   30.3034 C   0  0  0  0  0  0  0  0  0  0  0  0
  1  3  1  0  0  0  0
  2  3  2  0  0  0  0
  2 12  1  0  0  0  0
  3  4  1  0  0  0  0
  4  6  1  0  0  0  0
  5 22  1  0  0  0  0
  6  7  1  0  0  0  0
  6  8  2  0  0  0  0
  7 12  2  0  0  0  0
  7  9  1  0  0  0  0
  9 10  1  0  0  0  0
  9 22  1  0  0  0  0
 10 11  1  0  0  0  0
 10 14  1  6  0  0  0
 11 13  1  0  0  0  0
 12 13  1  0  0  0  0
 14 15  1  0  0  0  0
 15 19  1  0  0  0  0
 16 17  2  0  0  0  0
 16 21  1  0  0  0  0
 17 18  1  0  0  0  0
 18 19  2  0  0  0  0
 19 20  1  0  0  0  0
 20 21  2  0  0  0  0
M  END
>  <CHROM.1>
-85.12332541,-75.37818731,84.23045365,-109.86484719,5.38383342,-0.97628888
28.20330363,-2.85513106,0.24153674,0.68607060

>  <Name>
ligand

>  <RI>
0

>  <Rbt.Current_Directory>
/home/itssahil/PROJECTS/Mol_Feturizer/Test_systems_manuscript/rnas/3sd3

>  <Rbt.Executable>
rbdock ($Id: //depot/dev/client3/rdock/2013.1/src/exe/rbdock.cxx#4 $)

>  <Rbt.Library>
libRbt.so (2013.1, Build901 2013/11/27)

>  <Rbt.Parameter_File>
/export/apps/rDock/src/rDock_2013.1_src/data/scripts/dock_solv.prm

>  <Rbt.Receptor>
prm/blind_docking_40.prm

>  <SCORE>
-12.5887

>  <SCORE.INTER>
-10.6468

>  <SCORE.INTER.CONST>
1

>  <SCORE.INTER.POLAR>
0

>  <SCORE.INTER.ROT>
4

>  <SCORE.INTER.SOLV>
7.1622

>  <SCORE.INTER.VDW>
-15.7519

>  <SCORE.INTER.norm>
-0.483943

>  <SCORE.INTRA>
-1.94197

>  <SCORE.INTRA.DIHEDRAL>
0.31978

>  <SCORE.INTRA.DIHEDRAL.0>
2.54655

>  <SCORE.INTRA.POLAR>
0

>  <SCORE.INTRA.POLAR.0>
0

>  <SCORE.INTRA.REPUL>
0

>  <SCORE.INTRA.REPUL.0>
0

>  <SCORE.INTRA.SOLV>
-0.190598

>  <SCORE.INTRA.SOLV.lig_0>
-56.4922

>  <SCORE.INTRA.VDW>
-2.00656

>  <SCORE.INTRA.VDW.0>
-0.696801

>  <SCORE.INTRA.norm>
-0.0882715

>  <SCORE.RESTR>
0

>  <SCORE.RESTR.CAVITY>
0

>  <SCORE.RESTR.norm>
0

>  <SCORE.SYSTEM>
0

>  <SCORE.SYSTEM.CONST>
0

>  <SCORE.SYSTEM.DIHEDRAL>
0

>  <SCORE.SYSTEM.SOLV>
0

>  <SCORE.SYSTEM.norm>
0

>  <SCORE.heavy>
22

>  <SCORE.norm>
-0.572215

>  <RMSD>
23.989

$$$$
ligand
 OpenBabel02271912143D
libRbt.so/2013.1/901 2013/11/27
 22 24  0  0  0  0  0  0  0  0999 V2000
    0.4987   -0.4520   28.8671 N   0  0  0  0  0  0  0  0  0  0  0  0
    2.2586   -1.8426   28.0292 N   0  0  0  0  0  0  0  0  0  0  0  0
    1.8970   -0.7680   28.7493 C   0  0  0  0  0  0  0  0  0  0  0  0
    2.7874    0.0091   29.3536 N   0  0  0  0  0  0  0  0  0  0  0  0
    7.6541   -0.9459   27.1134 O   0  0  0  0  0  0  0  0  0  0  0  0
    4.1005   -0.2687   29.2548 C   0  0  0  0  0  0  0  0  0  0  0  0
    4.5209   -1.3921   28.4894 C   0  0  0  0  0  0  0  0  0  0  0  0
    5.0032    0.5527   29.8919 O   0  0  0  0  0  0  0  0  0  0  0  0
    5.8935   -1.8237   28.3133 N   0  0  0  0  0  0  0  0  0  0  0  0
    6.1341   -3.2723   28.3369 C   0  0  2  0  0  0  0  0  0  0  0  0
    5.2219   -3.9740   27.3799 C   0  0  0  0  0  0  0  0  0  0  0  0
    3.5588   -2.1690   27.8942 C   0  0  0  0  0  0  0  0  0  0  0  0
    3.9500   -3.2964   27.1362 N   0  0  0  0  0  0  0  0  0  0  0  0
    5.9715   -3.9076   29.7296 C   0  0  0  0  0  0  0  0  0  0  0  0
    4.7809   -3.3879   30.3910 N   0  0  0  0  0  0  0  0  0  0  0  0
    5.1048   -0.4258   33.4279 C   0  0  0  0  0  0  0  0  0  0  0  0
    3.8583   -0.7814   32.9406 C   0  0  0  0  0  0  0  0  0  0  0  0
    3.7441   -1.7619   31.9361 C   0  0  0  0  0  0  0  0  0  0  0  0
    4.8825   -2.3721   31.4316 C   0  0  0  0  0  0  0  0  0  0  0  0
    6.1339   -2.0127   31.9235 C   0  0  0  0  0  0  0  0  0  0  0  0
    6.2453   -1.0413   32.9216 C   0  0  0  0  0  0  0  0  0  0  0  0
    6.9974   -0.9425   28.1410 C   0  0  0  0  0  0  0  0  0  0  0  0
  1  3  1  0  0  0  0
  2  3  2  0  0  0  0
  2 12  1  0  0  0  0
  3  4  1  0  0  0  0
  4  6  1  0  0  0  0
  5 22  1  0  0  0  0
  6  7  1  0  0  0  0
  6  8  2  0  0  0  0
  7 12  2  0  0  0  0
  7  9  1  0  0  0  0
  9 10  1  0  0  0  0
  9 22  1  0  0  0  0
 10 11  1  0  0  0  0
 10 14  1  1  0  0  0
 11 13  1  0  0  0  0
 12 13  1  0  0  0  0
 14 15  1  0  0  0  0
 15 19  1  0  0  0  0
 16 17  2  0  0  0  0
 16 21  1  0  0  0  0
 17 18  1  0  0  0  0
 18 19  2  0  0  0  0
 19 20  1  0  0  0  0
 20 21  2  0  0  0  0
M  END
>  <CHROM.1>
-117.00391976,43.69815223,-102.27517803,171.81386985,4.63203294,-1.64774784
29.52189381,1.50034628,0.30772871,-1.83482644

>  <Name>
ligand

>  <RI>
0

>  <Rbt.Current_Directory>
/home/itssahil/PROJECTS/Mol_Feturizer/Test_systems_manuscript/rnas/3sd3

>  <Rbt.Executable>
rbdock ($Id: //depot/dev/client3/rdock/2013.1/src/exe/rbdock.cxx#4 $)

>  <Rbt.Library>
libRbt.so (2013.1, Build901 2013/11/27)

>  <Rbt.Parameter_File>
/export/apps/rDock/src/rDock_2013.1_src/data/scripts/dock_solv.prm

>  <Rbt.Receptor>
prm/blind_docking_60.prm

>  <SCORE>
-9.70052

>  <SCORE.INTER>
-8.89223

>  <SCORE.INTER.CONST>
1

>  <SCORE.INTER.POLAR>
0

>  <SCORE.INTER.ROT>
4

>  <SCORE.INTER.SOLV>
9.09146

>  <SCORE.INTER.VDW>
-15.2253

>  <SCORE.INTER.norm>
-0.404192

>  <SCORE.INTRA>
-0.808283

>  <SCORE.INTRA.DIHEDRAL>
0.928069

>  <SCORE.INTRA.DIHEDRAL.0>
2.54655

>  <SCORE.INTRA.POLAR>
0

>  <SCORE.INTRA.POLAR.0>
0

>  <SCORE.INTRA.REPUL>
0

>  <SCORE.INTRA.REPUL.0>
0

>  <SCORE.INTRA.SOLV>
2.34402

>  <SCORE.INTRA.SOLV.lig_0>
-56.4922

>  <SCORE.INTRA.VDW>
-2.44433

>  <SCORE.INTRA.VDW.0>
-0.696801

>  <SCORE.INTRA.norm>
-0.0367402

>  <SCORE.RESTR>
0

>  <SCORE.RESTR.CAVITY>
0

>  <SCORE.RESTR.norm>
0

>  <SCORE.SYSTEM>
0

>  <SCORE.SYSTEM.CONST>
0

>  <SCORE.SYSTEM.DIHEDRAL>
0

>  <SCORE.SYSTEM.SOLV>
0

>  <SCORE.SYSTEM.norm>
0

>  <SCORE.heavy>
22

>  <SCORE.norm>
-0.440933

>  <RMSD>
24.103

$$$$
ligand
 OpenBabel02271912143D
libRbt.so/2013.1/901 2013/11/27
 22 24  0  0  0  0  0  0  0  0999 V2000
    7.2208   -4.9516   25.9229 N   0  0  0  0  0  0  0  0  0  0  0  0
    5.0056   -4.3086   26.5649 N   0  0  0  0  0  0  0  0  0  0  0  0
    6.3289   -4.2082   26.7718 C   0  0  0  0  0  0  0  0  0  0  0  0
    6.8374   -3.4466   27.7327 N   0  0  0  0  0  0  0  0  0  0  0  0
    4.1858   -2.7261   31.2804 O   0  0  0  0  0  0  0  0  0  0  0  0
    6.0199   -2.7440   28.5384 C   0  0  0  0  0  0  0  0  0  0  0  0
    4.6118   -2.8360   28.3564 C   0  0  0  0  0  0  0  0  0  0  0  0
    6.5731   -1.9611   29.5267 O   0  0  0  0  0  0  0  0  0  0  0  0
    3.6152   -2.1230   29.1307 N   0  0  0  0  0  0  0  0  0  0  0  0
    2.4619   -1.5960   28.3897 C   0  0  2  0  0  0  0  0  0  0  0  0
    1.8318   -2.6712   27.5607 C   0  0  0  0  0  0  0  0  0  0  0  0
    4.1388   -3.6291   27.3410 C   0  0  0  0  0  0  0  0  0  0  0  0
    2.7441   -3.7300   27.1332 N   0  0  0  0  0  0  0  0  0  0  0  0
    2.8007   -0.4037   27.4769 C   0  0  0  0  0  0  0  0  0  0  0  0
    3.3731    0.6878   28.2554 N   0  0  0  0  0  0  0  0  0  0  0  0
    7.3273    2.0692   27.5092 C   0  0  0  0  0  0  0  0  0  0  0  0
    6.2447    2.7681   27.0021 C   0  0  0  0  0  0  0  0  0  0  0  0
    4.9333    2.3167   27.2463 C   0  0  0  0  0  0  0  0  0  0  0  0
    4.7244    1.1684   27.9949 C   0  0  0  0  0  0  0  0  0  0  0  0
    5.8144    0.4682   28.5033 C   0  0  0  0  0  0  0  0  0  0  0  0
    7.1149    0.9185   28.2620 C   0  0  0  0  0  0  0  0  0  0  0  0
    3.6988   -1.8946   30.5328 C   0  0  0  0  0  0  0  0  0  0  0  0
  1  3  1  0  0  0  0
  2  3  2  0  0  0  0
  2 12  1  0  0  0  0
  3  4  1  0  0  0  0
  4  6  1  0  0  0  0
  5 22  1  0  0  0  0
  6  7  1  0  0  0  0
  6  8  2  0  0  0  0
  7 12  2  0  0  0  0
  7  9  1  0  0  0  0
  9 10  1  0  0  0  0
  9 22  1  0  0  0  0
 10 11  1  0  0  0  0
 10 14  1  6  0  0  0
 11 13  1  0  0  0  0
 12 13  1  0  0  0  0
 14 15  1  0  0  0  0
 15 19  1  0  0  0  0
 16 17  2  0  0  0  0
 16 21  1  0  0  0  0
 17 18  1  0  0  0  0
 18 19  2  0  0  0  0
 19 20  1  0  0  0  0
 20 21  2  0  0  0  0
M  END
>  <CHROM.1>
-35.43945252,-58.28531950,118.66632701,100.03329510,4.84850332,-1.58059796
28.09828997,-1.72749812,0.33465679,0.08988135

>  <Name>
ligand

>  <RI>
0

>  <Rbt.Current_Directory>
/home/itssahil/PROJECTS/Mol_Feturizer/Test_systems_manuscript/rnas/3sd3

>  <Rbt.Executable>
rbdock ($Id: //depot/dev/client3/rdock/2013.1/src/exe/rbdock.cxx#4 $)

>  <Rbt.Library>
libRbt.so (2013.1, Build901 2013/11/27)

>  <Rbt.Parameter_File>
/export/apps/rDock/src/rDock_2013.1_src/data/scripts/dock_solv.prm

>  <Rbt.Receptor>
prm/blind_docking_60.prm

>  <SCORE>
-11.1114

>  <SCORE.INTER>
-9.5561

>  <SCORE.INTER.CONST>
1

>  <SCORE.INTER.POLAR>
0

>  <SCORE.INTER.ROT>
4

>  <SCORE.INTER.SOLV>
15.1959

>  <SCORE.INTER.VDW>
-17.7027

>  <SCORE.INTER.norm>
-0.434368

>  <SCORE.INTRA>
-1.5553

>  <SCORE.INTRA.DIHEDRAL>
0.273265

>  <SCORE.INTRA.DIHEDRAL.0>
2.54655

>  <SCORE.INTRA.POLAR>
0

>  <SCORE.INTRA.POLAR.0>
0

>  <SCORE.INTRA.REPUL>
0

>  <SCORE.INTRA.REPUL.0>
0

>  <SCORE.INTRA.SOLV>
0.323644

>  <SCORE.INTRA.SOLV.lig_0>
-56.4922

>  <SCORE.INTRA.VDW>
-1.85376

>  <SCORE.INTRA.VDW.0>
-0.696801

>  <SCORE.INTRA.norm>
-0.0706956

>  <SCORE.RESTR>
0

>  <SCORE.RESTR.CAVITY>
0

>  <SCORE.RESTR.norm>
0

>  <SCORE.SYSTEM>
0

>  <SCORE.SYSTEM.CONST>
0

>  <SCORE.SYSTEM.DIHEDRAL>
0

>  <SCORE.SYSTEM.SOLV>
0

>  <SCORE.SYSTEM.norm>
0

>  <SCORE.heavy>
22

>  <SCORE.norm>
-0.505064

>  <RMSD>
24.128

$$$$
ligand
 OpenBabel02271912143D
libRbt.so/2013.1/901 2013/11/27
 22 24  0  0  0  0  0  0  0  0999 V2000
    7.2450   -4.9379   25.9379 N   0  0  0  0  0  0  0  0  0  0  0  0
    5.0254   -4.2976   26.5675 N   0  0  0  0  0  0  0  0  0  0  0  0
    6.3473   -4.1988   26.7844 C   0  0  0  0  0  0  0  0  0  0  0  0
    6.8491   -3.4425   27.7529 N   0  0  0  0  0  0  0  0  0  0  0  0
    4.1688   -2.7418   31.2860 O   0  0  0  0  0  0  0  0  0  0  0  0
    6.0262   -2.7439   28.5566 C   0  0  0  0  0  0  0  0  0  0  0  0
    4.6193   -2.8345   28.3640 C   0  0  0  0  0  0  0  0  0  0  0  0
    6.5725   -1.9665   29.5529 O   0  0  0  0  0  0  0  0  0  0  0  0
    3.6175   -2.1253   29.1351 N   0  0  0  0  0  0  0  0  0  0  0  0
    2.4697   -1.5940   28.3888 C   0  0  2  0  0  0  0  0  0  0  0  0
    1.8451   -2.6645   27.5496 C   0  0  0  0  0  0  0  0  0  0  0  0
    4.1534   -3.6220   27.3411 C   0  0  0  0  0  0  0  0  0  0  0  0
    2.7602   -3.7213   27.1228 N   0  0  0  0  0  0  0  0  0  0  0  0
    2.8153   -0.3969   27.4847 C   0  0  0  0  0  0  0  0  0  0  0  0
    3.3865    0.6886   28.2725 N   0  0  0  0  0  0  0  0  0  0  0  0
    7.3272    2.1028   27.5163 C   0  0  0  0  0  0  0  0  0  0  0  0
    6.2372    2.7972   27.0188 C   0  0  0  0  0  0  0  0  0  0  0  0
    4.9302    2.3349   27.2664 C   0  0  0  0  0  0  0  0  0  0  0  0
    4.7331    1.1804   28.0086 C   0  0  0  0  0  0  0  0  0  0  0  0
    5.8305    0.4848   28.5074 C   0  0  0  0  0  0  0  0  0  0  0  0
    7.1265    0.9459   28.2628 C   0  0  0  0  0  0  0  0  0  0  0  0
    3.6912   -1.9045   30.5389 C   0  0  0  0  0  0  0  0  0  0  0  0
  1  3  1  0  0  0  0
  2  3  2  0  0  0  0
  2 12  1  0  0  0  0
  3  4  1  0  0  0  0
  4  6  1  0  0  0  0
  5 22  1  0  0  0  0
  6  7  1  0  0  0  0
  6  8  2  0  0  0  0
  7 12  2  0  0  0  0
  7  9  1  0  0  0  0
  9 10  1  0  0  0  0
  9 22  1  0  0  0  0
 10 11  1  0  0  0  0
 10 14  1  6  0  0  0
 11 13  1  0  0  0  0
 12 13  1  0  0  0  0
 14 15  1  0  0  0  0
 15 19  1  0  0  0  0
 16 17  2  0  0  0  0
 16 21  1  0  0  0  0
 17 18  1  0  0  0  0
 18 19  2  0  0  0  0
 19 20  1  0  0  0  0
 20 21  2  0  0  0  0
M  END
>  <CHROM.1>
-35.66749711,-58.10000232,119.54380895,99.67827176,4.85605169,-1.57338683
28.10665386,-1.72613298,0.33466458,0.08767327

>  <Name>
ligand

>  <RI>
0

>  <Rbt.Current_Directory>
/home/itssahil/PROJECTS/Mol_Feturizer/Test_systems_manuscript/rnas/3sd3

>  <Rbt.Executable>
rbdock ($Id: //depot/dev/client3/rdock/2013.1/src/exe/rbdock.cxx#4 $)

>  <Rbt.Library>
libRbt.so (2013.1, Build901 2013/11/27)

>  <Rbt.Parameter_File>
/export/apps/rDock/src/rDock_2013.1_src/data/scripts/dock_solv.prm

>  <Rbt.Receptor>
prm/blind_docking_60.prm

>  <SCORE>
-11.1288

>  <SCORE.INTER>
-9.55886

>  <SCORE.INTER.CONST>
1

>  <SCORE.INTER.POLAR>
0

>  <SCORE.INTER.ROT>
4

>  <SCORE.INTER.SOLV>
15.1319

>  <SCORE.INTER.VDW>
-17.6832

>  <SCORE.INTER.norm>
-0.434493

>  <SCORE.INTRA>
-1.56996

>  <SCORE.INTRA.DIHEDRAL>
0.277267

>  <SCORE.INTRA.DIHEDRAL.0>
2.54655

>  <SCORE.INTRA.POLAR>
0

>  <SCORE.INTRA.POLAR.0>
0

>  <SCORE.INTRA.REPUL>
0

>  <SCORE.INTRA.REPUL.0>
0

>  <SCORE.INTRA.SOLV>
0.312151

>  <SCORE.INTRA.SOLV.lig_0>
-56.4922

>  <SCORE.INTRA.VDW>
-1.86467

>  <SCORE.INTRA.VDW.0>
-0.696801

>  <SCORE.INTRA.norm>
-0.0713618

>  <SCORE.RESTR>
0

>  <SCORE.RESTR.CAVITY>
0

>  <SCORE.RESTR.norm>
0

>  <SCORE.SYSTEM>
0

>  <SCORE.SYSTEM.CONST>
0

>  <SCORE.SYSTEM.DIHEDRAL>
0

>  <SCORE.SYSTEM.SOLV>
0

>  <SCORE.SYSTEM.norm>
0

>  <SCORE.heavy>
22

>  <SCORE.norm>
-0.505855

>  <RMSD>
24.132

$$$$
ligand
 OpenBabel02271912143D
libRbt.so/2013.1/901 2013/11/27
 22 24  0  0  0  0  0  0  0  0999 V2000
    6.7812    3.0452   28.6676 N   0  0  0  0  0  0  0  0  0  0  0  0
    5.6334    0.9488   28.8105 N   0  0  0  0  0  0  0  0  0  0  0  0
    6.7465    1.6206   28.4729 C   0  0  0  0  0  0  0  0  0  0  0  0
    7.8120    1.0122   27.9666 N   0  0  0  0  0  0  0  0  0  0  0  0
    7.7218   -4.2272   27.0931 O   0  0  0  0  0  0  0  0  0  0  0  0
    7.7993   -0.3199   27.7756 C   0  0  0  0  0  0  0  0  0  0  0  0
    6.6324   -1.0623   28.1101 C   0  0  0  0  0  0  0  0  0  0  0  0
    8.9178   -0.9264   27.2497 O   0  0  0  0  0  0  0  0  0  0  0  0
    6.4830   -2.4982   27.9798 N   0  0  0  0  0  0  0  0  0  0  0  0
    5.7633   -3.1839   29.0609 C   0  0  2  0  0  0  0  0  0  0  0  0
    4.4432   -2.5260   29.3157 C   0  0  0  0  0  0  0  0  0  0  0  0
    5.5626   -0.3859   28.6407 C   0  0  0  0  0  0  0  0  0  0  0  0
    4.3947   -1.1019   28.9903 N   0  0  0  0  0  0  0  0  0  0  0  0
    6.5455   -3.2501   30.3851 C   0  0  0  0  0  0  0  0  0  0  0  0
    6.8419   -1.9075   30.8696 N   0  0  0  0  0  0  0  0  0  0  0  0
    4.1674    0.0863   33.5104 C   0  0  0  0  0  0  0  0  0  0  0  0
    5.1341    0.8090   32.8316 C   0  0  0  0  0  0  0  0  0  0  0  0
    6.0219    0.1552   31.9553 C   0  0  0  0  0  0  0  0  0  0  0  0
    5.9297   -1.2162   31.7724 C   0  0  0  0  0  0  0  0  0  0  0  0
    4.9570   -1.9399   32.4558 C   0  0  0  0  0  0  0  0  0  0  0  0
    4.0756   -1.2894   33.3232 C   0  0  0  0  0  0  0  0  0  0  0  0
    6.9983   -3.2651   26.8976 C   0  0  0  0  0  0  0  0  0  0  0  0
  1  3  1  0  0  0  0
  2  3  2  0  0  0  0
  2 12  1  0  0  0  0
  3  4  1  0  0  0  0
  4  6  1  0  0  0  0
  5 22  1  0  0  0  0
  6  7  1  0  0  0  0
  6  8  2  0  0  0  0
  7 12  2  0  0  0  0
  7  9  1  0  0  0  0
  9 10  1  0  0  0  0
  9 22  1  0  0  0  0
 10 11  1  0  0  0  0
 10 14  1  1  0  0  0
 11 13  1  0  0  0  0
 12 13  1  0  0  0  0
 14 15  1  0  0  0  0
 15 19  1  0  0  0  0
 16 17  2  0  0  0  0
 16 21  1  0  0  0  0
 17 18  1  0  0  0  0
 18 19  2  0  0  0  0
 19 20  1  0  0  0  0
 20 21  2  0  0  0  0
M  END
>  <CHROM.1>
125.84172865,60.16388628,91.01370299,-163.12768276,6.21463318,-1.03106881
29.52532103,-2.74738752,-1.07316808,-2.97613550

>  <Name>
ligand

>  <RI>
0

>  <Rbt.Current_Directory>
/home/itssahil/PROJECTS/Mol_Feturizer/Test_systems_manuscript/rnas/3sd3

>  <Rbt.Executable>
rbdock ($Id: //depot/dev/client3/rdock/2013.1/src/exe/rbdock.cxx#4 $)

>  <Rbt.Library>
libRbt.so (2013.1, Build901 2013/11/27)

>  <Rbt.Parameter_File>
/export/apps/rDock/src/rDock_2013.1_src/data/scripts/dock_solv.prm

>  <Rbt.Receptor>
prm/blind_docking_80.prm

>  <SCORE>
-8.49736

>  <SCORE.INTER>
-7.97564

>  <SCORE.INTER.CONST>
1

>  <SCORE.INTER.POLAR>
0

>  <SCORE.INTER.ROT>
4

>  <SCORE.INTER.SOLV>
5.0095

>  <SCORE.INTER.VDW>
-13.2536

>  <SCORE.INTER.norm>
-0.362529

>  <SCORE.INTRA>
-0.521717

>  <SCORE.INTRA.DIHEDRAL>
-0.269507

>  <SCORE.INTRA.DIHEDRAL.0>
2.54655

>  <SCORE.INTRA.POLAR>
0

>  <SCORE.INTRA.POLAR.0>
0

>  <SCORE.INTRA.REPUL>
0

>  <SCORE.INTRA.REPUL.0>
0

>  <SCORE.INTRA.SOLV>
2.48016

>  <SCORE.INTRA.SOLV.lig_0>
-56.4922

>  <SCORE.INTRA.VDW>
-1.62705

>  <SCORE.INTRA.VDW.0>
-0.696801

>  <SCORE.INTRA.norm>
-0.0237144

>  <SCORE.RESTR>
0

>  <SCORE.RESTR.CAVITY>
0

>  <SCORE.RESTR.norm>
0

>  <SCORE.SYSTEM>
0

>  <SCORE.SYSTEM.CONST>
0

>  <SCORE.SYSTEM.DIHEDRAL>
0

>  <SCORE.SYSTEM.SOLV>
0

>  <SCORE.SYSTEM.norm>
0

>  <SCORE.heavy>
22

>  <SCORE.norm>
-0.386243

>  <RMSD>
24.137

$$$$
ligand
 OpenBabel02271912143D
libRbt.so/2013.1/901 2013/11/27
 22 24  0  0  0  0  0  0  0  0999 V2000
    5.6858    2.9465   30.8170 N   0  0  0  0  0  0  0  0  0  0  0  0
    6.7309    1.6465   29.0993 N   0  0  0  0  0  0  0  0  0  0  0  0
    6.5059    1.8373   30.4097 C   0  0  0  0  0  0  0  0  0  0  0  0
    7.0156    1.0365   31.3375 N   0  0  0  0  0  0  0  0  0  0  0  0
    9.9928   -2.5704   30.6260 O   0  0  0  0  0  0  0  0  0  0  0  0
    7.7864   -0.0061   30.9772 C   0  0  0  0  0  0  0  0  0  0  0  0
    8.0564   -0.2315   29.5985 C   0  0  0  0  0  0  0  0  0  0  0  0
    8.3020   -0.8218   31.9592 O   0  0  0  0  0  0  0  0  0  0  0  0
    8.8477   -1.3219   29.0638 N   0  0  0  0  0  0  0  0  0  0  0  0
    8.3555   -1.9459   27.8287 C   0  0  2  0  0  0  0  0  0  0  0  0
    8.0917   -0.9083   26.7826 C   0  0  0  0  0  0  0  0  0  0  0  0
    7.4957    0.6197   28.6795 C   0  0  0  0  0  0  0  0  0  0  0  0
    7.7408    0.4117   27.3029 N   0  0  0  0  0  0  0  0  0  0  0  0
    7.0809   -2.7872   28.0217 C   0  0  0  0  0  0  0  0  0  0  0  0
    6.1163   -2.0694   28.8459 N   0  0  0  0  0  0  0  0  0  0  0  0
    2.4258   -0.6975   27.2337 C   0  0  0  0  0  0  0  0  0  0  0  0
    2.7756   -2.0324   27.1186 C   0  0  0  0  0  0  0  0  0  0  0  0
    3.9953   -2.4931   27.6510 C   0  0  0  0  0  0  0  0  0  0  0  0
    4.8499   -1.6081   28.2906 C   0  0  0  0  0  0  0  0  0  0  0  0
    4.4955   -0.2670   28.4049 C   0  0  0  0  0  0  0  0  0  0  0  0
    3.2840    0.1880   27.8781 C   0  0  0  0  0  0  0  0  0  0  0  0
   10.0370   -1.8219   29.6641 C   0  0  0  0  0  0  0  0  0  0  0  0
  1  3  1  0  0  0  0
  2  3  2  0  0  0  0
  2 12  1  0  0  0  0
  3  4  1  0  0  0  0
  4  6  1  0  0  0  0
  5 22  1  0  0  0  0
  6  7  1  0  0  0  0
  6  8  2  0  0  0  0
  7 12  2  0  0  0  0
  7  9  1  0  0  0  0
  9 10  1  0  0  0  0
  9 22  1  0  0  0  0
 10 11  1  0  0  0  0
 10 14  1  1  0  0  0
 11 13  1  0  0  0  0
 12 13  1  0  0  0  0
 14 15  1  0  0  0  0
 15 19  1  0  0  0  0
 16 17  2  0  0  0  0
 16 21  1  0  0  0  0
 17 18  1  0  0  0  0
 18 19  2  0  0  0  0
 19 20  1  0  0  0  0
 20 21  2  0  0  0  0
M  END
>  <CHROM.1>
78.41282118,45.16188273,113.36377187,54.36927755,6.74997597,-0.60504743,29.04124696
2.89600122,0.37733660,-2.52653293

>  <Name>
ligand

>  <RI>
0

>  <Rbt.Current_Directory>
/home/itssahil/PROJECTS/Mol_Feturizer/Test_systems_manuscript/rnas/3sd3

>  <Rbt.Executable>
rbdock ($Id: //depot/dev/client3/rdock/2013.1/src/exe/rbdock.cxx#4 $)

>  <Rbt.Library>
libRbt.so (2013.1, Build901 2013/11/27)

>  <Rbt.Parameter_File>
/export/apps/rDock/src/rDock_2013.1_src/data/scripts/dock_solv.prm

>  <Rbt.Receptor>
prm/blind_docking_60.prm

>  <SCORE>
-7.68363

>  <SCORE.INTER>
-7.24765

>  <SCORE.INTER.CONST>
1

>  <SCORE.INTER.POLAR>
0

>  <SCORE.INTER.ROT>
4

>  <SCORE.INTER.SOLV>
6.68954

>  <SCORE.INTER.VDW>
-13.3283

>  <SCORE.INTER.norm>
-0.329438

>  <SCORE.INTRA>
-0.435986

>  <SCORE.INTRA.DIHEDRAL>
0.960082

>  <SCORE.INTRA.DIHEDRAL.0>
2.54655

>  <SCORE.INTRA.POLAR>
0

>  <SCORE.INTRA.POLAR.0>
0

>  <SCORE.INTRA.REPUL>
0

>  <SCORE.INTRA.REPUL.0>
0

>  <SCORE.INTRA.SOLV>
2.53026

>  <SCORE.INTRA.SOLV.lig_0>
-56.4922

>  <SCORE.INTRA.VDW>
-2.18116

>  <SCORE.INTRA.VDW.0>
-0.696801

>  <SCORE.INTRA.norm>
-0.0198175

>  <SCORE.RESTR>
0

>  <SCORE.RESTR.CAVITY>
0

>  <SCORE.RESTR.norm>
0

>  <SCORE.SYSTEM>
0

>  <SCORE.SYSTEM.CONST>
0

>  <SCORE.SYSTEM.DIHEDRAL>
0

>  <SCORE.SYSTEM.SOLV>
0

>  <SCORE.SYSTEM.norm>
0

>  <SCORE.heavy>
22

>  <SCORE.norm>
-0.349256

>  <RMSD>
24.143

$$$$
ligand
 OpenBabel02271912143D
libRbt.so/2013.1/901 2013/11/27
 22 24  0  0  0  0  0  0  0  0999 V2000
    7.2223   -4.9689   25.8785 N   0  0  0  0  0  0  0  0  0  0  0  0
    5.0182   -4.3123   26.5447 N   0  0  0  0  0  0  0  0  0  0  0  0
    6.3439   -4.2289   26.7443 C   0  0  0  0  0  0  0  0  0  0  0  0
    6.8666   -3.4871   27.7129 N   0  0  0  0  0  0  0  0  0  0  0  0
    3.4726   -0.8713   31.0585 O   0  0  0  0  0  0  0  0  0  0  0  0
    6.0619   -2.7880   28.5344 C   0  0  0  0  0  0  0  0  0  0  0  0
    4.6517   -2.8626   28.3604 C   0  0  0  0  0  0  0  0  0  0  0  0
    6.6297   -2.0258   29.5305 O   0  0  0  0  0  0  0  0  0  0  0  0
    3.6678   -2.1507   29.1518 N   0  0  0  0  0  0  0  0  0  0  0  0
    2.5154   -1.6007   28.4264 C   0  0  2  0  0  0  0  0  0  0  0  0
    1.8685   -2.6568   27.5858 C   0  0  0  0  0  0  0  0  0  0  0  0
    4.1638   -3.6354   27.3365 C   0  0  0  0  0  0  0  0  0  0  0  0
    2.7668   -3.7186   27.1365 N   0  0  0  0  0  0  0  0  0  0  0  0
    2.8608   -0.3985   27.5291 C   0  0  0  0  0  0  0  0  0  0  0  0
    3.4482    0.6758   28.3203 N   0  0  0  0  0  0  0  0  0  0  0  0
    7.3783    2.0913   27.5125 C   0  0  0  0  0  0  0  0  0  0  0  0
    6.2813    2.7950   27.0444 C   0  0  0  0  0  0  0  0  0  0  0  0
    4.9777    2.3323   27.3091 C   0  0  0  0  0  0  0  0  0  0  0  0
    4.7911    1.1681   28.0389 C   0  0  0  0  0  0  0  0  0  0  0  0
    5.8956    0.4632   28.5081 C   0  0  0  0  0  0  0  0  0  0  0  0
    7.1882    0.9247   28.2464 C   0  0  0  0  0  0  0  0  0  0  0  0
    3.7629   -1.9442   30.5565 C   0  0  0  0  0  0  0  0  0  0  0  0
  1  3  1  0  0  0  0
  2  3  2  0  0  0  0
  2 12  1  0  0  0  0
  3  4  1  0  0  0  0
  4  6  1  0  0  0  0
  5 22  1  0  0  0  0
  6  7  1  0  0  0  0
  6  8  2  0  0  0  0
  7 12  2  0  0  0  0
  7  9  1  0  0  0  0
  9 10  1  0  0  0  0
  9 22  1  0  0  0  0
 10 11  1  0  0  0  0
 10 14  1  6  0  0  0
 11 13  1  0  0  0  0
 12 13  1  0  0  0  0
 14 15  1  0  0  0  0
 15 19  1  0  0  0  0
 16 17  2  0  0  0  0
 16 21  1  0  0  0  0
 17 18  1  0  0  0  0
 18 19  2  0  0  0  0
 19 20  1  0  0  0  0
 20 21  2  0  0  0  0
M  END
>  <CHROM.1>
138.13655931,-58.35483334,120.11359396,99.75648341,4.85148189,-1.48955494
28.09757026,-1.67218666,0.35949717,0.17225503

>  <Name>
ligand

>  <RI>
0

>  <Rbt.Current_Directory>
/home/itssahil/PROJECTS/Mol_Feturizer/Test_systems_manuscript/rnas/3sd3

>  <Rbt.Executable>
rbdock ($Id: //depot/dev/client3/rdock/2013.1/src/exe/rbdock.cxx#4 $)

>  <Rbt.Library>
libRbt.so (2013.1, Build901 2013/11/27)

>  <Rbt.Parameter_File>
/export/apps/rDock/src/rDock_2013.1_src/data/scripts/dock_solv.prm

>  <Rbt.Receptor>
prm/blind_docking_40.prm

>  <SCORE>
-10.5819

>  <SCORE.INTER>
-9.35983

>  <SCORE.INTER.CONST>
1

>  <SCORE.INTER.POLAR>
0

>  <SCORE.INTER.ROT>
4

>  <SCORE.INTER.SOLV>
14.116

>  <SCORE.INTER.VDW>
-17.2119

>  <SCORE.INTER.norm>
-0.425447

>  <SCORE.INTRA>
-1.22206

>  <SCORE.INTRA.DIHEDRAL>
0.324263

>  <SCORE.INTRA.DIHEDRAL.0>
2.54655

>  <SCORE.INTRA.POLAR>
0

>  <SCORE.INTRA.POLAR.0>
0

>  <SCORE.INTRA.REPUL>
0

>  <SCORE.INTRA.REPUL.0>
0

>  <SCORE.INTRA.SOLV>
0.929115

>  <SCORE.INTRA.SOLV.lig_0>
-56.4922

>  <SCORE.INTRA.VDW>
-1.84875

>  <SCORE.INTRA.VDW.0>
-0.696801

>  <SCORE.INTRA.norm>
-0.055548

>  <SCORE.RESTR>
0

>  <SCORE.RESTR.CAVITY>
0

>  <SCORE.RESTR.norm>
0

>  <SCORE.SYSTEM>
0

>  <SCORE.SYSTEM.CONST>
0

>  <SCORE.SYSTEM.DIHEDRAL>
0

>  <SCORE.SYSTEM.SOLV>
0

>  <SCORE.SYSTEM.norm>
0

>  <SCORE.heavy>
22

>  <SCORE.norm>
-0.480995

>  <RMSD>
24.170

$$$$
ligand
 OpenBabel02271912143D
libRbt.so/2013.1/901 2013/11/27
 22 24  0  0  0  0  0  0  0  0999 V2000
   11.3696   -2.0027   26.7685 N   0  0  0  0  0  0  0  0  0  0  0  0
    9.3271   -0.8685   27.2926 N   0  0  0  0  0  0  0  0  0  0  0  0
    9.9891   -2.0309   27.1713 C   0  0  0  0  0  0  0  0  0  0  0  0
    9.4105   -3.2012   27.4107 N   0  0  0  0  0  0  0  0  0  0  0  0
    4.8387   -3.9189   28.5035 O   0  0  0  0  0  0  0  0  0  0  0  0
    8.1194   -3.2493   27.7876 C   0  0  0  0  0  0  0  0  0  0  0  0
    7.3833   -2.0383   27.9142 C   0  0  0  0  0  0  0  0  0  0  0  0
    7.5435   -4.4760   28.0307 O   0  0  0  0  0  0  0  0  0  0  0  0
    5.9987   -1.9353   28.3306 N   0  0  0  0  0  0  0  0  0  0  0  0
    5.6637   -0.8200   29.2255 C   0  0  2  0  0  0  0  0  0  0  0  0
    6.1536    0.4760   28.6591 C   0  0  0  0  0  0  0  0  0  0  0  0
    8.0324   -0.8549   27.6656 C   0  0  0  0  0  0  0  0  0  0  0  0
    7.3260    0.3629   27.7936 N   0  0  0  0  0  0  0  0  0  0  0  0
    6.2213   -0.9775   30.6517 C   0  0  0  0  0  0  0  0  0  0  0  0
    5.1744   -1.4262   31.5616 N   0  0  0  0  0  0  0  0  0  0  0  0
    2.8033    1.3633   33.7291 C   0  0  0  0  0  0  0  0  0  0  0  0
    2.5255    1.1098   32.3964 C   0  0  0  0  0  0  0  0  0  0  0  0
    3.3059    0.1869   31.6735 C   0  0  0  0  0  0  0  0  0  0  0  0
    4.3568   -0.4690   32.2965 C   0  0  0  0  0  0  0  0  0  0  0  0
    4.6336   -0.2122   33.6361 C   0  0  0  0  0  0  0  0  0  0  0  0
    3.8570    0.7021   34.3525 C   0  0  0  0  0  0  0  0  0  0  0  0
    4.9735   -2.8434   27.9444 C   0  0  0  0  0  0  0  0  0  0  0  0
  1  3  1  0  0  0  0
  2  3  2  0  0  0  0
  2 12  1  0  0  0  0
  3  4  1  0  0  0  0
  4  6  1  0  0  0  0
  5 22  1  0  0  0  0
  6  7  1  0  0  0  0
  6  8  2  0  0  0  0
  7 12  2  0  0  0  0
  7  9  1  0  0  0  0
  9 10  1  0  0  0  0
  9 22  1  0  0  0  0
 10 11  1  0  0  0  0
 10 14  1  1  0  0  0
 11 13  1  0  0  0  0
 12 13  1  0  0  0  0
 14 15  1  0  0  0  0
 15 19  1  0  0  0  0
 16 17  2  0  0  0  0
 16 21  1  0  0  0  0
 17 18  1  0  0  0  0
 18 19  2  0  0  0  0
 19 20  1  0  0  0  0
 20 21  2  0  0  0  0
M  END
>  <CHROM.1>
80.36993166,-101.37627454,-91.18811949,78.73140707,6.37491033,-1.32167845
29.47695199,-0.68684346,0.56360041,0.53354891

>  <Name>
ligand

>  <RI>
0

>  <Rbt.Current_Directory>
/home/itssahil/PROJECTS/Mol_Feturizer/Test_systems_manuscript/rnas/3sd3

>  <Rbt.Executable>
rbdock ($Id: //depot/dev/client3/rdock/2013.1/src/exe/rbdock.cxx#4 $)

>  <Rbt.Library>
libRbt.so (2013.1, Build901 2013/11/27)

>  <Rbt.Parameter_File>
/export/apps/rDock/src/rDock_2013.1_src/data/scripts/dock_solv.prm

>  <Rbt.Receptor>
prm/blind_docking_100.prm

>  <SCORE>
-4.14181

>  <SCORE.INTER>
-4.92581

>  <SCORE.INTER.CONST>
1

>  <SCORE.INTER.POLAR>
0

>  <SCORE.INTER.ROT>
4

>  <SCORE.INTER.SOLV>
14.9392

>  <SCORE.INTER.VDW>
-14.5303

>  <SCORE.INTER.norm>
-0.223901

>  <SCORE.INTRA>
0.774209

>  <SCORE.INTRA.DIHEDRAL>
3.74791

>  <SCORE.INTRA.DIHEDRAL.0>
2.54655

>  <SCORE.INTRA.POLAR>
0

>  <SCORE.INTRA.POLAR.0>
0

>  <SCORE.INTRA.REPUL>
0

>  <SCORE.INTRA.REPUL.0>
0

>  <SCORE.INTRA.SOLV>
-0.210558

>  <SCORE.INTRA.SOLV.lig_0>
-56.4922

>  <SCORE.INTRA.VDW>
-0.994465

>  <SCORE.INTRA.VDW.0>
-0.696801

>  <SCORE.INTRA.norm>
0.0351913

>  <SCORE.RESTR>
0.0098003

>  <SCORE.RESTR.CAVITY>
0.0098003

>  <SCORE.RESTR.norm>
0.000445468

>  <SCORE.SYSTEM>
0

>  <SCORE.SYSTEM.CONST>
0

>  <SCORE.SYSTEM.DIHEDRAL>
0

>  <SCORE.SYSTEM.SOLV>
0

>  <SCORE.SYSTEM.norm>
0

>  <SCORE.heavy>
22

>  <SCORE.norm>
-0.188264

>  <RMSD>
24.177

$$$$
ligand
 OpenBabel02271912143D
libRbt.so/2013.1/901 2013/11/27
 22 24  0  0  0  0  0  0  0  0999 V2000
    7.2655   -4.9387   25.9519 N   0  0  0  0  0  0  0  0  0  0  0  0
    5.0430   -4.3023   26.5751 N   0  0  0  0  0  0  0  0  0  0  0  0
    6.3640   -4.2014   26.7960 C   0  0  0  0  0  0  0  0  0  0  0  0
    6.8617   -3.4449   27.7665 N   0  0  0  0  0  0  0  0  0  0  0  0
    3.9472   -0.8109   30.9984 O   0  0  0  0  0  0  0  0  0  0  0  0
    6.0351   -2.7480   28.5679 C   0  0  0  0  0  0  0  0  0  0  0  0
    4.6290   -2.8408   28.3710 C   0  0  0  0  0  0  0  0  0  0  0  0
    6.5771   -1.9703   29.5664 O   0  0  0  0  0  0  0  0  0  0  0  0
    3.6237   -2.1337   29.1394 N   0  0  0  0  0  0  0  0  0  0  0  0
    2.4772   -1.6038   28.3898 C   0  0  2  0  0  0  0  0  0  0  0  0
    1.8570   -2.6750   27.5482 C   0  0  0  0  0  0  0  0  0  0  0  0
    4.1675   -3.6285   27.3463 C   0  0  0  0  0  0  0  0  0  0  0  0
    2.7751   -3.7300   27.1237 N   0  0  0  0  0  0  0  0  0  0  0  0
    2.8237   -0.4057   27.4875 C   0  0  0  0  0  0  0  0  0  0  0  0
    3.4014    0.6759   28.2758 N   0  0  0  0  0  0  0  0  0  0  0  0
    7.3284    2.1068   27.4809 C   0  0  0  0  0  0  0  0  0  0  0  0
    6.2301    2.8102   27.0157 C   0  0  0  0  0  0  0  0  0  0  0  0
    4.9275    2.3424   27.2762 C   0  0  0  0  0  0  0  0  0  0  0  0
    4.7432    1.1735   27.9989 C   0  0  0  0  0  0  0  0  0  0  0  0
    5.8491    0.4688   28.4653 C   0  0  0  0  0  0  0  0  0  0  0  0
    7.1407    0.9354   28.2078 C   0  0  0  0  0  0  0  0  0  0  0  0
    3.6927   -1.9135   30.5435 C   0  0  0  0  0  0  0  0  0  0  0  0
  1  3  1  0  0  0  0
  2  3  2  0  0  0  0
  2 12  1  0  0  0  0
  3  4  1  0  0  0  0
  4  6  1  0  0  0  0
  5 22  1  0  0  0  0
  6  7  1  0  0  0  0
  6  8  2  0  0  0  0
  7 12  2  0  0  0  0
  7  9  1  0  0  0  0
  9 10  1  0  0  0  0
  9 22  1  0  0  0  0
 10 11  1  0  0  0  0
 10 14  1  6  0  0  0
 11 13  1  0  0  0  0
 12 13  1  0  0  0  0
 14 15  1  0  0  0  0
 15 19  1  0  0  0  0
 16 17  2  0  0  0  0
 16 21  1  0  0  0  0
 17 18  1  0  0  0  0
 18 19  2  0  0  0  0
 19 20  1  0  0  0  0
 20 21  2  0  0  0  0
M  END
>  <CHROM.1>
106.57887041,-57.60739752,120.21237875,100.45943736,4.85314602,-1.47229332
28.08987743,-1.67102876,0.32103215,0.15674043

>  <Name>
ligand

>  <RI>
0

>  <Rbt.Current_Directory>
/home/itssahil/PROJECTS/Mol_Feturizer/Test_systems_manuscript/rnas/3sd3

>  <Rbt.Executable>
rbdock ($Id: //depot/dev/client3/rdock/2013.1/src/exe/rbdock.cxx#4 $)

>  <Rbt.Library>
libRbt.so (2013.1, Build901 2013/11/27)

>  <Rbt.Parameter_File>
/export/apps/rDock/src/rDock_2013.1_src/data/scripts/dock_solv.prm

>  <Rbt.Receptor>
prm/blind_docking_40.prm

>  <SCORE>
-10.8279

>  <SCORE.INTER>
-9.39032

>  <SCORE.INTER.CONST>
1

>  <SCORE.INTER.POLAR>
0

>  <SCORE.INTER.ROT>
4

>  <SCORE.INTER.SOLV>
14.1143

>  <SCORE.INTER.VDW>
-17.2316

>  <SCORE.INTER.norm>
-0.426833

>  <SCORE.INTRA>
-1.43759

>  <SCORE.INTRA.DIHEDRAL>
0.294951

>  <SCORE.INTRA.DIHEDRAL.0>
2.54655

>  <SCORE.INTRA.POLAR>
0

>  <SCORE.INTRA.POLAR.0>
0

>  <SCORE.INTRA.REPUL>
0

>  <SCORE.INTRA.REPUL.0>
0

>  <SCORE.INTRA.SOLV>
1.07504

>  <SCORE.INTRA.SOLV.lig_0>
-56.4922

>  <SCORE.INTRA.VDW>
-2.12259

>  <SCORE.INTRA.VDW.0>
-0.696801

>  <SCORE.INTRA.norm>
-0.0653452

>  <SCORE.RESTR>
0

>  <SCORE.RESTR.CAVITY>
0

>  <SCORE.RESTR.norm>
0

>  <SCORE.SYSTEM>
0

>  <SCORE.SYSTEM.CONST>
0

>  <SCORE.SYSTEM.DIHEDRAL>
0

>  <SCORE.SYSTEM.SOLV>
0

>  <SCORE.SYSTEM.norm>
0

>  <SCORE.heavy>
22

>  <SCORE.norm>
-0.492178

>  <RMSD>
24.184

$$$$
ligand
 OpenBabel02271912143D
libRbt.so/2013.1/901 2013/11/27
 22 24  0  0  0  0  0  0  0  0999 V2000
    6.4584    3.0050   27.2480 N   0  0  0  0  0  0  0  0  0  0  0  0
    5.6635    0.9492   28.1833 N   0  0  0  0  0  0  0  0  0  0  0  0
    6.6164    1.5964   27.4925 C   0  0  0  0  0  0  0  0  0  0  0  0
    7.6960    0.9781   27.0298 N   0  0  0  0  0  0  0  0  0  0  0  0
    6.8361   -3.7637   26.3844 O   0  0  0  0  0  0  0  0  0  0  0  0
    7.8621   -0.3396   27.2468 C   0  0  0  0  0  0  0  0  0  0  0  0
    6.8666   -1.0601   27.9640 C   0  0  0  0  0  0  0  0  0  0  0  0
    8.9912   -0.9566   26.7569 O   0  0  0  0  0  0  0  0  0  0  0  0
    6.9211   -2.4714   28.2904 N   0  0  0  0  0  0  0  0  0  0  0  0
    6.4420   -2.8554   29.6245 C   0  0  2  0  0  0  0  0  0  0  0  0
    5.0760   -2.2970   29.8752 C   0  0  0  0  0  0  0  0  0  0  0  0
    5.7753   -0.3706   28.4301 C   0  0  0  0  0  0  0  0  0  0  0  0
    4.7767   -1.0616   29.1539 N   0  0  0  0  0  0  0  0  0  0  0  0
    7.3723   -2.4169   30.7699 C   0  0  0  0  0  0  0  0  0  0  0  0
    6.6730   -2.4808   32.0474 N   0  0  0  0  0  0  0  0  0  0  0  0
    4.1810    0.7054   33.3662 C   0  0  0  0  0  0  0  0  0  0  0  0
    5.3514    0.9830   32.6802 C   0  0  0  0  0  0  0  0  0  0  0  0
    6.1802   -0.0671   32.2401 C   0  0  0  0  0  0  0  0  0  0  0  0
    5.8251   -1.3830   32.4955 C   0  0  0  0  0  0  0  0  0  0  0  0
    4.6481   -1.6588   33.1851 C   0  0  0  0  0  0  0  0  0  0  0  0
    3.8258   -0.6159   33.6191 C   0  0  0  0  0  0  0  0  0  0  0  0
    7.4180   -3.4796   27.4179 C   0  0  0  0  0  0  0  0  0  0  0  0
  1  3  1  0  0  0  0
  2  3  2  0  0  0  0
  2 12  1  0  0  0  0
  3  4  1  0  0  0  0
  4  6  1  0  0  0  0
  5 22  1  0  0  0  0
  6  7  1  0  0  0  0
  6  8  2  0  0  0  0
  7 12  2  0  0  0  0
  7  9  1  0  0  0  0
  9 10  1  0  0  0  0
  9 22  1  0  0  0  0
 10 11  1  0  0  0  0
 10 14  1  1  0  0  0
 11 13  1  0  0  0  0
 12 13  1  0  0  0  0
 14 15  1  0  0  0  0
 15 19  1  0  0  0  0
 16 17  2  0  0  0  0
 16 21  1  0  0  0  0
 17 18  1  0  0  0  0
 18 19  2  0  0  0  0
 19 20  1  0  0  0  0
 20 21  2  0  0  0  0
M  END
>  <CHROM.1>
-67.10151431,163.74948731,-83.67918783,-37.10320339,6.30687747,-0.92471065
29.48572977,0.29397480,1.16039751,-0.34793020

>  <Name>
ligand

>  <RI>
0

>  <Rbt.Current_Directory>
/home/itssahil/PROJECTS/Mol_Feturizer/Test_systems_manuscript/rnas/3sd3

>  <Rbt.Executable>
rbdock ($Id: //depot/dev/client3/rdock/2013.1/src/exe/rbdock.cxx#4 $)

>  <Rbt.Library>
libRbt.so (2013.1, Build901 2013/11/27)

>  <Rbt.Parameter_File>
/export/apps/rDock/src/rDock_2013.1_src/data/scripts/dock_solv.prm

>  <Rbt.Receptor>
prm/blind_docking_40.prm

>  <SCORE>
-7.13257

>  <SCORE.INTER>
-7.88776

>  <SCORE.INTER.CONST>
1

>  <SCORE.INTER.POLAR>
0

>  <SCORE.INTER.ROT>
4

>  <SCORE.INTER.SOLV>
11.0767

>  <SCORE.INTER.VDW>
-15.2174

>  <SCORE.INTER.norm>
-0.358535

>  <SCORE.INTRA>
0.755192

>  <SCORE.INTRA.DIHEDRAL>
0.373479

>  <SCORE.INTRA.DIHEDRAL.0>
2.54655

>  <SCORE.INTRA.POLAR>
0

>  <SCORE.INTRA.POLAR.0>
0

>  <SCORE.INTRA.REPUL>
0

>  <SCORE.INTRA.REPUL.0>
0

>  <SCORE.INTRA.SOLV>
0.09067

>  <SCORE.INTRA.SOLV.lig_0>
-56.4922

>  <SCORE.INTRA.VDW>
0.523118

>  <SCORE.INTRA.VDW.0>
-0.696801

>  <SCORE.INTRA.norm>
0.0343269

>  <SCORE.RESTR>
0

>  <SCORE.RESTR.CAVITY>
0

>  <SCORE.RESTR.norm>
0

>  <SCORE.SYSTEM>
0

>  <SCORE.SYSTEM.CONST>
0

>  <SCORE.SYSTEM.DIHEDRAL>
0

>  <SCORE.SYSTEM.SOLV>
0

>  <SCORE.SYSTEM.norm>
0

>  <SCORE.heavy>
22

>  <SCORE.norm>
-0.324208

>  <RMSD>
24.217

$$$$
ligand
 OpenBabel02271912143D
libRbt.so/2013.1/901 2013/11/27
 22 24  0  0  0  0  0  0  0  0999 V2000
    3.9836   -1.1263   31.8089 N   0  0  0  0  0  0  0  0  0  0  0  0
    6.1081   -1.3557   30.7288 N   0  0  0  0  0  0  0  0  0  0  0  0
    4.7728   -1.4835   30.6607 C   0  0  0  0  0  0  0  0  0  0  0  0
    4.1609   -1.9282   29.5700 N   0  0  0  0  0  0  0  0  0  0  0  0
    6.2263   -4.4478   26.7685 O   0  0  0  0  0  0  0  0  0  0  0  0
    4.8812   -2.2688   28.4855 C   0  0  0  0  0  0  0  0  0  0  0  0
    6.2992   -2.1582   28.5260 C   0  0  0  0  0  0  0  0  0  0  0  0
    4.2218   -2.7264   27.3668 O   0  0  0  0  0  0  0  0  0  0  0  0
    7.1984   -2.4665   27.4317 N   0  0  0  0  0  0  0  0  0  0  0  0
    8.3394   -1.5609   27.2448 C   0  0  2  0  0  0  0  0  0  0  0  0
    9.0913   -1.3884   28.5276 C   0  0  0  0  0  0  0  0  0  0  0  0
    6.8807   -1.6825   29.6744 C   0  0  0  0  0  0  0  0  0  0  0  0
    8.2872   -1.5541   29.7368 N   0  0  0  0  0  0  0  0  0  0  0  0
    7.9496   -0.1708   26.7105 C   0  0  0  0  0  0  0  0  0  0  0  0
    7.0007    0.4734   27.6103 N   0  0  0  0  0  0  0  0  0  0  0  0
    5.8483    4.5284   27.0357 C   0  0  0  0  0  0  0  0  0  0  0  0
    6.7526    4.2023   28.0324 C   0  0  0  0  0  0  0  0  0  0  0  0
    7.1389    2.8621   28.2272 C   0  0  0  0  0  0  0  0  0  0  0  0
    6.6115    1.8653   27.4205 C   0  0  0  0  0  0  0  0  0  0  0  0
    5.7030    2.1961   26.4194 C   0  0  0  0  0  0  0  0  0  0  0  0
    5.3224    3.5265   26.2260 C   0  0  0  0  0  0  0  0  0  0  0  0
    7.0315   -3.5613   26.5381 C   0  0  0  0  0  0  0  0  0  0  0  0
  1  3  1  0  0  0  0
  2  3  2  0  0  0  0
  2 12  1  0  0  0  0
  3  4  1  0  0  0  0
  4  6  1  0  0  0  0
  5 22  1  0  0  0  0
  6  7  1  0  0  0  0
  6  8  2  0  0  0  0
  7 12  2  0  0  0  0
  7  9  1  0  0  0  0
  9 10  1  0  0  0  0
  9 22  1  0  0  0  0
 10 11  1  0  0  0  0
 10 14  1  1  0  0  0
 11 13  1  0  0  0  0
 12 13  1  0  0  0  0
 14 15  1  0  0  0  0
 15 19  1  0  0  0  0
 16 17  2  0  0  0  0
 16 21  1  0  0  0  0
 17 18  1  0  0  0  0
 18 19  2  0  0  0  0
 19 20  1  0  0  0  0
 20 21  2  0  0  0  0
M  END
>  <CHROM.1>
-12.03289091,58.07651332,171.89166756,-103.07168336,6.35599092,-0.61531768
28.21327639,1.65112900,-0.88010230,3.00230803

>  <Name>
ligand

>  <RI>
0

>  <Rbt.Current_Directory>
/home/itssahil/PROJECTS/Mol_Feturizer/Test_systems_manuscript/rnas/3sd3

>  <Rbt.Executable>
rbdock ($Id: //depot/dev/client3/rdock/2013.1/src/exe/rbdock.cxx#4 $)

>  <Rbt.Library>
libRbt.so (2013.1, Build901 2013/11/27)

>  <Rbt.Parameter_File>
/export/apps/rDock/src/rDock_2013.1_src/data/scripts/dock_solv.prm

>  <Rbt.Receptor>
prm/blind_docking_40.prm

>  <SCORE>
-10.5883

>  <SCORE.INTER>
-10.2895

>  <SCORE.INTER.CONST>
1

>  <SCORE.INTER.POLAR>
0

>  <SCORE.INTER.ROT>
4

>  <SCORE.INTER.SOLV>
8.76365

>  <SCORE.INTER.VDW>
-16.0475

>  <SCORE.INTER.norm>
-0.467703

>  <SCORE.INTRA>
-0.298872

>  <SCORE.INTRA.DIHEDRAL>
-0.863479

>  <SCORE.INTRA.DIHEDRAL.0>
2.54655

>  <SCORE.INTRA.POLAR>
0

>  <SCORE.INTRA.POLAR.0>
0

>  <SCORE.INTRA.REPUL>
0

>  <SCORE.INTRA.REPUL.0>
0

>  <SCORE.INTRA.SOLV>
2.02567

>  <SCORE.INTRA.SOLV.lig_0>
-56.4922

>  <SCORE.INTRA.VDW>
-0.879967

>  <SCORE.INTRA.VDW.0>
-0.696801

>  <SCORE.INTRA.norm>
-0.0135851

>  <SCORE.RESTR>
0

>  <SCORE.RESTR.CAVITY>
0

>  <SCORE.RESTR.norm>
0

>  <SCORE.SYSTEM>
0

>  <SCORE.SYSTEM.CONST>
0

>  <SCORE.SYSTEM.DIHEDRAL>
0

>  <SCORE.SYSTEM.SOLV>
0

>  <SCORE.SYSTEM.norm>
0

>  <SCORE.heavy>
22

>  <SCORE.norm>
-0.481288

>  <RMSD>
24.251

$$$$
ligand
 OpenBabel02271912143D
libRbt.so/2013.1/901 2013/11/27
 22 24  0  0  0  0  0  0  0  0999 V2000
    7.8584   -4.4239   27.4673 N   0  0  0  0  0  0  0  0  0  0  0  0
    5.5767   -3.6982   27.4590 N   0  0  0  0  0  0  0  0  0  0  0  0
    6.7612   -3.7341   28.0912 C   0  0  0  0  0  0  0  0  0  0  0  0
    6.9499   -3.1548   29.2704 N   0  0  0  0  0  0  0  0  0  0  0  0
    3.5310   -0.8856   31.8762 O   0  0  0  0  0  0  0  0  0  0  0  0
    5.9358   -2.5054   29.8714 C   0  0  0  0  0  0  0  0  0  0  0  0
    4.6633   -2.4578   29.2366 C   0  0  0  0  0  0  0  0  0  0  0  0
    6.1583   -1.9124   31.0938 O   0  0  0  0  0  0  0  0  0  0  0  0
    3.4908   -1.7795   29.7526 N   0  0  0  0  0  0  0  0  0  0  0  0
    2.6620   -1.0647   28.7733 C   0  0  2  0  0  0  0  0  0  0  0  0
    2.3053   -1.9620   27.6296 C   0  0  0  0  0  0  0  0  0  0  0  0
    4.5251   -3.0637   28.0129 C   0  0  0  0  0  0  0  0  0  0  0  0
    3.2735   -3.0224   27.3569 N   0  0  0  0  0  0  0  0  0  0  0  0
    3.3192    0.2101   28.2141 C   0  0  0  0  0  0  0  0  0  0  0  0
    3.6865    1.1120   29.2989 N   0  0  0  0  0  0  0  0  0  0  0  0
    7.5614    1.0015   31.0523 C   0  0  0  0  0  0  0  0  0  0  0  0
    7.3948    0.6501   29.7232 C   0  0  0  0  0  0  0  0  0  0  0  0
    6.1150    0.6854   29.1365 C   0  0  0  0  0  0  0  0  0  0  0  0
    5.0178    1.0713   29.8914 C   0  0  0  0  0  0  0  0  0  0  0  0
    5.1883    1.4241   31.2269 C   0  0  0  0  0  0  0  0  0  0  0  0
    6.4591    1.3905   31.8068 C   0  0  0  0  0  0  0  0  0  0  0  0
    3.1167   -1.7527   31.1253 C   0  0  0  0  0  0  0  0  0  0  0  0
  1  3  1  0  0  0  0
  2  3  2  0  0  0  0
  2 12  1  0  0  0  0
  3  4  1  0  0  0  0
  4  6  1  0  0  0  0
  5 22  1  0  0  0  0
  6  7  1  0  0  0  0
  6  8  2  0  0  0  0
  7 12  2  0  0  0  0
  7  9  1  0  0  0  0
  9 10  1  0  0  0  0
  9 22  1  0  0  0  0
 10 11  1  0  0  0  0
 10 14  1  6  0  0  0
 11 13  1  0  0  0  0
 12 13  1  0  0  0  0
 14 15  1  0  0  0  0
 15 19  1  0  0  0  0
 16 17  2  0  0  0  0
 16 21  1  0  0  0  0
 17 18  1  0  0  0  0
 18 19  2  0  0  0  0
 19 20  1  0  0  0  0
 20 21  2  0  0  0  0
M  END
>  <CHROM.1>
88.74049015,-56.03983513,92.77790638,29.77463872,5.01397366,-1.31825901,29.43008318
-1.55925946,-0.18311017,0.58582967

>  <Name>
ligand

>  <RI>
0

>  <Rbt.Current_Directory>
/home/itssahil/PROJECTS/Mol_Feturizer/Test_systems_manuscript/rnas/3sd3

>  <Rbt.Executable>
rbdock ($Id: //depot/dev/client3/rdock/2013.1/src/exe/rbdock.cxx#4 $)

>  <Rbt.Library>
libRbt.so (2013.1, Build901 2013/11/27)

>  <Rbt.Parameter_File>
/export/apps/rDock/src/rDock_2013.1_src/data/scripts/dock_solv.prm

>  <Rbt.Receptor>
prm/blind_docking_60.prm

>  <SCORE>
-6.82929

>  <SCORE.INTER>
-4.16435

>  <SCORE.INTER.CONST>
1

>  <SCORE.INTER.POLAR>
0

>  <SCORE.INTER.ROT>
4

>  <SCORE.INTER.SOLV>
8.77441

>  <SCORE.INTER.VDW>
-11.9677

>  <SCORE.INTER.norm>
-0.189289

>  <SCORE.INTRA>
-2.66494

>  <SCORE.INTRA.DIHEDRAL>
-0.192118

>  <SCORE.INTRA.DIHEDRAL.0>
2.54655

>  <SCORE.INTRA.POLAR>
0

>  <SCORE.INTRA.POLAR.0>
0

>  <SCORE.INTRA.REPUL>
0

>  <SCORE.INTRA.REPUL.0>
0

>  <SCORE.INTRA.SOLV>
1.46302

>  <SCORE.INTRA.SOLV.lig_0>
-56.4922

>  <SCORE.INTRA.VDW>
-3.30039

>  <SCORE.INTRA.VDW.0>
-0.696801

>  <SCORE.INTRA.norm>
-0.121134

>  <SCORE.RESTR>
0

>  <SCORE.RESTR.CAVITY>
0

>  <SCORE.RESTR.norm>
0

>  <SCORE.SYSTEM>
0

>  <SCORE.SYSTEM.CONST>
0

>  <SCORE.SYSTEM.DIHEDRAL>
0

>  <SCORE.SYSTEM.SOLV>
0

>  <SCORE.SYSTEM.norm>
0

>  <SCORE.heavy>
22

>  <SCORE.norm>
-0.310422

>  <RMSD>
24.305

$$$$
ligand
 OpenBabel02271912143D
libRbt.so/2013.1/901 2013/11/27
 22 24  0  0  0  0  0  0  0  0999 V2000
    1.1706   -1.5155   26.7336 N   0  0  0  0  0  0  0  0  0  0  0  0
    2.9032    0.0364   27.3018 N   0  0  0  0  0  0  0  0  0  0  0  0
    2.1832   -1.0457   27.6407 C   0  0  0  0  0  0  0  0  0  0  0  0
    2.3765   -1.6926   28.7835 N   0  0  0  0  0  0  0  0  0  0  0  0
    5.6883   -0.3000   32.2603 O   0  0  0  0  0  0  0  0  0  0  0  0
    3.3181   -1.2685   29.6463 C   0  0  0  0  0  0  0  0  0  0  0  0
    4.0914   -0.1179   29.3260 C   0  0  0  0  0  0  0  0  0  0  0  0
    3.4990   -1.9580   30.8242 O   0  0  0  0  0  0  0  0  0  0  0  0
    5.1501    0.4387   30.1449 N   0  0  0  0  0  0  0  0  0  0  0  0
    6.3394    0.9286   29.4360 C   0  0  2  0  0  0  0  0  0  0  0  0
    5.9497    1.8747   28.3436 C   0  0  0  0  0  0  0  0  0  0  0  0
    3.8588    0.5074   28.1266 C   0  0  0  0  0  0  0  0  0  0  0  0
    4.6203    1.6471   27.7804 N   0  0  0  0  0  0  0  0  0  0  0  0
    7.2094   -0.1894   28.8337 C   0  0  0  0  0  0  0  0  0  0  0  0
    6.3794   -1.1541   28.1227 N   0  0  0  0  0  0  0  0  0  0  0  0
    5.3493   -4.8702   29.9200 C   0  0  0  0  0  0  0  0  0  0  0  0
    4.8408   -4.5412   28.6747 C   0  0  0  0  0  0  0  0  0  0  0  0
    5.1786   -3.3132   28.0738 C   0  0  0  0  0  0  0  0  0  0  0  0
    6.0212   -2.4295   28.7310 C   0  0  0  0  0  0  0  0  0  0  0  0
    6.5308   -2.7629   29.9824 C   0  0  0  0  0  0  0  0  0  0  0  0
    6.1964   -3.9827   30.5762 C   0  0  0  0  0  0  0  0  0  0  0  0
    5.1103    0.5184   31.5650 C   0  0  0  0  0  0  0  0  0  0  0  0
  1  3  1  0  0  0  0
  2  3  2  0  0  0  0
  2 12  1  0  0  0  0
  3  4  1  0  0  0  0
  4  6  1  0  0  0  0
  5 22  1  0  0  0  0
  6  7  1  0  0  0  0
  6  8  2  0  0  0  0
  7 12  2  0  0  0  0
  7  9  1  0  0  0  0
  9 10  1  0  0  0  0
  9 22  1  0  0  0  0
 10 11  1  0  0  0  0
 10 14  1  6  0  0  0
 11 13  1  0  0  0  0
 12 13  1  0  0  0  0
 14 15  1  0  0  0  0
 15 19  1  0  0  0  0
 16 17  2  0  0  0  0
 16 21  1  0  0  0  0
 17 18  1  0  0  0  0
 18 19  2  0  0  0  0
 19 20  1  0  0  0  0
 20 21  2  0  0  0  0
M  END
>  <CHROM.1>
99.61722305,46.68935519,-100.98916478,176.87081850,4.71653276,-1.06662431
29.16462973,1.94119616,-0.63238717,-0.11517978

>  <Name>
ligand

>  <RI>
0

>  <Rbt.Current_Directory>
/home/itssahil/PROJECTS/Mol_Feturizer/Test_systems_manuscript/rnas/3sd3

>  <Rbt.Executable>
rbdock ($Id: //depot/dev/client3/rdock/2013.1/src/exe/rbdock.cxx#4 $)

>  <Rbt.Library>
libRbt.so (2013.1, Build901 2013/11/27)

>  <Rbt.Parameter_File>
/export/apps/rDock/src/rDock_2013.1_src/data/scripts/dock_solv.prm

>  <Rbt.Receptor>
prm/blind_docking_60.prm

>  <SCORE>
-8.79446

>  <SCORE.INTER>
-7.47943

>  <SCORE.INTER.CONST>
1

>  <SCORE.INTER.POLAR>
0

>  <SCORE.INTER.ROT>
4

>  <SCORE.INTER.SOLV>
7.49479

>  <SCORE.INTER.VDW>
-13.7512

>  <SCORE.INTER.norm>
-0.339974

>  <SCORE.INTRA>
-1.31504

>  <SCORE.INTRA.DIHEDRAL>
0.58312

>  <SCORE.INTRA.DIHEDRAL.0>
2.54655

>  <SCORE.INTRA.POLAR>
0

>  <SCORE.INTRA.POLAR.0>
0

>  <SCORE.INTRA.REPUL>
0

>  <SCORE.INTRA.REPUL.0>
0

>  <SCORE.INTRA.SOLV>
2.72453

>  <SCORE.INTRA.SOLV.lig_0>
-56.4922

>  <SCORE.INTRA.VDW>
-2.96886

>  <SCORE.INTRA.VDW.0>
-0.696801

>  <SCORE.INTRA.norm>
-0.0597744

>  <SCORE.RESTR>
0

>  <SCORE.RESTR.CAVITY>
0

>  <SCORE.RESTR.norm>
0

>  <SCORE.SYSTEM>
0

>  <SCORE.SYSTEM.CONST>
0

>  <SCORE.SYSTEM.DIHEDRAL>
0

>  <SCORE.SYSTEM.SOLV>
0

>  <SCORE.SYSTEM.norm>
0

>  <SCORE.heavy>
22

>  <SCORE.norm>
-0.399748

>  <RMSD>
24.317

$$$$
ligand
 OpenBabel02271912143D
libRbt.so/2013.1/901 2013/11/27
 22 24  0  0  0  0  0  0  0  0999 V2000
    2.1400   -1.7879   27.9671 N   0  0  0  0  0  0  0  0  0  0  0  0
    4.5004   -2.1876   28.0089 N   0  0  0  0  0  0  0  0  0  0  0  0
    3.4857   -1.3224   28.1702 C   0  0  0  0  0  0  0  0  0  0  0  0
    3.6859   -0.0551   28.5100 N   0  0  0  0  0  0  0  0  0  0  0  0
    7.7155    1.6469   27.2986 O   0  0  0  0  0  0  0  0  0  0  0  0
    4.9374    0.4004   28.7036 C   0  0  0  0  0  0  0  0  0  0  0  0
    6.0375   -0.4848   28.5291 C   0  0  0  0  0  0  0  0  0  0  0  0
    5.1174    1.7191   29.0563 O   0  0  0  0  0  0  0  0  0  0  0  0
    7.4323   -0.1416   28.7238 N   0  0  0  0  0  0  0  0  0  0  0  0
    8.2735   -1.1561   29.3720 C   0  0  2  0  0  0  0  0  0  0  0  0
    8.1352   -2.4762   28.6801 C   0  0  0  0  0  0  0  0  0  0  0  0
    5.7746   -1.7880   28.1882 C   0  0  0  0  0  0  0  0  0  0  0  0
    6.8497   -2.6900   28.0183 N   0  0  0  0  0  0  0  0  0  0  0  0
    7.9728   -1.3498   30.8693 C   0  0  0  0  0  0  0  0  0  0  0  0
    6.5945   -1.7844   31.0603 N   0  0  0  0  0  0  0  0  0  0  0  0
    3.9812    0.3530   33.6493 C   0  0  0  0  0  0  0  0  0  0  0  0
    3.8400   -1.0168   33.5033 C   0  0  0  0  0  0  0  0  0  0  0  0
    4.7024   -1.7303   32.6486 C   0  0  0  0  0  0  0  0  0  0  0  0
    5.6948   -1.0601   31.9495 C   0  0  0  0  0  0  0  0  0  0  0  0
    5.8343    0.3166   32.0984 C   0  0  0  0  0  0  0  0  0  0  0  0
    4.9792    1.0228   32.9484 C   0  0  0  0  0  0  0  0  0  0  0  0
    8.0145    1.1011   28.3474 C   0  0  0  0  0  0  0  0  0  0  0  0
  1  3  1  0  0  0  0
  2  3  2  0  0  0  0
  2 12  1  0  0  0  0
  3  4  1  0  0  0  0
  4  6  1  0  0  0  0
  5 22  1  0  0  0  0
  6  7  1  0  0  0  0
  6  8  2  0  0  0  0
  7 12  2  0  0  0  0
  7  9  1  0  0  0  0
  9 10  1  0  0  0  0
  9 22  1  0  0  0  0
 10 11  1  0  0  0  0
 10 14  1  1  0  0  0
 11 13  1  0  0  0  0
 12 13  1  0  0  0  0
 14 15  1  0  0  0  0
 15 19  1  0  0  0  0
 16 17  2  0  0  0  0
 16 21  1  0  0  0  0
 17 18  1  0  0  0  0
 18 19  2  0  0  0  0
 19 20  1  0  0  0  0
 20 21  2  0  0  0  0
M  END
>  <CHROM.1>
-40.32570056,60.71859054,-125.93549906,-147.84052262,5.76892078,-0.63279529
29.72793833,2.05180428,0.14387931,1.46868416

>  <Name>
ligand

>  <RI>
0

>  <Rbt.Current_Directory>
/home/itssahil/PROJECTS/Mol_Feturizer/Test_systems_manuscript/rnas/3sd3

>  <Rbt.Executable>
rbdock ($Id: //depot/dev/client3/rdock/2013.1/src/exe/rbdock.cxx#4 $)

>  <Rbt.Library>
libRbt.so (2013.1, Build901 2013/11/27)

>  <Rbt.Parameter_File>
/export/apps/rDock/src/rDock_2013.1_src/data/scripts/dock_solv.prm

>  <Rbt.Receptor>
prm/blind_docking_60.prm

>  <SCORE>
-7.61192

>  <SCORE.INTER>
-6.96473

>  <SCORE.INTER.CONST>
1

>  <SCORE.INTER.POLAR>
0

>  <SCORE.INTER.ROT>
4

>  <SCORE.INTER.SOLV>
6.4253

>  <SCORE.INTER.VDW>
-13.0516

>  <SCORE.INTER.norm>
-0.316579

>  <SCORE.INTRA>
-0.647193

>  <SCORE.INTRA.DIHEDRAL>
0.238894

>  <SCORE.INTRA.DIHEDRAL.0>
2.54655

>  <SCORE.INTRA.POLAR>
0

>  <SCORE.INTRA.POLAR.0>
0

>  <SCORE.INTRA.REPUL>
0

>  <SCORE.INTRA.REPUL.0>
0

>  <SCORE.INTRA.SOLV>
2.00462

>  <SCORE.INTRA.SOLV.lig_0>
-56.4922

>  <SCORE.INTRA.VDW>
-1.76895

>  <SCORE.INTRA.VDW.0>
-0.696801

>  <SCORE.INTRA.norm>
-0.0294179

>  <SCORE.RESTR>
0

>  <SCORE.RESTR.CAVITY>
0

>  <SCORE.RESTR.norm>
0

>  <SCORE.SYSTEM>
0

>  <SCORE.SYSTEM.CONST>
0

>  <SCORE.SYSTEM.DIHEDRAL>
0

>  <SCORE.SYSTEM.SOLV>
0

>  <SCORE.SYSTEM.norm>
0

>  <SCORE.heavy>
22

>  <SCORE.norm>
-0.345996

>  <RMSD>
24.448

$$$$
ligand
 OpenBabel02271912143D
libRbt.so/2013.1/901 2013/11/27
 22 24  0  0  0  0  0  0  0  0999 V2000
    1.1126   -3.0176   25.0377 N   0  0  0  0  0  0  0  0  0  0  0  0
    1.1969   -1.7393   27.0605 N   0  0  0  0  0  0  0  0  0  0  0  0
    1.7798   -2.6430   26.2556 C   0  0  0  0  0  0  0  0  0  0  0  0
    2.9487   -3.1993   26.5487 N   0  0  0  0  0  0  0  0  0  0  0  0
    3.9522   -2.3606   31.8898 O   0  0  0  0  0  0  0  0  0  0  0  0
    3.5885   -2.8632   27.6839 C   0  0  0  0  0  0  0  0  0  0  0  0
    2.9947   -1.9185   28.5667 C   0  0  0  0  0  0  0  0  0  0  0  0
    4.8001   -3.4543   27.9638 O   0  0  0  0  0  0  0  0  0  0  0  0
    3.5756   -1.4467   29.8081 N   0  0  0  0  0  0  0  0  0  0  0  0
    3.4131   -0.0181   30.1075 C   0  0  2  0  0  0  0  0  0  0  0  0
    1.9751    0.3830   29.9992 C   0  0  0  0  0  0  0  0  0  0  0  0
    1.7903   -1.3651   28.2108 C   0  0  0  0  0  0  0  0  0  0  0  0
    1.1839   -0.4168   29.0662 N   0  0  0  0  0  0  0  0  0  0  0  0
    4.2525    0.9060   29.2069 C   0  0  0  0  0  0  0  0  0  0  0  0
    5.6749    0.6569   29.4060 N   0  0  0  0  0  0  0  0  0  0  0  0
    8.0702   -0.9752   26.2914 C   0  0  0  0  0  0  0  0  0  0  0  0
    7.5135   -1.8114   27.2446 C   0  0  0  0  0  0  0  0  0  0  0  0
    6.7189   -1.2777   28.2775 C   0  0  0  0  0  0  0  0  0  0  0  0
    6.4942    0.0891   28.3423 C   0  0  0  0  0  0  0  0  0  0  0  0
    7.0549    0.9270   27.3829 C   0  0  0  0  0  0  0  0  0  0  0  0
    7.8412    0.3956   26.3575 C   0  0  0  0  0  0  0  0  0  0  0  0
    4.2935   -2.2671   30.7227 C   0  0  0  0  0  0  0  0  0  0  0  0
  1  3  1  0  0  0  0
  2  3  2  0  0  0  0
  2 12  1  0  0  0  0
  3  4  1  0  0  0  0
  4  6  1  0  0  0  0
  5 22  1  0  0  0  0
  6  7  1  0  0  0  0
  6  8  2  0  0  0  0
  7 12  2  0  0  0  0
  7  9  1  0  0  0  0
  9 10  1  0  0  0  0
  9 22  1  0  0  0  0
 10 11  1  0  0  0  0
 10 14  1  6  0  0  0
 11 13  1  0  0  0  0
 12 13  1  0  0  0  0
 14 15  1  0  0  0  0
 15 19  1  0  0  0  0
 16 17  2  0  0  0  0
 16 21  1  0  0  0  0
 17 18  1  0  0  0  0
 18 19  2  0  0  0  0
 19 20  1  0  0  0  0
 20 21  2  0  0  0  0
M  END
>  <CHROM.1>
-123.52513593,-63.09711387,113.43556030,-94.49170591,4.11534423,-1.27989334
28.31770136,-3.04820929,0.29182080,1.15680390

>  <Name>
ligand

>  <RI>
0

>  <Rbt.Current_Directory>
/home/itssahil/PROJECTS/Mol_Feturizer/Test_systems_manuscript/rnas/3sd3

>  <Rbt.Executable>
rbdock ($Id: //depot/dev/client3/rdock/2013.1/src/exe/rbdock.cxx#4 $)

>  <Rbt.Library>
libRbt.so (2013.1, Build901 2013/11/27)

>  <Rbt.Parameter_File>
/export/apps/rDock/src/rDock_2013.1_src/data/scripts/dock_solv.prm

>  <Rbt.Receptor>
prm/blind_docking_40.prm

>  <SCORE>
-11.9094

>  <SCORE.INTER>
-10.1769

>  <SCORE.INTER.CONST>
1

>  <SCORE.INTER.POLAR>
0

>  <SCORE.INTER.ROT>
4

>  <SCORE.INTER.SOLV>
5.84288

>  <SCORE.INTER.VDW>
-14.9989

>  <SCORE.INTER.norm>
-0.462588

>  <SCORE.INTRA>
-1.73245

>  <SCORE.INTRA.DIHEDRAL>
0.279124

>  <SCORE.INTRA.DIHEDRAL.0>
2.54655

>  <SCORE.INTRA.POLAR>
0

>  <SCORE.INTRA.POLAR.0>
0

>  <SCORE.INTRA.REPUL>
0

>  <SCORE.INTRA.REPUL.0>
0

>  <SCORE.INTRA.SOLV>
0.0634132

>  <SCORE.INTRA.SOLV.lig_0>
-56.4922

>  <SCORE.INTRA.VDW>
-1.90371

>  <SCORE.INTRA.VDW.0>
-0.696801

>  <SCORE.INTRA.norm>
-0.0787475

>  <SCORE.RESTR>
0

>  <SCORE.RESTR.CAVITY>
0

>  <SCORE.RESTR.norm>
0

>  <SCORE.SYSTEM>
0

>  <SCORE.SYSTEM.CONST>
0

>  <SCORE.SYSTEM.DIHEDRAL>
0

>  <SCORE.SYSTEM.SOLV>
0

>  <SCORE.SYSTEM.norm>
0

>  <SCORE.heavy>
22

>  <SCORE.norm>
-0.541336

>  <RMSD>
24.498

$$$$
ligand
 OpenBabel02271912143D
libRbt.so/2013.1/901 2013/11/27
 22 24  0  0  0  0  0  0  0  0999 V2000
    6.1542    4.0944   28.2723 N   0  0  0  0  0  0  0  0  0  0  0  0
    7.1475    2.0184   27.6117 N   0  0  0  0  0  0  0  0  0  0  0  0
    6.5449    2.7424   28.5693 C   0  0  0  0  0  0  0  0  0  0  0  0
    6.2998    2.2503   29.7774 N   0  0  0  0  0  0  0  0  0  0  0  0
    8.8729   -0.9823   31.2532 O   0  0  0  0  0  0  0  0  0  0  0  0
    6.6584    0.9880   30.0756 C   0  0  0  0  0  0  0  0  0  0  0  0
    7.3103    0.1958   29.0897 C   0  0  0  0  0  0  0  0  0  0  0  0
    6.3919    0.5016   31.3358 O   0  0  0  0  0  0  0  0  0  0  0  0
    7.7323   -1.1804   29.2607 N   0  0  0  0  0  0  0  0  0  0  0  0
    7.5333   -2.0752   28.1133 C   0  0  2  0  0  0  0  0  0  0  0  0
    8.1236   -1.4811   26.8727 C   0  0  0  0  0  0  0  0  0  0  0  0
    7.5299    0.7492   27.8532 C   0  0  0  0  0  0  0  0  0  0  0  0
    8.1672   -0.0203   26.8531 N   0  0  0  0  0  0  0  0  0  0  0  0
    6.0579   -2.4202   27.8416 C   0  0  0  0  0  0  0  0  0  0  0  0
    5.4724   -3.0968   28.9925 N   0  0  0  0  0  0  0  0  0  0  0  0
    2.2660   -1.3263   31.1570 C   0  0  0  0  0  0  0  0  0  0  0  0
    3.2907   -1.9617   31.8380 C   0  0  0  0  0  0  0  0  0  0  0  0
    4.3555   -2.5489   31.1275 C   0  0  0  0  0  0  0  0  0  0  0  0
    4.3778   -2.4928   29.7422 C   0  0  0  0  0  0  0  0  0  0  0  0
    3.3465   -1.8534   29.0606 C   0  0  0  0  0  0  0  0  0  0  0  0
    2.2920   -1.2694   29.7671 C   0  0  0  0  0  0  0  0  0  0  0  0
    8.2986   -1.7049   30.4562 C   0  0  0  0  0  0  0  0  0  0  0  0
  1  3  1  0  0  0  0
  2  3  2  0  0  0  0
  2 12  1  0  0  0  0
  3  4  1  0  0  0  0
  4  6  1  0  0  0  0
  5 22  1  0  0  0  0
  6  7  1  0  0  0  0
  6  8  2  0  0  0  0
  7 12  2  0  0  0  0
  7  9  1  0  0  0  0
  9 10  1  0  0  0  0
  9 22  1  0  0  0  0
 10 11  1  0  0  0  0
 10 14  1  6  0  0  0
 11 13  1  0  0  0  0
 12 13  1  0  0  0  0
 14 15  1  0  0  0  0
 15 19  1  0  0  0  0
 16 17  2  0  0  0  0
 16 21  1  0  0  0  0
 17 18  1  0  0  0  0
 18 19  2  0  0  0  0
 19 20  1  0  0  0  0
 20 21  2  0  0  0  0
M  END
>  <CHROM.1>
-24.74935631,-60.57681693,116.31168148,-138.40126951,6.20681290,-0.47311996
29.31037086,0.70755378,0.45911524,-0.06697707

>  <Name>
ligand

>  <RI>
0

>  <Rbt.Current_Directory>
/home/itssahil/PROJECTS/Mol_Feturizer/Test_systems_manuscript/rnas/3sd3

>  <Rbt.Executable>
rbdock ($Id: //depot/dev/client3/rdock/2013.1/src/exe/rbdock.cxx#4 $)

>  <Rbt.Library>
libRbt.so (2013.1, Build901 2013/11/27)

>  <Rbt.Parameter_File>
/export/apps/rDock/src/rDock_2013.1_src/data/scripts/dock_solv.prm

>  <Rbt.Receptor>
prm/blind_docking_80.prm

>  <SCORE>
-8.22559

>  <SCORE.INTER>
-6.87866

>  <SCORE.INTER.CONST>
1

>  <SCORE.INTER.POLAR>
0

>  <SCORE.INTER.ROT>
4

>  <SCORE.INTER.SOLV>
8.44944

>  <SCORE.INTER.VDW>
-13.6689

>  <SCORE.INTER.norm>
-0.312666

>  <SCORE.INTRA>
-1.34693

>  <SCORE.INTRA.DIHEDRAL>
0.251698

>  <SCORE.INTRA.DIHEDRAL.0>
2.54655

>  <SCORE.INTRA.POLAR>
0

>  <SCORE.INTRA.POLAR.0>
0

>  <SCORE.INTRA.REPUL>
0

>  <SCORE.INTRA.REPUL.0>
0

>  <SCORE.INTRA.SOLV>
0.0560929

>  <SCORE.INTRA.SOLV.lig_0>
-56.4922

>  <SCORE.INTRA.VDW>
-1.50083

>  <SCORE.INTRA.VDW.0>
-0.696801

>  <SCORE.INTRA.norm>
-0.0612242

>  <SCORE.RESTR>
0

>  <SCORE.RESTR.CAVITY>
0

>  <SCORE.RESTR.norm>
0

>  <SCORE.SYSTEM>
0

>  <SCORE.SYSTEM.CONST>
0

>  <SCORE.SYSTEM.DIHEDRAL>
0

>  <SCORE.SYSTEM.SOLV>
0

>  <SCORE.SYSTEM.norm>
0

>  <SCORE.heavy>
22

>  <SCORE.norm>
-0.373891

>  <RMSD>
24.510

$$$$
ligand
 OpenBabel02271912143D
libRbt.so/2013.1/901 2013/11/27
 22 24  0  0  0  0  0  0  0  0999 V2000
    0.9314   -1.7441   26.4202 N   0  0  0  0  0  0  0  0  0  0  0  0
    2.6661   -1.1633   27.9650 N   0  0  0  0  0  0  0  0  0  0  0  0
    2.2008   -2.0176   27.0388 C   0  0  0  0  0  0  0  0  0  0  0  0
    2.8740   -3.1031   26.6781 N   0  0  0  0  0  0  0  0  0  0  0  0
    5.7001   -4.7251   29.9244 O   0  0  0  0  0  0  0  0  0  0  0  0
    4.0630   -3.3776   27.2457 C   0  0  0  0  0  0  0  0  0  0  0  0
    4.5810   -2.5014   28.2399 C   0  0  0  0  0  0  0  0  0  0  0  0
    4.7412   -4.5096   26.8530 O   0  0  0  0  0  0  0  0  0  0  0  0
    5.8523   -2.6574   28.9186 N   0  0  0  0  0  0  0  0  0  0  0  0
    6.6246   -1.4309   29.1556 C   0  0  2  0  0  0  0  0  0  0  0  0
    5.7778   -0.3965   29.8292 C   0  0  0  0  0  0  0  0  0  0  0  0
    3.8500   -1.3872   28.5680 C   0  0  0  0  0  0  0  0  0  0  0  0
    4.3474   -0.4957   29.5460 N   0  0  0  0  0  0  0  0  0  0  0  0
    7.2285   -0.8191   27.8786 C   0  0  0  0  0  0  0  0  0  0  0  0
    7.8764    0.4516   28.1794 N   0  0  0  0  0  0  0  0  0  0  0  0
    5.8324    4.1488   27.6754 C   0  0  0  0  0  0  0  0  0  0  0  0
    5.6948    3.1491   26.7272 C   0  0  0  0  0  0  0  0  0  0  0  0
    6.3679    1.9226   26.8885 C   0  0  0  0  0  0  0  0  0  0  0  0
    7.1724    1.7152   27.9987 C   0  0  0  0  0  0  0  0  0  0  0  0
    7.3086    2.7218   28.9502 C   0  0  0  0  0  0  0  0  0  0  0  0
    6.6383    3.9372   28.7897 C   0  0  0  0  0  0  0  0  0  0  0  0
    6.3898   -3.9051   29.3419 C   0  0  0  0  0  0  0  0  0  0  0  0
  1  3  1  0  0  0  0
  2  3  2  0  0  0  0
  2 12  1  0  0  0  0
  3  4  1  0  0  0  0
  4  6  1  0  0  0  0
  5 22  1  0  0  0  0
  6  7  1  0  0  0  0
  6  8  2  0  0  0  0
  7 12  2  0  0  0  0
  7  9  1  0  0  0  0
  9 10  1  0  0  0  0
  9 22  1  0  0  0  0
 10 11  1  0  0  0  0
 10 14  1  6  0  0  0
 11 13  1  0  0  0  0
 12 13  1  0  0  0  0
 14 15  1  0  0  0  0
 15 19  1  0  0  0  0
 16 17  2  0  0  0  0
 16 21  1  0  0  0  0
 17 18  1  0  0  0  0
 18 19  2  0  0  0  0
 19 20  1  0  0  0  0
 20 21  2  0  0  0  0
M  END
>  <CHROM.1>
-45.73194636,175.01080832,-95.54854265,-41.19297849,5.19932966,-0.89413285
28.14972266,2.02871821,0.44178465,2.96326299

>  <Name>
ligand

>  <RI>
0

>  <Rbt.Current_Directory>
/home/itssahil/PROJECTS/Mol_Feturizer/Test_systems_manuscript/rnas/3sd3

>  <Rbt.Executable>
rbdock ($Id: //depot/dev/client3/rdock/2013.1/src/exe/rbdock.cxx#4 $)

>  <Rbt.Library>
libRbt.so (2013.1, Build901 2013/11/27)

>  <Rbt.Parameter_File>
/export/apps/rDock/src/rDock_2013.1_src/data/scripts/dock_solv.prm

>  <Rbt.Receptor>
prm/blind_docking_100.prm

>  <SCORE>
-10.4844

>  <SCORE.INTER>
-10.0318

>  <SCORE.INTER.CONST>
1

>  <SCORE.INTER.POLAR>
0

>  <SCORE.INTER.ROT>
4

>  <SCORE.INTER.SOLV>
6.13159

>  <SCORE.INTER.VDW>
-14.9984

>  <SCORE.INTER.norm>
-0.455991

>  <SCORE.INTRA>
-0.456996

>  <SCORE.INTRA.DIHEDRAL>
-0.0761967

>  <SCORE.INTRA.DIHEDRAL.0>
2.54655

>  <SCORE.INTRA.POLAR>
0

>  <SCORE.INTRA.POLAR.0>
0

>  <SCORE.INTRA.REPUL>
0

>  <SCORE.INTRA.REPUL.0>
0

>  <SCORE.INTRA.SOLV>
-0.347484

>  <SCORE.INTRA.SOLV.lig_0>
-56.4922

>  <SCORE.INTRA.VDW>
-0.245155

>  <SCORE.INTRA.VDW.0>
-0.696801

>  <SCORE.INTRA.norm>
-0.0207725

>  <SCORE.RESTR>
0.00439168

>  <SCORE.RESTR.CAVITY>
0.00439168

>  <SCORE.RESTR.norm>
0.000199622

>  <SCORE.SYSTEM>
0

>  <SCORE.SYSTEM.CONST>
0

>  <SCORE.SYSTEM.DIHEDRAL>
0

>  <SCORE.SYSTEM.SOLV>
0

>  <SCORE.SYSTEM.norm>
0

>  <SCORE.heavy>
22

>  <SCORE.norm>
-0.476564

>  <RMSD>
24.518

$$$$
ligand
 OpenBabel02271912143D
libRbt.so/2013.1/901 2013/11/27
 22 24  0  0  0  0  0  0  0  0999 V2000
    5.8935    3.8263   29.9045 N   0  0  0  0  0  0  0  0  0  0  0  0
    5.1135    1.9832   31.2189 N   0  0  0  0  0  0  0  0  0  0  0  0
    5.1760    2.5850   30.0197 C   0  0  0  0  0  0  0  0  0  0  0  0
    4.5976    2.0713   28.9411 N   0  0  0  0  0  0  0  0  0  0  0  0
    0.8506   -1.1741   30.4593 O   0  0  0  0  0  0  0  0  0  0  0  0
    3.9206    0.9115   29.0280 C   0  0  0  0  0  0  0  0  0  0  0  0
    3.8230    0.2524   30.2852 C   0  0  0  0  0  0  0  0  0  0  0  0
    3.3307    0.3999   27.8941 O   0  0  0  0  0  0  0  0  0  0  0  0
    3.1481   -1.0080   30.5239 N   0  0  0  0  0  0  0  0  0  0  0  0
    3.8077   -1.9412   31.4464 C   0  0  2  0  0  0  0  0  0  0  0  0
    4.1453   -1.2586   32.7350 C   0  0  0  0  0  0  0  0  0  0  0  0
    4.4487    0.8206   31.3665 C   0  0  0  0  0  0  0  0  0  0  0  0
    4.3748    0.1806   32.6249 N   0  0  0  0  0  0  0  0  0  0  0  0
    5.0870   -2.5800   30.8763 C   0  0  0  0  0  0  0  0  0  0  0  0
    4.7835   -3.3386   29.6690 N   0  0  0  0  0  0  0  0  0  0  0  0
    7.8637   -4.5685   27.0042 C   0  0  0  0  0  0  0  0  0  0  0  0
    7.9241   -4.9252   28.3409 C   0  0  0  0  0  0  0  0  0  0  0  0
    6.9073   -4.5222   29.2280 C   0  0  0  0  0  0  0  0  0  0  0  0
    5.8432   -3.7644   28.7631 C   0  0  0  0  0  0  0  0  0  0  0  0
    5.7851   -3.4075   27.4191 C   0  0  0  0  0  0  0  0  0  0  0  0
    6.7936   -3.8101   26.5399 C   0  0  0  0  0  0  0  0  0  0  0  0
    1.9202   -1.3903   29.9148 C   0  0  0  0  0  0  0  0  0  0  0  0
  1  3  1  0  0  0  0
  2  3  2  0  0  0  0
  2 12  1  0  0  0  0
  3  4  1  0  0  0  0
  4  6  1  0  0  0  0
  5 22  1  0  0  0  0
  6  7  1  0  0  0  0
  6  8  2  0  0  0  0
  7 12  2  0  0  0  0
  7  9  1  0  0  0  0
  9 10  1  0  0  0  0
  9 22  1  0  0  0  0
 10 11  1  0  0  0  0
 10 14  1  6  0  0  0
 11 13  1  0  0  0  0
 12 13  1  0  0  0  0
 14 15  1  0  0  0  0
 15 19  1  0  0  0  0
 16 17  2  0  0  0  0
 16 21  1  0  0  0  0
 17 18  1  0  0  0  0
 18 19  2  0  0  0  0
 19 20  1  0  0  0  0
 20 21  2  0  0  0  0
M  END
>  <CHROM.1>
-92.84718146,-60.31086256,164.94037267,55.71642905,4.69121389,-1.04493066
29.78753041,-2.10708004,-0.69156391,-3.09213125

>  <Name>
ligand

>  <RI>
0

>  <Rbt.Current_Directory>
/home/itssahil/PROJECTS/Mol_Feturizer/Test_systems_manuscript/rnas/3sd3

>  <Rbt.Executable>
rbdock ($Id: //depot/dev/client3/rdock/2013.1/src/exe/rbdock.cxx#4 $)

>  <Rbt.Library>
libRbt.so (2013.1, Build901 2013/11/27)

>  <Rbt.Parameter_File>
/export/apps/rDock/src/rDock_2013.1_src/data/scripts/dock_solv.prm

>  <Rbt.Receptor>
prm/blind_docking_60.prm

>  <SCORE>
-8.43212

>  <SCORE.INTER>
-7.13785

>  <SCORE.INTER.CONST>
1

>  <SCORE.INTER.POLAR>
0

>  <SCORE.INTER.ROT>
4

>  <SCORE.INTER.SOLV>
6.72051

>  <SCORE.INTER.VDW>
-13.2654

>  <SCORE.INTER.norm>
-0.324448

>  <SCORE.INTRA>
-1.29428

>  <SCORE.INTRA.DIHEDRAL>
-0.70629

>  <SCORE.INTRA.DIHEDRAL.0>
2.54655

>  <SCORE.INTRA.POLAR>
0

>  <SCORE.INTRA.POLAR.0>
0

>  <SCORE.INTRA.REPUL>
0

>  <SCORE.INTRA.REPUL.0>
0

>  <SCORE.INTRA.SOLV>
-0.276425

>  <SCORE.INTRA.SOLV.lig_0>
-56.4922

>  <SCORE.INTRA.VDW>
-0.802919

>  <SCORE.INTRA.VDW.0>
-0.696801

>  <SCORE.INTRA.norm>
-0.0588307

>  <SCORE.RESTR>
0

>  <SCORE.RESTR.CAVITY>
0

>  <SCORE.RESTR.norm>
0

>  <SCORE.SYSTEM>
0

>  <SCORE.SYSTEM.CONST>
0

>  <SCORE.SYSTEM.DIHEDRAL>
0

>  <SCORE.SYSTEM.SOLV>
0

>  <SCORE.SYSTEM.norm>
0

>  <SCORE.heavy>
22

>  <SCORE.norm>
-0.383278

>  <RMSD>
24.555

$$$$
ligand
 OpenBabel02271912143D
libRbt.so/2013.1/901 2013/11/27
 22 24  0  0  0  0  0  0  0  0999 V2000
    1.6177    0.8763   31.0452 N   0  0  0  0  0  0  0  0  0  0  0  0
    3.0900   -1.0070   30.9088 N   0  0  0  0  0  0  0  0  0  0  0  0
    2.2911   -0.1337   30.2737 C   0  0  0  0  0  0  0  0  0  0  0  0
    2.1043   -0.1741   28.9602 N   0  0  0  0  0  0  0  0  0  0  0  0
    2.6361   -4.1264   26.9849 O   0  0  0  0  0  0  0  0  0  0  0  0
    2.7243   -1.1120   28.2205 C   0  0  0  0  0  0  0  0  0  0  0  0
    3.5683   -2.0615   28.8613 C   0  0  0  0  0  0  0  0  0  0  0  0
    2.5140   -1.1313   26.8600 O   0  0  0  0  0  0  0  0  0  0  0  0
    4.3142   -3.1095   28.1933 N   0  0  0  0  0  0  0  0  0  0  0  0
    5.6714   -3.3686   28.6912 C   0  0  2  0  0  0  0  0  0  0  0  0
    5.6584   -3.5776   30.1733 C   0  0  0  0  0  0  0  0  0  0  0  0
    3.7358   -1.9684   30.2203 C   0  0  0  0  0  0  0  0  0  0  0  0
    4.5768   -2.8939   30.8796 N   0  0  0  0  0  0  0  0  0  0  0  0
    6.6796   -2.2537   28.3589 C   0  0  0  0  0  0  0  0  0  0  0  0
    6.3507   -1.0351   29.0883 N   0  0  0  0  0  0  0  0  0  0  0  0
    6.0573    2.7023   27.0766 C   0  0  0  0  0  0  0  0  0  0  0  0
    4.9213    2.1104   27.6027 C   0  0  0  0  0  0  0  0  0  0  0  0
    5.0117    0.8739   28.2706 C   0  0  0  0  0  0  0  0  0  0  0  0
    6.2410    0.2455   28.4007 C   0  0  0  0  0  0  0  0  0  0  0  0
    7.3810    0.8429   27.8710 C   0  0  0  0  0  0  0  0  0  0  0  0
    7.2899    2.0708   27.2106 C   0  0  0  0  0  0  0  0  0  0  0  0
    3.8235   -3.8713   27.0962 C   0  0  0  0  0  0  0  0  0  0  0  0
  1  3  1  0  0  0  0
  2  3  2  0  0  0  0
  2 12  1  0  0  0  0
  3  4  1  0  0  0  0
  4  6  1  0  0  0  0
  5 22  1  0  0  0  0
  6  7  1  0  0  0  0
  6  8  2  0  0  0  0
  7 12  2  0  0  0  0
  7  9  1  0  0  0  0
  9 10  1  0  0  0  0
  9 22  1  0  0  0  0
 10 11  1  0  0  0  0
 10 14  1  1  0  0  0
 11 13  1  0  0  0  0
 12 13  1  0  0  0  0
 14 15  1  0  0  0  0
 15 19  1  0  0  0  0
 16 17  2  0  0  0  0
 16 21  1  0  0  0  0
 17 18  1  0  0  0  0
 18 19  2  0  0  0  0
 19 20  1  0  0  0  0
 20 21  2  0  0  0  0
M  END
>  <CHROM.1>
-31.70914609,67.52238536,-129.30298866,111.42634045,4.40526744,-1.11262863
28.68886618,2.12044931,-0.38611732,-3.13618719

>  <Name>
ligand

>  <RI>
0

>  <Rbt.Current_Directory>
/home/itssahil/PROJECTS/Mol_Feturizer/Test_systems_manuscript/rnas/3sd3

>  <Rbt.Executable>
rbdock ($Id: //depot/dev/client3/rdock/2013.1/src/exe/rbdock.cxx#4 $)

>  <Rbt.Library>
libRbt.so (2013.1, Build901 2013/11/27)

>  <Rbt.Parameter_File>
/export/apps/rDock/src/rDock_2013.1_src/data/scripts/dock_solv.prm

>  <Rbt.Receptor>
prm/blind_docking_100.prm

>  <SCORE>
-10.6409

>  <SCORE.INTER>
-9.7044

>  <SCORE.INTER.CONST>
1

>  <SCORE.INTER.POLAR>
0

>  <SCORE.INTER.ROT>
4

>  <SCORE.INTER.SOLV>
8.55604

>  <SCORE.INTER.VDW>
-15.5883

>  <SCORE.INTER.norm>
-0.441109

>  <SCORE.INTRA>
-0.936651

>  <SCORE.INTRA.DIHEDRAL>
0.399742

>  <SCORE.INTRA.DIHEDRAL.0>
2.54655

>  <SCORE.INTRA.POLAR>
0

>  <SCORE.INTRA.POLAR.0>
0

>  <SCORE.INTRA.REPUL>
0

>  <SCORE.INTRA.REPUL.0>
0

>  <SCORE.INTRA.SOLV>
1.90861

>  <SCORE.INTRA.SOLV.lig_0>
-56.4922

>  <SCORE.INTRA.VDW>
-2.09083

>  <SCORE.INTRA.VDW.0>
-0.696801

>  <SCORE.INTRA.norm>
-0.0425751

>  <SCORE.RESTR>
0.000180317

>  <SCORE.RESTR.CAVITY>
0.000180317

>  <SCORE.RESTR.norm>
8.19624e-06

>  <SCORE.SYSTEM>
0

>  <SCORE.SYSTEM.CONST>
0

>  <SCORE.SYSTEM.DIHEDRAL>
0

>  <SCORE.SYSTEM.SOLV>
0

>  <SCORE.SYSTEM.norm>
0

>  <SCORE.heavy>
22

>  <SCORE.norm>
-0.483676

>  <RMSD>
24.673

$$$$
ligand
 OpenBabel02271912143D
libRbt.so/2013.1/901 2013/11/27
 22 24  0  0  0  0  0  0  0  0999 V2000
    7.1205   -4.9660   25.8497 N   0  0  0  0  0  0  0  0  0  0  0  0
    5.0168   -4.1320   26.6320 N   0  0  0  0  0  0  0  0  0  0  0  0
    6.3488   -4.2002   26.7914 C   0  0  0  0  0  0  0  0  0  0  0  0
    6.9729   -3.5848   27.7882 N   0  0  0  0  0  0  0  0  0  0  0  0
    3.2928   -2.3889   31.5912 O   0  0  0  0  0  0  0  0  0  0  0  0
    6.2689   -2.8643   28.6806 C   0  0  0  0  0  0  0  0  0  0  0  0
    4.8546   -2.7803   28.5501 C   0  0  0  0  0  0  0  0  0  0  0  0
    6.9407   -2.2351   29.7045 O   0  0  0  0  0  0  0  0  0  0  0  0
    3.9731   -2.0264   29.4195 N   0  0  0  0  0  0  0  0  0  0  0  0
    2.8660   -1.3115   28.7713 C   0  0  2  0  0  0  0  0  0  0  0  0
    2.0887   -2.2347   27.8859 C   0  0  0  0  0  0  0  0  0  0  0  0
    4.2603   -3.4263   27.4951 C   0  0  0  0  0  0  0  0  0  0  0  0
    2.8575   -3.3505   27.3377 N   0  0  0  0  0  0  0  0  0  0  0  0
    3.3121   -0.0928   27.9434 C   0  0  0  0  0  0  0  0  0  0  0  0
    4.1906    0.7640   28.7303 N   0  0  0  0  0  0  0  0  0  0  0  0
    5.8622    4.2938   27.0429 C   0  0  0  0  0  0  0  0  0  0  0  0
    5.7031    4.1929   28.4148 C   0  0  0  0  0  0  0  0  0  0  0  0
    5.1514    3.0268   28.9798 C   0  0  0  0  0  0  0  0  0  0  0  0
    4.7642    1.9770   28.1608 C   0  0  0  0  0  0  0  0  0  0  0  0
    4.9254    2.0813   26.7823 C   0  0  0  0  0  0  0  0  0  0  0  0
    5.4750    3.2380   26.2236 C   0  0  0  0  0  0  0  0  0  0  0  0
    4.1273   -1.9278   30.8307 C   0  0  0  0  0  0  0  0  0  0  0  0
  1  3  1  0  0  0  0
  2  3  2  0  0  0  0
  2 12  1  0  0  0  0
  3  4  1  0  0  0  0
  4  6  1  0  0  0  0
  5 22  1  0  0  0  0
  6  7  1  0  0  0  0
  6  8  2  0  0  0  0
  7 12  2  0  0  0  0
  7  9  1  0  0  0  0
  9 10  1  0  0  0  0
  9 22  1  0  0  0  0
 10 11  1  0  0  0  0
 10 14  1  6  0  0  0
 11 13  1  0  0  0  0
 12 13  1  0  0  0  0
 14 15  1  0  0  0  0
 15 19  1  0  0  0  0
 16 17  2  0  0  0  0
 16 21  1  0  0  0  0
 17 18  1  0  0  0  0
 18 19  2  0  0  0  0
 19 20  1  0  0  0  0
 20 21  2  0  0  0  0
M  END
>  <CHROM.1>
-115.23246637,-50.26247798,179.10679860,155.21767278,4.80925837,-1.12097262
28.22695327,-1.55584107,0.79157055,-0.02210592

>  <Name>
ligand

>  <RI>
0

>  <Rbt.Current_Directory>
/home/itssahil/PROJECTS/Mol_Feturizer/Test_systems_manuscript/rnas/3sd3

>  <Rbt.Executable>
rbdock ($Id: //depot/dev/client3/rdock/2013.1/src/exe/rbdock.cxx#4 $)

>  <Rbt.Library>
libRbt.so (2013.1, Build901 2013/11/27)

>  <Rbt.Parameter_File>
/export/apps/rDock/src/rDock_2013.1_src/data/scripts/dock_solv.prm

>  <Rbt.Receptor>
prm/blind_docking_80.prm

>  <SCORE>
-11.5734

>  <SCORE.INTER>
-10.981

>  <SCORE.INTER.CONST>
1

>  <SCORE.INTER.POLAR>
0

>  <SCORE.INTER.ROT>
4

>  <SCORE.INTER.SOLV>
13.8026

>  <SCORE.INTER.VDW>
-18.1882

>  <SCORE.INTER.norm>
-0.499135

>  <SCORE.INTRA>
-0.592472

>  <SCORE.INTRA.DIHEDRAL>
-0.560536

>  <SCORE.INTRA.DIHEDRAL.0>
2.54655

>  <SCORE.INTRA.POLAR>
0

>  <SCORE.INTRA.POLAR.0>
0

>  <SCORE.INTRA.REPUL>
0

>  <SCORE.INTRA.REPUL.0>
0

>  <SCORE.INTRA.SOLV>
-0.0679531

>  <SCORE.INTRA.SOLV.lig_0>
-56.4922

>  <SCORE.INTRA.VDW>
-0.278228

>  <SCORE.INTRA.VDW.0>
-0.696801

>  <SCORE.INTRA.norm>
-0.0269306

>  <SCORE.RESTR>
0

>  <SCORE.RESTR.CAVITY>
0

>  <SCORE.RESTR.norm>
0

>  <SCORE.SYSTEM>
0

>  <SCORE.SYSTEM.CONST>
0

>  <SCORE.SYSTEM.DIHEDRAL>
0

>  <SCORE.SYSTEM.SOLV>
0

>  <SCORE.SYSTEM.norm>
0

>  <SCORE.heavy>
22

>  <SCORE.norm>
-0.526066

>  <RMSD>
24.677

$$$$
ligand
 OpenBabel02271912143D
libRbt.so/2013.1/901 2013/11/27
 22 24  0  0  0  0  0  0  0  0999 V2000
    7.2737   -4.9204   26.0067 N   0  0  0  0  0  0  0  0  0  0  0  0
    5.1007   -4.1557   26.6593 N   0  0  0  0  0  0  0  0  0  0  0  0
    6.4218   -4.1828   26.9005 C   0  0  0  0  0  0  0  0  0  0  0  0
    6.9635   -3.5521   27.9351 N   0  0  0  0  0  0  0  0  0  0  0  0
    4.3115   -0.9925   31.3447 O   0  0  0  0  0  0  0  0  0  0  0  0
    6.1836   -2.8573   28.7837 C   0  0  0  0  0  0  0  0  0  0  0  0
    4.7780   -2.8171   28.5663 C   0  0  0  0  0  0  0  0  0  0  0  0
    6.7709   -2.2114   29.8483 O   0  0  0  0  0  0  0  0  0  0  0  0
    3.8213   -2.0946   29.3811 N   0  0  0  0  0  0  0  0  0  0  0  0
    2.7344   -1.4121   28.6672 C   0  0  2  0  0  0  0  0  0  0  0  0
    2.0426   -2.3558   27.7336 C   0  0  0  0  0  0  0  0  0  0  0  0
    4.2706   -3.4773   27.4754 C   0  0  0  0  0  0  0  0  0  0  0  0
    2.8784   -3.4448   27.2318 N   0  0  0  0  0  0  0  0  0  0  0  0
    3.1921   -0.1769   27.8707 C   0  0  0  0  0  0  0  0  0  0  0  0
    3.9742    0.7149   28.7181 N   0  0  0  0  0  0  0  0  0  0  0  0
    5.8377    4.1994   27.1411 C   0  0  0  0  0  0  0  0  0  0  0  0
    5.4818    3.1634   26.2940 C   0  0  0  0  0  0  0  0  0  0  0  0
    4.8638    2.0077   26.8094 C   0  0  0  0  0  0  0  0  0  0  0  0
    4.6122    1.9051   28.1692 C   0  0  0  0  0  0  0  0  0  0  0  0
    4.9708    2.9480   29.0181 C   0  0  0  0  0  0  0  0  0  0  0  0
    5.5820    4.0948   28.5048 C   0  0  0  0  0  0  0  0  0  0  0  0
    3.8851   -1.9966   30.7992 C   0  0  0  0  0  0  0  0  0  0  0  0
  1  3  1  0  0  0  0
  2  3  2  0  0  0  0
  2 12  1  0  0  0  0
  3  4  1  0  0  0  0
  4  6  1  0  0  0  0
  5 22  1  0  0  0  0
  6  7  1  0  0  0  0
  6  8  2  0  0  0  0
  7 12  2  0  0  0  0
  7  9  1  0  0  0  0
  9 10  1  0  0  0  0
  9 22  1  0  0  0  0
 10 11  1  0  0  0  0
 10 14  1  6  0  0  0
 11 13  1  0  0  0  0
 12 13  1  0  0  0  0
 14 15  1  0  0  0  0
 15 19  1  0  0  0  0
 16 17  2  0  0  0  0
 16 21  1  0  0  0  0
 17 18  1  0  0  0  0
 18 19  2  0  0  0  0
 19 20  1  0  0  0  0
 20 21  2  0  0  0  0
M  END
>  <CHROM.1>
101.30422499,-51.21598829,175.10330217,-20.73569072,4.79937153,-1.09106850
28.23500636,-1.50635343,0.73390269,-0.00522756

>  <Name>
ligand

>  <RI>
0

>  <Rbt.Current_Directory>
/home/itssahil/PROJECTS/Mol_Feturizer/Test_systems_manuscript/rnas/3sd3

>  <Rbt.Executable>
rbdock ($Id: //depot/dev/client3/rdock/2013.1/src/exe/rbdock.cxx#4 $)

>  <Rbt.Library>
libRbt.so (2013.1, Build901 2013/11/27)

>  <Rbt.Parameter_File>
/export/apps/rDock/src/rDock_2013.1_src/data/scripts/dock_solv.prm

>  <Rbt.Receptor>
prm/blind_docking_80.prm

>  <SCORE>
-10.8465

>  <SCORE.INTER>
-10.3825

>  <SCORE.INTER.CONST>
1

>  <SCORE.INTER.POLAR>
0

>  <SCORE.INTER.ROT>
4

>  <SCORE.INTER.SOLV>
12.779

>  <SCORE.INTER.VDW>
-17.448

>  <SCORE.INTER.norm>
-0.471933

>  <SCORE.INTRA>
-0.463946

>  <SCORE.INTRA.DIHEDRAL>
-0.632883

>  <SCORE.INTRA.DIHEDRAL.0>
2.54655

>  <SCORE.INTRA.POLAR>
0

>  <SCORE.INTRA.POLAR.0>
0

>  <SCORE.INTRA.REPUL>
0

>  <SCORE.INTRA.REPUL.0>
0

>  <SCORE.INTRA.SOLV>
0.805315

>  <SCORE.INTRA.SOLV.lig_0>
-56.4922

>  <SCORE.INTRA.VDW>
-0.550162

>  <SCORE.INTRA.VDW.0>
-0.696801

>  <SCORE.INTRA.norm>
-0.0210885

>  <SCORE.RESTR>
0

>  <SCORE.RESTR.CAVITY>
0

>  <SCORE.RESTR.norm>
0

>  <SCORE.SYSTEM>
0

>  <SCORE.SYSTEM.CONST>
0

>  <SCORE.SYSTEM.DIHEDRAL>
0

>  <SCORE.SYSTEM.SOLV>
0

>  <SCORE.SYSTEM.norm>
0

>  <SCORE.heavy>
22

>  <SCORE.norm>
-0.493022

>  <RMSD>
24.688

$$$$
ligand
 OpenBabel02271912143D
libRbt.so/2013.1/901 2013/11/27
 22 24  0  0  0  0  0  0  0  0999 V2000
    7.3701   -4.8066   26.1426 N   0  0  0  0  0  0  0  0  0  0  0  0
    5.1840   -4.0745   26.7892 N   0  0  0  0  0  0  0  0  0  0  0  0
    6.5060   -4.0717   27.0270 C   0  0  0  0  0  0  0  0  0  0  0  0
    7.0379   -3.4141   28.0500 N   0  0  0  0  0  0  0  0  0  0  0  0
    3.0802   -2.3646   31.6144 O   0  0  0  0  0  0  0  0  0  0  0  0
    6.2465   -2.7214   28.8897 C   0  0  0  0  0  0  0  0  0  0  0  0
    4.8399   -2.7123   28.6757 C   0  0  0  0  0  0  0  0  0  0  0  0
    6.8236   -2.0473   29.9423 O   0  0  0  0  0  0  0  0  0  0  0  0
    3.8712   -1.9959   29.4816 N   0  0  0  0  0  0  0  0  0  0  0  0
    2.7692   -1.3464   28.7601 C   0  0  2  0  0  0  0  0  0  0  0  0
    2.0938   -2.3182   27.8435 C   0  0  0  0  0  0  0  0  0  0  0  0
    4.3428   -3.3996   27.5968 C   0  0  0  0  0  0  0  0  0  0  0  0
    2.9496   -3.3984   27.3567 N   0  0  0  0  0  0  0  0  0  0  0  0
    3.2005   -0.1152   27.9429 C   0  0  0  0  0  0  0  0  0  0  0  0
    3.9647    0.8064   28.7746 N   0  0  0  0  0  0  0  0  0  0  0  0
    5.8754    4.2252   27.1125 C   0  0  0  0  0  0  0  0  0  0  0  0
    5.5126    3.1702   26.2923 C   0  0  0  0  0  0  0  0  0  0  0  0
    4.8789    2.0360   26.8360 C   0  0  0  0  0  0  0  0  0  0  0  0
    4.6188    1.9739   28.1966 C   0  0  0  0  0  0  0  0  0  0  0  0
    4.9845    3.0359   29.0184 C   0  0  0  0  0  0  0  0  0  0  0  0
    5.6112    4.1613   28.4771 C   0  0  0  0  0  0  0  0  0  0  0  0
    3.9366   -1.8742   30.8978 C   0  0  0  0  0  0  0  0  0  0  0  0
  1  3  1  0  0  0  0
  2  3  2  0  0  0  0
  2 12  1  0  0  0  0
  3  4  1  0  0  0  0
  4  6  1  0  0  0  0
  5 22  1  0  0  0  0
  6  7  1  0  0  0  0
  6  8  2  0  0  0  0
  7 12  2  0  0  0  0
  7  9  1  0  0  0  0
  9 10  1  0  0  0  0
  9 22  1  0  0  0  0
 10 11  1  0  0  0  0
 10 14  1  6  0  0  0
 11 13  1  0  0  0  0
 12 13  1  0  0  0  0
 14 15  1  0  0  0  0
 15 19  1  0  0  0  0
 16 17  2  0  0  0  0
 16 21  1  0  0  0  0
 17 18  1  0  0  0  0
 18 19  2  0  0  0  0
 19 20  1  0  0  0  0
 20 21  2  0  0  0  0
M  END
>  <CHROM.1>
-115.56134137,-51.32935965,172.80915959,-19.44075638,4.77620936,-1.08699835
28.32347598,-1.53793127,0.70804409,-0.05138846

>  <Name>
ligand

>  <RI>
0

>  <Rbt.Current_Directory>
/home/itssahil/PROJECTS/Mol_Feturizer/Test_systems_manuscript/rnas/3sd3

>  <Rbt.Executable>
rbdock ($Id: //depot/dev/client3/rdock/2013.1/src/exe/rbdock.cxx#4 $)

>  <Rbt.Library>
libRbt.so (2013.1, Build901 2013/11/27)

>  <Rbt.Parameter_File>
/export/apps/rDock/src/rDock_2013.1_src/data/scripts/dock_solv.prm

>  <Rbt.Receptor>
prm/blind_docking_100.prm

>  <SCORE>
-11.6372

>  <SCORE.INTER>
-11.0015

>  <SCORE.INTER.CONST>
1

>  <SCORE.INTER.POLAR>
0

>  <SCORE.INTER.ROT>
4

>  <SCORE.INTER.SOLV>
13.4381

>  <SCORE.INTER.VDW>
-18.0804

>  <SCORE.INTER.norm>
-0.500069

>  <SCORE.INTRA>
-0.635728

>  <SCORE.INTRA.DIHEDRAL>
-0.587323

>  <SCORE.INTRA.DIHEDRAL.0>
2.54655

>  <SCORE.INTRA.POLAR>
0

>  <SCORE.INTRA.POLAR.0>
0

>  <SCORE.INTRA.REPUL>
0

>  <SCORE.INTRA.REPUL.0>
0

>  <SCORE.INTRA.SOLV>
-0.0945034

>  <SCORE.INTRA.SOLV.lig_0>
-56.4922

>  <SCORE.INTRA.VDW>
-0.294815

>  <SCORE.INTRA.VDW.0>
-0.696801

>  <SCORE.INTRA.norm>
-0.0288967

>  <SCORE.RESTR>
0

>  <SCORE.RESTR.CAVITY>
0

>  <SCORE.RESTR.norm>
0

>  <SCORE.SYSTEM>
0

>  <SCORE.SYSTEM.CONST>
0

>  <SCORE.SYSTEM.DIHEDRAL>
0

>  <SCORE.SYSTEM.SOLV>
0

>  <SCORE.SYSTEM.norm>
0

>  <SCORE.heavy>
22

>  <SCORE.norm>
-0.528966

>  <RMSD>
24.729

$$$$
ligand
 OpenBabel02271912143D
libRbt.so/2013.1/901 2013/11/27
 22 24  0  0  0  0  0  0  0  0999 V2000
    0.4519   -0.9549   28.1096 N   0  0  0  0  0  0  0  0  0  0  0  0
    1.7828   -1.3315   30.0641 N   0  0  0  0  0  0  0  0  0  0  0  0
    1.6925   -1.3452   28.7240 C   0  0  0  0  0  0  0  0  0  0  0  0
    2.7095   -1.7067   27.9515 N   0  0  0  0  0  0  0  0  0  0  0  0
    7.2526   -3.2635   29.9949 O   0  0  0  0  0  0  0  0  0  0  0  0
    3.8784   -2.0763   28.5068 C   0  0  0  0  0  0  0  0  0  0  0  0
    4.0063   -2.0860   29.9238 C   0  0  0  0  0  0  0  0  0  0  0  0
    4.9178   -2.4460   27.6830 O   0  0  0  0  0  0  0  0  0  0  0  0
    5.2057   -2.4382   30.6577 N   0  0  0  0  0  0  0  0  0  0  0  0
    5.5121   -1.6265   31.8426 C   0  0  2  0  0  0  0  0  0  0  0  0
    4.3260   -1.5531   32.7527 C   0  0  0  0  0  0  0  0  0  0  0  0
    2.9277   -1.6926   30.6757 C   0  0  0  0  0  0  0  0  0  0  0  0
    3.0322   -1.6842   32.0856 N   0  0  0  0  0  0  0  0  0  0  0  0
    5.9715   -0.1944   31.5142 C   0  0  0  0  0  0  0  0  0  0  0  0
    6.7309   -0.1755   30.2700 N   0  0  0  0  0  0  0  0  0  0  0  0
    5.4735    2.1647   26.9468 C   0  0  0  0  0  0  0  0  0  0  0  0
    4.5312    1.5506   27.7546 C   0  0  0  0  0  0  0  0  0  0  0  0
    4.9408    0.7754   28.8568 C   0  0  0  0  0  0  0  0  0  0  0  0
    6.2911    0.6245   29.1336 C   0  0  0  0  0  0  0  0  0  0  0  0
    7.2358    1.2431   28.3199 C   0  0  0  0  0  0  0  0  0  0  0  0
    6.8277    2.0136   27.2281 C   0  0  0  0  0  0  0  0  0  0  0  0
    6.0918   -3.4900   30.2925 C   0  0  0  0  0  0  0  0  0  0  0  0
  1  3  1  0  0  0  0
  2  3  2  0  0  0  0
  2 12  1  0  0  0  0
  3  4  1  0  0  0  0
  4  6  1  0  0  0  0
  5 22  1  0  0  0  0
  6  7  1  0  0  0  0
  6  8  2  0  0  0  0
  7 12  2  0  0  0  0
  7  9  1  0  0  0  0
  9 10  1  0  0  0  0
  9 22  1  0  0  0  0
 10 11  1  0  0  0  0
 10 14  1  6  0  0  0
 11 13  1  0  0  0  0
 12 13  1  0  0  0  0
 14 15  1  0  0  0  0
 15 19  1  0  0  0  0
 16 17  2  0  0  0  0
 16 21  1  0  0  0  0
 17 18  1  0  0  0  0
 18 19  2  0  0  0  0
 19 20  1  0  0  0  0
 20 21  2  0  0  0  0
M  END
>  <CHROM.1>
117.53289648,-33.55508093,120.43056756,-35.84315027,4.63339326,-0.98901588
29.55848287,2.27038632,0.23508965,2.30919810

>  <Name>
ligand

>  <RI>
0

>  <Rbt.Current_Directory>
/home/itssahil/PROJECTS/Mol_Feturizer/Test_systems_manuscript/rnas/3sd3

>  <Rbt.Executable>
rbdock ($Id: //depot/dev/client3/rdock/2013.1/src/exe/rbdock.cxx#4 $)

>  <Rbt.Library>
libRbt.so (2013.1, Build901 2013/11/27)

>  <Rbt.Parameter_File>
/export/apps/rDock/src/rDock_2013.1_src/data/scripts/dock_solv.prm

>  <Rbt.Receptor>
prm/blind_docking_100.prm

>  <SCORE>
-10.7306

>  <SCORE.INTER>
-10.2771

>  <SCORE.INTER.CONST>
1

>  <SCORE.INTER.POLAR>
0

>  <SCORE.INTER.ROT>
4

>  <SCORE.INTER.SOLV>
7.63738

>  <SCORE.INTER.VDW>
-15.6639

>  <SCORE.INTER.norm>
-0.467143

>  <SCORE.INTRA>
-0.45349

>  <SCORE.INTRA.DIHEDRAL>
2.43205

>  <SCORE.INTRA.DIHEDRAL.0>
2.54655

>  <SCORE.INTRA.POLAR>
0

>  <SCORE.INTRA.POLAR.0>
0

>  <SCORE.INTRA.REPUL>
0

>  <SCORE.INTRA.REPUL.0>
0

>  <SCORE.INTRA.SOLV>
1.40533

>  <SCORE.INTRA.SOLV.lig_0>
-56.4922

>  <SCORE.INTRA.VDW>
-2.37218

>  <SCORE.INTRA.VDW.0>
-0.696801

>  <SCORE.INTRA.norm>
-0.0206132

>  <SCORE.RESTR>
0

>  <SCORE.RESTR.CAVITY>
0

>  <SCORE.RESTR.norm>
0

>  <SCORE.SYSTEM>
0

>  <SCORE.SYSTEM.CONST>
0

>  <SCORE.SYSTEM.DIHEDRAL>
0

>  <SCORE.SYSTEM.SOLV>
0

>  <SCORE.SYSTEM.norm>
0

>  <SCORE.heavy>
22

>  <SCORE.norm>
-0.487756

>  <RMSD>
24.809

$$$$
ligand
 OpenBabel02271912143D
libRbt.so/2013.1/901 2013/11/27
 22 24  0  0  0  0  0  0  0  0999 V2000
    0.5352   -0.3869   29.4478 N   0  0  0  0  0  0  0  0  0  0  0  0
    2.3027   -0.9507   30.9615 N   0  0  0  0  0  0  0  0  0  0  0  0
    1.8124   -0.9935   29.7117 C   0  0  0  0  0  0  0  0  0  0  0  0
    2.4681   -1.5767   28.7159 N   0  0  0  0  0  0  0  0  0  0  0  0
    5.3028   -4.8721   29.9181 O   0  0  0  0  0  0  0  0  0  0  0  0
    3.6640   -2.1510   28.9422 C   0  0  0  0  0  0  0  0  0  0  0  0
    4.2084   -2.1357   30.2567 C   0  0  0  0  0  0  0  0  0  0  0  0
    4.3236   -2.7484   27.8917 O   0  0  0  0  0  0  0  0  0  0  0  0
    5.4897   -2.6926   30.6428 N   0  0  0  0  0  0  0  0  0  0  0  0
    6.2785   -1.9164   31.6084 C   0  0  2  0  0  0  0  0  0  0  0  0
    5.4543   -1.5771   32.8109 C   0  0  0  0  0  0  0  0  0  0  0  0
    3.4946   -1.5098   31.2478 C   0  0  0  0  0  0  0  0  0  0  0  0
    4.0182   -1.4724   32.5605 N   0  0  0  0  0  0  0  0  0  0  0  0
    6.8661   -0.6165   31.0300 C   0  0  0  0  0  0  0  0  0  0  0  0
    5.7998    0.3167   30.6876 N   0  0  0  0  0  0  0  0  0  0  0  0
    5.6778    2.1712   26.8604 C   0  0  0  0  0  0  0  0  0  0  0  0
    4.5159    1.6680   27.4210 C   0  0  0  0  0  0  0  0  0  0  0  0
    4.5493    1.0538   28.6879 C   0  0  0  0  0  0  0  0  0  0  0  0
    5.7488    0.9506   29.3759 C   0  0  0  0  0  0  0  0  0  0  0  0
    6.9149    1.4574   28.8100 C   0  0  0  0  0  0  0  0  0  0  0  0
    6.8796    2.0684   27.5539 C   0  0  0  0  0  0  0  0  0  0  0  0
    6.0218   -3.9116   30.1369 C   0  0  0  0  0  0  0  0  0  0  0  0
  1  3  1  0  0  0  0
  2  3  2  0  0  0  0
  2 12  1  0  0  0  0
  3  4  1  0  0  0  0
  4  6  1  0  0  0  0
  5 22  1  0  0  0  0
  6  7  1  0  0  0  0
  6  8  2  0  0  0  0
  7 12  2  0  0  0  0
  7  9  1  0  0  0  0
  9 10  1  0  0  0  0
  9 22  1  0  0  0  0
 10 11  1  0  0  0  0
 10 14  1  6  0  0  0
 11 13  1  0  0  0  0
 12 13  1  0  0  0  0
 14 15  1  0  0  0  0
 15 19  1  0  0  0  0
 16 17  2  0  0  0  0
 16 21  1  0  0  0  0
 17 18  1  0  0  0  0
 18 19  2  0  0  0  0
 19 20  1  0  0  0  0
 20 21  2  0  0  0  0
M  END
>  <CHROM.1>
-37.62617088,65.86963983,-129.59632877,136.44883370,4.64166986,-1.01717616
29.82910993,1.78397541,0.19755770,2.53604364

>  <Name>
ligand

>  <RI>
0

>  <Rbt.Current_Directory>
/home/itssahil/PROJECTS/Mol_Feturizer/Test_systems_manuscript/rnas/3sd3

>  <Rbt.Executable>
rbdock ($Id: //depot/dev/client3/rdock/2013.1/src/exe/rbdock.cxx#4 $)

>  <Rbt.Library>
libRbt.so (2013.1, Build901 2013/11/27)

>  <Rbt.Parameter_File>
/export/apps/rDock/src/rDock_2013.1_src/data/scripts/dock_solv.prm

>  <Rbt.Receptor>
prm/blind_docking_100.prm

>  <SCORE>
-10.6987

>  <SCORE.INTER>
-9.87403

>  <SCORE.INTER.CONST>
1

>  <SCORE.INTER.POLAR>
0

>  <SCORE.INTER.ROT>
4

>  <SCORE.INTER.SOLV>
7.1261

>  <SCORE.INTER.VDW>
-15.2247

>  <SCORE.INTER.norm>
-0.448819

>  <SCORE.INTRA>
-0.824677

>  <SCORE.INTRA.DIHEDRAL>
0.317358

>  <SCORE.INTRA.DIHEDRAL.0>
2.54655

>  <SCORE.INTRA.POLAR>
0

>  <SCORE.INTRA.POLAR.0>
0

>  <SCORE.INTRA.REPUL>
0

>  <SCORE.INTRA.REPUL.0>
0

>  <SCORE.INTRA.SOLV>
1.85623

>  <SCORE.INTRA.SOLV.lig_0>
-56.4922

>  <SCORE.INTRA.VDW>
-1.91147

>  <SCORE.INTRA.VDW.0>
-0.696801

>  <SCORE.INTRA.norm>
-0.0374853

>  <SCORE.RESTR>
0

>  <SCORE.RESTR.CAVITY>
0

>  <SCORE.RESTR.norm>
0

>  <SCORE.SYSTEM>
0

>  <SCORE.SYSTEM.CONST>
0

>  <SCORE.SYSTEM.DIHEDRAL>
0

>  <SCORE.SYSTEM.SOLV>
0

>  <SCORE.SYSTEM.norm>
0

>  <SCORE.heavy>
22

>  <SCORE.norm>
-0.486305

>  <RMSD>
24.857

$$$$
ligand
 OpenBabel02271912143D
libRbt.so/2013.1/901 2013/11/27
 22 24  0  0  0  0  0  0  0  0999 V2000
    0.4004   -0.5526   28.5888 N   0  0  0  0  0  0  0  0  0  0  0  0
    1.9326   -1.0476   30.3608 N   0  0  0  0  0  0  0  0  0  0  0  0
    1.6447   -1.1070   29.0502 C   0  0  0  0  0  0  0  0  0  0  0  0
    2.4706   -1.6601   28.1705 N   0  0  0  0  0  0  0  0  0  0  0  0
    5.2165   -4.8376   29.8042 O   0  0  0  0  0  0  0  0  0  0  0  0
    3.6393   -2.1854   28.5820 C   0  0  0  0  0  0  0  0  0  0  0  0
    3.9716   -2.1515   29.9651 C   0  0  0  0  0  0  0  0  0  0  0  0
    4.4781   -2.7523   27.6490 O   0  0  0  0  0  0  0  0  0  0  0  0
    5.1991   -2.6565   30.5477 N   0  0  0  0  0  0  0  0  0  0  0  0
    5.7957   -1.8513   31.6213 C   0  0  2  0  0  0  0  0  0  0  0  0
    4.7814   -1.5494   32.6799 C   0  0  0  0  0  0  0  0  0  0  0  0
    3.0874   -1.5582   30.8309 C   0  0  0  0  0  0  0  0  0  0  0  0
    3.3986   -1.5031   32.2089 N   0  0  0  0  0  0  0  0  0  0  0  0
    6.4123   -0.5267   31.1366 C   0  0  0  0  0  0  0  0  0  0  0  0
    5.3967    0.3078   30.5064 N   0  0  0  0  0  0  0  0  0  0  0  0
    6.0459    2.0900   26.6981 C   0  0  0  0  0  0  0  0  0  0  0  0
    7.1269    1.7270   27.4837 C   0  0  0  0  0  0  0  0  0  0  0  0
    6.9189    1.1358   28.7449 C   0  0  0  0  0  0  0  0  0  0  0  0
    5.6284    0.9178   29.2029 C   0  0  0  0  0  0  0  0  0  0  0  0
    4.5439    1.2836   28.4111 C   0  0  0  0  0  0  0  0  0  0  0  0
    4.7520    1.8680   27.1591 C   0  0  0  0  0  0  0  0  0  0  0  0
    5.8528   -3.8511   30.1351 C   0  0  0  0  0  0  0  0  0  0  0  0
  1  3  1  0  0  0  0
  2  3  2  0  0  0  0
  2 12  1  0  0  0  0
  3  4  1  0  0  0  0
  4  6  1  0  0  0  0
  5 22  1  0  0  0  0
  6  7  1  0  0  0  0
  6  8  2  0  0  0  0
  7 12  2  0  0  0  0
  7  9  1  0  0  0  0
  9 10  1  0  0  0  0
  9 22  1  0  0  0  0
 10 11  1  0  0  0  0
 10 14  1  6  0  0  0
 11 13  1  0  0  0  0
 12 13  1  0  0  0  0
 14 15  1  0  0  0  0
 15 19  1  0  0  0  0
 16 17  2  0  0  0  0
 16 21  1  0  0  0  0
 17 18  1  0  0  0  0
 18 19  2  0  0  0  0
 19 20  1  0  0  0  0
 20 21  2  0  0  0  0
M  END
>  <CHROM.1>
-37.25915714,60.14847442,-130.84548237,-23.19080363,4.46969595,-1.04389971
29.56922639,1.91102769,0.26628116,2.47249118

>  <Name>
ligand

>  <RI>
0

>  <Rbt.Current_Directory>
/home/itssahil/PROJECTS/Mol_Feturizer/Test_systems_manuscript/rnas/3sd3

>  <Rbt.Executable>
rbdock ($Id: //depot/dev/client3/rdock/2013.1/src/exe/rbdock.cxx#4 $)

>  <Rbt.Library>
libRbt.so (2013.1, Build901 2013/11/27)

>  <Rbt.Parameter_File>
/export/apps/rDock/src/rDock_2013.1_src/data/scripts/dock_solv.prm

>  <Rbt.Receptor>
prm/blind_docking_40.prm

>  <SCORE>
-11.2035

>  <SCORE.INTER>
-10.6321

>  <SCORE.INTER.CONST>
1

>  <SCORE.INTER.POLAR>
0

>  <SCORE.INTER.ROT>
4

>  <SCORE.INTER.SOLV>
7.37127

>  <SCORE.INTER.VDW>
-15.8118

>  <SCORE.INTER.norm>
-0.483277

>  <SCORE.INTRA>
-0.571457

>  <SCORE.INTRA.DIHEDRAL>
0.169057

>  <SCORE.INTRA.DIHEDRAL.0>
2.54655

>  <SCORE.INTRA.POLAR>
0

>  <SCORE.INTRA.POLAR.0>
0

>  <SCORE.INTRA.REPUL>
0

>  <SCORE.INTRA.REPUL.0>
0

>  <SCORE.INTRA.SOLV>
1.91726

>  <SCORE.INTRA.SOLV.lig_0>
-56.4922

>  <SCORE.INTRA.VDW>
-1.61462

>  <SCORE.INTRA.VDW.0>
-0.696801

>  <SCORE.INTRA.norm>
-0.0259753

>  <SCORE.RESTR>
0

>  <SCORE.RESTR.CAVITY>
0

>  <SCORE.RESTR.norm>
0

>  <SCORE.SYSTEM>
0

>  <SCORE.SYSTEM.CONST>
0

>  <SCORE.SYSTEM.DIHEDRAL>
0

>  <SCORE.SYSTEM.SOLV>
0

>  <SCORE.SYSTEM.norm>
0

>  <SCORE.heavy>
22

>  <SCORE.norm>
-0.509252

>  <RMSD>
24.873

$$$$
ligand
 OpenBabel02271912143D
libRbt.so/2013.1/901 2013/11/27
 22 24  0  0  0  0  0  0  0  0999 V2000
    0.9309   -3.0022   25.5497 N   0  0  0  0  0  0  0  0  0  0  0  0
    1.9333   -1.9824   27.4702 N   0  0  0  0  0  0  0  0  0  0  0  0
    2.0123   -2.9000   26.4925 C   0  0  0  0  0  0  0  0  0  0  0  0
    3.0543   -3.7130   26.3700 N   0  0  0  0  0  0  0  0  0  0  0  0
    5.3401   -4.6224   30.0660 O   0  0  0  0  0  0  0  0  0  0  0  0
    4.0760   -3.6342   27.2425 C   0  0  0  0  0  0  0  0  0  0  0  0
    4.0205   -2.6824   28.2986 C   0  0  0  0  0  0  0  0  0  0  0  0
    5.1452   -4.4886   27.0925 O   0  0  0  0  0  0  0  0  0  0  0  0
    5.0521   -2.4702   29.2946 N   0  0  0  0  0  0  0  0  0  0  0  0
    5.3226   -1.0771   29.6727 C   0  0  2  0  0  0  0  0  0  0  0  0
    4.0547   -0.3783   30.0532 C   0  0  0  0  0  0  0  0  0  0  0  0
    2.9255   -1.8584   28.3732 C   0  0  0  0  0  0  0  0  0  0  0  0
    2.8507   -0.8977   29.4076 N   0  0  0  0  0  0  0  0  0  0  0  0
    6.0263   -0.2595   28.5746 C   0  0  0  0  0  0  0  0  0  0  0  0
    6.3061    1.0915   29.0453 N   0  0  0  0  0  0  0  0  0  0  0  0
    5.9126    4.4585   26.4743 C   0  0  0  0  0  0  0  0  0  0  0  0
    5.2830    3.2676   26.1534 C   0  0  0  0  0  0  0  0  0  0  0  0
    5.4085    2.1497   27.0007 C   0  0  0  0  0  0  0  0  0  0  0  0
    6.1658    2.2401   28.1587 C   0  0  0  0  0  0  0  0  0  0  0  0
    6.7973    3.4384   28.4786 C   0  0  0  0  0  0  0  0  0  0  0  0
    6.6701    4.5472   27.6380 C   0  0  0  0  0  0  0  0  0  0  0  0
    5.8120   -3.5103   29.8990 C   0  0  0  0  0  0  0  0  0  0  0  0
  1  3  1  0  0  0  0
  2  3  2  0  0  0  0
  2 12  1  0  0  0  0
  3  4  1  0  0  0  0
  4  6  1  0  0  0  0
  5 22  1  0  0  0  0
  6  7  1  0  0  0  0
  6  8  2  0  0  0  0
  7 12  2  0  0  0  0
  7  9  1  0  0  0  0
  9 10  1  0  0  0  0
  9 22  1  0  0  0  0
 10 11  1  0  0  0  0
 10 14  1  6  0  0  0
 11 13  1  0  0  0  0
 12 13  1  0  0  0  0
 14 15  1  0  0  0  0
 15 19  1  0  0  0  0
 16 17  2  0  0  0  0
 16 21  1  0  0  0  0
 17 18  1  0  0  0  0
 18 19  2  0  0  0  0
 19 20  1  0  0  0  0
 20 21  2  0  0  0  0
M  END
>  <CHROM.1>
-30.60997883,-177.74532812,-141.47993233,19.02439483,4.57925966,-0.90395382
28.08029646,2.06647618,0.74132868,2.76353257

>  <Name>
ligand

>  <RI>
0

>  <Rbt.Current_Directory>
/home/itssahil/PROJECTS/Mol_Feturizer/Test_systems_manuscript/rnas/3sd3

>  <Rbt.Executable>
rbdock ($Id: //depot/dev/client3/rdock/2013.1/src/exe/rbdock.cxx#4 $)

>  <Rbt.Library>
libRbt.so (2013.1, Build901 2013/11/27)

>  <Rbt.Parameter_File>
/export/apps/rDock/src/rDock_2013.1_src/data/scripts/dock_solv.prm

>  <Rbt.Receptor>
prm/blind_docking_40.prm

>  <SCORE>
-12.1607

>  <SCORE.INTER>
-12.0274

>  <SCORE.INTER.CONST>
1

>  <SCORE.INTER.POLAR>
0

>  <SCORE.INTER.ROT>
4

>  <SCORE.INTER.SOLV>
4.76089

>  <SCORE.INTER.VDW>
-15.8719

>  <SCORE.INTER.norm>
-0.5467

>  <SCORE.INTRA>
-0.133332

>  <SCORE.INTRA.DIHEDRAL>
-0.0598996

>  <SCORE.INTRA.DIHEDRAL.0>
2.54655

>  <SCORE.INTRA.POLAR>
0

>  <SCORE.INTRA.POLAR.0>
0

>  <SCORE.INTRA.REPUL>
0

>  <SCORE.INTRA.REPUL.0>
0

>  <SCORE.INTRA.SOLV>
-0.465027

>  <SCORE.INTRA.SOLV.lig_0>
-56.4922

>  <SCORE.INTRA.VDW>
0.129132

>  <SCORE.INTRA.VDW.0>
-0.696801

>  <SCORE.INTRA.norm>
-0.00606053

>  <SCORE.RESTR>
0

>  <SCORE.RESTR.CAVITY>
0

>  <SCORE.RESTR.norm>
0

>  <SCORE.SYSTEM>
0

>  <SCORE.SYSTEM.CONST>
0

>  <SCORE.SYSTEM.DIHEDRAL>
0

>  <SCORE.SYSTEM.SOLV>
0

>  <SCORE.SYSTEM.norm>
0

>  <SCORE.heavy>
22

>  <SCORE.norm>
-0.55276

>  <RMSD>
24.892

$$$$
ligand
 OpenBabel02271912143D
libRbt.so/2013.1/901 2013/11/27
 22 24  0  0  0  0  0  0  0  0999 V2000
    1.6747   -1.5482   27.0938 N   0  0  0  0  0  0  0  0  0  0  0  0
    2.4869    0.2192   28.4900 N   0  0  0  0  0  0  0  0  0  0  0  0
    2.4485   -1.0957   28.2187 C   0  0  0  0  0  0  0  0  0  0  0  0
    3.1003   -1.9877   28.9544 N   0  0  0  0  0  0  0  0  0  0  0  0
    5.7083   -0.9571   32.9725 O   0  0  0  0  0  0  0  0  0  0  0  0
    3.8290   -1.5849   30.0117 C   0  0  0  0  0  0  0  0  0  0  0  0
    3.8824   -0.2007   30.3364 C   0  0  0  0  0  0  0  0  0  0  0  0
    4.4962   -2.5304   30.7577 O   0  0  0  0  0  0  0  0  0  0  0  0
    4.6403    0.3785   31.4278 N   0  0  0  0  0  0  0  0  0  0  0  0
    5.3174    1.6525   31.1531 C   0  0  2  0  0  0  0  0  0  0  0  0
    4.3577    2.6462   30.5770 C   0  0  0  0  0  0  0  0  0  0  0  0
    3.1991    0.6807   29.5366 C   0  0  0  0  0  0  0  0  0  0  0  0
    3.2438    2.0624   29.8322 N   0  0  0  0  0  0  0  0  0  0  0  0
    6.5236    1.5245   30.2053 C   0  0  0  0  0  0  0  0  0  0  0  0
    6.0899    1.0847   28.8849 N   0  0  0  0  0  0  0  0  0  0  0  0
    8.0295   -2.1385   26.8973 C   0  0  0  0  0  0  0  0  0  0  0  0
    8.5634   -0.8627   26.8271 C   0  0  0  0  0  0  0  0  0  0  0  0
    7.9268    0.2084   27.4836 C   0  0  0  0  0  0  0  0  0  0  0  0
    6.7611   -0.0137   28.2009 C   0  0  0  0  0  0  0  0  0  0  0  0
    6.2270   -1.2971   28.2698 C   0  0  0  0  0  0  0  0  0  0  0  0
    6.8611   -2.3590   27.6198 C   0  0  0  0  0  0  0  0  0  0  0  0
    4.7768   -0.2132   32.7147 C   0  0  0  0  0  0  0  0  0  0  0  0
  1  3  1  0  0  0  0
  2  3  2  0  0  0  0
  2 12  1  0  0  0  0
  3  4  1  0  0  0  0
  4  6  1  0  0  0  0
  5 22  1  0  0  0  0
  6  7  1  0  0  0  0
  6  8  2  0  0  0  0
  7 12  2  0  0  0  0
  7  9  1  0  0  0  0
  9 10  1  0  0  0  0
  9 22  1  0  0  0  0
 10 11  1  0  0  0  0
 10 14  1  6  0  0  0
 11 13  1  0  0  0  0
 12 13  1  0  0  0  0
 14 15  1  0  0  0  0
 15 19  1  0  0  0  0
 16 17  2  0  0  0  0
 16 21  1  0  0  0  0
 17 18  1  0  0  0  0
 18 19  2  0  0  0  0
 19 20  1  0  0  0  0
 20 21  2  0  0  0  0
M  END
>  <CHROM.1>
91.79507677,64.35602030,-131.51621386,-82.81509286,4.95433375,-0.27434983
29.48469424,2.35579052,0.12880302,1.02495581

>  <Name>
ligand

>  <RI>
0

>  <Rbt.Current_Directory>
/home/itssahil/PROJECTS/Mol_Feturizer/Test_systems_manuscript/rnas/3sd3

>  <Rbt.Executable>
rbdock ($Id: //depot/dev/client3/rdock/2013.1/src/exe/rbdock.cxx#4 $)

>  <Rbt.Library>
libRbt.so (2013.1, Build901 2013/11/27)

>  <Rbt.Parameter_File>
/export/apps/rDock/src/rDock_2013.1_src/data/scripts/dock_solv.prm

>  <Rbt.Receptor>
prm/blind_docking_100.prm

>  <SCORE>
-5.67661

>  <SCORE.INTER>
-4.70547

>  <SCORE.INTER.CONST>
1

>  <SCORE.INTER.POLAR>
0

>  <SCORE.INTER.ROT>
4

>  <SCORE.INTER.SOLV>
6.90951

>  <SCORE.INTER.VDW>
-11.7068

>  <SCORE.INTER.norm>
-0.213885

>  <SCORE.INTRA>
-0.971142

>  <SCORE.INTRA.DIHEDRAL>
0.227449

>  <SCORE.INTRA.DIHEDRAL.0>
2.54655

>  <SCORE.INTRA.POLAR>
0

>  <SCORE.INTRA.POLAR.0>
0

>  <SCORE.INTRA.REPUL>
0

>  <SCORE.INTRA.REPUL.0>
0

>  <SCORE.INTRA.SOLV>
2.07278

>  <SCORE.INTRA.SOLV.lig_0>
-56.4922

>  <SCORE.INTRA.VDW>
-2.12126

>  <SCORE.INTRA.VDW.0>
-0.696801

>  <SCORE.INTRA.norm>
-0.0441428

>  <SCORE.RESTR>
0

>  <SCORE.RESTR.CAVITY>
0

>  <SCORE.RESTR.norm>
0

>  <SCORE.SYSTEM>
0

>  <SCORE.SYSTEM.CONST>
0

>  <SCORE.SYSTEM.DIHEDRAL>
0

>  <SCORE.SYSTEM.SOLV>
0

>  <SCORE.SYSTEM.norm>
0

>  <SCORE.heavy>
22

>  <SCORE.norm>
-0.258028

>  <RMSD>
24.924

$$$$
ligand
 OpenBabel02271912143D
libRbt.so/2013.1/901 2013/11/27
 22 24  0  0  0  0  0  0  0  0999 V2000
    7.6172   -5.6134   29.3720 N   0  0  0  0  0  0  0  0  0  0  0  0
    5.7075   -4.3370   28.6960 N   0  0  0  0  0  0  0  0  0  0  0  0
    6.6606   -4.5669   29.6141 C   0  0  0  0  0  0  0  0  0  0  0  0
    6.7466   -3.8604   30.7345 N   0  0  0  0  0  0  0  0  0  0  0  0
    2.9167   -2.0558   32.2199 O   0  0  0  0  0  0  0  0  0  0  0  0
    5.8606   -2.8776   30.9804 C   0  0  0  0  0  0  0  0  0  0  0  0
    4.8297   -2.6144   30.0358 C   0  0  0  0  0  0  0  0  0  0  0  0
    5.9726   -2.1594   32.1497 O   0  0  0  0  0  0  0  0  0  0  0  0
    3.8234   -1.5780   30.1560 N   0  0  0  0  0  0  0  0  0  0  0  0
    3.4761   -0.8547   28.9259 C   0  0  2  0  0  0  0  0  0  0  0  0
    3.1330   -1.8139   27.8293 C   0  0  0  0  0  0  0  0  0  0  0  0
    4.7927   -3.3668   28.8886 C   0  0  0  0  0  0  0  0  0  0  0  0
    3.7839   -3.1186   27.9297 N   0  0  0  0  0  0  0  0  0  0  0  0
    4.5834    0.0908   28.4262 C   0  0  0  0  0  0  0  0  0  0  0  0
    4.4872    1.3846   29.0908 N   0  0  0  0  0  0  0  0  0  0  0  0
    6.0430    4.9158   27.2987 C   0  0  0  0  0  0  0  0  0  0  0  0
    5.7277    3.8224   26.5096 C   0  0  0  0  0  0  0  0  0  0  0  0
    5.2114    2.6509   27.0964 C   0  0  0  0  0  0  0  0  0  0  0  0
    5.0197    2.5904   28.4684 C   0  0  0  0  0  0  0  0  0  0  0  0
    5.3373    3.6909   29.2589 C   0  0  0  0  0  0  0  0  0  0  0  0
    5.8474    4.8532   28.6748 C   0  0  0  0  0  0  0  0  0  0  0  0
    3.1815   -1.2182   31.3739 C   0  0  0  0  0  0  0  0  0  0  0  0
  1  3  1  0  0  0  0
  2  3  2  0  0  0  0
  2 12  1  0  0  0  0
  3  4  1  0  0  0  0
  4  6  1  0  0  0  0
  5 22  1  0  0  0  0
  6  7  1  0  0  0  0
  6  8  2  0  0  0  0
  7 12  2  0  0  0  0
  7  9  1  0  0  0  0
  9 10  1  0  0  0  0
  9 22  1  0  0  0  0
 10 11  1  0  0  0  0
 10 14  1  6  0  0  0
 11 13  1  0  0  0  0
 12 13  1  0  0  0  0
 14 15  1  0  0  0  0
 15 19  1  0  0  0  0
 16 17  2  0  0  0  0
 16 21  1  0  0  0  0
 17 18  1  0  0  0  0
 18 19  2  0  0  0  0
 19 20  1  0  0  0  0
 20 21  2  0  0  0  0
M  END
>  <CHROM.1>
-35.38531763,-85.27928637,-155.26666295,21.99450119,4.99727282,-0.85970740
29.34119622,-1.52649104,0.90511328,-0.31551946

>  <Name>
ligand

>  <RI>
0

>  <Rbt.Current_Directory>
/home/itssahil/PROJECTS/Mol_Feturizer/Test_systems_manuscript/rnas/3sd3

>  <Rbt.Executable>
rbdock ($Id: //depot/dev/client3/rdock/2013.1/src/exe/rbdock.cxx#4 $)

>  <Rbt.Library>
libRbt.so (2013.1, Build901 2013/11/27)

>  <Rbt.Parameter_File>
/export/apps/rDock/src/rDock_2013.1_src/data/scripts/dock_solv.prm

>  <Rbt.Receptor>
prm/blind_docking_40.prm

>  <SCORE>
-8.98632

>  <SCORE.INTER>
-9.26172

>  <SCORE.INTER.CONST>
1

>  <SCORE.INTER.POLAR>
0

>  <SCORE.INTER.ROT>
4

>  <SCORE.INTER.SOLV>
9.96109

>  <SCORE.INTER.VDW>
-15.7615

>  <SCORE.INTER.norm>
-0.420987

>  <SCORE.INTRA>
0.275403

>  <SCORE.INTRA.DIHEDRAL>
1.44219

>  <SCORE.INTRA.DIHEDRAL.0>
2.54655

>  <SCORE.INTRA.POLAR>
0

>  <SCORE.INTRA.POLAR.0>
0

>  <SCORE.INTRA.REPUL>
0

>  <SCORE.INTRA.REPUL.0>
0

>  <SCORE.INTRA.SOLV>
-0.413877

>  <SCORE.INTRA.SOLV.lig_0>
-56.4922

>  <SCORE.INTRA.VDW>
-0.238751

>  <SCORE.INTRA.VDW.0>
-0.696801

>  <SCORE.INTRA.norm>
0.0125183

>  <SCORE.RESTR>
0

>  <SCORE.RESTR.CAVITY>
0

>  <SCORE.RESTR.norm>
0

>  <SCORE.SYSTEM>
0

>  <SCORE.SYSTEM.CONST>
0

>  <SCORE.SYSTEM.DIHEDRAL>
0

>  <SCORE.SYSTEM.SOLV>
0

>  <SCORE.SYSTEM.norm>
0

>  <SCORE.heavy>
22

>  <SCORE.norm>
-0.408469

>  <RMSD>
24.927

$$$$
ligand
 OpenBabel02271912143D
libRbt.so/2013.1/901 2013/11/27
 22 24  0  0  0  0  0  0  0  0999 V2000
    5.5603    2.6372   27.3725 N   0  0  0  0  0  0  0  0  0  0  0  0
    5.0225    1.6503   29.4867 N   0  0  0  0  0  0  0  0  0  0  0  0
    4.7726    1.7356   28.1697 C   0  0  0  0  0  0  0  0  0  0  0  0
    3.8240    1.0160   27.5831 N   0  0  0  0  0  0  0  0  0  0  0  0
    0.3947   -0.2162   30.2834 O   0  0  0  0  0  0  0  0  0  0  0  0
    3.0752    0.1675   28.3115 C   0  0  0  0  0  0  0  0  0  0  0  0
    3.3036    0.0605   29.7118 C   0  0  0  0  0  0  0  0  0  0  0  0
    2.0985   -0.5678   27.6784 O   0  0  0  0  0  0  0  0  0  0  0  0
    2.5929   -0.8231   30.6148 N   0  0  0  0  0  0  0  0  0  0  0  0
    3.3940   -1.4807   31.6553 C   0  0  2  0  0  0  0  0  0  0  0  0
    4.2033   -0.4745   32.4124 C   0  0  0  0  0  0  0  0  0  0  0  0
    4.3041    0.8188   30.2663 C   0  0  0  0  0  0  0  0  0  0  0  0
    4.5574    0.7236   31.6539 N   0  0  0  0  0  0  0  0  0  0  0  0
    4.3390   -2.5704   31.1176 C   0  0  0  0  0  0  0  0  0  0  0  0
    5.1707   -2.0396   30.0444 N   0  0  0  0  0  0  0  0  0  0  0  0
    5.9418   -4.3013   26.5243 C   0  0  0  0  0  0  0  0  0  0  0  0
    4.6422   -4.1531   26.9787 C   0  0  0  0  0  0  0  0  0  0  0  0
    4.3800   -3.4049   28.1427 C   0  0  0  0  0  0  0  0  0  0  0  0
    5.4257   -2.8161   28.8374 C   0  0  0  0  0  0  0  0  0  0  0  0
    6.7308   -2.9667   28.3782 C   0  0  0  0  0  0  0  0  0  0  0  0
    6.9890   -3.7075   27.2220 C   0  0  0  0  0  0  0  0  0  0  0  0
    1.1985   -1.0968   30.5399 C   0  0  0  0  0  0  0  0  0  0  0  0
  1  3  1  0  0  0  0
  2  3  2  0  0  0  0
  2 12  1  0  0  0  0
  3  4  1  0  0  0  0
  4  6  1  0  0  0  0
  5 22  1  0  0  0  0
  6  7  1  0  0  0  0
  6  8  2  0  0  0  0
  7 12  2  0  0  0  0
  7  9  1  0  0  0  0
  9 10  1  0  0  0  0
  9 22  1  0  0  0  0
 10 11  1  0  0  0  0
 10 14  1  6  0  0  0
 11 13  1  0  0  0  0
 12 13  1  0  0  0  0
 14 15  1  0  0  0  0
 15 19  1  0  0  0  0
 16 17  2  0  0  0  0
 16 21  1  0  0  0  0
 17 18  1  0  0  0  0
 18 19  2  0  0  0  0
 19 20  1  0  0  0  0
 20 21  2  0  0  0  0
M  END
>  <CHROM.1>
-39.99703936,53.07390144,-137.67059337,49.56428354,4.08721830,-0.92223565
29.28207258,-2.47957095,-0.87266757,2.94840001

>  <Name>
ligand

>  <RI>
0

>  <Rbt.Current_Directory>
/home/itssahil/PROJECTS/Mol_Feturizer/Test_systems_manuscript/rnas/3sd3

>  <Rbt.Executable>
rbdock ($Id: //depot/dev/client3/rdock/2013.1/src/exe/rbdock.cxx#4 $)

>  <Rbt.Library>
libRbt.so (2013.1, Build901 2013/11/27)

>  <Rbt.Parameter_File>
/export/apps/rDock/src/rDock_2013.1_src/data/scripts/dock_solv.prm

>  <Rbt.Receptor>
prm/blind_docking_40.prm

>  <SCORE>
-9.00495

>  <SCORE.INTER>
-8.51393

>  <SCORE.INTER.CONST>
1

>  <SCORE.INTER.POLAR>
0

>  <SCORE.INTER.ROT>
4

>  <SCORE.INTER.SOLV>
9.52728

>  <SCORE.INTER.VDW>
-15.1184

>  <SCORE.INTER.norm>
-0.386997

>  <SCORE.INTRA>
-0.49102

>  <SCORE.INTRA.DIHEDRAL>
0.185897

>  <SCORE.INTRA.DIHEDRAL.0>
2.54655

>  <SCORE.INTRA.POLAR>
0

>  <SCORE.INTRA.POLAR.0>
0

>  <SCORE.INTRA.REPUL>
0

>  <SCORE.INTRA.REPUL.0>
0

>  <SCORE.INTRA.SOLV>
2.02525

>  <SCORE.INTRA.SOLV.lig_0>
-56.4922

>  <SCORE.INTRA.VDW>
-1.59659

>  <SCORE.INTRA.VDW.0>
-0.696801

>  <SCORE.INTRA.norm>
-0.0223191

>  <SCORE.RESTR>
0

>  <SCORE.RESTR.CAVITY>
0

>  <SCORE.RESTR.norm>
0

>  <SCORE.SYSTEM>
0

>  <SCORE.SYSTEM.CONST>
0

>  <SCORE.SYSTEM.DIHEDRAL>
0

>  <SCORE.SYSTEM.SOLV>
0

>  <SCORE.SYSTEM.norm>
0

>  <SCORE.heavy>
22

>  <SCORE.norm>
-0.409316

>  <RMSD>
24.937

$$$$
ligand
 OpenBabel02271912143D
libRbt.so/2013.1/901 2013/11/27
 22 24  0  0  0  0  0  0  0  0999 V2000
    0.3476   -0.5934   28.6573 N   0  0  0  0  0  0  0  0  0  0  0  0
    1.9005   -1.0825   30.4129 N   0  0  0  0  0  0  0  0  0  0  0  0
    1.6059   -1.1288   29.1033 C   0  0  0  0  0  0  0  0  0  0  0  0
    2.4375   -1.6519   28.2107 N   0  0  0  0  0  0  0  0  0  0  0  0
    5.3384   -4.8948   30.1756 O   0  0  0  0  0  0  0  0  0  0  0  0
    3.6192   -2.1590   28.6077 C   0  0  0  0  0  0  0  0  0  0  0  0
    3.9592   -2.1384   29.9892 C   0  0  0  0  0  0  0  0  0  0  0  0
    4.4637   -2.6950   27.6616 O   0  0  0  0  0  0  0  0  0  0  0  0
    5.2003   -2.6264   30.5572 N   0  0  0  0  0  0  0  0  0  0  0  0
    5.7869   -1.8248   31.6389 C   0  0  2  0  0  0  0  0  0  0  0  0
    4.7732   -1.5592   32.7077 C   0  0  0  0  0  0  0  0  0  0  0  0
    3.0684   -1.5759   30.8688 C   0  0  0  0  0  0  0  0  0  0  0  0
    3.3869   -1.5345   32.2455 N   0  0  0  0  0  0  0  0  0  0  0  0
    6.3733   -0.4809   31.1701 C   0  0  0  0  0  0  0  0  0  0  0  0
    5.3352    0.3452   30.5662 N   0  0  0  0  0  0  0  0  0  0  0  0
    5.9347    2.2597   26.8143 C   0  0  0  0  0  0  0  0  0  0  0  0
    7.0016    2.0887   27.6803 C   0  0  0  0  0  0  0  0  0  0  0  0
    6.8101    1.4549   28.9233 C   0  0  0  0  0  0  0  0  0  0  0  0
    5.5497    1.0022   29.2827 C   0  0  0  0  0  0  0  0  0  0  0  0
    4.4793    1.1754   28.4102 C   0  0  0  0  0  0  0  0  0  0  0  0
    4.6715    1.8025   27.1764 C   0  0  0  0  0  0  0  0  0  0  0  0
    5.8758   -3.8013   30.1233 C   0  0  0  0  0  0  0  0  0  0  0  0
  1  3  1  0  0  0  0
  2  3  2  0  0  0  0
  2 12  1  0  0  0  0
  3  4  1  0  0  0  0
  4  6  1  0  0  0  0
  5 22  1  0  0  0  0
  6  7  1  0  0  0  0
  6  8  2  0  0  0  0
  7 12  2  0  0  0  0
  7  9  1  0  0  0  0
  9 10  1  0  0  0  0
  9 22  1  0  0  0  0
 10 11  1  0  0  0  0
 10 14  1  6  0  0  0
 11 13  1  0  0  0  0
 12 13  1  0  0  0  0
 14 15  1  0  0  0  0
 15 19  1  0  0  0  0
 16 17  2  0  0  0  0
 16 21  1  0  0  0  0
 17 18  1  0  0  0  0
 18 19  2  0  0  0  0
 19 20  1  0  0  0  0
 20 21  2  0  0  0  0
M  END
>  <CHROM.1>
-60.15454120,60.52621769,-132.02519724,-33.17961288,4.43773022,-1.00868633
29.63634706,1.87234710,0.29722339,2.50049473

>  <Name>
ligand

>  <RI>
0

>  <Rbt.Current_Directory>
/home/itssahil/PROJECTS/Mol_Feturizer/Test_systems_manuscript/rnas/3sd3

>  <Rbt.Executable>
rbdock ($Id: //depot/dev/client3/rdock/2013.1/src/exe/rbdock.cxx#4 $)

>  <Rbt.Library>
libRbt.so (2013.1, Build901 2013/11/27)

>  <Rbt.Parameter_File>
/export/apps/rDock/src/rDock_2013.1_src/data/scripts/dock_solv.prm

>  <Rbt.Receptor>
prm/blind_docking_40.prm

>  <SCORE>
-11.1958

>  <SCORE.INTER>
-10.4782

>  <SCORE.INTER.CONST>
1

>  <SCORE.INTER.POLAR>
0

>  <SCORE.INTER.ROT>
4

>  <SCORE.INTER.SOLV>
7.60912

>  <SCORE.INTER.VDW>
-15.7885

>  <SCORE.INTER.norm>
-0.476281

>  <SCORE.INTRA>
-0.717658

>  <SCORE.INTRA.DIHEDRAL>
0.175519

>  <SCORE.INTRA.DIHEDRAL.0>
2.54655

>  <SCORE.INTRA.POLAR>
0

>  <SCORE.INTRA.POLAR.0>
0

>  <SCORE.INTRA.REPUL>
0

>  <SCORE.INTRA.REPUL.0>
0

>  <SCORE.INTRA.SOLV>
1.80907

>  <SCORE.INTRA.SOLV.lig_0>
-56.4922

>  <SCORE.INTRA.VDW>
-1.70995

>  <SCORE.INTRA.VDW.0>
-0.696801

>  <SCORE.INTRA.norm>
-0.0326208

>  <SCORE.RESTR>
0

>  <SCORE.RESTR.CAVITY>
0

>  <SCORE.RESTR.norm>
0

>  <SCORE.SYSTEM>
0

>  <SCORE.SYSTEM.CONST>
0

>  <SCORE.SYSTEM.DIHEDRAL>
0

>  <SCORE.SYSTEM.SOLV>
0

>  <SCORE.SYSTEM.norm>
0

>  <SCORE.heavy>
22

>  <SCORE.norm>
-0.508902

>  <RMSD>
24.938

$$$$
ligand
 OpenBabel02271912143D
libRbt.so/2013.1/901 2013/11/27
 22 24  0  0  0  0  0  0  0  0999 V2000
    0.3673   -0.7718   28.3619 N   0  0  0  0  0  0  0  0  0  0  0  0
    1.7536   -1.2032   30.2658 N   0  0  0  0  0  0  0  0  0  0  0  0
    1.6129   -1.2128   28.9301 C   0  0  0  0  0  0  0  0  0  0  0  0
    2.5847   -1.6158   28.1208 N   0  0  0  0  0  0  0  0  0  0  0  0
    6.9273   -3.3682   29.5926 O   0  0  0  0  0  0  0  0  0  0  0  0
    3.7573   -2.0333   28.6325 C   0  0  0  0  0  0  0  0  0  0  0  0
    3.9374   -2.0485   30.0438 C   0  0  0  0  0  0  0  0  0  0  0  0
    4.7492   -2.4452   27.7711 O   0  0  0  0  0  0  0  0  0  0  0  0
    5.1478   -2.4498   30.7330 N   0  0  0  0  0  0  0  0  0  0  0  0
    5.5314   -1.6516   31.9046 C   0  0  2  0  0  0  0  0  0  0  0  0
    4.3840   -1.5297   32.8581 C   0  0  0  0  0  0  0  0  0  0  0  0
    2.9047   -1.6111   30.8349 C   0  0  0  0  0  0  0  0  0  0  0  0
    3.0619   -1.6073   32.2399 N   0  0  0  0  0  0  0  0  0  0  0  0
    6.0367   -0.2396   31.5573 C   0  0  0  0  0  0  0  0  0  0  0  0
    5.0596    0.4635   30.7352 N   0  0  0  0  0  0  0  0  0  0  0  0
    6.1057    2.0668   26.9356 C   0  0  0  0  0  0  0  0  0  0  0  0
    7.0987    1.7325   27.8410 C   0  0  0  0  0  0  0  0  0  0  0  0
    6.7592    1.2005   29.1000 C   0  0  0  0  0  0  0  0  0  0  0  0
    5.4271    1.0122   29.4356 C   0  0  0  0  0  0  0  0  0  0  0  0
    4.4312    1.3489   28.5235 C   0  0  0  0  0  0  0  0  0  0  0  0
    4.7698    1.8746   27.2740 C   0  0  0  0  0  0  0  0  0  0  0  0
    5.9757   -3.5372   30.3365 C   0  0  0  0  0  0  0  0  0  0  0  0
  1  3  1  0  0  0  0
  2  3  2  0  0  0  0
  2 12  1  0  0  0  0
  3  4  1  0  0  0  0
  4  6  1  0  0  0  0
  5 22  1  0  0  0  0
  6  7  1  0  0  0  0
  6  8  2  0  0  0  0
  7 12  2  0  0  0  0
  7  9  1  0  0  0  0
  9 10  1  0  0  0  0
  9 22  1  0  0  0  0
 10 11  1  0  0  0  0
 10 14  1  6  0  0  0
 11 13  1  0  0  0  0
 12 13  1  0  0  0  0
 14 15  1  0  0  0  0
 15 19  1  0  0  0  0
 16 17  2  0  0  0  0
 16 21  1  0  0  0  0
 17 18  1  0  0  0  0
 18 19  2  0  0  0  0
 19 20  1  0  0  0  0
 20 21  2  0  0  0  0
M  END
>  <CHROM.1>
92.48451862,53.95882224,-123.99575739,-17.28450074,4.47299979,-0.89818987
29.67773344,2.07065352,0.22410927,2.35098652

>  <Name>
ligand

>  <RI>
0

>  <Rbt.Current_Directory>
/home/itssahil/PROJECTS/Mol_Feturizer/Test_systems_manuscript/rnas/3sd3

>  <Rbt.Executable>
rbdock ($Id: //depot/dev/client3/rdock/2013.1/src/exe/rbdock.cxx#4 $)

>  <Rbt.Library>
libRbt.so (2013.1, Build901 2013/11/27)

>  <Rbt.Parameter_File>
/export/apps/rDock/src/rDock_2013.1_src/data/scripts/dock_solv.prm

>  <Rbt.Receptor>
prm/blind_docking_80.prm

>  <SCORE>
-10.2995

>  <SCORE.INTER>
-9.62494

>  <SCORE.INTER.CONST>
1

>  <SCORE.INTER.POLAR>
0

>  <SCORE.INTER.ROT>
4

>  <SCORE.INTER.SOLV>
7.26089

>  <SCORE.INTER.VDW>
-15.1036

>  <SCORE.INTER.norm>
-0.437497

>  <SCORE.INTRA>
-0.674582

>  <SCORE.INTRA.DIHEDRAL>
0.370214

>  <SCORE.INTRA.DIHEDRAL.0>
2.54655

>  <SCORE.INTRA.POLAR>
0

>  <SCORE.INTRA.POLAR.0>
0

>  <SCORE.INTRA.REPUL>
0

>  <SCORE.INTRA.REPUL.0>
0

>  <SCORE.INTRA.SOLV>
2.1438

>  <SCORE.INTRA.SOLV.lig_0>
-56.4922

>  <SCORE.INTRA.VDW>
-1.93159

>  <SCORE.INTRA.VDW.0>
-0.696801

>  <SCORE.INTRA.norm>
-0.0306628

>  <SCORE.RESTR>
0

>  <SCORE.RESTR.CAVITY>
0

>  <SCORE.RESTR.norm>
0

>  <SCORE.SYSTEM>
0

>  <SCORE.SYSTEM.CONST>
0

>  <SCORE.SYSTEM.DIHEDRAL>
0

>  <SCORE.SYSTEM.SOLV>
0

>  <SCORE.SYSTEM.norm>
0

>  <SCORE.heavy>
22

>  <SCORE.norm>
-0.46816

>  <RMSD>
24.987

$$$$
ligand
 OpenBabel02271912143D
libRbt.so/2013.1/901 2013/11/27
 22 24  0  0  0  0  0  0  0  0999 V2000
    6.6372   -4.5615   26.3831 N   0  0  0  0  0  0  0  0  0  0  0  0
    4.9994   -2.9826   27.1299 N   0  0  0  0  0  0  0  0  0  0  0  0
    5.9683   -3.8580   27.4445 C   0  0  0  0  0  0  0  0  0  0  0  0
    6.3263   -4.0933   28.7008 N   0  0  0  0  0  0  0  0  0  0  0  0
    3.9448   -1.7290   32.6937 O   0  0  0  0  0  0  0  0  0  0  0  0
    5.7121   -3.4463   29.7084 C   0  0  0  0  0  0  0  0  0  0  0  0
    4.6723   -2.5210   29.4130 C   0  0  0  0  0  0  0  0  0  0  0  0
    6.1030   -3.7081   31.0023 O   0  0  0  0  0  0  0  0  0  0  0  0
    3.9402   -1.7388   30.3894 N   0  0  0  0  0  0  0  0  0  0  0  0
    3.6355   -0.3498   30.0224 C   0  0  2  0  0  0  0  0  0  0  0  0
    2.9745   -0.2918   28.6807 C   0  0  0  0  0  0  0  0  0  0  0  0
    4.3487   -2.3064   28.0967 C   0  0  0  0  0  0  0  0  0  0  0  0
    3.3257   -1.3849   27.7762 N   0  0  0  0  0  0  0  0  0  0  0  0
    4.8667    0.5741   30.0063 C   0  0  0  0  0  0  0  0  0  0  0  0
    4.4641    1.9559   29.7749 N   0  0  0  0  0  0  0  0  0  0  0  0
    5.7923    4.0613   26.3246 C   0  0  0  0  0  0  0  0  0  0  0  0
    5.8455    4.6695   27.5675 C   0  0  0  0  0  0  0  0  0  0  0  0
    5.4083    3.9778   28.7137 C   0  0  0  0  0  0  0  0  0  0  0  0
    4.9213    2.6847   28.5982 C   0  0  0  0  0  0  0  0  0  0  0  0
    4.8691    2.0759   27.3477 C   0  0  0  0  0  0  0  0  0  0  0  0
    5.3053    2.7628   26.2118 C   0  0  0  0  0  0  0  0  0  0  0  0
    3.5258   -2.2244   31.6611 C   0  0  0  0  0  0  0  0  0  0  0  0
  1  3  1  0  0  0  0
  2  3  2  0  0  0  0
  2 12  1  0  0  0  0
  3  4  1  0  0  0  0
  4  6  1  0  0  0  0
  5 22  1  0  0  0  0
  6  7  1  0  0  0  0
  6  8  2  0  0  0  0
  7 12  2  0  0  0  0
  7  9  1  0  0  0  0
  9 10  1  0  0  0  0
  9 22  1  0  0  0  0
 10 11  1  0  0  0  0
 10 14  1  6  0  0  0
 11 13  1  0  0  0  0
 12 13  1  0  0  0  0
 14 15  1  0  0  0  0
 15 19  1  0  0  0  0
 16 17  2  0  0  0  0
 16 21  1  0  0  0  0
 17 18  1  0  0  0  0
 18 19  2  0  0  0  0
 19 20  1  0  0  0  0
 20 21  2  0  0  0  0
M  END
>  <CHROM.1>
117.26484276,-173.94422141,-118.17855584,-133.89217207,4.86915813,-0.68963495
28.89883925,-1.53812873,1.20245886,-0.26391042

>  <Name>
ligand

>  <RI>
0

>  <Rbt.Current_Directory>
/home/itssahil/PROJECTS/Mol_Feturizer/Test_systems_manuscript/rnas/3sd3

>  <Rbt.Executable>
rbdock ($Id: //depot/dev/client3/rdock/2013.1/src/exe/rbdock.cxx#4 $)

>  <Rbt.Library>
libRbt.so (2013.1, Build901 2013/11/27)

>  <Rbt.Parameter_File>
/export/apps/rDock/src/rDock_2013.1_src/data/scripts/dock_solv.prm

>  <Rbt.Receptor>
prm/blind_docking_40.prm

>  <SCORE>
-9.88514

>  <SCORE.INTER>
-9.45779

>  <SCORE.INTER.CONST>
1

>  <SCORE.INTER.POLAR>
0

>  <SCORE.INTER.ROT>
4

>  <SCORE.INTER.SOLV>
11.9853

>  <SCORE.INTER.VDW>
-16.567

>  <SCORE.INTER.norm>
-0.429899

>  <SCORE.INTRA>
-0.427359

>  <SCORE.INTRA.DIHEDRAL>
0.420341

>  <SCORE.INTRA.DIHEDRAL.0>
2.54655

>  <SCORE.INTRA.POLAR>
0

>  <SCORE.INTRA.POLAR.0>
0

>  <SCORE.INTRA.REPUL>
0

>  <SCORE.INTRA.REPUL.0>
0

>  <SCORE.INTRA.SOLV>
-0.437632

>  <SCORE.INTRA.SOLV.lig_0>
-56.4922

>  <SCORE.INTRA.VDW>
-0.418713

>  <SCORE.INTRA.VDW.0>
-0.696801

>  <SCORE.INTRA.norm>
-0.0194254

>  <SCORE.RESTR>
0

>  <SCORE.RESTR.CAVITY>
0

>  <SCORE.RESTR.norm>
0

>  <SCORE.SYSTEM>
0

>  <SCORE.SYSTEM.CONST>
0

>  <SCORE.SYSTEM.DIHEDRAL>
0

>  <SCORE.SYSTEM.SOLV>
0

>  <SCORE.SYSTEM.norm>
0

>  <SCORE.heavy>
22

>  <SCORE.norm>
-0.449325

>  <RMSD>
25.060

$$$$
ligand
 OpenBabel02271912143D
libRbt.so/2013.1/901 2013/11/27
 22 24  0  0  0  0  0  0  0  0999 V2000
   -0.3521   -0.9120   29.7150 N   0  0  0  0  0  0  0  0  0  0  0  0
    1.5180   -1.3276   31.1512 N   0  0  0  0  0  0  0  0  0  0  0  0
    1.0300   -1.2636   29.9014 C   0  0  0  0  0  0  0  0  0  0  0  0
    1.7816   -1.5143   28.8365 N   0  0  0  0  0  0  0  0  0  0  0  0
    5.2796   -4.2697   29.5231 O   0  0  0  0  0  0  0  0  0  0  0  0
    3.0768   -1.8461   28.9895 C   0  0  0  0  0  0  0  0  0  0  0  0
    3.6246   -1.9358   30.2996 C   0  0  0  0  0  0  0  0  0  0  0  0
    3.8345   -2.1003   27.8684 O   0  0  0  0  0  0  0  0  0  0  0  0
    5.0019   -2.2595   30.6150 N   0  0  0  0  0  0  0  0  0  0  0  0
    5.6179   -1.5057   31.7146 C   0  0  2  0  0  0  0  0  0  0  0  0
    4.7579   -1.5608   32.9385 C   0  0  0  0  0  0  0  0  0  0  0  0
    2.8070   -1.6558   31.3658 C   0  0  0  0  0  0  0  0  0  0  0  0
    3.3297   -1.7285   32.6773 N   0  0  0  0  0  0  0  0  0  0  0  0
    5.9008   -0.0308   31.3763 C   0  0  0  0  0  0  0  0  0  0  0  0
    6.7074    0.0689   30.1661 N   0  0  0  0  0  0  0  0  0  0  0  0
    5.3548    2.2637   26.7817 C   0  0  0  0  0  0  0  0  0  0  0  0
    4.4518    1.5359   27.5383 C   0  0  0  0  0  0  0  0  0  0  0  0
    4.8929    0.8080   28.6604 C   0  0  0  0  0  0  0  0  0  0  0  0
    6.2352    0.8180   29.0082 C   0  0  0  0  0  0  0  0  0  0  0  0
    7.1403    1.5505   28.2459 C   0  0  0  0  0  0  0  0  0  0  0  0
    6.7007    2.2739   27.1342 C   0  0  0  0  0  0  0  0  0  0  0  0
    5.7780   -3.2310   29.9232 C   0  0  0  0  0  0  0  0  0  0  0  0
  1  3  1  0  0  0  0
  2  3  2  0  0  0  0
  2 12  1  0  0  0  0
  3  4  1  0  0  0  0
  4  6  1  0  0  0  0
  5 22  1  0  0  0  0
  6  7  1  0  0  0  0
  6  8  2  0  0  0  0
  7 12  2  0  0  0  0
  7  9  1  0  0  0  0
  9 10  1  0  0  0  0
  9 22  1  0  0  0  0
 10 11  1  0  0  0  0
 10 14  1  6  0  0  0
 11 13  1  0  0  0  0
 12 13  1  0  0  0  0
 14 15  1  0  0  0  0
 15 19  1  0  0  0  0
 16 17  2  0  0  0  0
 16 21  1  0  0  0  0
 17 18  1  0  0  0  0
 18 19  2  0  0  0  0
 19 20  1  0  0  0  0
 20 21  2  0  0  0  0
M  END
>  <CHROM.1>
-37.19227791,-54.64896265,122.14683862,-36.85387775,4.27714648,-0.91340441
29.79151776,2.29511337,0.16260056,2.32149216

>  <Name>
ligand

>  <RI>
0

>  <Rbt.Current_Directory>
/home/itssahil/PROJECTS/Mol_Feturizer/Test_systems_manuscript/rnas/3sd3

>  <Rbt.Executable>
rbdock ($Id: //depot/dev/client3/rdock/2013.1/src/exe/rbdock.cxx#4 $)

>  <Rbt.Library>
libRbt.so (2013.1, Build901 2013/11/27)

>  <Rbt.Parameter_File>
/export/apps/rDock/src/rDock_2013.1_src/data/scripts/dock_solv.prm

>  <Rbt.Receptor>
prm/blind_docking_80.prm

>  <SCORE>
-12.7836

>  <SCORE.INTER>
-11.3363

>  <SCORE.INTER.CONST>
1

>  <SCORE.INTER.POLAR>
0

>  <SCORE.INTER.ROT>
4

>  <SCORE.INTER.SOLV>
8.93372

>  <SCORE.INTER.VDW>
-16.8021

>  <SCORE.INTER.norm>
-0.515287

>  <SCORE.INTRA>
-1.44732

>  <SCORE.INTRA.DIHEDRAL>
0.367257

>  <SCORE.INTRA.DIHEDRAL.0>
2.54655

>  <SCORE.INTRA.POLAR>
0

>  <SCORE.INTRA.POLAR.0>
0

>  <SCORE.INTRA.REPUL>
0

>  <SCORE.INTRA.REPUL.0>
0

>  <SCORE.INTRA.SOLV>
0.239421

>  <SCORE.INTRA.SOLV.lig_0>
-56.4922

>  <SCORE.INTRA.VDW>
-1.75066

>  <SCORE.INTRA.VDW.0>
-0.696801

>  <SCORE.INTRA.norm>
-0.0657872

>  <SCORE.RESTR>
0

>  <SCORE.RESTR.CAVITY>
0

>  <SCORE.RESTR.norm>
0

>  <SCORE.SYSTEM>
0

>  <SCORE.SYSTEM.CONST>
0

>  <SCORE.SYSTEM.DIHEDRAL>
0

>  <SCORE.SYSTEM.SOLV>
0

>  <SCORE.SYSTEM.norm>
0

>  <SCORE.heavy>
22

>  <SCORE.norm>
-0.581075

>  <RMSD>
25.090

$$$$
ligand
 OpenBabel02271912143D
libRbt.so/2013.1/901 2013/11/27
 22 24  0  0  0  0  0  0  0  0999 V2000
    1.5809   -2.9581   24.9502 N   0  0  0  0  0  0  0  0  0  0  0  0
    2.3249   -1.4937   26.6923 N   0  0  0  0  0  0  0  0  0  0  0  0
    2.3845   -2.7056   26.1161 C   0  0  0  0  0  0  0  0  0  0  0  0
    3.1596   -3.6743   26.5880 N   0  0  0  0  0  0  0  0  0  0  0  0
    6.0620   -2.9674   30.8876 O   0  0  0  0  0  0  0  0  0  0  0  0
    3.9183   -3.4585   27.6784 C   0  0  0  0  0  0  0  0  0  0  0  0
    3.8709   -2.1907   28.3224 C   0  0  0  0  0  0  0  0  0  0  0  0
    4.7140   -4.4798   28.1468 O   0  0  0  0  0  0  0  0  0  0  0  0
    4.6454   -1.8093   29.4868 N   0  0  0  0  0  0  0  0  0  0  0  0
    5.1881   -0.4447   29.4959 C   0  0  2  0  0  0  0  0  0  0  0  0
    4.1086    0.5539   29.2165 C   0  0  0  0  0  0  0  0  0  0  0  0
    3.0613   -1.2204   27.7870 C   0  0  0  0  0  0  0  0  0  0  0  0
    3.0037    0.0510   28.4026 N   0  0  0  0  0  0  0  0  0  0  0  0
    6.3356   -0.2245   28.4937 C   0  0  0  0  0  0  0  0  0  0  0  0
    6.9442    1.0848   28.6953 N   0  0  0  0  0  0  0  0  0  0  0  0
    5.6886    4.4797   26.4594 C   0  0  0  0  0  0  0  0  0  0  0  0
    5.2940    3.2112   26.0685 C   0  0  0  0  0  0  0  0  0  0  0  0
    5.7054    2.0834   26.8048 C   0  0  0  0  0  0  0  0  0  0  0  0
    6.5092    2.2423   27.9234 C   0  0  0  0  0  0  0  0  0  0  0  0
    6.9041    3.5185   28.3139 C   0  0  0  0  0  0  0  0  0  0  0  0
    6.4933    4.6365   27.5836 C   0  0  0  0  0  0  0  0  0  0  0  0
    4.9183   -2.6689   30.5875 C   0  0  0  0  0  0  0  0  0  0  0  0
  1  3  1  0  0  0  0
  2  3  2  0  0  0  0
  2 12  1  0  0  0  0
  3  4  1  0  0  0  0
  4  6  1  0  0  0  0
  5 22  1  0  0  0  0
  6  7  1  0  0  0  0
  6  8  2  0  0  0  0
  7 12  2  0  0  0  0
  7  9  1  0  0  0  0
  9 10  1  0  0  0  0
  9 22  1  0  0  0  0
 10 11  1  0  0  0  0
 10 14  1  6  0  0  0
 11 13  1  0  0  0  0
 12 13  1  0  0  0  0
 14 15  1  0  0  0  0
 15 19  1  0  0  0  0
 16 17  2  0  0  0  0
 16 21  1  0  0  0  0
 17 18  1  0  0  0  0
 18 19  2  0  0  0  0
 19 20  1  0  0  0  0
 20 21  2  0  0  0  0
M  END
>  <CHROM.1>
118.95861407,-171.86701723,-93.98239049,-12.91360222,4.66030821,-0.52787901
28.00107685,2.17330686,0.83226475,2.64307287

>  <Name>
ligand

>  <RI>
0

>  <Rbt.Current_Directory>
/home/itssahil/PROJECTS/Mol_Feturizer/Test_systems_manuscript/rnas/3sd3

>  <Rbt.Executable>
rbdock ($Id: //depot/dev/client3/rdock/2013.1/src/exe/rbdock.cxx#4 $)

>  <Rbt.Library>
libRbt.so (2013.1, Build901 2013/11/27)

>  <Rbt.Parameter_File>
/export/apps/rDock/src/rDock_2013.1_src/data/scripts/dock_solv.prm

>  <Rbt.Receptor>
prm/blind_docking_40.prm

>  <SCORE>
-11.9037

>  <SCORE.INTER>
-11.5408

>  <SCORE.INTER.CONST>
1

>  <SCORE.INTER.POLAR>
0

>  <SCORE.INTER.ROT>
4

>  <SCORE.INTER.SOLV>
9.28244

>  <SCORE.INTER.VDW>
-17.0547

>  <SCORE.INTER.norm>
-0.524582

>  <SCORE.INTRA>
-0.362912

>  <SCORE.INTRA.DIHEDRAL>
0.0549155

>  <SCORE.INTRA.DIHEDRAL.0>
2.54655

>  <SCORE.INTRA.POLAR>
0

>  <SCORE.INTRA.POLAR.0>
0

>  <SCORE.INTRA.REPUL>
0

>  <SCORE.INTRA.REPUL.0>
0

>  <SCORE.INTRA.SOLV>
-0.437647

>  <SCORE.INTRA.SOLV.lig_0>
-56.4922

>  <SCORE.INTRA.VDW>
-0.171547

>  <SCORE.INTRA.VDW.0>
-0.696801

>  <SCORE.INTRA.norm>
-0.016496

>  <SCORE.RESTR>
0

>  <SCORE.RESTR.CAVITY>
0

>  <SCORE.RESTR.norm>
0

>  <SCORE.SYSTEM>
0

>  <SCORE.SYSTEM.CONST>
0

>  <SCORE.SYSTEM.DIHEDRAL>
0

>  <SCORE.SYSTEM.SOLV>
0

>  <SCORE.SYSTEM.norm>
0

>  <SCORE.heavy>
22

>  <SCORE.norm>
-0.541078

>  <RMSD>
25.093

$$$$
ligand
 OpenBabel02271912143D
libRbt.so/2013.1/901 2013/11/27
 22 24  0  0  0  0  0  0  0  0999 V2000
   -0.3404   -0.7885   29.7663 N   0  0  0  0  0  0  0  0  0  0  0  0
    1.5505   -1.2430   31.1630 N   0  0  0  0  0  0  0  0  0  0  0  0
    1.0320   -1.1886   29.9251 C   0  0  0  0  0  0  0  0  0  0  0  0
    1.7447   -1.4920   28.8473 N   0  0  0  0  0  0  0  0  0  0  0  0
    5.3896   -4.5105   29.9722 O   0  0  0  0  0  0  0  0  0  0  0  0
    3.0301   -1.8697   28.9745 C   0  0  0  0  0  0  0  0  0  0  0  0
    3.6090   -1.9507   30.2717 C   0  0  0  0  0  0  0  0  0  0  0  0
    3.7474   -2.1781   27.8405 O   0  0  0  0  0  0  0  0  0  0  0  0
    4.9811   -2.3197   30.5589 N   0  0  0  0  0  0  0  0  0  0  0  0
    5.6544   -1.5654   31.6241 C   0  0  2  0  0  0  0  0  0  0  0  0
    4.8260   -1.5599   32.8707 C   0  0  0  0  0  0  0  0  0  0  0  0
    2.8315   -1.6155   31.3518 C   0  0  0  0  0  0  0  0  0  0  0  0
    3.3859   -1.6785   32.6507 N   0  0  0  0  0  0  0  0  0  0  0  0
    5.9836   -0.1106   31.2438 C   0  0  0  0  0  0  0  0  0  0  0  0
    6.6965   -0.0647   29.9731 N   0  0  0  0  0  0  0  0  0  0  0  0
    5.3534    2.4474   26.8129 C   0  0  0  0  0  0  0  0  0  0  0  0
    6.6882    2.4557   27.1816 C   0  0  0  0  0  0  0  0  0  0  0  0
    7.1394    1.6258   28.2261 C   0  0  0  0  0  0  0  0  0  0  0  0
    6.2451    0.7992   28.8892 C   0  0  0  0  0  0  0  0  0  0  0  0
    4.9042    0.7929   28.5163 C   0  0  0  0  0  0  0  0  0  0  0  0
    4.4586    1.6152   27.4783 C   0  0  0  0  0  0  0  0  0  0  0  0
    5.7012   -3.3358   29.8704 C   0  0  0  0  0  0  0  0  0  0  0  0
  1  3  1  0  0  0  0
  2  3  2  0  0  0  0
  2 12  1  0  0  0  0
  3  4  1  0  0  0  0
  4  6  1  0  0  0  0
  5 22  1  0  0  0  0
  6  7  1  0  0  0  0
  6  8  2  0  0  0  0
  7 12  2  0  0  0  0
  7  9  1  0  0  0  0
  9 10  1  0  0  0  0
  9 22  1  0  0  0  0
 10 11  1  0  0  0  0
 10 14  1  6  0  0  0
 11 13  1  0  0  0  0
 12 13  1  0  0  0  0
 14 15  1  0  0  0  0
 15 19  1  0  0  0  0
 16 17  2  0  0  0  0
 16 21  1  0  0  0  0
 17 18  1  0  0  0  0
 18 19  2  0  0  0  0
 19 20  1  0  0  0  0
 20 21  2  0  0  0  0
M  END
>  <CHROM.1>
-67.26711988,-51.51558554,128.27770252,131.48151598,4.28419399,-0.91503975
29.77643500,2.23119368,0.10847132,2.39305606

>  <Name>
ligand

>  <RI>
0

>  <Rbt.Current_Directory>
/home/itssahil/PROJECTS/Mol_Feturizer/Test_systems_manuscript/rnas/3sd3

>  <Rbt.Executable>
rbdock ($Id: //depot/dev/client3/rdock/2013.1/src/exe/rbdock.cxx#4 $)

>  <Rbt.Library>
libRbt.so (2013.1, Build901 2013/11/27)

>  <Rbt.Parameter_File>
/export/apps/rDock/src/rDock_2013.1_src/data/scripts/dock_solv.prm

>  <Rbt.Receptor>
prm/blind_docking_60.prm

>  <SCORE>
-13.0075

>  <SCORE.INTER>
-11.6157

>  <SCORE.INTER.CONST>
1

>  <SCORE.INTER.POLAR>
0

>  <SCORE.INTER.ROT>
4

>  <SCORE.INTER.SOLV>
8.48026

>  <SCORE.INTER.VDW>
-16.8372

>  <SCORE.INTER.norm>
-0.527986

>  <SCORE.INTRA>
-1.39179

>  <SCORE.INTRA.DIHEDRAL>
0.505941

>  <SCORE.INTRA.DIHEDRAL.0>
2.54655

>  <SCORE.INTRA.POLAR>
0

>  <SCORE.INTRA.POLAR.0>
0

>  <SCORE.INTRA.REPUL>
0

>  <SCORE.INTRA.REPUL.0>
0

>  <SCORE.INTRA.SOLV>
0.137425

>  <SCORE.INTRA.SOLV.lig_0>
-56.4922

>  <SCORE.INTRA.VDW>
-1.71347

>  <SCORE.INTRA.VDW.0>
-0.696801

>  <SCORE.INTRA.norm>
-0.0632631

>  <SCORE.RESTR>
0

>  <SCORE.RESTR.CAVITY>
0

>  <SCORE.RESTR.norm>
0

>  <SCORE.SYSTEM>
0

>  <SCORE.SYSTEM.CONST>
0

>  <SCORE.SYSTEM.DIHEDRAL>
0

>  <SCORE.SYSTEM.SOLV>
0

>  <SCORE.SYSTEM.norm>
0

>  <SCORE.heavy>
22

>  <SCORE.norm>
-0.591249

>  <RMSD>
25.093

$$$$
ligand
 OpenBabel02271912143D
libRbt.so/2013.1/901 2013/11/27
 22 24  0  0  0  0  0  0  0  0999 V2000
   -0.3609   -0.8525   29.7731 N   0  0  0  0  0  0  0  0  0  0  0  0
    1.5261   -1.2911   31.1800 N   0  0  0  0  0  0  0  0  0  0  0  0
    1.0205   -1.2174   29.9378 C   0  0  0  0  0  0  0  0  0  0  0  0
    1.7541   -1.4703   28.8609 N   0  0  0  0  0  0  0  0  0  0  0  0
    5.4748   -4.4137   29.9519 O   0  0  0  0  0  0  0  0  0  0  0  0
    3.0484   -1.8144   28.9936 C   0  0  0  0  0  0  0  0  0  0  0  0
    3.6144   -1.9147   30.2952 C   0  0  0  0  0  0  0  0  0  0  0  0
    3.7873   -2.0708   27.8605 O   0  0  0  0  0  0  0  0  0  0  0  0
    4.9932   -2.2521   30.5890 N   0  0  0  0  0  0  0  0  0  0  0  0
    5.6321   -1.5085   31.6826 C   0  0  2  0  0  0  0  0  0  0  0  0
    4.7896   -1.5612   32.9186 C   0  0  0  0  0  0  0  0  0  0  0  0
    2.8151   -1.6318   31.3744 C   0  0  0  0  0  0  0  0  0  0  0  0
    3.3562   -1.7148   32.6778 N   0  0  0  0  0  0  0  0  0  0  0  0
    5.9234   -0.0349   31.3462 C   0  0  0  0  0  0  0  0  0  0  0  0
    6.7026    0.0632   30.1181 N   0  0  0  0  0  0  0  0  0  0  0  0
    5.2162    2.2229   26.7673 C   0  0  0  0  0  0  0  0  0  0  0  0
    6.5676    2.2587   27.0674 C   0  0  0  0  0  0  0  0  0  0  0  0
    7.0662    1.5453   28.1746 C   0  0  0  0  0  0  0  0  0  0  0  0
    6.2020    0.8061   28.9681 C   0  0  0  0  0  0  0  0  0  0  0  0
    4.8444    0.7719   28.6639 C   0  0  0  0  0  0  0  0  0  0  0  0
    4.3517    1.4785   27.5638 C   0  0  0  0  0  0  0  0  0  0  0  0
    5.7502   -3.2277   29.8819 C   0  0  0  0  0  0  0  0  0  0  0  0
  1  3  1  0  0  0  0
  2  3  2  0  0  0  0
  2 12  1  0  0  0  0
  3  4  1  0  0  0  0
  4  6  1  0  0  0  0
  5 22  1  0  0  0  0
  6  7  1  0  0  0  0
  6  8  2  0  0  0  0
  7 12  2  0  0  0  0
  7  9  1  0  0  0  0
  9 10  1  0  0  0  0
  9 22  1  0  0  0  0
 10 11  1  0  0  0  0
 10 14  1  6  0  0  0
 11 13  1  0  0  0  0
 12 13  1  0  0  0  0
 14 15  1  0  0  0  0
 15 19  1  0  0  0  0
 16 17  2  0  0  0  0
 16 21  1  0  0  0  0
 17 18  1  0  0  0  0
 18 19  2  0  0  0  0
 19 20  1  0  0  0  0
 20 21  2  0  0  0  0
M  END
>  <CHROM.1>
-67.55424790,-54.13053975,121.12968941,142.95294162,4.26304954,-0.91420089
29.80573061,2.25197397,0.12217356,2.34318104

>  <Name>
ligand

>  <RI>
0

>  <Rbt.Current_Directory>
/home/itssahil/PROJECTS/Mol_Feturizer/Test_systems_manuscript/rnas/3sd3

>  <Rbt.Executable>
rbdock ($Id: //depot/dev/client3/rdock/2013.1/src/exe/rbdock.cxx#4 $)

>  <Rbt.Library>
libRbt.so (2013.1, Build901 2013/11/27)

>  <Rbt.Parameter_File>
/export/apps/rDock/src/rDock_2013.1_src/data/scripts/dock_solv.prm

>  <Rbt.Receptor>
prm/blind_docking_60.prm

>  <SCORE>
-12.9368

>  <SCORE.INTER>
-11.4352

>  <SCORE.INTER.CONST>
1

>  <SCORE.INTER.POLAR>
0

>  <SCORE.INTER.ROT>
4

>  <SCORE.INTER.SOLV>
8.64911

>  <SCORE.INTER.VDW>
-16.7732

>  <SCORE.INTER.norm>
-0.519782

>  <SCORE.INTRA>
-1.50157

>  <SCORE.INTRA.DIHEDRAL>
0.426791

>  <SCORE.INTRA.DIHEDRAL.0>
2.54655

>  <SCORE.INTRA.POLAR>
0

>  <SCORE.INTRA.POLAR.0>
0

>  <SCORE.INTRA.REPUL>
0

>  <SCORE.INTRA.REPUL.0>
0

>  <SCORE.INTRA.SOLV>
0.156154

>  <SCORE.INTRA.SOLV.lig_0>
-56.4922

>  <SCORE.INTRA.VDW>
-1.79305

>  <SCORE.INTRA.VDW.0>
-0.696801

>  <SCORE.INTRA.norm>
-0.0682534

>  <SCORE.RESTR>
0

>  <SCORE.RESTR.CAVITY>
0

>  <SCORE.RESTR.norm>
0

>  <SCORE.SYSTEM>
0

>  <SCORE.SYSTEM.CONST>
0

>  <SCORE.SYSTEM.DIHEDRAL>
0

>  <SCORE.SYSTEM.SOLV>
0

>  <SCORE.SYSTEM.norm>
0

>  <SCORE.heavy>
22

>  <SCORE.norm>
-0.588035

>  <RMSD>
25.105

$$$$
ligand
 OpenBabel02271912143D
libRbt.so/2013.1/901 2013/11/27
 22 24  0  0  0  0  0  0  0  0999 V2000
   -0.3685   -0.8481   29.7266 N   0  0  0  0  0  0  0  0  0  0  0  0
    1.5037   -1.2880   31.1528 N   0  0  0  0  0  0  0  0  0  0  0  0
    1.0103   -1.2163   29.9056 C   0  0  0  0  0  0  0  0  0  0  0  0
    1.7535   -1.4740   28.8365 N   0  0  0  0  0  0  0  0  0  0  0  0
    5.3941   -4.4101   29.8838 O   0  0  0  0  0  0  0  0  0  0  0  0
    3.0455   -1.8212   28.9825 C   0  0  0  0  0  0  0  0  0  0  0  0
    3.5988   -1.9195   30.2897 C   0  0  0  0  0  0  0  0  0  0  0  0
    3.7946   -2.0825   27.8572 O   0  0  0  0  0  0  0  0  0  0  0  0
    4.9737   -2.2598   30.5976 N   0  0  0  0  0  0  0  0  0  0  0  0
    5.6040   -1.5150   31.6953 C   0  0  2  0  0  0  0  0  0  0  0  0
    4.7496   -1.5621   32.9234 C   0  0  0  0  0  0  0  0  0  0  0  0
    2.7899   -1.6316   31.3604 C   0  0  0  0  0  0  0  0  0  0  0  0
    3.3182   -1.7126   32.6692 N   0  0  0  0  0  0  0  0  0  0  0  0
    5.9025   -0.0431   31.3579 C   0  0  0  0  0  0  0  0  0  0  0  0
    6.7049    0.0491   30.1443 N   0  0  0  0  0  0  0  0  0  0  0  0
    5.3409    2.3002   26.8017 C   0  0  0  0  0  0  0  0  0  0  0  0
    6.6792    2.3321   27.1557 C   0  0  0  0  0  0  0  0  0  0  0  0
    7.1374    1.5885   28.2605 C   0  0  0  0  0  0  0  0  0  0  0  0
    6.2463    0.8234   28.9976 C   0  0  0  0  0  0  0  0  0  0  0  0
    4.9018    0.7932   28.6393 C   0  0  0  0  0  0  0  0  0  0  0  0
    4.4493    1.5298   27.5416 C   0  0  0  0  0  0  0  0  0  0  0  0
    5.7349   -3.2392   29.9005 C   0  0  0  0  0  0  0  0  0  0  0  0
  1  3  1  0  0  0  0
  2  3  2  0  0  0  0
  2 12  1  0  0  0  0
  3  4  1  0  0  0  0
  4  6  1  0  0  0  0
  5 22  1  0  0  0  0
  6  7  1  0  0  0  0
  6  8  2  0  0  0  0
  7 12  2  0  0  0  0
  7  9  1  0  0  0  0
  9 10  1  0  0  0  0
  9 22  1  0  0  0  0
 10 11  1  0  0  0  0
 10 14  1  6  0  0  0
 11 13  1  0  0  0  0
 12 13  1  0  0  0  0
 14 15  1  0  0  0  0
 15 19  1  0  0  0  0
 16 17  2  0  0  0  0
 16 21  1  0  0  0  0
 17 18  1  0  0  0  0
 18 19  2  0  0  0  0
 19 20  1  0  0  0  0
 20 21  2  0  0  0  0
M  END
>  <CHROM.1>
-61.63812703,-54.68674408,123.16076166,140.44968524,4.26863439,-0.90543527
29.80589056,2.27351544,0.13709482,2.35140480

>  <Name>
ligand

>  <RI>
0

>  <Rbt.Current_Directory>
/home/itssahil/PROJECTS/Mol_Feturizer/Test_systems_manuscript/rnas/3sd3

>  <Rbt.Executable>
rbdock ($Id: //depot/dev/client3/rdock/2013.1/src/exe/rbdock.cxx#4 $)

>  <Rbt.Library>
libRbt.so (2013.1, Build901 2013/11/27)

>  <Rbt.Parameter_File>
/export/apps/rDock/src/rDock_2013.1_src/data/scripts/dock_solv.prm

>  <Rbt.Receptor>
prm/blind_docking_60.prm

>  <SCORE>
-12.9126

>  <SCORE.INTER>
-11.4491

>  <SCORE.INTER.CONST>
1

>  <SCORE.INTER.POLAR>
0

>  <SCORE.INTER.ROT>
4

>  <SCORE.INTER.SOLV>
8.70588

>  <SCORE.INTER.VDW>
-16.8014

>  <SCORE.INTER.norm>
-0.520415

>  <SCORE.INTRA>
-1.4635

>  <SCORE.INTRA.DIHEDRAL>
0.388639

>  <SCORE.INTRA.DIHEDRAL.0>
2.54655

>  <SCORE.INTRA.POLAR>
0

>  <SCORE.INTRA.POLAR.0>
0

>  <SCORE.INTRA.REPUL>
0

>  <SCORE.INTRA.REPUL.0>
0

>  <SCORE.INTRA.SOLV>
0.138233

>  <SCORE.INTRA.SOLV.lig_0>
-56.4922

>  <SCORE.INTRA.VDW>
-1.72694

>  <SCORE.INTRA.VDW.0>
-0.696801

>  <SCORE.INTRA.norm>
-0.0665227

>  <SCORE.RESTR>
0

>  <SCORE.RESTR.CAVITY>
0

>  <SCORE.RESTR.norm>
0

>  <SCORE.SYSTEM>
0

>  <SCORE.SYSTEM.CONST>
0

>  <SCORE.SYSTEM.DIHEDRAL>
0

>  <SCORE.SYSTEM.SOLV>
0

>  <SCORE.SYSTEM.norm>
0

>  <SCORE.heavy>
22

>  <SCORE.norm>
-0.586938

>  <RMSD>
25.106

$$$$
ligand
 OpenBabel02271912143D
libRbt.so/2013.1/901 2013/11/27
 22 24  0  0  0  0  0  0  0  0999 V2000
   -0.3760   -0.8385   29.7793 N   0  0  0  0  0  0  0  0  0  0  0  0
    1.5113   -1.2891   31.1820 N   0  0  0  0  0  0  0  0  0  0  0  0
    1.0052   -1.2057   29.9406 C   0  0  0  0  0  0  0  0  0  0  0  0
    1.7381   -1.4512   28.8616 N   0  0  0  0  0  0  0  0  0  0  0  0
    5.3794   -4.3854   29.8193 O   0  0  0  0  0  0  0  0  0  0  0  0
    3.0322   -1.7973   28.9911 C   0  0  0  0  0  0  0  0  0  0  0  0
    3.5987   -1.9078   30.2915 C   0  0  0  0  0  0  0  0  0  0  0  0
    3.7703   -2.0458   27.8557 O   0  0  0  0  0  0  0  0  0  0  0  0
    4.9773   -2.2485   30.5822 N   0  0  0  0  0  0  0  0  0  0  0  0
    5.6173   -1.5136   31.6810 C   0  0  2  0  0  0  0  0  0  0  0  0
    4.7753   -1.5748   32.9171 C   0  0  0  0  0  0  0  0  0  0  0  0
    2.8001   -1.6323   31.3732 C   0  0  0  0  0  0  0  0  0  0  0  0
    3.3417   -1.7255   32.6757 N   0  0  0  0  0  0  0  0  0  0  0  0
    5.9097   -0.0377   31.3556 C   0  0  0  0  0  0  0  0  0  0  0  0
    6.7108    0.0676   30.1422 N   0  0  0  0  0  0  0  0  0  0  0  0
    5.3185    2.3091   26.8048 C   0  0  0  0  0  0  0  0  0  0  0  0
    6.6532    2.3697   27.1687 C   0  0  0  0  0  0  0  0  0  0  0  0
    7.1207    1.6294   28.2718 C   0  0  0  0  0  0  0  0  0  0  0  0
    6.2425    0.8388   28.9973 C   0  0  0  0  0  0  0  0  0  0  0  0
    4.9016    0.7798   28.6291 C   0  0  0  0  0  0  0  0  0  0  0  0
    4.4399    1.5132   27.5331 C   0  0  0  0  0  0  0  0  0  0  0  0
    5.7333   -3.2193   29.8675 C   0  0  0  0  0  0  0  0  0  0  0  0
  1  3  1  0  0  0  0
  2  3  2  0  0  0  0
  2 12  1  0  0  0  0
  3  4  1  0  0  0  0
  4  6  1  0  0  0  0
  5 22  1  0  0  0  0
  6  7  1  0  0  0  0
  6  8  2  0  0  0  0
  7 12  2  0  0  0  0
  7  9  1  0  0  0  0
  9 10  1  0  0  0  0
  9 22  1  0  0  0  0
 10 11  1  0  0  0  0
 10 14  1  6  0  0  0
 11 13  1  0  0  0  0
 12 13  1  0  0  0  0
 14 15  1  0  0  0  0
 15 19  1  0  0  0  0
 16 17  2  0  0  0  0
 16 21  1  0  0  0  0
 17 18  1  0  0  0  0
 18 19  2  0  0  0  0
 19 20  1  0  0  0  0
 20 21  2  0  0  0  0
M  END
>  <CHROM.1>
-60.09715369,-55.25081351,122.55877360,139.68512807,4.26587695,-0.89417215
29.80699263,2.27440791,0.13476970,2.35219287

>  <Name>
ligand

>  <RI>
0

>  <Rbt.Current_Directory>
/home/itssahil/PROJECTS/Mol_Feturizer/Test_systems_manuscript/rnas/3sd3

>  <Rbt.Executable>
rbdock ($Id: //depot/dev/client3/rdock/2013.1/src/exe/rbdock.cxx#4 $)

>  <Rbt.Library>
libRbt.so (2013.1, Build901 2013/11/27)

>  <Rbt.Parameter_File>
/export/apps/rDock/src/rDock_2013.1_src/data/scripts/dock_solv.prm

>  <Rbt.Receptor>
prm/blind_docking_60.prm

>  <SCORE>
-12.9016

>  <SCORE.INTER>
-11.3955

>  <SCORE.INTER.CONST>
1

>  <SCORE.INTER.POLAR>
0

>  <SCORE.INTER.ROT>
4

>  <SCORE.INTER.SOLV>
8.68091

>  <SCORE.INTER.VDW>
-16.7573

>  <SCORE.INTER.norm>
-0.517976

>  <SCORE.INTRA>
-1.50613

>  <SCORE.INTRA.DIHEDRAL>
0.368494

>  <SCORE.INTRA.DIHEDRAL.0>
2.54655

>  <SCORE.INTRA.POLAR>
0

>  <SCORE.INTRA.POLAR.0>
0

>  <SCORE.INTRA.REPUL>
0

>  <SCORE.INTRA.REPUL.0>
0

>  <SCORE.INTRA.SOLV>
0.145458

>  <SCORE.INTRA.SOLV.lig_0>
-56.4922

>  <SCORE.INTRA.VDW>
-1.76311

>  <SCORE.INTRA.VDW.0>
-0.696801

>  <SCORE.INTRA.norm>
-0.0684606

>  <SCORE.RESTR>
0

>  <SCORE.RESTR.CAVITY>
0

>  <SCORE.RESTR.norm>
0

>  <SCORE.SYSTEM>
0

>  <SCORE.SYSTEM.CONST>
0

>  <SCORE.SYSTEM.DIHEDRAL>
0

>  <SCORE.SYSTEM.SOLV>
0

>  <SCORE.SYSTEM.norm>
0

>  <SCORE.heavy>
22

>  <SCORE.norm>
-0.586436

>  <RMSD>
25.116

$$$$
ligand
 OpenBabel02271912143D
libRbt.so/2013.1/901 2013/11/27
 22 24  0  0  0  0  0  0  0  0999 V2000
    5.6911    2.5302   27.3280 N   0  0  0  0  0  0  0  0  0  0  0  0
    4.9835    1.7558   29.4803 N   0  0  0  0  0  0  0  0  0  0  0  0
    4.8217    1.7290   28.1472 C   0  0  0  0  0  0  0  0  0  0  0  0
    3.8871    0.9885   27.5642 N   0  0  0  0  0  0  0  0  0  0  0  0
    0.4389   -1.6337   31.1601 O   0  0  0  0  0  0  0  0  0  0  0  0
    3.0629    0.2327   28.3129 C   0  0  0  0  0  0  0  0  0  0  0  0
    3.1970    0.2460   29.7293 C   0  0  0  0  0  0  0  0  0  0  0  0
    2.1025   -0.5269   27.6832 O   0  0  0  0  0  0  0  0  0  0  0  0
    2.3983   -0.5301   30.6571 N   0  0  0  0  0  0  0  0  0  0  0  0
    3.1067   -1.1149   31.8031 C   0  0  2  0  0  0  0  0  0  0  0  0
    3.9019   -0.0694   32.5208 C   0  0  0  0  0  0  0  0  0  0  0  0
    4.1869    1.0205   30.2805 C   0  0  0  0  0  0  0  0  0  0  0  0
    4.3472    1.0437   31.6849 N   0  0  0  0  0  0  0  0  0  0  0  0
    4.0439   -2.2771   31.4283 C   0  0  0  0  0  0  0  0  0  0  0  0
    4.9681   -1.8681   30.3778 N   0  0  0  0  0  0  0  0  0  0  0  0
    5.4249   -4.1678   26.8275 C   0  0  0  0  0  0  0  0  0  0  0  0
    4.2069   -3.5744   27.1138 C   0  0  0  0  0  0  0  0  0  0  0  0
    4.0493   -2.8112   28.2868 C   0  0  0  0  0  0  0  0  0  0  0  0
    5.1157   -2.6542   29.1591 C   0  0  0  0  0  0  0  0  0  0  0  0
    6.3387   -3.2516   28.8687 C   0  0  0  0  0  0  0  0  0  0  0  0
    6.4940   -4.0068   27.7034 C   0  0  0  0  0  0  0  0  0  0  0  0
    1.0026   -0.7668   30.5135 C   0  0  0  0  0  0  0  0  0  0  0  0
  1  3  1  0  0  0  0
  2  3  2  0  0  0  0
  2 12  1  0  0  0  0
  3  4  1  0  0  0  0
  4  6  1  0  0  0  0
  5 22  1  0  0  0  0
  6  7  1  0  0  0  0
  6  8  2  0  0  0  0
  7 12  2  0  0  0  0
  7  9  1  0  0  0  0
  9 10  1  0  0  0  0
  9 22  1  0  0  0  0
 10 11  1  0  0  0  0
 10 14  1  6  0  0  0
 11 13  1  0  0  0  0
 12 13  1  0  0  0  0
 14 15  1  0  0  0  0
 15 19  1  0  0  0  0
 16 17  2  0  0  0  0
 16 21  1  0  0  0  0
 17 18  1  0  0  0  0
 18 19  2  0  0  0  0
 19 20  1  0  0  0  0
 20 21  2  0  0  0  0
M  END
>  <CHROM.1>
165.07697816,53.50718881,-127.80526802,63.56956759,3.90712855,-0.84080504
29.45001395,-2.38834948,-0.89972669,3.11861781

>  <Name>
ligand

>  <RI>
0

>  <Rbt.Current_Directory>
/home/itssahil/PROJECTS/Mol_Feturizer/Test_systems_manuscript/rnas/3sd3

>  <Rbt.Executable>
rbdock ($Id: //depot/dev/client3/rdock/2013.1/src/exe/rbdock.cxx#4 $)

>  <Rbt.Library>
libRbt.so (2013.1, Build901 2013/11/27)

>  <Rbt.Parameter_File>
/export/apps/rDock/src/rDock_2013.1_src/data/scripts/dock_solv.prm

>  <Rbt.Receptor>
prm/blind_docking_80.prm

>  <SCORE>
-8.88269

>  <SCORE.INTER>
-8.48336

>  <SCORE.INTER.CONST>
1

>  <SCORE.INTER.POLAR>
0

>  <SCORE.INTER.ROT>
4

>  <SCORE.INTER.SOLV>
10.5002

>  <SCORE.INTER.VDW>
-15.4223

>  <SCORE.INTER.norm>
-0.385607

>  <SCORE.INTRA>
-0.399329

>  <SCORE.INTRA.DIHEDRAL>
0.400069

>  <SCORE.INTRA.DIHEDRAL.0>
2.54655

>  <SCORE.INTRA.POLAR>
0

>  <SCORE.INTRA.POLAR.0>
0

>  <SCORE.INTRA.REPUL>
0

>  <SCORE.INTRA.REPUL.0>
0

>  <SCORE.INTRA.SOLV>
2.12584

>  <SCORE.INTRA.SOLV.lig_0>
-56.4922

>  <SCORE.INTRA.VDW>
-1.66228

>  <SCORE.INTRA.VDW.0>
-0.696801

>  <SCORE.INTRA.norm>
-0.0181513

>  <SCORE.RESTR>
0

>  <SCORE.RESTR.CAVITY>
0

>  <SCORE.RESTR.norm>
0

>  <SCORE.SYSTEM>
0

>  <SCORE.SYSTEM.CONST>
0

>  <SCORE.SYSTEM.DIHEDRAL>
0

>  <SCORE.SYSTEM.SOLV>
0

>  <SCORE.SYSTEM.norm>
0

>  <SCORE.heavy>
22

>  <SCORE.norm>
-0.403759

>  <RMSD>
25.166

$$$$
ligand
 OpenBabel02271912143D
libRbt.so/2013.1/901 2013/11/27
 22 24  0  0  0  0  0  0  0  0999 V2000
    6.6813   -4.3820   29.7890 N   0  0  0  0  0  0  0  0  0  0  0  0
    4.6875   -3.1749   30.3374 N   0  0  0  0  0  0  0  0  0  0  0  0
    6.0169   -3.3074   30.4765 C   0  0  0  0  0  0  0  0  0  0  0  0
    6.7342   -2.4801   31.2267 N   0  0  0  0  0  0  0  0  0  0  0  0
    3.9780    1.4170   33.9758 O   0  0  0  0  0  0  0  0  0  0  0  0
    6.1314   -1.4690   31.8791 C   0  0  0  0  0  0  0  0  0  0  0  0
    4.7226   -1.3057   31.7649 C   0  0  0  0  0  0  0  0  0  0  0  0
    6.8986   -0.6246   32.6499 O   0  0  0  0  0  0  0  0  0  0  0  0
    3.9445   -0.2545   32.3898 N   0  0  0  0  0  0  0  0  0  0  0  0
    2.8632    0.3285   31.5849 C   0  0  2  0  0  0  0  0  0  0  0  0
    1.9759   -0.7453   31.0371 C   0  0  0  0  0  0  0  0  0  0  0  0
    4.0299   -2.1820   30.9676 C   0  0  0  0  0  0  0  0  0  0  0  0
    2.6306   -2.0355   30.8299 N   0  0  0  0  0  0  0  0  0  0  0  0
    3.3576    1.2030   30.4186 C   0  0  0  0  0  0  0  0  0  0  0  0
    4.0027    0.3804   29.4026 N   0  0  0  0  0  0  0  0  0  0  0  0
    7.2703    1.8785   27.1267 C   0  0  0  0  0  0  0  0  0  0  0  0
    7.4995    0.9780   28.1534 C   0  0  0  0  0  0  0  0  0  0  0  0
    6.4222    0.4776   28.9100 C   0  0  0  0  0  0  0  0  0  0  0  0
    5.1282    0.8885   28.6279 C   0  0  0  0  0  0  0  0  0  0  0  0
    4.9010    1.7935   27.5953 C   0  0  0  0  0  0  0  0  0  0  0  0
    5.9707    2.2874   26.8443 C   0  0  0  0  0  0  0  0  0  0  0  0
    4.1757    0.2451   33.7020 C   0  0  0  0  0  0  0  0  0  0  0  0
  1  3  1  0  0  0  0
  2  3  2  0  0  0  0
  2 12  1  0  0  0  0
  3  4  1  0  0  0  0
  4  6  1  0  0  0  0
  5 22  1  0  0  0  0
  6  7  1  0  0  0  0
  6  8  2  0  0  0  0
  7 12  2  0  0  0  0
  7  9  1  0  0  0  0
  9 10  1  0  0  0  0
  9 22  1  0  0  0  0
 10 11  1  0  0  0  0
 10 14  1  6  0  0  0
 11 13  1  0  0  0  0
 12 13  1  0  0  0  0
 14 15  1  0  0  0  0
 15 19  1  0  0  0  0
 16 17  2  0  0  0  0
 16 21  1  0  0  0  0
 17 18  1  0  0  0  0
 18 19  2  0  0  0  0
 19 20  1  0  0  0  0
 20 21  2  0  0  0  0
M  END
>  <CHROM.1>
146.41816257,68.84677590,-146.36267798,103.81036916,4.95848682,-0.48083873
30.55876718,-2.12981159,0.85420379,-0.60497513

>  <Name>
ligand

>  <RI>
0

>  <Rbt.Current_Directory>
/home/itssahil/PROJECTS/Mol_Feturizer/Test_systems_manuscript/rnas/3sd3

>  <Rbt.Executable>
rbdock ($Id: //depot/dev/client3/rdock/2013.1/src/exe/rbdock.cxx#4 $)

>  <Rbt.Library>
libRbt.so (2013.1, Build901 2013/11/27)

>  <Rbt.Parameter_File>
/export/apps/rDock/src/rDock_2013.1_src/data/scripts/dock_solv.prm

>  <Rbt.Receptor>
prm/blind_docking_100.prm

>  <SCORE>
-8.43687

>  <SCORE.INTER>
-8.1455

>  <SCORE.INTER.CONST>
1

>  <SCORE.INTER.POLAR>
0

>  <SCORE.INTER.ROT>
4

>  <SCORE.INTER.SOLV>
8.66142

>  <SCORE.INTER.VDW>
-14.5841

>  <SCORE.INTER.norm>
-0.37025

>  <SCORE.INTRA>
-0.291372

>  <SCORE.INTRA.DIHEDRAL>
0.115655

>  <SCORE.INTRA.DIHEDRAL.0>
2.54655

>  <SCORE.INTRA.POLAR>
0

>  <SCORE.INTRA.POLAR.0>
0

>  <SCORE.INTRA.REPUL>
0

>  <SCORE.INTRA.REPUL.0>
0

>  <SCORE.INTRA.SOLV>
1.76232

>  <SCORE.INTRA.SOLV.lig_0>
-56.4922

>  <SCORE.INTRA.VDW>
-1.23036

>  <SCORE.INTRA.VDW.0>
-0.696801

>  <SCORE.INTRA.norm>
-0.0132442

>  <SCORE.RESTR>
0

>  <SCORE.RESTR.CAVITY>
0

>  <SCORE.RESTR.norm>
0

>  <SCORE.SYSTEM>
0

>  <SCORE.SYSTEM.CONST>
0

>  <SCORE.SYSTEM.DIHEDRAL>
0

>  <SCORE.SYSTEM.SOLV>
0

>  <SCORE.SYSTEM.norm>
0

>  <SCORE.heavy>
22

>  <SCORE.norm>
-0.383494

>  <RMSD>
25.168

$$$$
ligand
 OpenBabel02271912143D
libRbt.so/2013.1/901 2013/11/27
 22 24  0  0  0  0  0  0  0  0999 V2000
    5.4732    3.1499   27.4823 N   0  0  0  0  0  0  0  0  0  0  0  0
    4.7254    2.3444   29.6095 N   0  0  0  0  0  0  0  0  0  0  0  0
    4.7471    2.1942   28.2749 C   0  0  0  0  0  0  0  0  0  0  0  0
    4.1210    1.1942   27.6668 N   0  0  0  0  0  0  0  0  0  0  0  0
    0.4059   -0.4612   30.5051 O   0  0  0  0  0  0  0  0  0  0  0  0
    3.4351    0.2901   28.3903 C   0  0  0  0  0  0  0  0  0  0  0  0
    3.3799    0.4250   29.8056 C   0  0  0  0  0  0  0  0  0  0  0  0
    2.7953   -0.7379   27.7350 O   0  0  0  0  0  0  0  0  0  0  0  0
    2.7010   -0.4808   30.7110 N   0  0  0  0  0  0  0  0  0  0  0  0
    3.3861   -0.7813   31.9748 C   0  0  2  0  0  0  0  0  0  0  0  0
    3.7819    0.4820   32.6733 C   0  0  0  0  0  0  0  0  0  0  0  0
    4.0541    1.4707   30.3849 C   0  0  0  0  0  0  0  0  0  0  0  0
    4.0228    1.6215   31.7902 N   0  0  0  0  0  0  0  0  0  0  0  0
    4.6347   -1.6665   31.8107 C   0  0  0  0  0  0  0  0  0  0  0  0
    4.3057   -2.8803   31.0735 N   0  0  0  0  0  0  0  0  0  0  0  0
    6.5245   -4.0237   27.6281 C   0  0  0  0  0  0  0  0  0  0  0  0
    5.4324   -3.1823   27.4980 C   0  0  0  0  0  0  0  0  0  0  0  0
    4.6943   -2.7993   28.6346 C   0  0  0  0  0  0  0  0  0  0  0  0
    5.0602   -3.2668   29.8877 C   0  0  0  0  0  0  0  0  0  0  0  0
    6.1584   -4.1122   30.0153 C   0  0  0  0  0  0  0  0  0  0  0  0
    6.8910   -4.4895   28.8869 C   0  0  0  0  0  0  0  0  0  0  0  0
    1.4459   -1.0951   30.4422 C   0  0  0  0  0  0  0  0  0  0  0  0
  1  3  1  0  0  0  0
  2  3  2  0  0  0  0
  2 12  1  0  0  0  0
  3  4  1  0  0  0  0
  4  6  1  0  0  0  0
  5 22  1  0  0  0  0
  6  7  1  0  0  0  0
  6  8  2  0  0  0  0
  7 12  2  0  0  0  0
  7  9  1  0  0  0  0
  9 10  1  0  0  0  0
  9 22  1  0  0  0  0
 10 11  1  0  0  0  0
 10 14  1  6  0  0  0
 11 13  1  0  0  0  0
 12 13  1  0  0  0  0
 14 15  1  0  0  0  0
 15 19  1  0  0  0  0
 16 17  2  0  0  0  0
 16 21  1  0  0  0  0
 17 18  1  0  0  0  0
 18 19  2  0  0  0  0
 19 20  1  0  0  0  0
 20 21  2  0  0  0  0
M  END
>  <CHROM.1>
-74.73376393,-53.34943517,126.61360506,-87.93598941,4.09881201,-0.69400687
29.71182303,-2.22896615,-0.91151237,2.73818925

>  <Name>
ligand

>  <RI>
0

>  <Rbt.Current_Directory>
/home/itssahil/PROJECTS/Mol_Feturizer/Test_systems_manuscript/rnas/3sd3

>  <Rbt.Executable>
rbdock ($Id: //depot/dev/client3/rdock/2013.1/src/exe/rbdock.cxx#4 $)

>  <Rbt.Library>
libRbt.so (2013.1, Build901 2013/11/27)

>  <Rbt.Parameter_File>
/export/apps/rDock/src/rDock_2013.1_src/data/scripts/dock_solv.prm

>  <Rbt.Receptor>
prm/blind_docking_60.prm

>  <SCORE>
-8.9781

>  <SCORE.INTER>
-7.4468

>  <SCORE.INTER.CONST>
1

>  <SCORE.INTER.POLAR>
0

>  <SCORE.INTER.ROT>
4

>  <SCORE.INTER.SOLV>
10.203

>  <SCORE.INTER.VDW>
-14.6322

>  <SCORE.INTER.norm>
-0.338491

>  <SCORE.INTRA>
-1.5313

>  <SCORE.INTRA.DIHEDRAL>
0.436314

>  <SCORE.INTRA.DIHEDRAL.0>
2.54655

>  <SCORE.INTRA.POLAR>
0

>  <SCORE.INTRA.POLAR.0>
0

>  <SCORE.INTRA.REPUL>
0

>  <SCORE.INTRA.REPUL.0>
0

>  <SCORE.INTRA.SOLV>
0.143407

>  <SCORE.INTRA.SOLV.lig_0>
-56.4922

>  <SCORE.INTRA.VDW>
-1.82116

>  <SCORE.INTRA.VDW.0>
-0.696801

>  <SCORE.INTRA.norm>
-0.0696044

>  <SCORE.RESTR>
0

>  <SCORE.RESTR.CAVITY>
0

>  <SCORE.RESTR.norm>
0

>  <SCORE.SYSTEM>
0

>  <SCORE.SYSTEM.CONST>
0

>  <SCORE.SYSTEM.DIHEDRAL>
0

>  <SCORE.SYSTEM.SOLV>
0

>  <SCORE.SYSTEM.norm>
0

>  <SCORE.heavy>
22

>  <SCORE.norm>
-0.408095

>  <RMSD>
25.177

$$$$
ligand
 OpenBabel02271912143D
libRbt.so/2013.1/901 2013/11/27
 22 24  0  0  0  0  0  0  0  0999 V2000
    6.8580   -3.6258   26.8116 N   0  0  0  0  0  0  0  0  0  0  0  0
    4.7297   -2.7435   27.4633 N   0  0  0  0  0  0  0  0  0  0  0  0
    5.9688   -3.1182   27.8217 C   0  0  0  0  0  0  0  0  0  0  0  0
    6.3965   -3.0351   29.0755 N   0  0  0  0  0  0  0  0  0  0  0  0
    3.6899   -1.5495   32.8808 O   0  0  0  0  0  0  0  0  0  0  0  0
    5.5796   -2.5640   30.0357 C   0  0  0  0  0  0  0  0  0  0  0  0
    4.2558   -2.1695   29.6947 C   0  0  0  0  0  0  0  0  0  0  0  0
    6.0483   -2.4872   31.3280 O   0  0  0  0  0  0  0  0  0  0  0  0
    3.2768   -1.6258   30.6150 N   0  0  0  0  0  0  0  0  0  0  0  0
    2.4417   -0.5275   30.1115 C   0  0  2  0  0  0  0  0  0  0  0  0
    1.8065   -0.9025   28.8091 C   0  0  0  0  0  0  0  0  0  0  0  0
    3.8676   -2.2653   28.3818 C   0  0  0  0  0  0  0  0  0  0  0  0
    2.5605   -1.8708   28.0153 N   0  0  0  0  0  0  0  0  0  0  0  0
    3.2022    0.7980   29.9262 C   0  0  0  0  0  0  0  0  0  0  0  0
    4.3085    0.6247   28.9928 N   0  0  0  0  0  0  0  0  0  0  0  0
    6.0060    3.9478   26.9490 C   0  0  0  0  0  0  0  0  0  0  0  0
    6.1397    3.8408   28.3232 C   0  0  0  0  0  0  0  0  0  0  0  0
    5.5810    2.7428   29.0056 C   0  0  0  0  0  0  0  0  0  0  0  0
    4.8933    1.7666   28.3008 C   0  0  0  0  0  0  0  0  0  0  0  0
    4.7607    1.8768   26.9197 C   0  0  0  0  0  0  0  0  0  0  0  0
    5.3175    2.9656   26.2439 C   0  0  0  0  0  0  0  0  0  0  0  0
    3.0961   -2.0737   31.9535 C   0  0  0  0  0  0  0  0  0  0  0  0
  1  3  1  0  0  0  0
  2  3  2  0  0  0  0
  2 12  1  0  0  0  0
  3  4  1  0  0  0  0
  4  6  1  0  0  0  0
  5 22  1  0  0  0  0
  6  7  1  0  0  0  0
  6  8  2  0  0  0  0
  7 12  2  0  0  0  0
  7  9  1  0  0  0  0
  9 10  1  0  0  0  0
  9 22  1  0  0  0  0
 10 11  1  0  0  0  0
 10 14  1  6  0  0  0
 11 13  1  0  0  0  0
 12 13  1  0  0  0  0
 14 15  1  0  0  0  0
 15 19  1  0  0  0  0
 16 17  2  0  0  0  0
 16 21  1  0  0  0  0
 17 18  1  0  0  0  0
 18 19  2  0  0  0  0
 19 20  1  0  0  0  0
 20 21  2  0  0  0  0
M  END
>  <CHROM.1>
91.82663775,58.92943585,159.02599846,66.40981475,4.54699342,-0.65099386,29.07960310
-1.82623292,0.93924156,-0.23638548

>  <Name>
ligand

>  <RI>
0

>  <Rbt.Current_Directory>
/home/itssahil/PROJECTS/Mol_Feturizer/Test_systems_manuscript/rnas/3sd3

>  <Rbt.Executable>
rbdock ($Id: //depot/dev/client3/rdock/2013.1/src/exe/rbdock.cxx#4 $)

>  <Rbt.Library>
libRbt.so (2013.1, Build901 2013/11/27)

>  <Rbt.Parameter_File>
/export/apps/rDock/src/rDock_2013.1_src/data/scripts/dock_solv.prm

>  <Rbt.Receptor>
prm/blind_docking_100.prm

>  <SCORE>
-10.8717

>  <SCORE.INTER>
-10.4896

>  <SCORE.INTER.CONST>
1

>  <SCORE.INTER.POLAR>
0

>  <SCORE.INTER.ROT>
4

>  <SCORE.INTER.SOLV>
11.2592

>  <SCORE.INTER.VDW>
-17.0128

>  <SCORE.INTER.norm>
-0.4768

>  <SCORE.INTRA>
-0.382098

>  <SCORE.INTRA.DIHEDRAL>
-0.60927

>  <SCORE.INTRA.DIHEDRAL.0>
2.54655

>  <SCORE.INTRA.POLAR>
0

>  <SCORE.INTRA.POLAR.0>
0

>  <SCORE.INTRA.REPUL>
0

>  <SCORE.INTRA.REPUL.0>
0

>  <SCORE.INTRA.SOLV>
2.0248

>  <SCORE.INTRA.SOLV.lig_0>
-56.4922

>  <SCORE.INTRA.VDW>
-1.08987

>  <SCORE.INTRA.VDW.0>
-0.696801

>  <SCORE.INTRA.norm>
-0.0173681

>  <SCORE.RESTR>
0

>  <SCORE.RESTR.CAVITY>
0

>  <SCORE.RESTR.norm>
0

>  <SCORE.SYSTEM>
0

>  <SCORE.SYSTEM.CONST>
0

>  <SCORE.SYSTEM.DIHEDRAL>
0

>  <SCORE.SYSTEM.SOLV>
0

>  <SCORE.SYSTEM.norm>
0

>  <SCORE.heavy>
22

>  <SCORE.norm>
-0.494168

>  <RMSD>
25.198

$$$$
ligand
 OpenBabel02271912143D
libRbt.so/2013.1/901 2013/11/27
 22 24  0  0  0  0  0  0  0  0999 V2000
    0.6292   -1.3691   26.5319 N   0  0  0  0  0  0  0  0  0  0  0  0
    1.6202   -1.3088   28.7107 N   0  0  0  0  0  0  0  0  0  0  0  0
    1.7270   -1.6529   27.4167 C   0  0  0  0  0  0  0  0  0  0  0  0
    2.8111   -2.2451   26.9309 N   0  0  0  0  0  0  0  0  0  0  0  0
    6.7697   -3.4928   30.6171 O   0  0  0  0  0  0  0  0  0  0  0  0
    3.8488   -2.5202   27.7425 C   0  0  0  0  0  0  0  0  0  0  0  0
    3.7655   -2.1813   29.1219 C   0  0  0  0  0  0  0  0  0  0  0  0
    4.9616   -3.1342   27.2132 O   0  0  0  0  0  0  0  0  0  0  0  0
    4.8086   -2.3964   30.1052 N   0  0  0  0  0  0  0  0  0  0  0  0
    5.0073   -1.3298   31.0951 C   0  0  2  0  0  0  0  0  0  0  0  0
    3.7112   -0.9737   31.7539 C   0  0  0  0  0  0  0  0  0  0  0  0
    2.6267   -1.5604   29.5703 C   0  0  0  0  0  0  0  0  0  0  0  0
    2.5231   -1.2046   30.9346 N   0  0  0  0  0  0  0  0  0  0  0  0
    5.6334   -0.0495   30.5134 C   0  0  0  0  0  0  0  0  0  0  0  0
    4.7600    0.5302   29.5004 N   0  0  0  0  0  0  0  0  0  0  0  0
    6.1068    3.6513   26.9420 C   0  0  0  0  0  0  0  0  0  0  0  0
    6.5521    3.5919   28.2518 C   0  0  0  0  0  0  0  0  0  0  0  0
    6.1108    2.5608   29.1036 C   0  0  0  0  0  0  0  0  0  0  0  0
    5.2267    1.6030   28.6308 C   0  0  0  0  0  0  0  0  0  0  0  0
    4.7810    1.6652   27.3138 C   0  0  0  0  0  0  0  0  0  0  0  0
    5.2214    2.6877   26.4694 C   0  0  0  0  0  0  0  0  0  0  0  0
    5.6433   -3.5478   30.1529 C   0  0  0  0  0  0  0  0  0  0  0  0
  1  3  1  0  0  0  0
  2  3  2  0  0  0  0
  2 12  1  0  0  0  0
  3  4  1  0  0  0  0
  4  6  1  0  0  0  0
  5 22  1  0  0  0  0
  6  7  1  0  0  0  0
  6  8  2  0  0  0  0
  7 12  2  0  0  0  0
  7  9  1  0  0  0  0
  9 10  1  0  0  0  0
  9 22  1  0  0  0  0
 10 11  1  0  0  0  0
 10 14  1  6  0  0  0
 11 13  1  0  0  0  0
 12 13  1  0  0  0  0
 14 15  1  0  0  0  0
 15 19  1  0  0  0  0
 16 17  2  0  0  0  0
 16 21  1  0  0  0  0
 17 18  1  0  0  0  0
 18 19  2  0  0  0  0
 19 20  1  0  0  0  0
 20 21  2  0  0  0  0
M  END
>  <CHROM.1>
152.05022760,62.01892493,-168.79485443,-34.66011316,4.31064568,-0.70455010
28.89432193,2.02811412,0.67010896,2.58750434

>  <Name>
ligand

>  <RI>
0

>  <Rbt.Current_Directory>
/home/itssahil/PROJECTS/Mol_Feturizer/Test_systems_manuscript/rnas/3sd3

>  <Rbt.Executable>
rbdock ($Id: //depot/dev/client3/rdock/2013.1/src/exe/rbdock.cxx#4 $)

>  <Rbt.Library>
libRbt.so (2013.1, Build901 2013/11/27)

>  <Rbt.Parameter_File>
/export/apps/rDock/src/rDock_2013.1_src/data/scripts/dock_solv.prm

>  <Rbt.Receptor>
prm/blind_docking_40.prm

>  <SCORE>
-10.2236

>  <SCORE.INTER>
-10.2735

>  <SCORE.INTER.CONST>
1

>  <SCORE.INTER.POLAR>
0

>  <SCORE.INTER.ROT>
4

>  <SCORE.INTER.SOLV>
6.04571

>  <SCORE.INTER.VDW>
-15.1309

>  <SCORE.INTER.norm>
-0.466975

>  <SCORE.INTRA>
0.0498892

>  <SCORE.INTRA.DIHEDRAL>
-0.765358

>  <SCORE.INTRA.DIHEDRAL.0>
2.54655

>  <SCORE.INTRA.POLAR>
0

>  <SCORE.INTRA.POLAR.0>
0

>  <SCORE.INTRA.REPUL>
0

>  <SCORE.INTRA.REPUL.0>
0

>  <SCORE.INTRA.SOLV>
1.82093

>  <SCORE.INTRA.SOLV.lig_0>
-56.4922

>  <SCORE.INTRA.VDW>
-0.477895

>  <SCORE.INTRA.VDW.0>
-0.696801

>  <SCORE.INTRA.norm>
0.00226769

>  <SCORE.RESTR>
0

>  <SCORE.RESTR.CAVITY>
0

>  <SCORE.RESTR.norm>
0

>  <SCORE.SYSTEM>
0

>  <SCORE.SYSTEM.CONST>
0

>  <SCORE.SYSTEM.DIHEDRAL>
0

>  <SCORE.SYSTEM.SOLV>
0

>  <SCORE.SYSTEM.norm>
0

>  <SCORE.heavy>
22

>  <SCORE.norm>
-0.464708

>  <RMSD>
25.202

$$$$
ligand
 OpenBabel02271912143D
libRbt.so/2013.1/901 2013/11/27
 22 24  0  0  0  0  0  0  0  0999 V2000
    1.0069   -2.2704   26.3138 N   0  0  0  0  0  0  0  0  0  0  0  0
    2.9888   -2.9186   27.4905 N   0  0  0  0  0  0  0  0  0  0  0  0
    2.1841   -1.9301   27.0669 C   0  0  0  0  0  0  0  0  0  0  0  0
    2.4411   -0.6529   27.3207 N   0  0  0  0  0  0  0  0  0  0  0  0
    6.6217    0.8608   29.8811 O   0  0  0  0  0  0  0  0  0  0  0  0
    3.5380   -0.3135   28.0227 C   0  0  0  0  0  0  0  0  0  0  0  0
    4.4199   -1.3335   28.4767 C   0  0  0  0  0  0  0  0  0  0  0  0
    3.7808    1.0184   28.2730 O   0  0  0  0  0  0  0  0  0  0  0  0
    5.6216   -1.1197   29.2585 N   0  0  0  0  0  0  0  0  0  0  0  0
    5.8891   -2.0887   30.3292 C   0  0  2  0  0  0  0  0  0  0  0  0
    5.8324   -3.4879   29.8004 C   0  0  0  0  0  0  0  0  0  0  0  0
    4.1017   -2.6389   28.1966 C   0  0  0  0  0  0  0  0  0  0  0  0
    4.9566   -3.6718   28.6448 N   0  0  0  0  0  0  0  0  0  0  0  0
    4.9282   -1.9744   31.5264 C   0  0  0  0  0  0  0  0  0  0  0  0
    3.5629   -2.2774   31.1150 N   0  0  0  0  0  0  0  0  0  0  0  0
    0.7509    0.8150   30.3207 C   0  0  0  0  0  0  0  0  0  0  0  0
    1.8846    1.0880   31.0675 C   0  0  0  0  0  0  0  0  0  0  0  0
    2.8198    0.0691   31.3332 C   0  0  0  0  0  0  0  0  0  0  0  0
    2.6048   -1.2118   30.8476 C   0  0  0  0  0  0  0  0  0  0  0  0
    1.4645   -1.4832   30.0973 C   0  0  0  0  0  0  0  0  0  0  0  0
    0.5387   -0.4706   29.8328 C   0  0  0  0  0  0  0  0  0  0  0  0
    6.5260   -0.0387   29.0631 C   0  0  0  0  0  0  0  0  0  0  0  0
  1  3  1  0  0  0  0
  2  3  2  0  0  0  0
  2 12  1  0  0  0  0
  3  4  1  0  0  0  0
  4  6  1  0  0  0  0
  5 22  1  0  0  0  0
  6  7  1  0  0  0  0
  6  8  2  0  0  0  0
  7 12  2  0  0  0  0
  7  9  1  0  0  0  0
  9 10  1  0  0  0  0
  9 22  1  0  0  0  0
 10 11  1  0  0  0  0
 10 14  1  1  0  0  0
 11 13  1  0  0  0  0
 12 13  1  0  0  0  0
 14 15  1  0  0  0  0
 15 19  1  0  0  0  0
 16 17  2  0  0  0  0
 16 21  1  0  0  0  0
 17 18  1  0  0  0  0
 18 19  2  0  0  0  0
 19 20  1  0  0  0  0
 20 21  2  0  0  0  0
M  END
>  <CHROM.1>
110.13159122,63.63753434,-100.17117368,-18.73802441,3.65927815,-1.18153926
29.26267258,-3.07908334,-0.28333654,0.82158357

>  <Name>
ligand

>  <RI>
0

>  <Rbt.Current_Directory>
/home/itssahil/PROJECTS/Mol_Feturizer/Test_systems_manuscript/rnas/3sd3

>  <Rbt.Executable>
rbdock ($Id: //depot/dev/client3/rdock/2013.1/src/exe/rbdock.cxx#4 $)

>  <Rbt.Library>
libRbt.so (2013.1, Build901 2013/11/27)

>  <Rbt.Parameter_File>
/export/apps/rDock/src/rDock_2013.1_src/data/scripts/dock_solv.prm

>  <Rbt.Receptor>
prm/blind_docking_40.prm

>  <SCORE>
-10.0427

>  <SCORE.INTER>
-7.8588

>  <SCORE.INTER.CONST>
1

>  <SCORE.INTER.POLAR>
0

>  <SCORE.INTER.ROT>
4

>  <SCORE.INTER.SOLV>
5.68181

>  <SCORE.INTER.VDW>
-13.3998

>  <SCORE.INTER.norm>
-0.357218

>  <SCORE.INTRA>
-2.18463

>  <SCORE.INTRA.DIHEDRAL>
0.0321892

>  <SCORE.INTRA.DIHEDRAL.0>
2.54655

>  <SCORE.INTRA.POLAR>
0

>  <SCORE.INTRA.POLAR.0>
0

>  <SCORE.INTRA.REPUL>
0

>  <SCORE.INTRA.REPUL.0>
0

>  <SCORE.INTRA.SOLV>
2.3863

>  <SCORE.INTRA.SOLV.lig_0>
-56.4922

>  <SCORE.INTRA.VDW>
-3.39387

>  <SCORE.INTRA.VDW.0>
-0.696801

>  <SCORE.INTRA.norm>
-0.0993013

>  <SCORE.RESTR>
0.000679177

>  <SCORE.RESTR.CAVITY>
0.000679177

>  <SCORE.RESTR.norm>
3.08717e-05

>  <SCORE.SYSTEM>
0

>  <SCORE.SYSTEM.CONST>
0

>  <SCORE.SYSTEM.DIHEDRAL>
0

>  <SCORE.SYSTEM.SOLV>
0

>  <SCORE.SYSTEM.norm>
0

>  <SCORE.heavy>
22

>  <SCORE.norm>
-0.456488

>  <RMSD>
25.231

$$$$
ligand
 OpenBabel02271912143D
libRbt.so/2013.1/901 2013/11/27
 22 24  0  0  0  0  0  0  0  0999 V2000
    1.2031   -0.9328   27.3271 N   0  0  0  0  0  0  0  0  0  0  0  0
    3.1564   -2.0612   28.1296 N   0  0  0  0  0  0  0  0  0  0  0  0
    2.5620   -0.9034   27.7974 C   0  0  0  0  0  0  0  0  0  0  0  0
    3.1881    0.2634   27.8894 N   0  0  0  0  0  0  0  0  0  0  0  0
    7.6909    0.0793   27.5373 O   0  0  0  0  0  0  0  0  0  0  0  0
    4.4601    0.3123   28.3262 C   0  0  0  0  0  0  0  0  0  0  0  0
    5.1256   -0.8960   28.6750 C   0  0  0  0  0  0  0  0  0  0  0  0
    5.0862    1.5354   28.4131 O   0  0  0  0  0  0  0  0  0  0  0  0
    6.4812   -0.9943   29.1787 N   0  0  0  0  0  0  0  0  0  0  0  0
    6.7143   -1.9726   30.2490 C   0  0  2  0  0  0  0  0  0  0  0  0
    6.1861   -3.3175   29.8583 C   0  0  0  0  0  0  0  0  0  0  0  0
    4.4290   -2.0740   28.5720 C   0  0  0  0  0  0  0  0  0  0  0  0
    5.0645   -3.2874   28.9216 N   0  0  0  0  0  0  0  0  0  0  0  0
    6.0971   -1.5740   31.6018 C   0  0  0  0  0  0  0  0  0  0  0  0
    4.6729   -1.3016   31.4518 N   0  0  0  0  0  0  0  0  0  0  0  0
    2.7592    1.6558   33.8377 C   0  0  0  0  0  0  0  0  0  0  0  0
    2.5442    1.6270   32.4700 C   0  0  0  0  0  0  0  0  0  0  0  0
    3.1739    0.6501   31.6747 C   0  0  0  0  0  0  0  0  0  0  0  0
    4.0131   -0.2849   32.2615 C   0  0  0  0  0  0  0  0  0  0  0  0
    4.2271   -0.2535   33.6364 C   0  0  0  0  0  0  0  0  0  0  0  0
    3.5999    0.7151   34.4243 C   0  0  0  0  0  0  0  0  0  0  0  0
    7.5695   -0.2018   28.7178 C   0  0  0  0  0  0  0  0  0  0  0  0
  1  3  1  0  0  0  0
  2  3  2  0  0  0  0
  2 12  1  0  0  0  0
  3  4  1  0  0  0  0
  4  6  1  0  0  0  0
  5 22  1  0  0  0  0
  6  7  1  0  0  0  0
  6  8  2  0  0  0  0
  7 12  2  0  0  0  0
  7  9  1  0  0  0  0
  9 10  1  0  0  0  0
  9 22  1  0  0  0  0
 10 11  1  0  0  0  0
 10 14  1  1  0  0  0
 11 13  1  0  0  0  0
 12 13  1  0  0  0  0
 14 15  1  0  0  0  0
 15 19  1  0  0  0  0
 16 17  2  0  0  0  0
 16 21  1  0  0  0  0
 17 18  1  0  0  0  0
 18 19  2  0  0  0  0
 19 20  1  0  0  0  0
 20 21  2  0  0  0  0
M  END
>  <CHROM.1>
-38.59510300,54.64516020,-146.57108856,132.51012301,4.62262106,-0.62197304
29.93716526,1.19690257,0.34810616,-1.78025849

>  <Name>
ligand

>  <RI>
0

>  <Rbt.Current_Directory>
/home/itssahil/PROJECTS/Mol_Feturizer/Test_systems_manuscript/rnas/3sd3

>  <Rbt.Executable>
rbdock ($Id: //depot/dev/client3/rdock/2013.1/src/exe/rbdock.cxx#4 $)

>  <Rbt.Library>
libRbt.so (2013.1, Build901 2013/11/27)

>  <Rbt.Parameter_File>
/export/apps/rDock/src/rDock_2013.1_src/data/scripts/dock_solv.prm

>  <Rbt.Receptor>
prm/blind_docking_80.prm

>  <SCORE>
-9.78408

>  <SCORE.INTER>
-9.21222

>  <SCORE.INTER.CONST>
1

>  <SCORE.INTER.POLAR>
0

>  <SCORE.INTER.ROT>
4

>  <SCORE.INTER.SOLV>
4.68694

>  <SCORE.INTER.VDW>
-13.9705

>  <SCORE.INTER.norm>
-0.418737

>  <SCORE.INTRA>
-0.571859

>  <SCORE.INTRA.DIHEDRAL>
-0.134762

>  <SCORE.INTRA.DIHEDRAL.0>
2.54655

>  <SCORE.INTRA.POLAR>
0

>  <SCORE.INTRA.POLAR.0>
0

>  <SCORE.INTRA.REPUL>
0

>  <SCORE.INTRA.REPUL.0>
0

>  <SCORE.INTRA.SOLV>
1.9672

>  <SCORE.INTRA.SOLV.lig_0>
-56.4922

>  <SCORE.INTRA.VDW>
-1.48808

>  <SCORE.INTRA.VDW.0>
-0.696801

>  <SCORE.INTRA.norm>
-0.0259936

>  <SCORE.RESTR>
0

>  <SCORE.RESTR.CAVITY>
0

>  <SCORE.RESTR.norm>
0

>  <SCORE.SYSTEM>
0

>  <SCORE.SYSTEM.CONST>
0

>  <SCORE.SYSTEM.DIHEDRAL>
0

>  <SCORE.SYSTEM.SOLV>
0

>  <SCORE.SYSTEM.norm>
0

>  <SCORE.heavy>
22

>  <SCORE.norm>
-0.444731

>  <RMSD>
25.239

$$$$
ligand
 OpenBabel02271912143D
libRbt.so/2013.1/901 2013/11/27
 22 24  0  0  0  0  0  0  0  0999 V2000
    0.9086   -1.7419   26.5010 N   0  0  0  0  0  0  0  0  0  0  0  0
    1.8552   -1.4533   28.6813 N   0  0  0  0  0  0  0  0  0  0  0  0
    2.0116   -1.8726   27.4149 C   0  0  0  0  0  0  0  0  0  0  0  0
    3.1491   -2.4024   26.9821 N   0  0  0  0  0  0  0  0  0  0  0  0
    5.6877   -4.4005   30.1265 O   0  0  0  0  0  0  0  0  0  0  0  0
    4.1926   -2.5345   27.8216 C   0  0  0  0  0  0  0  0  0  0  0  0
    4.0587   -2.1126   29.1738 C   0  0  0  0  0  0  0  0  0  0  0  0
    5.3613   -3.0864   27.3471 O   0  0  0  0  0  0  0  0  0  0  0  0
    5.0998   -2.1730   30.1807 N   0  0  0  0  0  0  0  0  0  0  0  0
    5.1926   -1.0300   31.0981 C   0  0  2  0  0  0  0  0  0  0  0  0
    3.8607   -0.7412   31.7171 C   0  0  0  0  0  0  0  0  0  0  0  0
    2.8649   -1.5613   29.5668 C   0  0  0  0  0  0  0  0  0  0  0  0
    2.7096   -1.1254   30.9026 N   0  0  0  0  0  0  0  0  0  0  0  0
    5.7193    0.2569   30.4377 C   0  0  0  0  0  0  0  0  0  0  0  0
    4.7851    0.7281   29.4226 N   0  0  0  0  0  0  0  0  0  0  0  0
    5.8034    3.9122   26.7909 C   0  0  0  0  0  0  0  0  0  0  0  0
    6.0598    4.0284   28.1468 C   0  0  0  0  0  0  0  0  0  0  0  0
    5.7261    2.9777   29.0232 C   0  0  0  0  0  0  0  0  0  0  0  0
    5.1374    1.8239   28.5282 C   0  0  0  0  0  0  0  0  0  0  0  0
    4.8810    1.7100   27.1650 C   0  0  0  0  0  0  0  0  0  0  0  0
    5.2147    2.7525   26.2967 C   0  0  0  0  0  0  0  0  0  0  0  0
    6.0266   -3.2443   30.3153 C   0  0  0  0  0  0  0  0  0  0  0  0
  1  3  1  0  0  0  0
  2  3  2  0  0  0  0
  2 12  1  0  0  0  0
  3  4  1  0  0  0  0
  4  6  1  0  0  0  0
  5 22  1  0  0  0  0
  6  7  1  0  0  0  0
  6  8  2  0  0  0  0
  7 12  2  0  0  0  0
  7  9  1  0  0  0  0
  9 10  1  0  0  0  0
  9 22  1  0  0  0  0
 10 11  1  0  0  0  0
 10 14  1  6  0  0  0
 11 13  1  0  0  0  0
 12 13  1  0  0  0  0
 14 15  1  0  0  0  0
 15 19  1  0  0  0  0
 16 17  2  0  0  0  0
 16 21  1  0  0  0  0
 17 18  1  0  0  0  0
 18 19  2  0  0  0  0
 19 20  1  0  0  0  0
 20 21  2  0  0  0  0
M  END
>  <CHROM.1>
-37.45505280,64.76683873,-171.55526842,-45.81548321,4.37573766,-0.65347094
28.84900738,1.93705289,0.84456857,2.61688930

>  <Name>
ligand

>  <RI>
0

>  <Rbt.Current_Directory>
/home/itssahil/PROJECTS/Mol_Feturizer/Test_systems_manuscript/rnas/3sd3

>  <Rbt.Executable>
rbdock ($Id: //depot/dev/client3/rdock/2013.1/src/exe/rbdock.cxx#4 $)

>  <Rbt.Library>
libRbt.so (2013.1, Build901 2013/11/27)

>  <Rbt.Parameter_File>
/export/apps/rDock/src/rDock_2013.1_src/data/scripts/dock_solv.prm

>  <Rbt.Receptor>
prm/blind_docking_100.prm

>  <SCORE>
-11.0844

>  <SCORE.INTER>
-10.7313

>  <SCORE.INTER.CONST>
1

>  <SCORE.INTER.POLAR>
0

>  <SCORE.INTER.ROT>
4

>  <SCORE.INTER.SOLV>
5.00727

>  <SCORE.INTER.VDW>
-15.09

>  <SCORE.INTER.norm>
-0.487788

>  <SCORE.INTRA>
-0.353096

>  <SCORE.INTRA.DIHEDRAL>
-0.792802

>  <SCORE.INTRA.DIHEDRAL.0>
2.54655

>  <SCORE.INTRA.POLAR>
0

>  <SCORE.INTRA.POLAR.0>
0

>  <SCORE.INTRA.REPUL>
0

>  <SCORE.INTRA.REPUL.0>
0

>  <SCORE.INTRA.SOLV>
1.84285

>  <SCORE.INTRA.SOLV.lig_0>
-56.4922

>  <SCORE.INTRA.VDW>
-0.878118

>  <SCORE.INTRA.VDW.0>
-0.696801

>  <SCORE.INTRA.norm>
-0.0160498

>  <SCORE.RESTR>
0

>  <SCORE.RESTR.CAVITY>
0

>  <SCORE.RESTR.norm>
0

>  <SCORE.SYSTEM>
0

>  <SCORE.SYSTEM.CONST>
0

>  <SCORE.SYSTEM.DIHEDRAL>
0

>  <SCORE.SYSTEM.SOLV>
0

>  <SCORE.SYSTEM.norm>
0

>  <SCORE.heavy>
22

>  <SCORE.norm>
-0.503838

>  <RMSD>
25.244

$$$$
ligand
 OpenBabel02271912143D
libRbt.so/2013.1/901 2013/11/27
 22 24  0  0  0  0  0  0  0  0999 V2000
    6.9597   -3.5374   26.8572 N   0  0  0  0  0  0  0  0  0  0  0  0
    4.7994   -2.7145   27.4809 N   0  0  0  0  0  0  0  0  0  0  0  0
    6.0435   -3.0551   27.8556 C   0  0  0  0  0  0  0  0  0  0  0  0
    6.4522   -2.9609   29.1149 N   0  0  0  0  0  0  0  0  0  0  0  0
    3.6933   -1.5845   32.8787 O   0  0  0  0  0  0  0  0  0  0  0  0
    5.6101   -2.5130   30.0643 C   0  0  0  0  0  0  0  0  0  0  0  0
    4.2805   -2.1549   29.7059 C   0  0  0  0  0  0  0  0  0  0  0  0
    6.0593   -2.4240   31.3627 O   0  0  0  0  0  0  0  0  0  0  0  0
    3.2748   -1.6389   30.6133 N   0  0  0  0  0  0  0  0  0  0  0  0
    2.4165   -0.5638   30.0990 C   0  0  2  0  0  0  0  0  0  0  0  0
    1.8091   -0.9554   28.7883 C   0  0  0  0  0  0  0  0  0  0  0  0
    3.9125   -2.2608   28.3880 C   0  0  0  0  0  0  0  0  0  0  0  0
    2.5999   -1.9022   28.0043 N   0  0  0  0  0  0  0  0  0  0  0  0
    3.1425    0.7823   29.9240 C   0  0  0  0  0  0  0  0  0  0  0  0
    4.2379    0.6505   28.9711 N   0  0  0  0  0  0  0  0  0  0  0  0
    5.8660    4.0707   27.0341 C   0  0  0  0  0  0  0  0  0  0  0  0
    5.3473    3.0317   26.2797 C   0  0  0  0  0  0  0  0  0  0  0  0
    4.8060    1.8972   26.9148 C   0  0  0  0  0  0  0  0  0  0  0  0
    4.7936    1.8185   28.2991 C   0  0  0  0  0  0  0  0  0  0  0  0
    5.3156    2.8644   29.0546 C   0  0  0  0  0  0  0  0  0  0  0  0
    5.8503    3.9902   28.4230 C   0  0  0  0  0  0  0  0  0  0  0  0
    3.0888   -2.0924   31.9492 C   0  0  0  0  0  0  0  0  0  0  0  0
  1  3  1  0  0  0  0
  2  3  2  0  0  0  0
  2 12  1  0  0  0  0
  3  4  1  0  0  0  0
  4  6  1  0  0  0  0
  5 22  1  0  0  0  0
  6  7  1  0  0  0  0
  6  8  2  0  0  0  0
  7 12  2  0  0  0  0
  7  9  1  0  0  0  0
  9 10  1  0  0  0  0
  9 22  1  0  0  0  0
 10 11  1  0  0  0  0
 10 14  1  6  0  0  0
 11 13  1  0  0  0  0
 12 13  1  0  0  0  0
 14 15  1  0  0  0  0
 15 19  1  0  0  0  0
 16 17  2  0  0  0  0
 16 21  1  0  0  0  0
 17 18  1  0  0  0  0
 18 19  2  0  0  0  0
 19 20  1  0  0  0  0
 20 21  2  0  0  0  0
M  END
>  <CHROM.1>
89.09530875,60.82067816,159.64394626,-122.08053189,4.53041600,-0.61952096
29.09693710,-1.76891551,0.92660539,-0.26832551

>  <Name>
ligand

>  <RI>
0

>  <Rbt.Current_Directory>
/home/itssahil/PROJECTS/Mol_Feturizer/Test_systems_manuscript/rnas/3sd3

>  <Rbt.Executable>
rbdock ($Id: //depot/dev/client3/rdock/2013.1/src/exe/rbdock.cxx#4 $)

>  <Rbt.Library>
libRbt.so (2013.1, Build901 2013/11/27)

>  <Rbt.Parameter_File>
/export/apps/rDock/src/rDock_2013.1_src/data/scripts/dock_solv.prm

>  <Rbt.Receptor>
prm/blind_docking_40.prm

>  <SCORE>
-10.8097

>  <SCORE.INTER>
-10.5146

>  <SCORE.INTER.CONST>
1

>  <SCORE.INTER.POLAR>
0

>  <SCORE.INTER.ROT>
4

>  <SCORE.INTER.SOLV>
11.2367

>  <SCORE.INTER.VDW>
-17.022

>  <SCORE.INTER.norm>
-0.477936

>  <SCORE.INTRA>
-0.295114

>  <SCORE.INTRA.DIHEDRAL>
-0.626052

>  <SCORE.INTRA.DIHEDRAL.0>
2.54655

>  <SCORE.INTRA.POLAR>
0

>  <SCORE.INTRA.POLAR.0>
0

>  <SCORE.INTRA.REPUL>
0

>  <SCORE.INTRA.REPUL.0>
0

>  <SCORE.INTRA.SOLV>
2.00221

>  <SCORE.INTRA.SOLV.lig_0>
-56.4922

>  <SCORE.INTRA.VDW>
-0.983196

>  <SCORE.INTRA.VDW.0>
-0.696801

>  <SCORE.INTRA.norm>
-0.0134143

>  <SCORE.RESTR>
0

>  <SCORE.RESTR.CAVITY>
0

>  <SCORE.RESTR.norm>
0

>  <SCORE.SYSTEM>
0

>  <SCORE.SYSTEM.CONST>
0

>  <SCORE.SYSTEM.DIHEDRAL>
0

>  <SCORE.SYSTEM.SOLV>
0

>  <SCORE.SYSTEM.norm>
0

>  <SCORE.heavy>
22

>  <SCORE.norm>
-0.491351

>  <RMSD>
25.249

$$$$
ligand
 OpenBabel02271912143D
libRbt.so/2013.1/901 2013/11/27
 22 24  0  0  0  0  0  0  0  0999 V2000
    2.5022   -3.4442   26.4137 N   0  0  0  0  0  0  0  0  0  0  0  0
    1.7649   -2.1032   28.2551 N   0  0  0  0  0  0  0  0  0  0  0  0
    2.7510   -2.8122   27.6816 C   0  0  0  0  0  0  0  0  0  0  0  0
    3.9443   -2.9475   28.2470 N   0  0  0  0  0  0  0  0  0  0  0  0
    3.4693   -2.0354   33.3495 O   0  0  0  0  0  0  0  0  0  0  0  0
    4.1969   -2.3650   29.4337 C   0  0  0  0  0  0  0  0  0  0  0  0
    3.1716   -1.6166   30.0765 C   0  0  0  0  0  0  0  0  0  0  0  0
    5.4430   -2.5201   29.9981 O   0  0  0  0  0  0  0  0  0  0  0  0
    3.3059   -0.9192   31.3401 N   0  0  0  0  0  0  0  0  0  0  0  0
    2.6573    0.3950   31.4365 C   0  0  2  0  0  0  0  0  0  0  0  0
    1.2223    0.3067   31.0199 C   0  0  0  0  0  0  0  0  0  0  0  0
    1.9596   -1.4987   29.4435 C   0  0  0  0  0  0  0  0  0  0  0  0
    0.9275   -0.7524   30.0568 N   0  0  0  0  0  0  0  0  0  0  0  0
    3.3462    1.4916   30.6043 C   0  0  0  0  0  0  0  0  0  0  0  0
    3.4426    1.0863   29.2073 N   0  0  0  0  0  0  0  0  0  0  0  0
    7.1294    1.3608   27.1017 C   0  0  0  0  0  0  0  0  0  0  0  0
    6.0964    2.2327   26.8015 C   0  0  0  0  0  0  0  0  0  0  0  0
    4.8738    2.1478   27.4954 C   0  0  0  0  0  0  0  0  0  0  0  0
    4.7024    1.1876   28.4809 C   0  0  0  0  0  0  0  0  0  0  0  0
    5.7425    0.3127   28.7806 C   0  0  0  0  0  0  0  0  0  0  0  0
    6.9555    0.3997   28.0927 C   0  0  0  0  0  0  0  0  0  0  0  0
    4.0291   -1.4167   32.4600 C   0  0  0  0  0  0  0  0  0  0  0  0
  1  3  1  0  0  0  0
  2  3  2  0  0  0  0
  2 12  1  0  0  0  0
  3  4  1  0  0  0  0
  4  6  1  0  0  0  0
  5 22  1  0  0  0  0
  6  7  1  0  0  0  0
  6  8  2  0  0  0  0
  7 12  2  0  0  0  0
  7  9  1  0  0  0  0
  9 10  1  0  0  0  0
  9 22  1  0  0  0  0
 10 11  1  0  0  0  0
 10 14  1  6  0  0  0
 11 13  1  0  0  0  0
 12 13  1  0  0  0  0
 14 15  1  0  0  0  0
 15 19  1  0  0  0  0
 16 17  2  0  0  0  0
 16 21  1  0  0  0  0
 17 18  1  0  0  0  0
 18 19  2  0  0  0  0
 19 20  1  0  0  0  0
 20 21  2  0  0  0  0
M  END
>  <CHROM.1>
-94.59715881,55.75493361,-130.87751337,-108.52960549,3.74863847,-0.67775742
29.44811898,2.90088024,0.89868565,0.98442396

>  <Name>
ligand

>  <RI>
0

>  <Rbt.Current_Directory>
/home/itssahil/PROJECTS/Mol_Feturizer/Test_systems_manuscript/rnas/3sd3

>  <Rbt.Executable>
rbdock ($Id: //depot/dev/client3/rdock/2013.1/src/exe/rbdock.cxx#4 $)

>  <Rbt.Library>
libRbt.so (2013.1, Build901 2013/11/27)

>  <Rbt.Parameter_File>
/export/apps/rDock/src/rDock_2013.1_src/data/scripts/dock_solv.prm

>  <Rbt.Receptor>
prm/blind_docking_100.prm

>  <SCORE>
-10.0645

>  <SCORE.INTER>
-9.14973

>  <SCORE.INTER.CONST>
1

>  <SCORE.INTER.POLAR>
0

>  <SCORE.INTER.ROT>
4

>  <SCORE.INTER.SOLV>
9.8976

>  <SCORE.INTER.VDW>
-15.6657

>  <SCORE.INTER.norm>
-0.415897

>  <SCORE.INTRA>
-0.914767

>  <SCORE.INTRA.DIHEDRAL>
0.280217

>  <SCORE.INTRA.DIHEDRAL.0>
2.54655

>  <SCORE.INTRA.POLAR>
0

>  <SCORE.INTRA.POLAR.0>
0

>  <SCORE.INTRA.REPUL>
0

>  <SCORE.INTRA.REPUL.0>
0

>  <SCORE.INTRA.SOLV>
1.95004

>  <SCORE.INTRA.SOLV.lig_0>
-56.4922

>  <SCORE.INTRA.VDW>
-2.02989

>  <SCORE.INTRA.VDW.0>
-0.696801

>  <SCORE.INTRA.norm>
-0.0415803

>  <SCORE.RESTR>
0

>  <SCORE.RESTR.CAVITY>
0

>  <SCORE.RESTR.norm>
0

>  <SCORE.SYSTEM>
0

>  <SCORE.SYSTEM.CONST>
0

>  <SCORE.SYSTEM.DIHEDRAL>
0

>  <SCORE.SYSTEM.SOLV>
0

>  <SCORE.SYSTEM.norm>
0

>  <SCORE.heavy>
22

>  <SCORE.norm>
-0.457477

>  <RMSD>
25.459

$$$$
ligand
 OpenBabel02271912143D
libRbt.so/2013.1/901 2013/11/27
 22 24  0  0  0  0  0  0  0  0999 V2000
    8.2343   -2.0937   31.0387 N   0  0  0  0  0  0  0  0  0  0  0  0
    6.2817   -2.4831   29.7088 N   0  0  0  0  0  0  0  0  0  0  0  0
    6.8317   -1.8997   30.7865 C   0  0  0  0  0  0  0  0  0  0  0  0
    6.1228   -1.1522   31.6234 N   0  0  0  0  0  0  0  0  0  0  0  0
    0.5570   -1.4197   30.4588 O   0  0  0  0  0  0  0  0  0  0  0  0
    4.8088   -0.9592   31.4058 C   0  0  0  0  0  0  0  0  0  0  0  0
    4.1898   -1.5723   30.2809 C   0  0  0  0  0  0  0  0  0  0  0  0
    4.0967   -0.1788   32.2887 O   0  0  0  0  0  0  0  0  0  0  0  0
    2.7951   -1.4360   29.9103 N   0  0  0  0  0  0  0  0  0  0  0  0
    2.5070   -1.3037   28.4763 C   0  0  2  0  0  0  0  0  0  0  0  0
    3.1649   -2.4034   27.7026 C   0  0  0  0  0  0  0  0  0  0  0  0
    4.9706   -2.3262   29.4409 C   0  0  0  0  0  0  0  0  0  0  0  0
    4.3816   -2.9381   28.3108 N   0  0  0  0  0  0  0  0  0  0  0  0
    2.9376    0.0473   27.8770 C   0  0  0  0  0  0  0  0  0  0  0  0
    4.3190    0.3462   28.2342 N   0  0  0  0  0  0  0  0  0  0  0  0
    5.9809    4.2053   27.5659 C   0  0  0  0  0  0  0  0  0  0  0  0
    5.6071    3.4188   26.4892 C   0  0  0  0  0  0  0  0  0  0  0  0
    5.0555    2.1408   26.7036 C   0  0  0  0  0  0  0  0  0  0  0  0
    4.8875    1.6672   27.9959 C   0  0  0  0  0  0  0  0  0  0  0  0
    5.2639    2.4600   29.0761 C   0  0  0  0  0  0  0  0  0  0  0  0
    5.8090    3.7285   28.8617 C   0  0  0  0  0  0  0  0  0  0  0  0
    1.7162   -1.4057   30.8376 C   0  0  0  0  0  0  0  0  0  0  0  0
  1  3  1  0  0  0  0
  2  3  2  0  0  0  0
  2 12  1  0  0  0  0
  3  4  1  0  0  0  0
  4  6  1  0  0  0  0
  5 22  1  0  0  0  0
  6  7  1  0  0  0  0
  6  8  2  0  0  0  0
  7 12  2  0  0  0  0
  7  9  1  0  0  0  0
  9 10  1  0  0  0  0
  9 22  1  0  0  0  0
 10 11  1  0  0  0  0
 10 14  1  6  0  0  0
 11 13  1  0  0  0  0
 12 13  1  0  0  0  0
 14 15  1  0  0  0  0
 15 19  1  0  0  0  0
 16 17  2  0  0  0  0
 16 21  1  0  0  0  0
 17 18  1  0  0  0  0
 18 19  2  0  0  0  0
 19 20  1  0  0  0  0
 20 21  2  0  0  0  0
M  END
>  <CHROM.1>
-172.79035617,50.24512027,-168.87939393,-65.50243678,4.49207466,-0.34849791
29.38396868,-1.85178958,-0.27139497,-0.57674471

>  <Name>
ligand

>  <RI>
0

>  <Rbt.Current_Directory>
/home/itssahil/PROJECTS/Mol_Feturizer/Test_systems_manuscript/rnas/3sd3

>  <Rbt.Executable>
rbdock ($Id: //depot/dev/client3/rdock/2013.1/src/exe/rbdock.cxx#4 $)

>  <Rbt.Library>
libRbt.so (2013.1, Build901 2013/11/27)

>  <Rbt.Parameter_File>
/export/apps/rDock/src/rDock_2013.1_src/data/scripts/dock_solv.prm

>  <Rbt.Receptor>
prm/blind_docking_40.prm

>  <SCORE>
-8.93811

>  <SCORE.INTER>
-8.90456

>  <SCORE.INTER.CONST>
1

>  <SCORE.INTER.POLAR>
0

>  <SCORE.INTER.ROT>
4

>  <SCORE.INTER.SOLV>
8.53108

>  <SCORE.INTER.VDW>
-15.0467

>  <SCORE.INTER.norm>
-0.404753

>  <SCORE.INTRA>
-0.0335532

>  <SCORE.INTRA.DIHEDRAL>
-0.502547

>  <SCORE.INTRA.DIHEDRAL.0>
2.54655

>  <SCORE.INTRA.POLAR>
0

>  <SCORE.INTRA.POLAR.0>
0

>  <SCORE.INTRA.REPUL>
0

>  <SCORE.INTRA.REPUL.0>
0

>  <SCORE.INTRA.SOLV>
1.89976

>  <SCORE.INTRA.SOLV.lig_0>
-56.4922

>  <SCORE.INTRA.VDW>
-0.732157

>  <SCORE.INTRA.VDW.0>
-0.696801

>  <SCORE.INTRA.norm>
-0.00152515

>  <SCORE.RESTR>
0

>  <SCORE.RESTR.CAVITY>
0

>  <SCORE.RESTR.norm>
0

>  <SCORE.SYSTEM>
0

>  <SCORE.SYSTEM.CONST>
0

>  <SCORE.SYSTEM.DIHEDRAL>
0

>  <SCORE.SYSTEM.SOLV>
0

>  <SCORE.SYSTEM.norm>
0

>  <SCORE.heavy>
22

>  <SCORE.norm>
-0.406278

>  <RMSD>
25.467

$$$$
ligand
 OpenBabel02271912143D
libRbt.so/2013.1/901 2013/11/27
 22 24  0  0  0  0  0  0  0  0999 V2000
    0.1474    0.5233   29.8770 N   0  0  0  0  0  0  0  0  0  0  0  0
    2.2367   -0.5515   30.3382 N   0  0  0  0  0  0  0  0  0  0  0  0
    1.2882   -0.2363   29.4408 C   0  0  0  0  0  0  0  0  0  0  0  0
    1.3710   -0.6033   28.1679 N   0  0  0  0  0  0  0  0  0  0  0  0
    3.7767   -4.3035   27.3435 O   0  0  0  0  0  0  0  0  0  0  0  0
    2.4297   -1.3154   27.7400 C   0  0  0  0  0  0  0  0  0  0  0  0
    3.4476   -1.6780   28.6657 C   0  0  0  0  0  0  0  0  0  0  0  0
    2.4915   -1.6826   26.4145 O   0  0  0  0  0  0  0  0  0  0  0  0
    4.6503   -2.4209   28.3450 N   0  0  0  0  0  0  0  0  0  0  0  0
    5.8876   -1.9828   29.0038 C   0  0  2  0  0  0  0  0  0  0  0  0
    5.6915   -1.8887   30.4848 C   0  0  0  0  0  0  0  0  0  0  0  0
    3.3187   -1.2637   29.9677 C   0  0  0  0  0  0  0  0  0  0  0  0
    4.3212   -1.6029   30.9050 N   0  0  0  0  0  0  0  0  0  0  0  0
    6.4222   -0.6338   28.4900 C   0  0  0  0  0  0  0  0  0  0  0  0
    5.3817    0.3851   28.5555 N   0  0  0  0  0  0  0  0  0  0  0  0
    6.0480    4.2962   27.0191 C   0  0  0  0  0  0  0  0  0  0  0  0
    5.3714    3.3604   26.2549 C   0  0  0  0  0  0  0  0  0  0  0  0
    5.1467    2.0643   26.7580 C   0  0  0  0  0  0  0  0  0  0  0  0
    5.6055    1.7228   28.0212 C   0  0  0  0  0  0  0  0  0  0  0  0
    6.2851    2.6655   28.7869 C   0  0  0  0  0  0  0  0  0  0  0  0
    6.5053    3.9516   28.2872 C   0  0  0  0  0  0  0  0  0  0  0  0
    4.7014   -3.5137   27.4350 C   0  0  0  0  0  0  0  0  0  0  0  0
  1  3  1  0  0  0  0
  2  3  2  0  0  0  0
  2 12  1  0  0  0  0
  3  4  1  0  0  0  0
  4  6  1  0  0  0  0
  5 22  1  0  0  0  0
  6  7  1  0  0  0  0
  6  8  2  0  0  0  0
  7 12  2  0  0  0  0
  7  9  1  0  0  0  0
  9 10  1  0  0  0  0
  9 22  1  0  0  0  0
 10 11  1  0  0  0  0
 10 14  1  6  0  0  0
 11 13  1  0  0  0  0
 12 13  1  0  0  0  0
 14 15  1  0  0  0  0
 15 19  1  0  0  0  0
 16 17  2  0  0  0  0
 16 21  1  0  0  0  0
 17 18  1  0  0  0  0
 18 19  2  0  0  0  0
 19 20  1  0  0  0  0
 20 21  2  0  0  0  0
M  END
>  <CHROM.1>
-35.68750831,53.13696179,-174.84846473,98.18763599,4.16238907,-0.35404209
28.47040454,2.05398486,-0.17309425,3.04611991

>  <Name>
ligand

>  <RI>
0

>  <Rbt.Current_Directory>
/home/itssahil/PROJECTS/Mol_Feturizer/Test_systems_manuscript/rnas/3sd3

>  <Rbt.Executable>
rbdock ($Id: //depot/dev/client3/rdock/2013.1/src/exe/rbdock.cxx#4 $)

>  <Rbt.Library>
libRbt.so (2013.1, Build901 2013/11/27)

>  <Rbt.Parameter_File>
/export/apps/rDock/src/rDock_2013.1_src/data/scripts/dock_solv.prm

>  <Rbt.Receptor>
prm/blind_docking_40.prm

>  <SCORE>
-10.4062

>  <SCORE.INTER>
-9.81905

>  <SCORE.INTER.CONST>
1

>  <SCORE.INTER.POLAR>
0

>  <SCORE.INTER.ROT>
4

>  <SCORE.INTER.SOLV>
7.32622

>  <SCORE.INTER.VDW>
-15.2548

>  <SCORE.INTER.norm>
-0.44632

>  <SCORE.INTRA>
-0.587114

>  <SCORE.INTRA.DIHEDRAL>
-0.75804

>  <SCORE.INTRA.DIHEDRAL.0>
2.54655

>  <SCORE.INTRA.POLAR>
0

>  <SCORE.INTRA.POLAR.0>
0

>  <SCORE.INTRA.REPUL>
0

>  <SCORE.INTRA.REPUL.0>
0

>  <SCORE.INTRA.SOLV>
1.99471

>  <SCORE.INTRA.SOLV.lig_0>
-56.4922

>  <SCORE.INTRA.VDW>
-1.20545

>  <SCORE.INTRA.VDW.0>
-0.696801

>  <SCORE.INTRA.norm>
-0.026687

>  <SCORE.RESTR>
0

>  <SCORE.RESTR.CAVITY>
0

>  <SCORE.RESTR.norm>
0

>  <SCORE.SYSTEM>
0

>  <SCORE.SYSTEM.CONST>
0

>  <SCORE.SYSTEM.DIHEDRAL>
0

>  <SCORE.SYSTEM.SOLV>
0

>  <SCORE.SYSTEM.norm>
0

>  <SCORE.heavy>
22

>  <SCORE.norm>
-0.473007

>  <RMSD>
25.470

$$$$
ligand
 OpenBabel02271912143D
libRbt.so/2013.1/901 2013/11/27
 22 24  0  0  0  0  0  0  0  0999 V2000
    0.8835   -0.8197   26.7278 N   0  0  0  0  0  0  0  0  0  0  0  0
    1.7090   -1.3013   28.9232 N   0  0  0  0  0  0  0  0  0  0  0  0
    1.9094   -1.3332   27.5954 C   0  0  0  0  0  0  0  0  0  0  0  0
    3.0214   -1.8226   27.0609 N   0  0  0  0  0  0  0  0  0  0  0  0
    5.1165   -5.0455   30.0994 O   0  0  0  0  0  0  0  0  0  0  0  0
    3.9929   -2.3088   27.8552 C   0  0  0  0  0  0  0  0  0  0  0  0
    3.8096   -2.3026   29.2662 C   0  0  0  0  0  0  0  0  0  0  0  0
    5.1367   -2.8098   27.2753 O   0  0  0  0  0  0  0  0  0  0  0  0
    4.7741   -2.7711   30.2416 N   0  0  0  0  0  0  0  0  0  0  0  0
    4.9077   -1.9738   31.4677 C   0  0  2  0  0  0  0  0  0  0  0  0
    3.5692   -1.7489   32.0989 C   0  0  0  0  0  0  0  0  0  0  0  0
    2.6461   -1.7751   29.7675 C   0  0  0  0  0  0  0  0  0  0  0  0
    2.4437   -1.7485   31.1664 N   0  0  0  0  0  0  0  0  0  0  0  0
    5.5871   -0.6094   31.2519 C   0  0  0  0  0  0  0  0  0  0  0  0
    5.9473   -0.0113   32.5317 N   0  0  0  0  0  0  0  0  0  0  0  0
    3.1952    2.4366   34.6612 C   0  0  0  0  0  0  0  0  0  0  0  0
    4.0257    3.0003   33.7073 C   0  0  0  0  0  0  0  0  0  0  0  0
    4.9382    2.1955   32.9981 C   0  0  0  0  0  0  0  0  0  0  0  0
    5.0074    0.8349   33.2565 C   0  0  0  0  0  0  0  0  0  0  0  0
    4.1713    0.2711   34.2157 C   0  0  0  0  0  0  0  0  0  0  0  0
    3.2650    1.0707   34.9168 C   0  0  0  0  0  0  0  0  0  0  0  0
    5.5925   -3.9230   30.0737 C   0  0  0  0  0  0  0  0  0  0  0  0
  1  3  1  0  0  0  0
  2  3  2  0  0  0  0
  2 12  1  0  0  0  0
  3  4  1  0  0  0  0
  4  6  1  0  0  0  0
  5 22  1  0  0  0  0
  6  7  1  0  0  0  0
  6  8  2  0  0  0  0
  7 12  2  0  0  0  0
  7  9  1  0  0  0  0
  9 10  1  0  0  0  0
  9 22  1  0  0  0  0
 10 11  1  0  0  0  0
 10 14  1  6  0  0  0
 11 13  1  0  0  0  0
 12 13  1  0  0  0  0
 14 15  1  0  0  0  0
 15 19  1  0  0  0  0
 16 17  2  0  0  0  0
 16 21  1  0  0  0  0
 17 18  1  0  0  0  0
 18 19  2  0  0  0  0
 19 20  1  0  0  0  0
 20 21  2  0  0  0  0
M  END
>  <CHROM.1>
-70.05482020,-167.54694221,-88.57561758,-87.22751490,3.92032329,-1.14366952
30.67747514,1.72361073,0.75245934,-2.27534122

>  <Name>
ligand

>  <RI>
0

>  <Rbt.Current_Directory>
/home/itssahil/PROJECTS/Mol_Feturizer/Test_systems_manuscript/rnas/3sd3

>  <Rbt.Executable>
rbdock ($Id: //depot/dev/client3/rdock/2013.1/src/exe/rbdock.cxx#4 $)

>  <Rbt.Library>
libRbt.so (2013.1, Build901 2013/11/27)

>  <Rbt.Parameter_File>
/export/apps/rDock/src/rDock_2013.1_src/data/scripts/dock_solv.prm

>  <Rbt.Receptor>
prm/blind_docking_80.prm

>  <SCORE>
-11.4731

>  <SCORE.INTER>
-10.7982

>  <SCORE.INTER.CONST>
1

>  <SCORE.INTER.POLAR>
0

>  <SCORE.INTER.ROT>
4

>  <SCORE.INTER.SOLV>
12.8293

>  <SCORE.INTER.VDW>
-17.7419

>  <SCORE.INTER.norm>
-0.490829

>  <SCORE.INTRA>
-0.674902

>  <SCORE.INTRA.DIHEDRAL>
0.205952

>  <SCORE.INTRA.DIHEDRAL.0>
2.54655

>  <SCORE.INTRA.POLAR>
0

>  <SCORE.INTRA.POLAR.0>
0

>  <SCORE.INTRA.REPUL>
0

>  <SCORE.INTRA.REPUL.0>
0

>  <SCORE.INTRA.SOLV>
-0.748154

>  <SCORE.INTRA.SOLV.lig_0>
-56.4922

>  <SCORE.INTRA.VDW>
-0.4038

>  <SCORE.INTRA.VDW.0>
-0.696801

>  <SCORE.INTRA.norm>
-0.0306773

>  <SCORE.RESTR>
0

>  <SCORE.RESTR.CAVITY>
0

>  <SCORE.RESTR.norm>
0

>  <SCORE.SYSTEM>
0

>  <SCORE.SYSTEM.CONST>
0

>  <SCORE.SYSTEM.DIHEDRAL>
0

>  <SCORE.SYSTEM.SOLV>
0

>  <SCORE.SYSTEM.norm>
0

>  <SCORE.heavy>
22

>  <SCORE.norm>
-0.521506

>  <RMSD>
25.495

$$$$
ligand
 OpenBabel02271912143D
libRbt.so/2013.1/901 2013/11/27
 22 24  0  0  0  0  0  0  0  0999 V2000
    5.2875    4.1487   30.7574 N   0  0  0  0  0  0  0  0  0  0  0  0
    4.0525    2.1051   30.9341 N   0  0  0  0  0  0  0  0  0  0  0  0
    4.7007    2.9836   30.1517 C   0  0  0  0  0  0  0  0  0  0  0  0
    4.8159    2.8104   28.8408 N   0  0  0  0  0  0  0  0  0  0  0  0
    1.1268   -0.9904   27.2709 O   0  0  0  0  0  0  0  0  0  0  0  0
    4.2730    1.7274   28.2545 C   0  0  0  0  0  0  0  0  0  0  0  0
    3.5681    0.7820   29.0506 C   0  0  0  0  0  0  0  0  0  0  0  0
    4.4076    1.5712   26.8933 O   0  0  0  0  0  0  0  0  0  0  0  0
    2.9532   -0.4364   28.5623 N   0  0  0  0  0  0  0  0  0  0  0  0
    3.0838   -1.6249   29.4152 C   0  0  2  0  0  0  0  0  0  0  0  0
    2.6428   -1.3218   30.8131 C   0  0  0  0  0  0  0  0  0  0  0  0
    3.4879    1.0032   30.4027 C   0  0  0  0  0  0  0  0  0  0  0  0
    2.8012    0.0739   31.2172 N   0  0  0  0  0  0  0  0  0  0  0  0
    4.5095   -2.2036   29.4620 C   0  0  0  0  0  0  0  0  0  0  0  0
    5.4922   -1.1309   29.5558 N   0  0  0  0  0  0  0  0  0  0  0  0
    8.2250   -0.3507   26.3896 C   0  0  0  0  0  0  0  0  0  0  0  0
    7.7816   -1.6429   26.6161 C   0  0  0  0  0  0  0  0  0  0  0  0
    6.8762   -1.9077   27.6618 C   0  0  0  0  0  0  0  0  0  0  0  0
    6.4285   -0.8727   28.4687 C   0  0  0  0  0  0  0  0  0  0  0  0
    6.8758    0.4249   28.2386 C   0  0  0  0  0  0  0  0  0  0  0  0
    7.7724    0.6863   27.1993 C   0  0  0  0  0  0  0  0  0  0  0  0
    2.2619   -0.5474   27.3236 C   0  0  0  0  0  0  0  0  0  0  0  0
  1  3  1  0  0  0  0
  2  3  2  0  0  0  0
  2 12  1  0  0  0  0
  3  4  1  0  0  0  0
  4  6  1  0  0  0  0
  5 22  1  0  0  0  0
  6  7  1  0  0  0  0
  6  8  2  0  0  0  0
  7 12  2  0  0  0  0
  7  9  1  0  0  0  0
  9 10  1  0  0  0  0
  9 22  1  0  0  0  0
 10 11  1  0  0  0  0
 10 14  1  1  0  0  0
 11 13  1  0  0  0  0
 12 13  1  0  0  0  0
 14 15  1  0  0  0  0
 15 19  1  0  0  0  0
 16 17  2  0  0  0  0
 16 21  1  0  0  0  0
 17 18  1  0  0  0  0
 18 19  2  0  0  0  0
 19 20  1  0  0  0  0
 20 21  2  0  0  0  0
M  END
>  <CHROM.1>
-126.72446764,41.73050109,-113.90778808,-31.13512179,4.59085589,0.24406130
28.80683444,-2.70336845,-0.40067206,-2.68986052

>  <Name>
ligand

>  <RI>
0

>  <Rbt.Current_Directory>
/home/itssahil/PROJECTS/Mol_Feturizer/Test_systems_manuscript/rnas/3sd3

>  <Rbt.Executable>
rbdock ($Id: //depot/dev/client3/rdock/2013.1/src/exe/rbdock.cxx#4 $)

>  <Rbt.Library>
libRbt.so (2013.1, Build901 2013/11/27)

>  <Rbt.Parameter_File>
/export/apps/rDock/src/rDock_2013.1_src/data/scripts/dock_solv.prm

>  <Rbt.Receptor>
prm/blind_docking_80.prm

>  <SCORE>
-8.77679

>  <SCORE.INTER>
-8.7056

>  <SCORE.INTER.CONST>
1

>  <SCORE.INTER.POLAR>
0

>  <SCORE.INTER.ROT>
4

>  <SCORE.INTER.SOLV>
6.20505

>  <SCORE.INTER.VDW>
-14.1388

>  <SCORE.INTER.norm>
-0.395709

>  <SCORE.INTRA>
-0.0711912

>  <SCORE.INTRA.DIHEDRAL>
1.33419

>  <SCORE.INTRA.DIHEDRAL.0>
2.54655

>  <SCORE.INTRA.POLAR>
0

>  <SCORE.INTRA.POLAR.0>
0

>  <SCORE.INTRA.REPUL>
0

>  <SCORE.INTRA.REPUL.0>
0

>  <SCORE.INTRA.SOLV>
2.1627

>  <SCORE.INTRA.SOLV.lig_0>
-56.4922

>  <SCORE.INTRA.VDW>
-1.81964

>  <SCORE.INTRA.VDW.0>
-0.696801

>  <SCORE.INTRA.norm>
-0.00323596

>  <SCORE.RESTR>
0

>  <SCORE.RESTR.CAVITY>
0

>  <SCORE.RESTR.norm>
0

>  <SCORE.SYSTEM>
0

>  <SCORE.SYSTEM.CONST>
0

>  <SCORE.SYSTEM.DIHEDRAL>
0

>  <SCORE.SYSTEM.SOLV>
0

>  <SCORE.SYSTEM.norm>
0

>  <SCORE.heavy>
22

>  <SCORE.norm>
-0.398945

>  <RMSD>
25.507

$$$$
ligand
 OpenBabel02271912143D
libRbt.so/2013.1/901 2013/11/27
 22 24  0  0  0  0  0  0  0  0999 V2000
    0.9716   -2.9260   25.3235 N   0  0  0  0  0  0  0  0  0  0  0  0
    0.7100   -1.9475   27.4931 N   0  0  0  0  0  0  0  0  0  0  0  0
    1.5236   -2.5119   26.5855 C   0  0  0  0  0  0  0  0  0  0  0  0
    2.8172   -2.6990   26.8167 N   0  0  0  0  0  0  0  0  0  0  0  0
    5.0990   -1.5707   31.0713 O   0  0  0  0  0  0  0  0  0  0  0  0
    3.3529   -2.3196   27.9915 C   0  0  0  0  0  0  0  0  0  0  0  0
    2.5183   -1.7297   28.9815 C   0  0  0  0  0  0  0  0  0  0  0  0
    4.6975   -2.5241   28.2056 O   0  0  0  0  0  0  0  0  0  0  0  0
    2.9585   -1.2546   30.2783 N   0  0  0  0  0  0  0  0  0  0  0  0
    2.3612   -0.0006   30.7552 C   0  0  2  0  0  0  0  0  0  0  0  0
    0.8675   -0.0678   30.6849 C   0  0  0  0  0  0  0  0  0  0  0  0
    1.1901   -1.5489   28.6872 C   0  0  0  0  0  0  0  0  0  0  0  0
    0.3416   -0.9562   29.6503 N   0  0  0  0  0  0  0  0  0  0  0  0
    2.8357    1.2464   29.9874 C   0  0  0  0  0  0  0  0  0  0  0  0
    4.2615    1.4638   30.1999 N   0  0  0  0  0  0  0  0  0  0  0  0
    6.9829    1.4159   26.9299 C   0  0  0  0  0  0  0  0  0  0  0  0
    7.2360    0.6421   28.0500 C   0  0  0  0  0  0  0  0  0  0  0  0
    6.3387    0.6527   29.1354 C   0  0  0  0  0  0  0  0  0  0  0  0
    5.1993    1.4412   29.0841 C   0  0  0  0  0  0  0  0  0  0  0  0
    4.9475    2.2178   27.9569 C   0  0  0  0  0  0  0  0  0  0  0  0
    5.8377    2.2044   26.8800 C   0  0  0  0  0  0  0  0  0  0  0  0
    3.9277   -1.9102   31.0880 C   0  0  0  0  0  0  0  0  0  0  0  0
  1  3  1  0  0  0  0
  2  3  2  0  0  0  0
  2 12  1  0  0  0  0
  3  4  1  0  0  0  0
  4  6  1  0  0  0  0
  5 22  1  0  0  0  0
  6  7  1  0  0  0  0
  6  8  2  0  0  0  0
  7 12  2  0  0  0  0
  7  9  1  0  0  0  0
  9 10  1  0  0  0  0
  9 22  1  0  0  0  0
 10 11  1  0  0  0  0
 10 14  1  6  0  0  0
 11 13  1  0  0  0  0
 12 13  1  0  0  0  0
 14 15  1  0  0  0  0
 15 19  1  0  0  0  0
 16 17  2  0  0  0  0
 16 21  1  0  0  0  0
 17 18  1  0  0  0  0
 18 19  2  0  0  0  0
 19 20  1  0  0  0  0
 20 21  2  0  0  0  0
M  END
>  <CHROM.1>
96.34313002,-64.82521412,118.84643393,-128.76869035,3.45223406,-0.64118395
28.77327862,-2.81601693,0.54764812,1.17995952

>  <Name>
ligand

>  <RI>
0

>  <Rbt.Current_Directory>
/home/itssahil/PROJECTS/Mol_Feturizer/Test_systems_manuscript/rnas/3sd3

>  <Rbt.Executable>
rbdock ($Id: //depot/dev/client3/rdock/2013.1/src/exe/rbdock.cxx#4 $)

>  <Rbt.Library>
libRbt.so (2013.1, Build901 2013/11/27)

>  <Rbt.Parameter_File>
/export/apps/rDock/src/rDock_2013.1_src/data/scripts/dock_solv.prm

>  <Rbt.Receptor>
prm/blind_docking_80.prm

>  <SCORE>
-9.80509

>  <SCORE.INTER>
-8.57057

>  <SCORE.INTER.CONST>
1

>  <SCORE.INTER.POLAR>
0

>  <SCORE.INTER.ROT>
4

>  <SCORE.INTER.SOLV>
5.18774

>  <SCORE.INTER.VDW>
-13.7096

>  <SCORE.INTER.norm>
-0.389571

>  <SCORE.INTRA>
-1.23452

>  <SCORE.INTRA.DIHEDRAL>
0.338376

>  <SCORE.INTRA.DIHEDRAL.0>
2.54655

>  <SCORE.INTRA.POLAR>
0

>  <SCORE.INTRA.POLAR.0>
0

>  <SCORE.INTRA.REPUL>
0

>  <SCORE.INTRA.REPUL.0>
0

>  <SCORE.INTRA.SOLV>
0.696308

>  <SCORE.INTRA.SOLV.lig_0>
-56.4922

>  <SCORE.INTRA.VDW>
-1.75186

>  <SCORE.INTRA.VDW.0>
-0.696801

>  <SCORE.INTRA.norm>
-0.0561144

>  <SCORE.RESTR>
0

>  <SCORE.RESTR.CAVITY>
0

>  <SCORE.RESTR.norm>
0

>  <SCORE.SYSTEM>
0

>  <SCORE.SYSTEM.CONST>
0

>  <SCORE.SYSTEM.DIHEDRAL>
0

>  <SCORE.SYSTEM.SOLV>
0

>  <SCORE.SYSTEM.norm>
0

>  <SCORE.heavy>
22

>  <SCORE.norm>
-0.445686

>  <RMSD>
25.545

$$$$
ligand
 OpenBabel02271912143D
libRbt.so/2013.1/901 2013/11/27
 22 24  0  0  0  0  0  0  0  0999 V2000
    1.2295   -1.8848   26.6925 N   0  0  0  0  0  0  0  0  0  0  0  0
    1.9575   -1.3739   28.9156 N   0  0  0  0  0  0  0  0  0  0  0  0
    2.2693   -1.8081   27.6833 C   0  0  0  0  0  0  0  0  0  0  0  0
    3.5035   -2.1676   27.3528 N   0  0  0  0  0  0  0  0  0  0  0  0
    6.6973   -2.5587   32.0232 O   0  0  0  0  0  0  0  0  0  0  0  0
    4.4904   -2.1042   28.2656 C   0  0  0  0  0  0  0  0  0  0  0  0
    4.1942   -1.6609   29.5847 C   0  0  0  0  0  0  0  0  0  0  0  0
    5.7619   -2.4821   27.8966 O   0  0  0  0  0  0  0  0  0  0  0  0
    5.1553   -1.5213   30.6608 N   0  0  0  0  0  0  0  0  0  0  0  0
    5.0031   -0.3461   31.5283 C   0  0  2  0  0  0  0  0  0  0  0  0
    3.6008   -0.2484   32.0426 C   0  0  0  0  0  0  0  0  0  0  0  0
    2.9040   -1.2905   29.8708 C   0  0  0  0  0  0  0  0  0  0  0  0
    2.5856   -0.8374   31.1715 N   0  0  0  0  0  0  0  0  0  0  0  0
    5.3721    0.9834   30.8456 C   0  0  0  0  0  0  0  0  0  0  0  0
    4.5219    1.2130   29.6839 N   0  0  0  0  0  0  0  0  0  0  0  0
    5.7234    3.8881   26.6015 C   0  0  0  0  0  0  0  0  0  0  0  0
    5.2656    2.6221   26.2771 C   0  0  0  0  0  0  0  0  0  0  0  0
    4.8655    1.7321   27.2926 C   0  0  0  0  0  0  0  0  0  0  0  0
    4.9314    2.1230   28.6213 C   0  0  0  0  0  0  0  0  0  0  0  0
    5.3918    3.3961   28.9442 C   0  0  0  0  0  0  0  0  0  0  0  0
    5.7863    4.2787   27.9354 C   0  0  0  0  0  0  0  0  0  0  0  0
    6.2238   -2.4282   30.9069 C   0  0  0  0  0  0  0  0  0  0  0  0
  1  3  1  0  0  0  0
  2  3  2  0  0  0  0
  2 12  1  0  0  0  0
  3  4  1  0  0  0  0
  4  6  1  0  0  0  0
  5 22  1  0  0  0  0
  6  7  1  0  0  0  0
  6  8  2  0  0  0  0
  7 12  2  0  0  0  0
  7  9  1  0  0  0  0
  9 10  1  0  0  0  0
  9 22  1  0  0  0  0
 10 11  1  0  0  0  0
 10 14  1  6  0  0  0
 11 13  1  0  0  0  0
 12 13  1  0  0  0  0
 14 15  1  0  0  0  0
 15 19  1  0  0  0  0
 16 17  2  0  0  0  0
 16 21  1  0  0  0  0
 17 18  1  0  0  0  0
 18 19  2  0  0  0  0
 19 20  1  0  0  0  0
 20 21  2  0  0  0  0
M  END
>  <CHROM.1>
-153.92173181,60.21966484,-159.00575383,131.07110177,4.44114387,-0.22908207
29.20068063,1.86458694,0.90390406,2.45115397

>  <Name>
ligand

>  <RI>
0

>  <Rbt.Current_Directory>
/home/itssahil/PROJECTS/Mol_Feturizer/Test_systems_manuscript/rnas/3sd3

>  <Rbt.Executable>
rbdock ($Id: //depot/dev/client3/rdock/2013.1/src/exe/rbdock.cxx#4 $)

>  <Rbt.Library>
libRbt.so (2013.1, Build901 2013/11/27)

>  <Rbt.Parameter_File>
/export/apps/rDock/src/rDock_2013.1_src/data/scripts/dock_solv.prm

>  <Rbt.Receptor>
prm/blind_docking_40.prm

>  <SCORE>
-9.73637

>  <SCORE.INTER>
-9.52552

>  <SCORE.INTER.CONST>
1

>  <SCORE.INTER.POLAR>
0

>  <SCORE.INTER.ROT>
4

>  <SCORE.INTER.SOLV>
5.22881

>  <SCORE.INTER.VDW>
-14.36

>  <SCORE.INTER.norm>
-0.432978

>  <SCORE.INTRA>
-0.210846

>  <SCORE.INTRA.DIHEDRAL>
-0.611195

>  <SCORE.INTRA.DIHEDRAL.0>
2.54655

>  <SCORE.INTRA.POLAR>
0

>  <SCORE.INTRA.POLAR.0>
0

>  <SCORE.INTRA.REPUL>
0

>  <SCORE.INTRA.REPUL.0>
0

>  <SCORE.INTRA.SOLV>
1.73886

>  <SCORE.INTRA.SOLV.lig_0>
-56.4922

>  <SCORE.INTRA.VDW>
-0.774676

>  <SCORE.INTRA.VDW.0>
-0.696801

>  <SCORE.INTRA.norm>
-0.00958391

>  <SCORE.RESTR>
0

>  <SCORE.RESTR.CAVITY>
0

>  <SCORE.RESTR.norm>
0

>  <SCORE.SYSTEM>
0

>  <SCORE.SYSTEM.CONST>
0

>  <SCORE.SYSTEM.DIHEDRAL>
0

>  <SCORE.SYSTEM.SOLV>
0

>  <SCORE.SYSTEM.norm>
0

>  <SCORE.heavy>
22

>  <SCORE.norm>
-0.442562

>  <RMSD>
25.576

$$$$
ligand
 OpenBabel02271912143D
libRbt.so/2013.1/901 2013/11/27
 22 24  0  0  0  0  0  0  0  0999 V2000
    0.9146   -1.7930   26.4330 N   0  0  0  0  0  0  0  0  0  0  0  0
    2.8272   -2.5497   27.6587 N   0  0  0  0  0  0  0  0  0  0  0  0
    2.1208   -1.5185   27.1669 C   0  0  0  0  0  0  0  0  0  0  0  0
    2.5005   -0.2580   27.3365 N   0  0  0  0  0  0  0  0  0  0  0  0
    6.6463    1.1398   29.6439 O   0  0  0  0  0  0  0  0  0  0  0  0
    3.6265    0.0199   28.0191 C   0  0  0  0  0  0  0  0  0  0  0  0
    4.4067   -1.0480   28.5436 C   0  0  0  0  0  0  0  0  0  0  0  0
    3.9974    1.3359   28.1814 O   0  0  0  0  0  0  0  0  0  0  0  0
    5.6252   -0.8997   29.3146 N   0  0  0  0  0  0  0  0  0  0  0  0
    5.8001   -1.8166   30.4485 C   0  0  2  0  0  0  0  0  0  0  0  0
    5.6075   -3.2358   30.0135 C   0  0  0  0  0  0  0  0  0  0  0  0
    3.9634   -2.3323   28.3495 C   0  0  0  0  0  0  0  0  0  0  0  0
    4.7156   -3.4107   28.8689 N   0  0  0  0  0  0  0  0  0  0  0  0
    4.8573   -1.5306   31.6313 C   0  0  0  0  0  0  0  0  0  0  0  0
    5.1038   -0.1983   32.1690 N   0  0  0  0  0  0  0  0  0  0  0  0
    2.1018    1.8756   34.3573 C   0  0  0  0  0  0  0  0  0  0  0  0
    2.1137    1.9364   32.9739 C   0  0  0  0  0  0  0  0  0  0  0  0
    3.1041    1.2514   32.2435 C   0  0  0  0  0  0  0  0  0  0  0  0
    4.0715    0.5153   32.9107 C   0  0  0  0  0  0  0  0  0  0  0  0
    4.0568    0.4560   34.3011 C   0  0  0  0  0  0  0  0  0  0  0  0
    3.0723    1.1343   35.0241 C   0  0  0  0  0  0  0  0  0  0  0  0
    6.6293    0.0737   29.0518 C   0  0  0  0  0  0  0  0  0  0  0  0
  1  3  1  0  0  0  0
  2  3  2  0  0  0  0
  2 12  1  0  0  0  0
  3  4  1  0  0  0  0
  4  6  1  0  0  0  0
  5 22  1  0  0  0  0
  6  7  1  0  0  0  0
  6  8  2  0  0  0  0
  7 12  2  0  0  0  0
  7  9  1  0  0  0  0
  9 10  1  0  0  0  0
  9 22  1  0  0  0  0
 10 11  1  0  0  0  0
 10 14  1  1  0  0  0
 11 13  1  0  0  0  0
 12 13  1  0  0  0  0
 14 15  1  0  0  0  0
 15 19  1  0  0  0  0
 16 17  2  0  0  0  0
 16 21  1  0  0  0  0
 17 18  1  0  0  0  0
 18 19  2  0  0  0  0
 19 20  1  0  0  0  0
 20 21  2  0  0  0  0
M  END
>  <CHROM.1>
95.42723894,-61.63480731,156.34109691,-84.35306074,4.05618213,-0.51485837
30.11163769,1.58412479,0.38044727,-2.00120970

>  <Name>
ligand

>  <RI>
0

>  <Rbt.Current_Directory>
/home/itssahil/PROJECTS/Mol_Feturizer/Test_systems_manuscript/rnas/3sd3

>  <Rbt.Executable>
rbdock ($Id: //depot/dev/client3/rdock/2013.1/src/exe/rbdock.cxx#4 $)

>  <Rbt.Library>
libRbt.so (2013.1, Build901 2013/11/27)

>  <Rbt.Parameter_File>
/export/apps/rDock/src/rDock_2013.1_src/data/scripts/dock_solv.prm

>  <Rbt.Receptor>
prm/blind_docking_80.prm

>  <SCORE>
-12.652

>  <SCORE.INTER>
-11.4133

>  <SCORE.INTER.CONST>
1

>  <SCORE.INTER.POLAR>
0

>  <SCORE.INTER.ROT>
4

>  <SCORE.INTER.SOLV>
4.49664

>  <SCORE.INTER.VDW>
-15.3744

>  <SCORE.INTER.norm>
-0.518787

>  <SCORE.INTRA>
-1.23872

>  <SCORE.INTRA.DIHEDRAL>
-0.526494

>  <SCORE.INTRA.DIHEDRAL.0>
2.54655

>  <SCORE.INTRA.POLAR>
0

>  <SCORE.INTRA.POLAR.0>
0

>  <SCORE.INTRA.REPUL>
0

>  <SCORE.INTRA.REPUL.0>
0

>  <SCORE.INTRA.SOLV>
0.573467

>  <SCORE.INTRA.SOLV.lig_0>
-56.4922

>  <SCORE.INTRA.VDW>
-1.2622

>  <SCORE.INTRA.VDW.0>
-0.696801

>  <SCORE.INTRA.norm>
-0.0563053

>  <SCORE.RESTR>
0

>  <SCORE.RESTR.CAVITY>
0

>  <SCORE.RESTR.norm>
0

>  <SCORE.SYSTEM>
0

>  <SCORE.SYSTEM.CONST>
0

>  <SCORE.SYSTEM.DIHEDRAL>
0

>  <SCORE.SYSTEM.SOLV>
0

>  <SCORE.SYSTEM.norm>
0

>  <SCORE.heavy>
22

>  <SCORE.norm>
-0.575092

>  <RMSD>
25.683

$$$$
ligand
 OpenBabel02271912143D
libRbt.so/2013.1/901 2013/11/27
 22 24  0  0  0  0  0  0  0  0999 V2000
    1.4067   -0.5332   28.8046 N   0  0  0  0  0  0  0  0  0  0  0  0
    3.6390   -0.9879   29.5415 N   0  0  0  0  0  0  0  0  0  0  0  0
    2.8171   -0.2529   28.7743 C   0  0  0  0  0  0  0  0  0  0  0  0
    3.2651    0.7208   27.9913 N   0  0  0  0  0  0  0  0  0  0  0  0
    8.0637   -0.0799   26.8757 O   0  0  0  0  0  0  0  0  0  0  0  0
    4.5813    0.9981   27.9478 C   0  0  0  0  0  0  0  0  0  0  0  0
    5.4829    0.2315   28.7377 C   0  0  0  0  0  0  0  0  0  0  0  0
    5.0196    2.0136   27.1280 O   0  0  0  0  0  0  0  0  0  0  0  0
    6.9170    0.4301   28.8084 N   0  0  0  0  0  0  0  0  0  0  0  0
    7.5343    0.2906   30.1337 C   0  0  2  0  0  0  0  0  0  0  0  0
    7.1385   -1.0073   30.7657 C   0  0  0  0  0  0  0  0  0  0  0  0
    4.9663   -0.7564   29.5382 C   0  0  0  0  0  0  0  0  0  0  0  0
    5.8401   -1.5260   30.3399 N   0  0  0  0  0  0  0  0  0  0  0  0
    7.1923    1.4362   31.1033 C   0  0  0  0  0  0  0  0  0  0  0  0
    5.7544    1.6754   31.1227 N   0  0  0  0  0  0  0  0  0  0  0  0
    3.4448    0.9184   34.6147 C   0  0  0  0  0  0  0  0  0  0  0  0
    3.9531   -0.1399   33.8803 C   0  0  0  0  0  0  0  0  0  0  0  0
    4.7192    0.1038   32.7240 C   0  0  0  0  0  0  0  0  0  0  0  0
    4.9642    1.4068   32.3178 C   0  0  0  0  0  0  0  0  0  0  0  0
    4.4521    2.4684   33.0580 C   0  0  0  0  0  0  0  0  0  0  0  0
    3.6941    2.2248   34.2061 C   0  0  0  0  0  0  0  0  0  0  0  0
    7.7383    0.7628   27.6951 C   0  0  0  0  0  0  0  0  0  0  0  0
  1  3  1  0  0  0  0
  2  3  2  0  0  0  0
  2 12  1  0  0  0  0
  3  4  1  0  0  0  0
  4  6  1  0  0  0  0
  5 22  1  0  0  0  0
  6  7  1  0  0  0  0
  6  8  2  0  0  0  0
  7 12  2  0  0  0  0
  7  9  1  0  0  0  0
  9 10  1  0  0  0  0
  9 22  1  0  0  0  0
 10 11  1  0  0  0  0
 10 14  1  1  0  0  0
 11 13  1  0  0  0  0
 12 13  1  0  0  0  0
 14 15  1  0  0  0  0
 15 19  1  0  0  0  0
 16 17  2  0  0  0  0
 16 21  1  0  0  0  0
 17 18  1  0  0  0  0
 18 19  2  0  0  0  0
 19 20  1  0  0  0  0
 20 21  2  0  0  0  0
M  END
>  <CHROM.1>
-77.21795671,49.23250652,113.45256906,-71.14340731,5.18471617,0.46302687
30.14399644,1.94093882,0.07010497,1.42359352

>  <Name>
ligand

>  <RI>
0

>  <Rbt.Current_Directory>
/home/itssahil/PROJECTS/Mol_Feturizer/Test_systems_manuscript/rnas/3sd3

>  <Rbt.Executable>
rbdock ($Id: //depot/dev/client3/rdock/2013.1/src/exe/rbdock.cxx#4 $)

>  <Rbt.Library>
libRbt.so (2013.1, Build901 2013/11/27)

>  <Rbt.Parameter_File>
/export/apps/rDock/src/rDock_2013.1_src/data/scripts/dock_solv.prm

>  <Rbt.Receptor>
prm/blind_docking_100.prm

>  <SCORE>
-8.17405

>  <SCORE.INTER>
-7.70855

>  <SCORE.INTER.CONST>
1

>  <SCORE.INTER.POLAR>
0

>  <SCORE.INTER.ROT>
4

>  <SCORE.INTER.SOLV>
7.1569

>  <SCORE.INTER.VDW>
-13.7913

>  <SCORE.INTER.norm>
-0.350389

>  <SCORE.INTRA>
-0.465498

>  <SCORE.INTRA.DIHEDRAL>
0.66577

>  <SCORE.INTRA.DIHEDRAL.0>
2.54655

>  <SCORE.INTRA.POLAR>
0

>  <SCORE.INTRA.POLAR.0>
0

>  <SCORE.INTRA.REPUL>
0

>  <SCORE.INTRA.REPUL.0>
0

>  <SCORE.INTRA.SOLV>
2.32759

>  <SCORE.INTRA.SOLV.lig_0>
-56.4922

>  <SCORE.INTRA.VDW>
-1.96218

>  <SCORE.INTRA.VDW.0>
-0.696801

>  <SCORE.INTRA.norm>
-0.021159

>  <SCORE.RESTR>
0

>  <SCORE.RESTR.CAVITY>
0

>  <SCORE.RESTR.norm>
0

>  <SCORE.SYSTEM>
0

>  <SCORE.SYSTEM.CONST>
0

>  <SCORE.SYSTEM.DIHEDRAL>
0

>  <SCORE.SYSTEM.SOLV>
0

>  <SCORE.SYSTEM.norm>
0

>  <SCORE.heavy>
22

>  <SCORE.norm>
-0.371548

>  <RMSD>
25.841

$$$$
ligand
 OpenBabel02271912143D
libRbt.so/2013.1/901 2013/11/27
 22 24  0  0  0  0  0  0  0  0999 V2000
    5.5594    2.8876   27.8063 N   0  0  0  0  0  0  0  0  0  0  0  0
    4.2594    1.2228   28.9339 N   0  0  0  0  0  0  0  0  0  0  0  0
    5.4115    1.5558   28.3290 C   0  0  0  0  0  0  0  0  0  0  0  0
    6.4145    0.6963   28.1988 N   0  0  0  0  0  0  0  0  0  0  0  0
    4.8409   -3.8561   28.2482 O   0  0  0  0  0  0  0  0  0  0  0  0
    6.2957   -0.5550   28.6800 C   0  0  0  0  0  0  0  0  0  0  0  0
    5.0845   -0.9465   29.3158 C   0  0  0  0  0  0  0  0  0  0  0  0
    7.3513   -1.4265   28.5326 O   0  0  0  0  0  0  0  0  0  0  0  0
    4.8231   -2.2478   29.8984 N   0  0  0  0  0  0  0  0  0  0  0  0
    4.0807   -2.2623   31.1656 C   0  0  2  0  0  0  0  0  0  0  0  0
    2.8213   -1.4620   31.0480 C   0  0  0  0  0  0  0  0  0  0  0  0
    4.0829   -0.0158   29.4340 C   0  0  0  0  0  0  0  0  0  0  0  0
    2.8732   -0.3769   30.0701 N   0  0  0  0  0  0  0  0  0  0  0  0
    4.8887   -1.7376   32.3662 C   0  0  0  0  0  0  0  0  0  0  0  0
    5.1989   -0.3238   32.1932 N   0  0  0  0  0  0  0  0  0  0  0  0
    3.3835    2.6569   34.6265 C   0  0  0  0  0  0  0  0  0  0  0  0
    3.2225    1.3177   34.9398 C   0  0  0  0  0  0  0  0  0  0  0  0
    3.8215    0.3262   34.1390 C   0  0  0  0  0  0  0  0  0  0  0  0
    4.5734    0.6907   33.0324 C   0  0  0  0  0  0  0  0  0  0  0  0
    4.7336    2.0375   32.7201 C   0  0  0  0  0  0  0  0  0  0  0  0
    4.1404    3.0201   33.5169 C   0  0  0  0  0  0  0  0  0  0  0  0
    5.2511   -3.4819   29.3341 C   0  0  0  0  0  0  0  0  0  0  0  0
  1  3  1  0  0  0  0
  2  3  2  0  0  0  0
  2 12  1  0  0  0  0
  3  4  1  0  0  0  0
  4  6  1  0  0  0  0
  5 22  1  0  0  0  0
  6  7  1  0  0  0  0
  6  8  2  0  0  0  0
  7 12  2  0  0  0  0
  7  9  1  0  0  0  0
  9 10  1  0  0  0  0
  9 22  1  0  0  0  0
 10 11  1  0  0  0  0
 10 14  1  1  0  0  0
 11 13  1  0  0  0  0
 12 13  1  0  0  0  0
 14 15  1  0  0  0  0
 15 19  1  0  0  0  0
 16 17  2  0  0  0  0
 16 21  1  0  0  0  0
 17 18  1  0  0  0  0
 18 19  2  0  0  0  0
 19 20  1  0  0  0  0
 20 21  2  0  0  0  0
M  END
>  <CHROM.1>
-63.54080243,65.08901927,110.47845261,9.48403012,4.72269799,-0.20774576,30.64073719
-0.71741430,1.20323914,0.20930388

>  <Name>
ligand

>  <RI>
0

>  <Rbt.Current_Directory>
/home/itssahil/PROJECTS/Mol_Feturizer/Test_systems_manuscript/rnas/3sd3

>  <Rbt.Executable>
rbdock ($Id: //depot/dev/client3/rdock/2013.1/src/exe/rbdock.cxx#4 $)

>  <Rbt.Library>
libRbt.so (2013.1, Build901 2013/11/27)

>  <Rbt.Parameter_File>
/export/apps/rDock/src/rDock_2013.1_src/data/scripts/dock_solv.prm

>  <Rbt.Receptor>
prm/blind_docking_80.prm

>  <SCORE>
-9.51515

>  <SCORE.INTER>
-9.66262

>  <SCORE.INTER.CONST>
1

>  <SCORE.INTER.POLAR>
0

>  <SCORE.INTER.ROT>
4

>  <SCORE.INTER.SOLV>
6.84399

>  <SCORE.INTER.VDW>
-14.9897

>  <SCORE.INTER.norm>
-0.43921

>  <SCORE.INTRA>
0.147468

>  <SCORE.INTRA.DIHEDRAL>
0.318297

>  <SCORE.INTRA.DIHEDRAL.0>
2.54655

>  <SCORE.INTRA.POLAR>
0

>  <SCORE.INTRA.POLAR.0>
0

>  <SCORE.INTRA.REPUL>
0

>  <SCORE.INTRA.REPUL.0>
0

>  <SCORE.INTRA.SOLV>
1.89412

>  <SCORE.INTRA.SOLV.lig_0>
-56.4922

>  <SCORE.INTRA.VDW>
-0.958741

>  <SCORE.INTRA.VDW.0>
-0.696801

>  <SCORE.INTRA.norm>
0.0067031

>  <SCORE.RESTR>
0

>  <SCORE.RESTR.CAVITY>
0

>  <SCORE.RESTR.norm>
0

>  <SCORE.SYSTEM>
0

>  <SCORE.SYSTEM.CONST>
0

>  <SCORE.SYSTEM.DIHEDRAL>
0

>  <SCORE.SYSTEM.SOLV>
0

>  <SCORE.SYSTEM.norm>
0

>  <SCORE.heavy>
22

>  <SCORE.norm>
-0.432507

>  <RMSD>
25.844

$$$$
ligand
 OpenBabel02271912143D
libRbt.so/2013.1/901 2013/11/27
 22 24  0  0  0  0  0  0  0  0999 V2000
   -1.1001   -0.8868   31.0094 N   0  0  0  0  0  0  0  0  0  0  0  0
    1.2197   -1.4112   31.2859 N   0  0  0  0  0  0  0  0  0  0  0  0
    0.1987   -1.1539   30.4520 C   0  0  0  0  0  0  0  0  0  0  0  0
    0.3507   -1.1387   29.1335 N   0  0  0  0  0  0  0  0  0  0  0  0
    4.4560   -3.9131   27.8995 O   0  0  0  0  0  0  0  0  0  0  0  0
    1.5575   -1.3872   28.5921 C   0  0  0  0  0  0  0  0  0  0  0  0
    2.6593   -1.6762   29.4447 C   0  0  0  0  0  0  0  0  0  0  0  0
    1.6883   -1.3645   27.2217 O   0  0  0  0  0  0  0  0  0  0  0  0
    4.0154   -1.9404   29.0061 N   0  0  0  0  0  0  0  0  0  0  0  0
    5.0926   -1.3586   29.8174 C   0  0  2  0  0  0  0  0  0  0  0  0
    4.9150   -1.7118   31.2611 C   0  0  0  0  0  0  0  0  0  0  0  0
    2.4503   -1.6682   30.8011 C   0  0  0  0  0  0  0  0  0  0  0  0
    3.5309   -1.9428   31.6701 N   0  0  0  0  0  0  0  0  0  0  0  0
    5.2075    0.1715   29.6942 C   0  0  0  0  0  0  0  0  0  0  0  0
    5.1663    0.5746   28.2939 N   0  0  0  0  0  0  0  0  0  0  0  0
    5.8864    4.6166   27.1781 C   0  0  0  0  0  0  0  0  0  0  0  0
    5.5084    3.6925   26.2186 C   0  0  0  0  0  0  0  0  0  0  0  0
    5.2676    2.3532   26.5815 C   0  0  0  0  0  0  0  0  0  0  0  0
    5.4109    1.9574   27.9027 C   0  0  0  0  0  0  0  0  0  0  0  0
    5.7908    2.8885   28.8648 C   0  0  0  0  0  0  0  0  0  0  0  0
    6.0272    4.2173   28.5034 C   0  0  0  0  0  0  0  0  0  0  0  0
    4.3532   -2.6988   27.8505 C   0  0  0  0  0  0  0  0  0  0  0  0
  1  3  1  0  0  0  0
  2  3  2  0  0  0  0
  2 12  1  0  0  0  0
  3  4  1  0  0  0  0
  4  6  1  0  0  0  0
  5 22  1  0  0  0  0
  6  7  1  0  0  0  0
  6  8  2  0  0  0  0
  7 12  2  0  0  0  0
  7  9  1  0  0  0  0
  9 10  1  0  0  0  0
  9 22  1  0  0  0  0
 10 11  1  0  0  0  0
 10 14  1  1  0  0  0
 11 13  1  0  0  0  0
 12 13  1  0  0  0  0
 14 15  1  0  0  0  0
 15 19  1  0  0  0  0
 16 17  2  0  0  0  0
 16 21  1  0  0  0  0
 17 18  1  0  0  0  0
 18 19  2  0  0  0  0
 19 20  1  0  0  0  0
 20 21  2  0  0  0  0
M  END
>  <CHROM.1>
-86.38669217,-47.11167038,-172.88905578,-174.94951663,3.57713487,-0.30845846
29.04789534,2.24564138,-0.29831088,2.91117168

>  <Name>
ligand

>  <RI>
0

>  <Rbt.Current_Directory>
/home/itssahil/PROJECTS/Mol_Feturizer/Test_systems_manuscript/rnas/3sd3

>  <Rbt.Executable>
rbdock ($Id: //depot/dev/client3/rdock/2013.1/src/exe/rbdock.cxx#4 $)

>  <Rbt.Library>
libRbt.so (2013.1, Build901 2013/11/27)

>  <Rbt.Parameter_File>
/export/apps/rDock/src/rDock_2013.1_src/data/scripts/dock_solv.prm

>  <Rbt.Receptor>
prm/blind_docking_60.prm

>  <SCORE>
-11.5674

>  <SCORE.INTER>
-11.2875

>  <SCORE.INTER.CONST>
1

>  <SCORE.INTER.POLAR>
0

>  <SCORE.INTER.ROT>
4

>  <SCORE.INTER.SOLV>
9.53607

>  <SCORE.INTER.VDW>
-16.9704

>  <SCORE.INTER.norm>
-0.513069

>  <SCORE.INTRA>
-0.279913

>  <SCORE.INTRA.DIHEDRAL>
-0.256681

>  <SCORE.INTRA.DIHEDRAL.0>
2.54655

>  <SCORE.INTRA.POLAR>
0

>  <SCORE.INTRA.POLAR.0>
0

>  <SCORE.INTRA.REPUL>
0

>  <SCORE.INTRA.REPUL.0>
0

>  <SCORE.INTRA.SOLV>
0.0200883

>  <SCORE.INTRA.SOLV.lig_0>
-56.4922

>  <SCORE.INTRA.VDW>
-0.161617

>  <SCORE.INTRA.VDW.0>
-0.696801

>  <SCORE.INTRA.norm>
-0.0127233

>  <SCORE.RESTR>
5.72313e-05

>  <SCORE.RESTR.CAVITY>
5.72313e-05

>  <SCORE.RESTR.norm>
2.60142e-06

>  <SCORE.SYSTEM>
0

>  <SCORE.SYSTEM.CONST>
0

>  <SCORE.SYSTEM.DIHEDRAL>
0

>  <SCORE.SYSTEM.SOLV>
0

>  <SCORE.SYSTEM.norm>
0

>  <SCORE.heavy>
22

>  <SCORE.norm>
-0.52579

>  <RMSD>
25.893

$$$$
ligand
 OpenBabel02271912143D
libRbt.so/2013.1/901 2013/11/27
 22 24  0  0  0  0  0  0  0  0999 V2000
    2.5456    3.1216   33.5476 N   0  0  0  0  0  0  0  0  0  0  0  0
    3.8661    1.1343   33.3475 N   0  0  0  0  0  0  0  0  0  0  0  0
    3.2165    2.1399   32.7383 C   0  0  0  0  0  0  0  0  0  0  0  0
    3.1745    2.2551   31.4167 N   0  0  0  0  0  0  0  0  0  0  0  0
    5.5850   -1.6653   28.4556 O   0  0  0  0  0  0  0  0  0  0  0  0
    3.7948    1.3464   30.6417 C   0  0  0  0  0  0  0  0  0  0  0  0
    4.4822    0.2605   31.2523 C   0  0  0  0  0  0  0  0  0  0  0  0
    3.7366    1.4895   29.2736 O   0  0  0  0  0  0  0  0  0  0  0  0
    5.2103   -0.7765   30.5484 N   0  0  0  0  0  0  0  0  0  0  0  0
    6.4780   -1.2114   31.1489 C   0  0  2  0  0  0  0  0  0  0  0  0
    6.2830   -1.5727   32.5884 C   0  0  0  0  0  0  0  0  0  0  0  0
    4.5043    0.1946   32.6230 C   0  0  0  0  0  0  0  0  0  0  0  0
    5.1886   -0.8692   33.2544 N   0  0  0  0  0  0  0  0  0  0  0  0
    7.6042   -0.1665   31.0506 C   0  0  0  0  0  0  0  0  0  0  0  0
    7.9060    0.1276   29.6550 N   0  0  0  0  0  0  0  0  0  0  0  0
    5.9693    3.3100   27.6001 C   0  0  0  0  0  0  0  0  0  0  0  0
    6.5065    3.5263   28.8579 C   0  0  0  0  0  0  0  0  0  0  0  0
    7.1497    2.4774   29.5431 C   0  0  0  0  0  0  0  0  0  0  0  0
    7.2443    1.2237   28.9582 C   0  0  0  0  0  0  0  0  0  0  0  0
    6.7035    1.0094   27.6938 C   0  0  0  0  0  0  0  0  0  0  0  0
    6.0676    2.0517   27.0145 C   0  0  0  0  0  0  0  0  0  0  0  0
    4.7847   -1.3699   29.3271 C   0  0  0  0  0  0  0  0  0  0  0  0
  1  3  1  0  0  0  0
  2  3  2  0  0  0  0
  2 12  1  0  0  0  0
  3  4  1  0  0  0  0
  4  6  1  0  0  0  0
  5 22  1  0  0  0  0
  6  7  1  0  0  0  0
  6  8  2  0  0  0  0
  7 12  2  0  0  0  0
  7  9  1  0  0  0  0
  9 10  1  0  0  0  0
  9 22  1  0  0  0  0
 10 11  1  0  0  0  0
 10 14  1  1  0  0  0
 11 13  1  0  0  0  0
 12 13  1  0  0  0  0
 14 15  1  0  0  0  0
 15 19  1  0  0  0  0
 16 17  2  0  0  0  0
 16 21  1  0  0  0  0
 17 18  1  0  0  0  0
 18 19  2  0  0  0  0
 19 20  1  0  0  0  0
 20 21  2  0  0  0  0
M  END
>  <CHROM.1>
142.15150077,-61.12105613,92.04498611,47.54711907,5.33675977,0.74989491,30.50858070
2.50651587,-0.86041295,2.40270487

>  <Name>
ligand

>  <RI>
0

>  <Rbt.Current_Directory>
/home/itssahil/PROJECTS/Mol_Feturizer/Test_systems_manuscript/rnas/3sd3

>  <Rbt.Executable>
rbdock ($Id: //depot/dev/client3/rdock/2013.1/src/exe/rbdock.cxx#4 $)

>  <Rbt.Library>
libRbt.so (2013.1, Build901 2013/11/27)

>  <Rbt.Parameter_File>
/export/apps/rDock/src/rDock_2013.1_src/data/scripts/dock_solv.prm

>  <Rbt.Receptor>
prm/blind_docking_80.prm

>  <SCORE>
-6.51072

>  <SCORE.INTER>
-4.18294

>  <SCORE.INTER.CONST>
1

>  <SCORE.INTER.POLAR>
0

>  <SCORE.INTER.ROT>
4

>  <SCORE.INTER.SOLV>
7.15802

>  <SCORE.INTER.VDW>
-11.4413

>  <SCORE.INTER.norm>
-0.190134

>  <SCORE.INTRA>
-2.32778

>  <SCORE.INTRA.DIHEDRAL>
-0.218151

>  <SCORE.INTRA.DIHEDRAL.0>
2.54655

>  <SCORE.INTRA.POLAR>
0

>  <SCORE.INTRA.POLAR.0>
0

>  <SCORE.INTRA.REPUL>
0

>  <SCORE.INTRA.REPUL.0>
0

>  <SCORE.INTRA.SOLV>
1.17603

>  <SCORE.INTRA.SOLV.lig_0>
-56.4922

>  <SCORE.INTRA.VDW>
-2.80672

>  <SCORE.INTRA.VDW.0>
-0.696801

>  <SCORE.INTRA.norm>
-0.105808

>  <SCORE.RESTR>
0

>  <SCORE.RESTR.CAVITY>
0

>  <SCORE.RESTR.norm>
0

>  <SCORE.SYSTEM>
0

>  <SCORE.SYSTEM.CONST>
0

>  <SCORE.SYSTEM.DIHEDRAL>
0

>  <SCORE.SYSTEM.SOLV>
0

>  <SCORE.SYSTEM.norm>
0

>  <SCORE.heavy>
22

>  <SCORE.norm>
-0.295942

>  <RMSD>
25.940

$$$$
ligand
 OpenBabel02271912143D
libRbt.so/2013.1/901 2013/11/27
 22 24  0  0  0  0  0  0  0  0999 V2000
    9.0823   -2.2417   29.0308 N   0  0  0  0  0  0  0  0  0  0  0  0
    7.7116   -0.4109   28.3224 N   0  0  0  0  0  0  0  0  0  0  0  0
    7.7876   -1.6384   28.8623 C   0  0  0  0  0  0  0  0  0  0  0  0
    6.7081   -2.3099   29.2438 N   0  0  0  0  0  0  0  0  0  0  0  0
    2.8978   -1.2836   27.1063 O   0  0  0  0  0  0  0  0  0  0  0  0
    5.4874   -1.7635   29.0937 C   0  0  0  0  0  0  0  0  0  0  0  0
    5.3679   -0.4697   28.5137 C   0  0  0  0  0  0  0  0  0  0  0  0
    4.3840   -2.4807   29.4983 O   0  0  0  0  0  0  0  0  0  0  0  0
    4.1259    0.2497   28.3109 N   0  0  0  0  0  0  0  0  0  0  0  0
    4.1529    1.6937   28.5774 C   0  0  2  0  0  0  0  0  0  0  0  0
    5.2796    2.3453   27.8381 C   0  0  0  0  0  0  0  0  0  0  0  0
    6.5164    0.1859   28.1467 C   0  0  0  0  0  0  0  0  0  0  0  0
    6.4254    1.4765   27.5769 N   0  0  0  0  0  0  0  0  0  0  0  0
    4.2714    2.0489   30.0705 C   0  0  0  0  0  0  0  0  0  0  0  0
    3.1176    1.5473   30.8069 N   0  0  0  0  0  0  0  0  0  0  0  0
    3.2668    0.9847   35.0214 C   0  0  0  0  0  0  0  0  0  0  0  0
    4.1433    0.2942   34.2014 C   0  0  0  0  0  0  0  0  0  0  0  0
    4.0998    0.4766   32.8056 C   0  0  0  0  0  0  0  0  0  0  0  0
    3.1758    1.3485   32.2498 C   0  0  0  0  0  0  0  0  0  0  0  0
    2.2963    2.0412   33.0766 C   0  0  0  0  0  0  0  0  0  0  0  0
    2.3422    1.8607   34.4613 C   0  0  0  0  0  0  0  0  0  0  0  0
    2.9061   -0.3537   27.8954 C   0  0  0  0  0  0  0  0  0  0  0  0
  1  3  1  0  0  0  0
  2  3  2  0  0  0  0
  2 12  1  0  0  0  0
  3  4  1  0  0  0  0
  4  6  1  0  0  0  0
  5 22  1  0  0  0  0
  6  7  1  0  0  0  0
  6  8  2  0  0  0  0
  7 12  2  0  0  0  0
  7  9  1  0  0  0  0
  9 10  1  0  0  0  0
  9 22  1  0  0  0  0
 10 11  1  0  0  0  0
 10 14  1  1  0  0  0
 11 13  1  0  0  0  0
 12 13  1  0  0  0  0
 14 15  1  0  0  0  0
 15 19  1  0  0  0  0
 16 17  2  0  0  0  0
 16 21  1  0  0  0  0
 17 18  1  0  0  0  0
 18 19  2  0  0  0  0
 19 20  1  0  0  0  0
 20 21  2  0  0  0  0
M  END
>  <CHROM.1>
-35.47920854,-61.97866117,159.39377609,-59.80880276,4.80771814,0.11919837
29.90283525,-0.86244253,-0.64792335,1.62964209

>  <Name>
ligand

>  <RI>
0

>  <Rbt.Current_Directory>
/home/itssahil/PROJECTS/Mol_Feturizer/Test_systems_manuscript/rnas/3sd3

>  <Rbt.Executable>
rbdock ($Id: //depot/dev/client3/rdock/2013.1/src/exe/rbdock.cxx#4 $)

>  <Rbt.Library>
libRbt.so (2013.1, Build901 2013/11/27)

>  <Rbt.Parameter_File>
/export/apps/rDock/src/rDock_2013.1_src/data/scripts/dock_solv.prm

>  <Rbt.Receptor>
prm/blind_docking_80.prm

>  <SCORE>
-9.46155

>  <SCORE.INTER>
-8.18057

>  <SCORE.INTER.CONST>
1

>  <SCORE.INTER.POLAR>
0

>  <SCORE.INTER.ROT>
4

>  <SCORE.INTER.SOLV>
6.90526

>  <SCORE.INTER.VDW>
-14.0221

>  <SCORE.INTER.norm>
-0.371844

>  <SCORE.INTRA>
-1.28099

>  <SCORE.INTRA.DIHEDRAL>
-0.610143

>  <SCORE.INTRA.DIHEDRAL.0>
2.54655

>  <SCORE.INTRA.POLAR>
0

>  <SCORE.INTRA.POLAR.0>
0

>  <SCORE.INTRA.REPUL>
0

>  <SCORE.INTRA.REPUL.0>
0

>  <SCORE.INTRA.SOLV>
-0.103776

>  <SCORE.INTRA.SOLV.lig_0>
-56.4922

>  <SCORE.INTRA.VDW>
-0.924029

>  <SCORE.INTRA.VDW.0>
-0.696801

>  <SCORE.INTRA.norm>
-0.0582267

>  <SCORE.RESTR>
0

>  <SCORE.RESTR.CAVITY>
0

>  <SCORE.RESTR.norm>
0

>  <SCORE.SYSTEM>
0

>  <SCORE.SYSTEM.CONST>
0

>  <SCORE.SYSTEM.DIHEDRAL>
0

>  <SCORE.SYSTEM.SOLV>
0

>  <SCORE.SYSTEM.norm>
0

>  <SCORE.heavy>
22

>  <SCORE.norm>
-0.430071

>  <RMSD>
25.976

$$$$
ligand
 OpenBabel02271912143D
libRbt.so/2013.1/901 2013/11/27
 22 24  0  0  0  0  0  0  0  0999 V2000
    0.9009   -2.9347   25.3168 N   0  0  0  0  0  0  0  0  0  0  0  0
    0.6188   -1.9906   27.4991 N   0  0  0  0  0  0  0  0  0  0  0  0
    1.4496   -2.4935   26.5711 C   0  0  0  0  0  0  0  0  0  0  0  0
    2.7571   -2.5956   26.7752 N   0  0  0  0  0  0  0  0  0  0  0  0
    3.6670   -2.2071   32.1425 O   0  0  0  0  0  0  0  0  0  0  0  0
    3.2900   -2.1895   27.9424 C   0  0  0  0  0  0  0  0  0  0  0  0
    2.4384   -1.6632   28.9533 C   0  0  0  0  0  0  0  0  0  0  0  0
    4.6493   -2.3057   28.1282 O   0  0  0  0  0  0  0  0  0  0  0  0
    2.8721   -1.1688   30.2450 N   0  0  0  0  0  0  0  0  0  0  0  0
    2.2026    0.0395   30.7439 C   0  0  2  0  0  0  0  0  0  0  0  0
    0.7156   -0.1265   30.7024 C   0  0  0  0  0  0  0  0  0  0  0  0
    1.0954   -1.5691   28.6867 C   0  0  0  0  0  0  0  0  0  0  0  0
    0.2291   -1.0408   29.6711 N   0  0  0  0  0  0  0  0  0  0  0  0
    2.5778    1.3205   29.9771 C   0  0  0  0  0  0  0  0  0  0  0  0
    4.0264    1.4708   29.9138 N   0  0  0  0  0  0  0  0  0  0  0  0
    5.8725    3.7018   26.7968 C   0  0  0  0  0  0  0  0  0  0  0  0
    5.3226    2.4604   26.5248 C   0  0  0  0  0  0  0  0  0  0  0  0
    4.7092    1.7172   27.5519 C   0  0  0  0  0  0  0  0  0  0  0  0
    4.6569    2.2283   28.8398 C   0  0  0  0  0  0  0  0  0  0  0  0
    5.2103    3.4764   29.1101 C   0  0  0  0  0  0  0  0  0  0  0  0
    5.8166    4.2134   28.0895 C   0  0  0  0  0  0  0  0  0  0  0  0
    3.8988   -1.7640   31.0302 C   0  0  0  0  0  0  0  0  0  0  0  0
  1  3  1  0  0  0  0
  2  3  2  0  0  0  0
  2 12  1  0  0  0  0
  3  4  1  0  0  0  0
  4  6  1  0  0  0  0
  5 22  1  0  0  0  0
  6  7  1  0  0  0  0
  6  8  2  0  0  0  0
  7 12  2  0  0  0  0
  7  9  1  0  0  0  0
  9 10  1  0  0  0  0
  9 22  1  0  0  0  0
 10 11  1  0  0  0  0
 10 14  1  6  0  0  0
 11 13  1  0  0  0  0
 12 13  1  0  0  0  0
 14 15  1  0  0  0  0
 15 19  1  0  0  0  0
 16 17  2  0  0  0  0
 16 21  1  0  0  0  0
 17 18  1  0  0  0  0
 18 19  2  0  0  0  0
 19 20  1  0  0  0  0
 20 21  2  0  0  0  0
M  END
>  <CHROM.1>
-118.73399688,-52.27976926,154.50167938,-72.43340587,3.09401700,-0.26329087
28.75841548,-3.08508120,0.97019529,1.46690630

>  <Name>
ligand

>  <RI>
0

>  <Rbt.Current_Directory>
/home/itssahil/PROJECTS/Mol_Feturizer/Test_systems_manuscript/rnas/3sd3

>  <Rbt.Executable>
rbdock ($Id: //depot/dev/client3/rdock/2013.1/src/exe/rbdock.cxx#4 $)

>  <Rbt.Library>
libRbt.so (2013.1, Build901 2013/11/27)

>  <Rbt.Parameter_File>
/export/apps/rDock/src/rDock_2013.1_src/data/scripts/dock_solv.prm

>  <Rbt.Receptor>
prm/blind_docking_40.prm

>  <SCORE>
-12.5778

>  <SCORE.INTER>
-11.3622

>  <SCORE.INTER.CONST>
1

>  <SCORE.INTER.POLAR>
0

>  <SCORE.INTER.ROT>
4

>  <SCORE.INTER.SOLV>
6.92475

>  <SCORE.INTER.VDW>
-16.1497

>  <SCORE.INTER.norm>
-0.516465

>  <SCORE.INTRA>
-1.21561

>  <SCORE.INTRA.DIHEDRAL>
-0.229794

>  <SCORE.INTRA.DIHEDRAL.0>
2.54655

>  <SCORE.INTRA.POLAR>
0

>  <SCORE.INTRA.POLAR.0>
0

>  <SCORE.INTRA.REPUL>
0

>  <SCORE.INTRA.REPUL.0>
0

>  <SCORE.INTRA.SOLV>
-0.114098

>  <SCORE.INTRA.SOLV.lig_0>
-56.4922

>  <SCORE.INTRA.VDW>
-1.04366

>  <SCORE.INTRA.VDW.0>
-0.696801

>  <SCORE.INTRA.norm>
-0.0552549

>  <SCORE.RESTR>
0

>  <SCORE.RESTR.CAVITY>
0

>  <SCORE.RESTR.norm>
0

>  <SCORE.SYSTEM>
0

>  <SCORE.SYSTEM.CONST>
0

>  <SCORE.SYSTEM.DIHEDRAL>
0

>  <SCORE.SYSTEM.SOLV>
0

>  <SCORE.SYSTEM.norm>
0

>  <SCORE.heavy>
22

>  <SCORE.norm>
-0.57172

>  <RMSD>
26.168

$$$$
ligand
 OpenBabel02271912143D
libRbt.so/2013.1/901 2013/11/27
 22 24  0  0  0  0  0  0  0  0999 V2000
    1.1956   -1.9486   26.6007 N   0  0  0  0  0  0  0  0  0  0  0  0
    1.2718   -0.7201   28.6545 N   0  0  0  0  0  0  0  0  0  0  0  0
    1.8354   -1.6368   27.8506 C   0  0  0  0  0  0  0  0  0  0  0  0
    2.9609   -2.2620   28.1732 N   0  0  0  0  0  0  0  0  0  0  0  0
    3.6213   -1.8814   33.4180 O   0  0  0  0  0  0  0  0  0  0  0  0
    3.5745   -1.9854   29.3386 C   0  0  0  0  0  0  0  0  0  0  0  0
    2.9992   -1.0288   30.2209 C   0  0  0  0  0  0  0  0  0  0  0  0
    4.7412   -2.6474   29.6488 O   0  0  0  0  0  0  0  0  0  0  0  0
    3.5573   -0.6158   31.4933 N   0  0  0  0  0  0  0  0  0  0  0  0
    3.4603    0.8128   31.8197 C   0  0  2  0  0  0  0  0  0  0  0  0
    2.0510    1.2939   31.6682 C   0  0  0  0  0  0  0  0  0  0  0  0
    1.8405   -0.4032   29.8341 C   0  0  0  0  0  0  0  0  0  0  0  0
    1.2539    0.5583   30.6885 N   0  0  0  0  0  0  0  0  0  0  0  0
    4.3814    1.7088   30.9722 C   0  0  0  0  0  0  0  0  0  0  0  0
    4.0905    1.5416   29.5535 N   0  0  0  0  0  0  0  0  0  0  0  0
    5.8983    4.0298   26.6138 C   0  0  0  0  0  0  0  0  0  0  0  0
    5.8370    4.4509   27.9316 C   0  0  0  0  0  0  0  0  0  0  0  0
    5.2408    3.6316   28.9097 C   0  0  0  0  0  0  0  0  0  0  0  0
    4.7118    2.4005   28.5529 C   0  0  0  0  0  0  0  0  0  0  0  0
    4.7750    1.9800   27.2278 C   0  0  0  0  0  0  0  0  0  0  0  0
    5.3688    2.7931   26.2590 C   0  0  0  0  0  0  0  0  0  0  0  0
    4.1950   -1.4933   32.4142 C   0  0  0  0  0  0  0  0  0  0  0  0
  1  3  1  0  0  0  0
  2  3  2  0  0  0  0
  2 12  1  0  0  0  0
  3  4  1  0  0  0  0
  4  6  1  0  0  0  0
  5 22  1  0  0  0  0
  6  7  1  0  0  0  0
  6  8  2  0  0  0  0
  7 12  2  0  0  0  0
  7  9  1  0  0  0  0
  9 10  1  0  0  0  0
  9 22  1  0  0  0  0
 10 11  1  0  0  0  0
 10 14  1  6  0  0  0
 11 13  1  0  0  0  0
 12 13  1  0  0  0  0
 14 15  1  0  0  0  0
 15 19  1  0  0  0  0
 16 17  2  0  0  0  0
 16 21  1  0  0  0  0
 17 18  1  0  0  0  0
 18 19  2  0  0  0  0
 19 20  1  0  0  0  0
 20 21  2  0  0  0  0
M  END
>  <CHROM.1>
-102.94244068,57.84554149,172.34750217,-20.53360751,3.55046262,0.28137991
29.54883081,2.45508492,1.05442346,1.74976716

>  <Name>
ligand

>  <RI>
0

>  <Rbt.Current_Directory>
/home/itssahil/PROJECTS/Mol_Feturizer/Test_systems_manuscript/rnas/3sd3

>  <Rbt.Executable>
rbdock ($Id: //depot/dev/client3/rdock/2013.1/src/exe/rbdock.cxx#4 $)

>  <Rbt.Library>
libRbt.so (2013.1, Build901 2013/11/27)

>  <Rbt.Parameter_File>
/export/apps/rDock/src/rDock_2013.1_src/data/scripts/dock_solv.prm

>  <Rbt.Receptor>
prm/blind_docking_80.prm

>  <SCORE>
-10.938

>  <SCORE.INTER>
-10.852

>  <SCORE.INTER.CONST>
1

>  <SCORE.INTER.POLAR>
0

>  <SCORE.INTER.ROT>
4

>  <SCORE.INTER.SOLV>
5.6462

>  <SCORE.INTER.VDW>
-15.3834

>  <SCORE.INTER.norm>
-0.493273

>  <SCORE.INTRA>
-0.086035

>  <SCORE.INTRA.DIHEDRAL>
-0.826939

>  <SCORE.INTRA.DIHEDRAL.0>
2.54655

>  <SCORE.INTRA.POLAR>
0

>  <SCORE.INTRA.POLAR.0>
0

>  <SCORE.INTRA.REPUL>
0

>  <SCORE.INTRA.REPUL.0>
0

>  <SCORE.INTRA.SOLV>
1.73149

>  <SCORE.INTRA.SOLV.lig_0>
-56.4922

>  <SCORE.INTRA.VDW>
-0.538312

>  <SCORE.INTRA.VDW.0>
-0.696801

>  <SCORE.INTRA.norm>
-0.00391068

>  <SCORE.RESTR>
0

>  <SCORE.RESTR.CAVITY>
0

>  <SCORE.RESTR.norm>
0

>  <SCORE.SYSTEM>
0

>  <SCORE.SYSTEM.CONST>
0

>  <SCORE.SYSTEM.DIHEDRAL>
0

>  <SCORE.SYSTEM.SOLV>
0

>  <SCORE.SYSTEM.norm>
0

>  <SCORE.heavy>
22

>  <SCORE.norm>
-0.497184

>  <RMSD>
26.448

$$$$
ligand
 OpenBabel02271912143D
libRbt.so/2013.1/901 2013/11/27
 22 24  0  0  0  0  0  0  0  0999 V2000
    0.9610   -2.0646   26.0158 N   0  0  0  0  0  0  0  0  0  0  0  0
    0.7264   -1.0686   28.1805 N   0  0  0  0  0  0  0  0  0  0  0  0
    1.5320   -1.6237   27.2601 C   0  0  0  0  0  0  0  0  0  0  0  0
    2.8347   -1.7775   27.4629 N   0  0  0  0  0  0  0  0  0  0  0  0
    3.7517   -1.8301   32.4576 O   0  0  0  0  0  0  0  0  0  0  0  0
    3.3882   -1.3725   28.6208 C   0  0  0  0  0  0  0  0  0  0  0  0
    2.5630   -0.7916   29.6238 C   0  0  0  0  0  0  0  0  0  0  0  0
    4.7419   -1.5429   28.8055 O   0  0  0  0  0  0  0  0  0  0  0  0
    3.0216   -0.2919   30.9048 N   0  0  0  0  0  0  0  0  0  0  0  0
    2.4056    0.9529   31.3824 C   0  0  2  0  0  0  0  0  0  0  0  0
    0.9127    0.8495   31.3477 C   0  0  0  0  0  0  0  0  0  0  0  0
    1.2243   -0.6455   29.3588 C   0  0  0  0  0  0  0  0  0  0  0  0
    0.3844   -0.0625   30.3351 N   0  0  0  0  0  0  0  0  0  0  0  0
    2.8323    2.2021   30.5906 C   0  0  0  0  0  0  0  0  0  0  0  0
    4.2540    2.1437   30.2737 N   0  0  0  0  0  0  0  0  0  0  0  0
    5.7109    3.4607   26.4996 C   0  0  0  0  0  0  0  0  0  0  0  0
    5.8091    4.2893   27.6048 C   0  0  0  0  0  0  0  0  0  0  0  0
    5.3296    3.8590   28.8571 C   0  0  0  0  0  0  0  0  0  0  0  0
    4.7559    2.6031   28.9845 C   0  0  0  0  0  0  0  0  0  0  0  0
    4.6588    1.7725   27.8720 C   0  0  0  0  0  0  0  0  0  0  0  0
    5.1369    2.2001   26.6307 C   0  0  0  0  0  0  0  0  0  0  0  0
    4.0246   -0.9154   31.6985 C   0  0  0  0  0  0  0  0  0  0  0  0
  1  3  1  0  0  0  0
  2  3  2  0  0  0  0
  2 12  1  0  0  0  0
  3  4  1  0  0  0  0
  4  6  1  0  0  0  0
  5 22  1  0  0  0  0
  6  7  1  0  0  0  0
  6  8  2  0  0  0  0
  7 12  2  0  0  0  0
  7  9  1  0  0  0  0
  9 10  1  0  0  0  0
  9 22  1  0  0  0  0
 10 11  1  0  0  0  0
 10 14  1  6  0  0  0
 11 13  1  0  0  0  0
 12 13  1  0  0  0  0
 14 15  1  0  0  0  0
 15 19  1  0  0  0  0
 16 17  2  0  0  0  0
 16 21  1  0  0  0  0
 17 18  1  0  0  0  0
 18 19  2  0  0  0  0
 19 20  1  0  0  0  0
 20 21  2  0  0  0  0
M  END
>  <CHROM.1>
-84.15067013,-40.14231442,141.21876049,99.74302225,3.18823997,0.37715824
29.20733387,2.95934593,0.92833587,1.45707252

>  <Name>
ligand

>  <RI>
0

>  <Rbt.Current_Directory>
/home/itssahil/PROJECTS/Mol_Feturizer/Test_systems_manuscript/rnas/3sd3

>  <Rbt.Executable>
rbdock ($Id: //depot/dev/client3/rdock/2013.1/src/exe/rbdock.cxx#4 $)

>  <Rbt.Library>
libRbt.so (2013.1, Build901 2013/11/27)

>  <Rbt.Parameter_File>
/export/apps/rDock/src/rDock_2013.1_src/data/scripts/dock_solv.prm

>  <Rbt.Receptor>
prm/blind_docking_60.prm

>  <SCORE>
-10.8148

>  <SCORE.INTER>
-9.9054

>  <SCORE.INTER.CONST>
1

>  <SCORE.INTER.POLAR>
0

>  <SCORE.INTER.ROT>
4

>  <SCORE.INTER.SOLV>
4.7962

>  <SCORE.INTER.VDW>
-14.469

>  <SCORE.INTER.norm>
-0.450245

>  <SCORE.INTRA>
-0.911144

>  <SCORE.INTRA.DIHEDRAL>
1.28814

>  <SCORE.INTRA.DIHEDRAL.0>
2.54655

>  <SCORE.INTRA.POLAR>
0

>  <SCORE.INTRA.POLAR.0>
0

>  <SCORE.INTRA.REPUL>
0

>  <SCORE.INTRA.REPUL.0>
0

>  <SCORE.INTRA.SOLV>
0.269043

>  <SCORE.INTRA.SOLV.lig_0>
-56.4922

>  <SCORE.INTRA.VDW>
-1.68973

>  <SCORE.INTRA.VDW.0>
-0.696801

>  <SCORE.INTRA.norm>
-0.0414157

>  <SCORE.RESTR>
0.0017775

>  <SCORE.RESTR.CAVITY>
0.0017775

>  <SCORE.RESTR.norm>
8.07955e-05

>  <SCORE.SYSTEM>
0

>  <SCORE.SYSTEM.CONST>
0

>  <SCORE.SYSTEM.DIHEDRAL>
0

>  <SCORE.SYSTEM.SOLV>
0

>  <SCORE.SYSTEM.norm>
0

>  <SCORE.heavy>
22

>  <SCORE.norm>
-0.49158

>  <RMSD>
26.643

$$$$
ligand
 OpenBabel02271912143D
libRbt.so/2013.1/901 2013/11/27
 22 24  0  0  0  0  0  0  0  0999 V2000
    4.2624    5.7072   35.0898 N   0  0  0  0  0  0  0  0  0  0  0  0
    5.3358    4.2528   33.5197 N   0  0  0  0  0  0  0  0  0  0  0  0
    4.3798    4.4258   34.4472 C   0  0  0  0  0  0  0  0  0  0  0  0
    3.5429    3.4537   34.7882 N   0  0  0  0  0  0  0  0  0  0  0  0
    5.6850   -1.2528   33.1620 O   0  0  0  0  0  0  0  0  0  0  0  0
    3.6369    2.2471   34.1995 C   0  0  0  0  0  0  0  0  0  0  0  0
    4.6459    2.0239   33.2215 C   0  0  0  0  0  0  0  0  0  0  0  0
    2.7559    1.2563   34.5708 O   0  0  0  0  0  0  0  0  0  0  0  0
    4.8515    0.7883   32.4920 N   0  0  0  0  0  0  0  0  0  0  0  0
    5.1965    0.9154   31.0701 C   0  0  2  0  0  0  0  0  0  0  0  0
    6.3546    1.8464   30.8897 C   0  0  0  0  0  0  0  0  0  0  0  0
    5.4782    3.0661   32.8978 C   0  0  0  0  0  0  0  0  0  0  0  0
    6.4828    2.8729   31.9222 N   0  0  0  0  0  0  0  0  0  0  0  0
    4.0317    1.3998   30.1879 C   0  0  0  0  0  0  0  0  0  0  0  0
    3.0132    0.3631   30.0740 N   0  0  0  0  0  0  0  0  0  0  0  0
    3.2588   -2.6235   27.0538 C   0  0  0  0  0  0  0  0  0  0  0  0
    2.4061   -1.5447   26.8902 C   0  0  0  0  0  0  0  0  0  0  0  0
    2.3208   -0.5522   27.8857 C   0  0  0  0  0  0  0  0  0  0  0  0
    3.0910   -0.6554   29.0341 C   0  0  0  0  0  0  0  0  0  0  0  0
    3.9472   -1.7407   29.1957 C   0  0  0  0  0  0  0  0  0  0  0  0
    4.0322   -2.7235   28.2061 C   0  0  0  0  0  0  0  0  0  0  0  0
    4.7229   -0.5106   33.0585 C   0  0  0  0  0  0  0  0  0  0  0  0
  1  3  1  0  0  0  0
  2  3  2  0  0  0  0
  2 12  1  0  0  0  0
  3  4  1  0  0  0  0
  4  6  1  0  0  0  0
  5 22  1  0  0  0  0
  6  7  1  0  0  0  0
  6  8  2  0  0  0  0
  7 12  2  0  0  0  0
  7  9  1  0  0  0  0
  9 10  1  0  0  0  0
  9 22  1  0  0  0  0
 10 11  1  0  0  0  0
 10 14  1  6  0  0  0
 11 13  1  0  0  0  0
 12 13  1  0  0  0  0
 14 15  1  0  0  0  0
 15 19  1  0  0  0  0
 16 17  2  0  0  0  0
 16 21  1  0  0  0  0
 17 18  1  0  0  0  0
 18 19  2  0  0  0  0
 19 20  1  0  0  0  0
 20 21  2  0  0  0  0
M  END
>  <CHROM.1>
-114.73065013,-70.12048712,-87.74200237,-100.73871806,4.27963134,1.09079261
31.65703439,0.40019154,-1.40590759,-0.30979670

>  <Name>
ligand

>  <RI>
0

>  <Rbt.Current_Directory>
/home/itssahil/PROJECTS/Mol_Feturizer/Test_systems_manuscript/rnas/3sd3

>  <Rbt.Executable>
rbdock ($Id: //depot/dev/client3/rdock/2013.1/src/exe/rbdock.cxx#4 $)

>  <Rbt.Library>
libRbt.so (2013.1, Build901 2013/11/27)

>  <Rbt.Parameter_File>
/export/apps/rDock/src/rDock_2013.1_src/data/scripts/dock_solv.prm

>  <Rbt.Receptor>
prm/blind_docking_80.prm

>  <SCORE>
-9.53659

>  <SCORE.INTER>
-8.28329

>  <SCORE.INTER.CONST>
1

>  <SCORE.INTER.POLAR>
0

>  <SCORE.INTER.ROT>
4

>  <SCORE.INTER.SOLV>
8.63569

>  <SCORE.INTER.VDW>
-14.6674

>  <SCORE.INTER.norm>
-0.376513

>  <SCORE.INTRA>
-1.2533

>  <SCORE.INTRA.DIHEDRAL>
-0.0287878

>  <SCORE.INTRA.DIHEDRAL.0>
2.54655

>  <SCORE.INTRA.POLAR>
0

>  <SCORE.INTRA.POLAR.0>
0

>  <SCORE.INTRA.REPUL>
0

>  <SCORE.INTRA.REPUL.0>
0

>  <SCORE.INTRA.SOLV>
-0.414647

>  <SCORE.INTRA.SOLV.lig_0>
-56.4922

>  <SCORE.INTRA.VDW>
-1.03158

>  <SCORE.INTRA.VDW.0>
-0.696801

>  <SCORE.INTRA.norm>
-0.0569681

>  <SCORE.RESTR>
0

>  <SCORE.RESTR.CAVITY>
0

>  <SCORE.RESTR.norm>
0

>  <SCORE.SYSTEM>
0

>  <SCORE.SYSTEM.CONST>
0

>  <SCORE.SYSTEM.DIHEDRAL>
0

>  <SCORE.SYSTEM.SOLV>
0

>  <SCORE.SYSTEM.norm>
0

>  <SCORE.heavy>
22

>  <SCORE.norm>
-0.433481

>  <RMSD>
27.089

$$$$
