@<TRIPOS>MOLECULE
3sd3_rdock.pdb
 1913 2142 0 0 0
SMALL
GASTEIGER

@<TRIPOS>ATOM
      1  P         25.1450  -44.3370   26.2770 P.3     1  G1          0.1280
      2  C5'       27.2400  -44.1520   24.7110 C.3     1  G1          0.1795
      3  O5'       25.8280  -44.1000   24.8570 O.3     1  G1         -0.3259
      4  C4'       27.6410  -44.4180   23.2820 C.3     1  G1          0.1772
      5  O4'       27.0640  -45.6740   22.8330 O.3     1  G1         -0.3307
      6  C3'       27.1610  -43.4040   22.2560 C.3     1  G1          0.1860
      7  O3'       27.9750  -42.2480   22.1980 O.3     1  G1         -0.3112
      8  C2'       27.1570  -44.2110   20.9670 C.3     1  G1          0.2309
      9  O2'       28.4750  -44.3450   20.4560 O.3     1  G1         -0.2156
     10  C1'       26.6920  -45.5750   21.4740 C.3     1  G1          0.2408
     11  N1        22.7010  -45.8320   18.3500 N.ar    1  G1         -0.1709
     12  C2        24.0350  -45.6860   18.0530 C.ar    1  G1          0.2606
     13  N2        24.3480  -45.5930   16.7490 N.pl3   1  G1         -0.0859
     14  N3        24.9890  -45.6340   18.9690 N.ar    1  G1         -0.1918
     15  C4        24.4920  -45.7410   20.2200 C.ar    1  G1          0.1723
     16  C5        23.1800  -45.8900   20.6230 C.ar    1  G1          0.1748
     17  C6        22.1660  -45.9430   19.6310 C.ar    1  G1          0.3023
     18  O6        20.9430  -46.0710   19.7810 O.2     1  G1         -0.2633
     19  N7        23.0930  -45.9590   22.0070 N.ar    1  G1         -0.2173
     20  C8        24.3310  -45.8560   22.4120 C.ar    1  G1          0.1817
     21  N9        25.2280  -45.7220   21.3790 N.ar    1  G1         -0.2693
     22  OP1       24.2280  -43.2180   26.6110 O.3     1  G1         -0.1955
     23  OP2       24.6710  -45.7400   26.4070 O.co2   1  G1         -0.7863
     24  P         27.3310  -40.8270   21.8220 P.3     2  G2          0.2141
     25  C5'       28.0260  -41.1190   19.3110 C.3     2  G2          0.1812
     26  O5'       26.9920  -40.9900   20.2750 O.3     2  G2         -0.3114
     27  C4'       27.4720  -41.1800   17.9100 C.3     2  G2          0.1773
     28  O4'       26.6980  -42.3970   17.7380 O.3     2  G2         -0.3307
     29  C3'       26.4990  -40.0760   17.5300 C.3     2  G2          0.1860
     30  O3'       27.1390  -38.8660   17.1750 O.3     2  G2         -0.3112
     31  C2'       25.7170  -40.7130   16.3920 C.3     2  G2          0.2309
     32  O2'       26.4880  -40.7280   15.1990 O.3     2  G2         -0.2156
     33  C1'       25.5890  -42.1450   16.8980 C.3     2  G2          0.2408
     34  N1        20.5440  -42.6140   16.6980 N.ar    2  G2         -0.1709
     35  C2        21.4490  -42.4450   15.6770 C.ar    2  G2          0.2606
     36  N2        20.9440  -42.3930   14.4340 N.pl3   2  G2         -0.0859
     37  N3        22.7550  -42.3350   15.8620 N.ar    2  G2         -0.1918
     38  C4        23.0840  -42.4110   17.1710 C.ar    2  G2          0.1723
     39  C5        22.2600  -42.5770   18.2640 C.ar    2  G2          0.1748
     40  C6        20.8610  -42.6930   18.0530 C.ar    2  G2          0.3023
     41  O6        19.9610  -42.8460   18.8900 O.2     2  G2         -0.2633
     42  N7        23.0020  -42.5990   19.4380 N.ar    2  G2         -0.2173
     43  C8        24.2390  -42.4490   19.0470 C.ar    2  G2          0.1817
     44  N9        24.3560  -42.3330   17.6830 N.ar    2  G2         -0.2693
     45  OP1       28.3930  -39.8080   22.0000 O.2     2  G2         -0.5172
     46  OP2       26.0770  -40.6950   22.6030 O.co2   2  G2         -0.4373
     47  P         26.3800  -37.4650   17.3790 P.3     3  A3          0.2141
     48  C5'       25.3670  -37.4020   14.9670 C.3     3  A3          0.1812
     49  O5'       25.1620  -37.5700   16.3610 O.3     3  A3         -0.3114
     50  C4'       24.0950  -37.6170   14.1880 C.3     3  A3          0.1773
     51  O4'       23.5130  -38.9020   14.5390 O.3     3  A3         -0.3307
     52  C3'       22.9640  -36.6370   14.4570 C.3     3  A3          0.1860
     53  O3'       23.1300  -35.3810   13.8200 O.3     3  A3         -0.3112
     54  C2'       21.7570  -37.4190   13.9700 C.3     3  A3          0.2309
     55  O2'       21.7350  -37.4740   12.5510 O.3     3  A3         -0.2156
     56  C1'       22.1010  -38.8090   14.4950 C.3     3  A3          0.2408
     57  N1        17.8910  -39.7720   17.2680 N.ar    3  A3         -0.2040
     58  C2        18.0960  -39.6350   15.9530 C.ar    3  A3          0.2016
     59  N3        19.2280  -39.3820   15.3010 N.ar    3  A3         -0.2048
     60  C4        20.2570  -39.2690   16.1610 C.ar    3  A3          0.1692
     61  C5        20.2050  -39.3820   17.5380 C.ar    3  A3          0.1518
     62  C6        18.9450  -39.6500   18.1060 C.ar    3  A3          0.1919
     63  N6        18.7300  -39.7880   19.4160 N.pl3   3  A3         -0.1054
     64  N7        21.4690  -39.2000   18.0890 N.ar    3  A3         -0.2193
     65  C8        22.2440  -38.9800   17.0510 C.ar    3  A3          0.1816
     66  N9        21.5730  -39.0170   15.8550 N.ar    3  A3         -0.2693
     67  OP1       27.3130  -36.4000   16.9400 O.2     3  A3         -0.5172
     68  OP2       25.8710  -37.4400   18.7750 O.co2   3  A3         -0.4373
     69  P         22.4860  -34.0600   14.4780 P.3     4  G4          0.2141
     70  C5'       20.2740  -34.1330   13.0670 C.3     4  G4          0.1812
     71  O5'       20.9180  -34.3090   14.3210 O.3     4  G4         -0.3114
     72  C4'       18.8590  -34.6560   13.0850 C.3     4  G4          0.1773
     73  O4'       18.8070  -35.9200   13.7940 O.3     4  G4         -0.3307
     74  C3'       17.8330  -33.7940   13.8010 C.3     4  G4          0.1860
     75  O3'       17.3760  -32.7110   13.0120 O.3     4  G4         -0.3112
     76  C2'       16.7410  -34.7970   14.1440 C.3     4  G4          0.2309
     77  O2'       15.9350  -35.0670   13.0080 O.3     4  G4         -0.2156
     78  C1'       17.5650  -36.0460   14.4560 C.3     4  G4          0.2408
     79  N1        15.5190  -37.3510   18.9030 N.ar    4  G4         -0.1709
     80  C2        14.9510  -37.3080   17.6510 C.ar    4  G4          0.2606
     81  N2        13.6600  -37.6650   17.5690 N.pl3   4  G4         -0.0859
     82  N3        15.5980  -36.9400   16.5560 N.ar    4  G4         -0.1918
     83  C4        16.8830  -36.6200   16.8220 C.ar    4  G4          0.1723
     84  C5        17.5450  -36.6260   18.0300 C.ar    4  G4          0.1748
     85  C6        16.8380  -37.0180   19.1980 C.ar    4  G4          0.3023
     86  O6        17.2500  -37.0910   20.3640 O.2     4  G4         -0.2633
     87  N7        18.8620  -36.2190   17.8650 N.ar    4  G4         -0.2173
     88  C8        18.9790  -35.9770   16.5860 C.ar    4  G4          0.1817
     89  N9        17.8110  -36.2000   15.9010 N.ar    4  G4         -0.2693
     90  OP1       22.9000  -32.9080   13.6390 O.2     4  G4         -0.5172
     91  OP2       22.8550  -34.0640   15.9150 O.co2   4  G4         -0.4373
     92  P         16.7850  -31.3950   13.7130 P.3     5  A5          0.2141
     93  C5'       14.3780  -32.2090   13.0510 C.3     5  A5          0.1812
     94  O5'       15.2930  -31.8220   14.0660 O.3     5  A5         -0.3114
     95  C4'       13.0560  -32.6190   13.6450 C.3     5  A5          0.1773
     96  O4'       13.2480  -33.7820   14.4900 O.3     5  A5         -0.3307
     97  C3'       12.3940  -31.5850   14.5490 C.3     5  A5          0.1860
     98  O3'       11.6090  -30.6510   13.8210 O.3     5  A5         -0.3112
     99  C2'       11.5810  -32.4320   15.5240 C.3     5  A5          0.2309
    100  O2'       10.3200  -32.7700   14.9660 O.3     5  A5         -0.2156
    101  C1'       12.4240  -33.7060   15.6280 C.3     5  A5          0.2408
    102  N1        12.8720  -35.1430   20.5690 N.ar    5  A5         -0.2040
    103  C2        11.8710  -35.2520   19.6850 C.ar    5  A5          0.2016
    104  N3        11.8180  -34.8550   18.4150 N.ar    5  A5         -0.2048
    105  C4        12.9760  -34.2730   18.0510 C.ar    5  A5          0.1692
    106  C5        14.0970  -34.0860   18.8460 C.ar    5  A5          0.1518
    107  C6        14.0230  -34.5550   20.1730 C.ar    5  A5          0.1919
    108  N6        15.0190  -34.4490   21.0580 N.pl3   5  A5         -0.1054
    109  N7        15.1060  -33.4500   18.1360 N.ar    5  A5         -0.2193
    110  C8        14.5780  -33.2690   16.9470 C.ar    5  A5          0.1816
    111  N9        13.2860  -33.7270   16.8280 N.ar    5  A5         -0.2693
    112  OP1       16.7750  -30.3230   12.6910 O.2     5  A5         -0.5172
    113  OP2       17.5570  -31.1830   14.9620 O.co2   5  A5         -0.4373
    114  P         11.7490  -29.0720   14.0940 P.3     6  G6          0.2141
    115  C5'        9.6120  -29.1910   15.6030 C.3     6  G6          0.1812
    116  O5'       10.9920  -28.8840   15.4780 O.3     6  G6         -0.3114
    117  C4'        9.2330  -29.4150   17.0430 C.3     6  G6          0.1773
    118  O4'        9.9330  -30.5790   17.5560 O.3     6  G6         -0.3307
    119  C3'        9.6070  -28.2970   18.0080 C.3     6  G6          0.1860
    120  O3'        8.6640  -27.2390   18.0130 O.3     6  G6         -0.3112
    121  C2'        9.7110  -29.0240   19.3410 C.3     6  G6          0.2309
    122  O2'        8.4210  -29.2330   19.8970 O.3     6  G6         -0.2156
    123  C1'       10.2790  -30.3770   18.9090 C.3     6  G6          0.2408
    124  N1        14.1960  -31.7450   21.8480 N.ar    6  G6         -0.1709
    125  C2        12.8470  -31.8590   22.0730 C.ar    6  G6          0.2606
    126  N2        12.4800  -32.4080   23.2390 N.pl3   6  G6         -0.0859
    127  N3        11.9230  -31.4610   21.2170 N.ar    6  G6         -0.1918
    128  C4        12.4600  -30.9320   20.1000 C.ar    6  G6          0.1723
    129  C5        13.7920  -30.7730   19.7750 C.ar    6  G6          0.1748
    130  C6        14.7770  -31.2070   20.7040 C.ar    6  G6          0.3023
    131  O6        16.0100  -31.1580   20.6110 O.2     6  G6         -0.2633
    132  N7        13.9220  -30.1820   18.5250 N.ar    6  G6         -0.2173
    133  C8        12.6910  -29.9990   18.1260 C.ar    6  G6          0.1817
    134  N9        11.7520  -30.4300   19.0330 N.ar    6  G6         -0.2693
    135  OP1       11.0060  -28.3750   13.0150 O.2     6  G6         -0.5172
    136  OP2       13.1930  -28.7810   14.2670 O.co2   6  G6         -0.4373
    137  P          9.1470  -25.7170   18.2200 P.3     7  U7          0.2141
    138  C5'        7.9500  -25.7230   20.5540 C.3     7  U7          0.1812
    139  O5'        9.1460  -25.5530   19.8080 O.3     7  U7         -0.3114
    140  C4'        8.0400  -25.0940   21.9240 C.3     7  U7          0.1773
    141  O4'        9.2740  -25.4960   22.5820 O.3     7  U7         -0.3307
    142  C3'        8.1050  -23.5750   21.9820 C.3     7  U7          0.1860
    143  O3'        6.8650  -22.9310   21.7360 O.3     7  U7         -0.3112
    144  C2'        8.6440  -23.3560   23.3840 C.3     7  U7          0.2309
    145  O2'        7.6480  -23.6460   24.3550 O.3     7  U7         -0.2156
    146  C1'        9.7050  -24.4530   23.4430 C.3     7  U7          0.2420
    147  N1        11.0080  -23.9510   22.9680 N.ar    7  U7         -0.2534
    148  C2        11.6990  -23.1440   23.8480 C.ar    7  U7          0.3546
    149  O2        11.2860  -22.8760   24.9640 O.2     7  U7         -0.2443
    150  N3        12.8910  -22.6610   23.3770 N.ar    7  U7         -0.1530
    151  C4        13.4430  -22.8930   22.1360 C.ar    7  U7          0.2846
    152  O4        14.5300  -22.3880   21.8640 O.2     7  U7         -0.2650
    153  C5        12.6620  -23.7310   21.2770 C.ar    7  U7          0.0814
    154  C6        11.4900  -24.2130   21.7070 C.ar    7  U7          0.0870
    155  OP1        8.1060  -24.8470   17.6260 O.2     7  U7         -0.5172
    156  OP2       10.5310  -25.6230   17.7020 O.co2   7  U7         -0.4373
    157  P          6.8410  -21.4270   21.1550 P.3     8  A8          0.2141
    158  C5'        6.7760  -20.4990   23.6050 C.3     8  A8          0.1812
    159  O5'        7.4390  -20.5700   22.3540 O.3     8  A8         -0.3114
    160  C4'        7.5220  -19.6130   24.5630 C.3     8  A8          0.1773
    161  O4'        8.8300  -20.1830   24.8390 O.3     8  A8         -0.3307
    162  C3'        7.8320  -18.2160   24.0570 C.3     8  A8          0.1860
    163  O3'        6.7360  -17.3280   24.1770 O.3     8  A8         -0.3112
    164  C2'        9.0440  -17.8210   24.8890 C.3     8  A8          0.2309
    165  O2'        8.6520  -17.4370   26.1970 O.3     8  A8         -0.2156
    166  C1'        9.7860  -19.1550   24.9810 C.3     8  A8          0.2408
    167  N1        14.5880  -18.0730   23.5120 N.ar    8  A8         -0.2040
    168  C2        13.9000  -17.7980   24.6270 C.ar    8  A8          0.2016
    169  N3        12.6460  -18.1170   24.9400 N.ar    8  A8         -0.2048
    170  C4        12.0680  -18.8120   23.9440 C.ar    8  A8          0.1692
    171  C5        12.6430  -19.1730   22.7400 C.ar    8  A8          0.1518
    172  C6        13.9760  -18.7750   22.5310 C.ar    8  A8          0.1919
    173  N6        14.6650  -19.0510   21.4210 N.pl3   8  A8         -0.1054
    174  N7        11.7400  -19.8830   21.9590 N.ar    8  A8         -0.2193
    175  C8        10.6580  -19.9310   22.6970 C.ar    8  A8          0.1816
    176  N9        10.7890  -19.3000   23.9110 N.ar    8  A8         -0.2693
    177  OP1        5.4200  -21.0660   20.9370 O.3     8  A8         -0.4373
    178  OP2        7.7700  -21.3840   20.0040 O.co2   8  A8         -0.5172
    179  P          6.4670  -16.2310   23.0370 P.3     9  G9          0.2141
    180  C5'        8.2530  -14.5190   22.1980 C.3     9  G9          0.1812
    181  O5'        7.6380  -15.1860   23.2820 O.3     9  G9         -0.3114
    182  C4'        9.7530  -14.5630   22.3090 C.3     9  G9          0.1773
    183  O4'       10.2040  -15.9420   22.2790 O.3     9  G9         -0.3307
    184  C3'       10.5130  -13.9010   21.1750 C.3     9  G9          0.1860
    185  O3'       10.6220  -12.5030   21.3280 O.3     9  G9         -0.3112
    186  C2'       11.8460  -14.6260   21.2000 C.3     9  G9          0.2309
    187  O2'       12.6470  -14.1540   22.2740 O.3     9  G9         -0.2156
    188  C1'       11.3910  -16.0460   21.5230 C.3     9  G9          0.2408
    189  N1        13.1140  -18.0590   17.1440 N.ar    9  G9         -0.1709
    190  C2        13.8040  -17.3530   18.0990 C.ar    9  G9          0.2606
    191  N2        15.1110  -17.1610   17.8630 N.pl3   9  G9         -0.0859
    192  N3        13.2580  -16.8750   19.2060 N.ar    9  G9         -0.1918
    193  C4        11.9420  -17.1650   19.2820 C.ar    9  G9          0.1723
    194  C5        11.1610  -17.8590   18.3790 C.ar    9  G9          0.1748
    195  C6        11.7600  -18.3670   17.1980 C.ar    9  G9          0.3023
    196  O6        11.2330  -19.0060   16.2820 O.2     9  G9         -0.2633
    197  N7         9.8500  -17.9420   18.8160 N.ar    9  G9         -0.2173
    198  C8         9.8540  -17.3080   19.9560 C.ar    9  G9          0.1817
    199  N9        11.0860  -16.8120   20.3000 N.ar    9  G9         -0.2693
    200  OP1        5.1570  -15.6010   23.3360 O.3     9  G9         -0.4373
    201  OP2        6.6550  -16.9010   21.7290 O.co2   9  G9         -0.5172
    202  P         10.6140  -11.5610   20.0350 P.3    10  A10         0.2141
    203  C5'       13.2320  -11.6500   19.9870 C.3    10  A10         0.1812
    204  O5'       11.9970  -11.9150   19.3400 O.3    10  A10        -0.3114
    205  C4'       14.3880  -11.9030   19.0590 C.3    10  A10         0.1773
    206  O4'       14.4750  -13.3230   18.7680 O.3    10  A10        -0.3307
    207  C3'       14.2840  -11.2450   17.6910 C.3    10  A10         0.1860
    208  O3'       14.7080   -9.8940   17.6980 O.3    10  A10        -0.3112
    209  C2'       15.1350  -12.1530   16.8160 C.3    10  A10         0.2309
    210  O2'       16.5160  -11.8900   17.0140 O.3    10  A10        -0.2156
    211  C1'       14.8200  -13.5200   17.4150 C.3    10  A10         0.2408
    212  N1        13.2400  -16.0160   13.2050 N.ar   10  A10        -0.2040
    213  C2        14.4190  -15.4810   13.5480 C.ar   10  A10         0.2016
    214  N3        14.7630  -14.8380   14.6600 N.ar   10  A10        -0.2048
    215  C4        13.7180  -14.7700   15.5010 C.ar   10  A10         0.1692
    216  C5        12.4450  -15.2700   15.2940 C.ar   10  A10         0.1518
    217  C6        12.2120  -15.9270   14.0740 C.ar   10  A10         0.1919
    218  N6        11.0390  -16.4640   13.7310 N.pl3  10  A10        -0.1054
    219  N7        11.6280  -15.0060   16.3850 N.ar   10  A10        -0.2193
    220  C8        12.4130  -14.3630   17.2160 C.ar   10  A10         0.1816
    221  N9        13.6880  -14.1790   16.7390 N.ar   10  A10        -0.2693
    222  OP1       10.6310  -10.1580   20.5150 O.3    10  A10        -0.4373
    223  OP2        9.4910  -12.0120   19.1780 O.co2  10  A10        -0.5172
    224  P         14.0520   -8.8330   16.6860 P.3    11  U11         0.2141
    225  C5'       15.9870   -9.2460   14.9680 C.3    11  U11         0.1812
    226  O5'       14.6020   -9.3120   15.2720 O.3    11  U11        -0.3114
    227  C4'       16.2620   -9.7060   13.5610 C.3    11  U11         0.1773
    228  O4'       15.9920  -11.1290   13.4480 O.3    11  U11        -0.3307
    229  C3'       15.3980   -9.0800   12.4770 C.3    11  U11         0.1860
    230  O3'       15.8450   -7.7960   12.0800 O.3    11  U11        -0.3112
    231  C2'       15.4550  -10.1190   11.3670 C.3    11  U11         0.2309
    232  O2'       16.6840  -10.0320   10.6620 O.3    11  U11        -0.2156
    233  C1'       15.4510  -11.4170   12.1750 C.3    11  U11         0.2420
    234  N1        14.0850  -11.9470   12.3560 N.ar   11  U11        -0.2534
    235  C2        13.5870  -12.7930   11.3860 C.ar   11  U11         0.3546
    236  O2        14.2260  -13.1170   10.3990 O.2    11  U11        -0.2443
    237  N3        12.3100  -13.2440   11.6140 N.ar   11  U11        -0.1530
    238  C4        11.5010  -12.9420   12.6890 C.ar   11  U11         0.2846
    239  O4        10.3720  -13.4300   12.7550 O.2    11  U11        -0.2650
    240  C5        12.0900  -12.0570   13.6460 C.ar   11  U11         0.0814
    241  C6        13.3310  -11.6020   13.4510 C.ar   11  U11         0.0870
    242  OP1       14.6150   -7.5040   17.0250 O.3    11  U11        -0.4373
    243  OP2       12.5810   -9.0200   16.7450 O.co2  11  U11        -0.5172
    244  P         14.8060   -6.7330   11.4670 P.3    12  G12         0.2141
    245  C5'       15.4210   -7.4920    9.0320 C.3    12  G12         0.1812
    246  O5'       14.4400   -7.3690   10.0520 O.3    12  G12        -0.3114
    247  C4'       14.9030   -8.2810    7.8540 C.3    12  G12         0.1773
    248  O4'       14.5740   -9.6320    8.2690 O.3    12  G12        -0.3307
    249  C3'       13.6200   -7.7740    7.2200 C.3    12  G12         0.1860
    250  O3'       13.8250   -6.6790    6.3480 O.3    12  G12        -0.3112
    251  C2'       13.0860   -9.0180    6.5220 C.3    12  G12         0.2309
    252  O2'       13.7880   -9.2550    5.3110 O.3    12  G12        -0.2156
    253  C1'       13.4710  -10.1060    7.5220 C.3    12  G12         0.2408
    254  N1         9.0730  -12.5680    8.1490 N.ar   12  G12        -0.1709
    255  C2         9.8920  -12.5100    7.0490 C.ar   12  G12         0.2606
    256  N2         9.4890  -13.1990    5.9720 N.pl3  12  G12        -0.0859
    257  N3        11.0260  -11.8280    7.0080 N.ar   12  G12        -0.1918
    258  C4        11.2780  -11.1990    8.1760 C.ar   12  G12         0.1723
    259  C5        10.5240  -11.1930    9.3300 C.ar   12  G12         0.1748
    260  C6         9.3110  -11.9300    9.3630 C.ar   12  G12         0.3023
    261  O6         8.5040  -12.0510   10.2960 O.2    12  G12        -0.2633
    262  N7        11.1340  -10.4170   10.3070 N.ar   12  G12        -0.2173
    263  C8        12.2240   -9.9730    9.7430 C.ar   12  G12         0.1817
    264  N9        12.3700  -10.4120    8.4500 N.ar   12  G12        -0.2693
    265  OP1       15.5440   -5.4610   11.2730 O.2    12  G12        -0.5172
    266  OP2       13.6100   -6.7340   12.3450 O.co2  12  G12        -0.4373
    267  P         12.6390   -5.6300    6.0780 P.3    13  A13         0.2141
    268  C5'       12.0950   -6.9210    3.8620 C.3    13  A13         0.1812
    269  O5'       11.6570   -6.4460    5.1260 O.3    13  A13        -0.3114
    270  C4'       11.0610   -7.8100    3.2200 C.3    13  A13         0.1773
    271  O4'       10.8980   -9.0190    4.0070 O.3    13  A13        -0.3307
    272  C3'        9.6550   -7.2370    3.1310 C.3    13  A13         0.1860
    273  O3'        9.4830   -6.3550    2.0360 O.3    13  A13        -0.3112
    274  C2'        8.7930   -8.4880    3.0500 C.3    13  A13         0.2309
    275  O2'        8.8360   -9.0430    1.7440 O.3    13  A13        -0.2156
    276  C1'        9.5440   -9.4230    3.9950 C.3    13  A13         0.2408
    277  N1         5.9650  -11.1000    7.2900 N.ar   13  A13        -0.2040
    278  C2         6.2040  -11.3740    6.0010 C.ar   13  A13         0.2016
    279  N3         7.1560  -10.9000    5.2010 N.ar   13  A13        -0.2048
    280  C4         7.9410  -10.0350    5.8640 C.ar   13  A13         0.1692
    281  C5         7.8220   -9.6510    7.1870 C.ar   13  A13         0.1518
    282  C6         6.7730  -10.2240    7.9270 C.ar   13  A13         0.1919
    283  N6         6.5340   -9.9510    9.2110 N.pl3  13  A13        -0.1054
    284  N7         8.8120   -8.7350    7.5220 N.ar   13  A13        -0.2193
    285  C8         9.4960   -8.5880    6.4130 C.ar   13  A13         0.1816
    286  N9         9.0220   -9.3470    5.3710 N.ar   13  A13        -0.2693
    287  OP1       13.2270   -4.4880    5.3380 O.2    13  A13        -0.5172
    288  OP2       11.9790   -5.3710    7.3800 O.co2  13  A13        -0.4373
    289  P          8.4190   -5.1560    2.1240 P.3    14  U14         0.2141
    290  C5'        6.6610   -6.6640    0.9010 C.3    14  U14         0.1812
    291  O5'        7.0220   -5.9170    2.0520 O.3    14  U14        -0.3114
    292  C4'        5.3860   -7.4380    1.1210 C.3    14  U14         0.1773
    293  O4'        5.5810   -8.4220    2.1690 O.3    14  U14        -0.3307
    294  C3'        4.1880   -6.6300    1.5930 C.3    14  U14         0.1860
    295  O3'        3.5310   -5.9480    0.5400 O.3    14  U14        -0.3112
    296  C2'        3.3250   -7.6850    2.2710 C.3    14  U14         0.2309
    297  O2'        2.6210   -8.4540    1.3070 O.3    14  U14        -0.2156
    298  C1'        4.3890   -8.5750    2.9120 C.3    14  U14         0.2420
    299  N1         4.6580   -8.1920    4.3120 N.ar   14  U14        -0.2534
    300  C2         3.8000   -8.6750    5.2780 C.ar   14  U14         0.3546
    301  O2         2.8470   -9.3880    5.0150 O.2    14  U14        -0.2443
    302  N3         4.0980   -8.2880    6.5620 N.ar   14  U14        -0.1530
    303  C4         5.1470   -7.4860    6.9620 C.ar   14  U14         0.2846
    304  O4         5.2880   -7.2230    8.1560 O.2    14  U14        -0.2650
    305  C5         5.9900   -7.0280    5.9000 C.ar   14  U14         0.0814
    306  C6         5.7240   -7.3880    4.6410 C.ar   14  U14         0.0870
    307  OP1        8.6020   -4.3210    0.9120 O.2    14  U14        -0.5172
    308  OP2        8.5820   -4.5240    3.4560 O.co2  14  U14        -0.4373
    309  P          2.7300   -4.5880    0.8340 P.3    15  U15         0.2141
    310  C5'        0.5140   -5.9680    1.0760 C.3    15  U15         0.1812
    311  O5'        1.4660   -5.0940    1.6610 O.3    15  U15        -0.3114
    312  C4'       -0.5030   -6.4340    2.0870 C.3    15  U15         0.1773
    313  O4'        0.1440   -7.2570    3.0930 O.3    15  U15        -0.3307
    314  C3'       -1.1910   -5.3430    2.8920 C.3    15  U15         0.1860
    315  O3'       -2.2590   -4.7290    2.1920 O.3    15  U15        -0.3112
    316  C2'       -1.6280   -6.0810    4.1490 C.3    15  U15         0.2309
    317  O2'       -2.8000   -6.8450    3.9020 O.3    15  U15        -0.2156
    318  C1'       -0.4600   -7.0440    4.3520 C.3    15  U15         0.2420
    319  N1         0.5570   -6.4950    5.2750 N.ar   15  U15        -0.2534
    320  C2         0.3450   -6.6480    6.6310 C.ar   15  U15         0.3546
    321  O2        -0.6380   -7.2050    7.0890 O.2    15  U15        -0.2443
    322  N3         1.3260   -6.1200    7.4360 N.ar   15  U15        -0.1530
    323  C4         2.4750   -5.4700    7.0290 C.ar   15  U15         0.2846
    324  O4         3.2690   -5.0440    7.8710 O.2    15  U15        -0.2650
    325  C5         2.6200   -5.3530    5.6090 C.ar   15  U15         0.0814
    326  C6         1.6810   -5.8580    4.8020 C.ar   15  U15         0.0870
    327  OP1        2.2930   -4.0460   -0.4770 O.2    15  U15        -0.5172
    328  OP2        3.5960   -3.7480    1.7000 O.co2  15  U15        -0.4373
    329  P         -2.6360   -3.1930    2.4780 P.3    16  C16         0.2141
    330  C5'       -4.6410   -4.0170    3.9500 C.3    16  C16         0.1812
    331  O5'       -3.4350   -3.2750    3.8530 O.3    16  C16        -0.3114
    332  C4'       -5.0240   -4.2660    5.3870 C.3    16  C16         0.1773
    333  O4'       -3.9860   -5.0380    6.0490 O.3    16  C16        -0.3307
    334  C3'       -5.1730   -3.0320    6.2620 C.3    16  C16         0.1860
    335  O3'       -6.4160   -2.3760    6.0920 O.3    16  C16        -0.3112
    336  C2'       -4.9670   -3.5950    7.6600 C.3    16  C16         0.2309
    337  O2'       -6.1370   -4.2620    8.1090 O.3    16  C16        -0.2156
    338  C1'       -3.8830   -4.6410    7.4020 C.3    16  C16         0.2420
    339  N1        -2.5280   -4.0980    7.6330 N.ar   16  C16        -0.2535
    340  C2        -2.0380   -4.0590    8.9400 C.ar   16  C16         0.3532
    341  O2        -2.7530   -4.4800    9.8610 O.2    16  C16        -0.2443
    342  N3        -0.8010   -3.5630    9.1690 N.ar   16  C16        -0.1739
    343  C4        -0.0630   -3.1190    8.1520 C.ar   16  C16         0.1759
    344  N4         1.1520   -2.6380    8.4210 N.pl3  16  C16        -0.1070
    345  C5        -0.5380   -3.1460    6.8090 C.ar   16  C16         0.0566
    346  C6        -1.7650   -3.6390    6.5970 C.ar   16  C16         0.0850
    347  OP1       -3.5480   -2.7580    1.3920 O.2    16  C16        -0.5172
    348  OP2       -1.3620   -2.4590    2.6770 O.co2  16  C16        -0.4373
    349  P         -6.6340   -0.9010    6.6940 P.3    17  G17         0.2141
    350  C5'       -6.1300   -0.0350    9.1170 C.3    17  G17         0.1812
    351  O5'       -6.4100   -1.1250    8.2540 O.3    17  G17        -0.3114
    352  C4'       -5.7820   -0.5100   10.5040 C.3    17  G17         0.1773
    353  O4'       -4.6060   -1.3560   10.4540 O.3    17  G17        -0.3307
    354  C3'       -5.4210    0.5710   11.5070 C.3    17  G17         0.1860
    355  O3'       -6.5610    1.1920   12.0720 O.3    17  G17        -0.3112
    356  C2'       -4.5730   -0.1850   12.5240 C.3    17  G17         0.2309
    357  O2'       -5.3980   -0.9000   13.4300 O.3    17  G17        -0.2156
    358  C1'       -3.8460   -1.1940   11.6310 C.3    17  G17         0.2408
    359  N1         0.8020    0.0020   13.3140 N.ar   17  G17        -0.1709
    360  C2        -0.3000   -0.4190   14.0190 C.ar   17  G17         0.2606
    361  N2        -0.1520   -0.5330   15.3480 N.pl3  17  G17        -0.0859
    362  N3        -1.4640   -0.7020   13.4580 N.ar   17  G17        -0.1918
    363  C4        -1.4390   -0.5300   12.1190 C.ar   17  G17         0.1723
    364  C5        -0.3920   -0.1160   11.3220 C.ar   17  G17         0.1748
    365  C6         0.8540    0.1870   11.9350 C.ar   17  G17         0.3023
    366  O6         1.9050    0.5690   11.4040 O.2    17  G17        -0.2633
    367  N7        -0.7800   -0.0690    9.9900 N.ar   17  G17        -0.2173
    368  C8        -2.0280   -0.4490   10.0010 C.ar   17  G17         0.1817
    369  N9        -2.4930   -0.7370   11.2600 N.ar   17  G17        -0.2693
    370  OP1       -8.0460   -0.5260    6.4370 O.3    17  G17        -0.4373
    371  OP2       -5.5560   -0.0420    6.1480 O.co2  17  G17        -0.5172
    372  P         -6.5150    2.7370   12.5060 P.3    18  C18         0.2141
    373  C5'       -5.7940    2.0690   14.9330 C.3    18  C18         0.1812
    374  O5'       -5.4870    2.7350   13.7180 O.3    18  C18        -0.3114
    375  C4'       -4.6840    2.2230   15.9390 C.3    18  C18         0.1773
    376  O4'       -3.5130    1.4920   15.4900 O.3    18  C18        -0.3307
    377  C3'       -4.1740    3.6410   16.1530 C.3    18  C18         0.1860
    378  O3'       -4.9900    4.4000   17.0260 O.3    18  C18        -0.3112
    379  C2'       -2.7660    3.4080   16.6780 C.3    18  C18         0.2309
    380  O2'       -2.7960    3.0300   18.0470 O.3    18  C18        -0.2156
    381  C1'       -2.3410    2.1930   15.8530 C.3    18  C18         0.2420
    382  N1        -1.6290    2.5850   14.6170 N.ar   18  C18        -0.2535
    383  C2        -0.2740    2.9050   14.6970 C.ar   18  C18         0.3532
    384  O2         0.2890    2.8550   15.7990 O.2    18  C18        -0.2443
    385  N3         0.3840    3.2670   13.5720 N.ar   18  C18        -0.1739
    386  C4        -0.2580    3.3110   12.4010 C.ar   18  C18         0.1759
    387  N4         0.4330    3.6700   11.3180 N.pl3  18  C18        -0.1070
    388  C5        -1.6420    2.9900   12.2910 C.ar   18  C18         0.0566
    389  C6        -2.2810    2.6340   13.4140 C.ar   18  C18         0.0850
    390  OP1       -7.8700    3.0940   12.9940 O.3    18  C18        -0.4373
    391  OP2       -5.9470    3.4970   11.3630 O.co2  18  C18        -0.5172
    392  P         -5.1830    5.9810   16.7850 P.3    19  G19         0.2141
    393  C5'       -3.2830    6.3990   18.5390 C.3    19  G19         0.1812
    394  O5'       -3.7730    6.5790   17.2200 O.3    19  G19        -0.3114
    395  C4'       -1.8450    6.8350   18.6530 C.3    19  G19         0.1773
    396  O4'       -1.0040    5.9820   17.8350 O.3    19  G19        -0.3307
    397  C3'       -1.5350    8.2400   18.1610 C.3    19  G19         0.1860
    398  O3'       -1.8540    9.2300   19.1170 O.3    19  G19        -0.3112
    399  C2'       -0.0480    8.1560   17.8540 C.3    19  G19         0.2309
    400  O2'        0.7060    8.2190   19.0560 O.3    19  G19        -0.2156
    401  C1'        0.0630    6.7350   17.3000 C.3    19  G19         0.2408
    402  N1         2.3950    7.5910   12.8030 N.ar   19  G19        -0.1709
    403  C2         2.8600    7.8340   14.0690 C.ar   19  G19         0.2606
    404  N2         4.0930    8.3590   14.1430 N.pl3  19  G19        -0.0859
    405  N3         2.1690    7.5780   15.1740 N.ar   19  G19        -0.1918
    406  C4         0.9510    7.0490   14.9080 C.ar   19  G19         0.1723
    407  C5         0.4010    6.7760   13.6720 C.ar   19  G19         0.1748
    408  C6         1.1510    7.0520   12.5030 C.ar   19  G19         0.3023
    409  O6         0.8280    6.8670   11.3260 O.2    19  G19        -0.2633
    410  N7        -0.8720    6.2450   13.8040 N.ar   19  G19        -0.2173
    411  C8        -1.0770    6.2030   15.0930 C.ar   19  G19         0.1817
    412  N9        -0.0210    6.6890   15.8260 N.ar   19  G19        -0.2693
    413  OP1       -6.2360    6.4400   17.7230 O.3    19  G19        -0.4373
    414  OP2       -5.3870    6.1810   15.3270 O.co2  19  G19        -0.5172
    415  P         -2.5360   10.6100   18.6600 P.3    20  U20         0.2141
    416  C5'       -0.1300   11.6300   18.5170 C.3    20  U20         0.1812
    417  O5'       -1.3600   11.3420   17.8730 O.3    20  U20        -0.3114
    418  C4'        0.9010   12.1340   17.5430 C.3    20  U20         0.1773
    419  O4'        1.3400   11.0550   16.6770 O.3    20  U20        -0.3307
    420  C3'        0.4380   13.2050   16.5760 C.3    20  U20         0.1860
    421  O3'        0.3810   14.4900   17.1670 O.3    20  U20        -0.3112
    422  C2'        1.4630   13.0850   15.4570 C.3    20  U20         0.2309
    423  O2'        2.6920   13.6790   15.8440 O.3    20  U20        -0.2156
    424  C1'        1.6650   11.5710   15.4030 C.3    20  U20         0.2420
    425  N1         0.7960   10.9240   14.3980 N.ar   20  U20        -0.2534
    426  C2         1.2940   10.7750   13.1190 C.ar   20  U20         0.3546
    427  O2         2.3980   11.1570   12.7870 O.2    20  U20        -0.2443
    428  N3         0.4530   10.1610   12.2280 N.ar   20  U20        -0.1530
    429  C4        -0.8130    9.6780   12.4860 C.ar   20  U20         0.2846
    430  O4        -1.4460    9.1430   11.5730 O.2    20  U20        -0.2650
    431  C5        -1.2600    9.8670   13.8340 C.ar   20  U20         0.0814
    432  C6        -0.4590   10.4630   14.7260 C.ar   20  U20         0.0870
    433  OP1       -2.8590   11.3570   19.9000 O.3    20  U20        -0.4373
    434  OP2       -3.6340   10.2680   17.7230 O.co2  20  U20        -0.5172
    435  P         -0.7700   15.5280   16.7410 P.3    21  U21         0.2141
    436  C5'       -0.9260   16.5290   19.1680 C.3    21  U21         0.1812
    437  O5'       -1.5380   15.7950   18.1110 O.3    21  U21        -0.3114
    438  C4'       -1.6620   16.3340   20.4720 C.3    21  U21         0.1773
    439  O4'       -3.0320   16.7980   20.3150 O.3    21  U21        -0.3307
    440  C3'       -1.7560   14.8860   20.9510 C.3    21  U21         0.1860
    441  O3'       -1.7580   14.8520   22.3780 O.3    21  U21        -0.3112
    442  C2'       -3.1230   14.4530   20.4320 C.3    21  U21         0.2309
    443  O2'       -3.7080   13.3800   21.1400 O.3    21  U21        -0.2156
    444  C1'       -3.9320   15.7380   20.5860 C.3    21  U21         0.2420
    445  N1        -5.0660   15.8440   19.6460 N.ar   21  U21        -0.2534
    446  C2        -6.3460   15.9090   20.1660 C.ar   21  U21         0.3546
    447  O2        -6.5790   15.8860   21.3630 O.2    21  U21        -0.2443
    448  N3        -7.3450   16.0020   19.2300 N.ar   21  U21        -0.1530
    449  C4        -7.1970   16.0370   17.8570 C.ar   21  U21         0.2846
    450  O4        -8.1950   16.1250   17.1390 O.2    21  U21        -0.2650
    451  C5        -5.8430   15.9640   17.3990 C.ar   21  U21         0.0814
    452  C6        -4.8500   15.8700   18.2890 C.ar   21  U21         0.0870
    453  OP1       -1.6690   14.8210   15.7930 O.2    21  U21        -0.5172
    454  OP2       -0.0900   16.7660   16.2940 O.co2  21  U21        -0.4373
    455  P         -0.3800   14.6860   23.1900 P.3    22  A22         0.2141
    456  C5'       -0.3660   12.1390   22.5560 C.3    22  A22         0.1812
    457  O5'        0.2840   13.4030   22.5160 O.3    22  A22        -0.3114
    458  C4'        0.6210   10.9970   22.5640 C.3    22  A22         0.1773
    459  O4'        1.3190   10.9440   21.2860 O.3    22  A22        -0.3307
    460  C3'        1.7110   11.0660   23.6450 C.3    22  A22         0.1860
    461  O3'        1.9510    9.7550   24.1540 O.3    22  A22        -0.3112
    462  C2'        2.9350   11.5230   22.8560 C.3    22  A22         0.2309
    463  O2'        4.1710   11.1630   23.4340 O.3    22  A22        -0.2156
    464  C1'        2.7010   10.8100   21.5320 C.3    22  A22         0.2408
    465  N1         4.4830    9.8050   16.8260 N.ar   22  A22        -0.2040
    466  C2         3.7490    9.0900   17.6850 C.ar   22  A22         0.2016
    467  N3         3.3200    9.4250   18.8990 N.ar   22  A22        -0.2048
    468  C4         3.7230   10.6690   19.2290 C.ar   22  A22         0.1692
    469  C5         4.4790   11.5260   18.4500 C.ar   22  A22         0.1518
    470  C6         4.8710   11.0530   17.1810 C.ar   22  A22         0.1919
    471  N6         5.6030   11.7570   16.3110 N.pl3  22  A22        -0.1054
    472  N7         4.6970   12.7250   19.1220 N.ar   22  A22        -0.2193
    473  C8         4.0760   12.5730   20.2690 C.ar   22  A22         0.1816
    474  N9         3.4530   11.3540   20.3950 N.ar   22  A22        -0.2693
    475  OP1       -0.7390   14.3860   24.5970 O.3    22  A22        -0.4373
    476  OP2        0.4410   15.8850   22.9050 O.co2  22  A22        -0.5172
    477  P          2.2950    9.5300   25.7100 P.3    23  A23         0.2141
    478  C5'        0.7510    7.4950   26.2970 C.3    23  A23         0.1812
    479  O5'        2.0270    7.9690   25.9020 O.3    23  A23        -0.3114
    480  C4'        0.1580    6.5490   25.2780 C.3    23  A23         0.1773
    481  O4'        0.1480    7.1690   23.9630 O.3    23  A23        -0.3307
    482  C3'        0.9040    5.2470   25.0430 C.3    23  A23         0.1860
    483  O3'        0.6950    4.2860   26.0610 O.3    23  A23        -0.3112
    484  C2'        0.3660    4.8210   23.6880 C.3    23  A23         0.2309
    485  O2'       -0.9530    4.3100   23.8120 O.3    23  A23        -0.2156
    486  C1'        0.2940    6.1680   22.9710 C.3    23  A23         0.2408
    487  N1         2.9920    4.8810   18.8080 N.ar   23  A23        -0.2040
    488  C2         1.8210    4.4570   19.2980 C.ar   23  A23         0.2016
    489  N3         1.1780    4.8420   20.3960 N.ar   23  A23        -0.2048
    490  C4         1.8740    5.7970   21.0400 C.ar   23  A23         0.1692
    491  C5         3.0890    6.3350   20.6660 C.ar   23  A23         0.1518
    492  C6         3.6650    5.8400   19.4830 C.ar   23  A23         0.1919
    493  N6         4.8310    6.2670   18.9900 N.pl3  23  A23        -0.1054
    494  N7         3.4980    7.2950   21.5810 N.ar   23  A23        -0.2193
    495  C8         2.5370    7.3170   22.4750 C.ar   23  A23         0.1816
    496  N9         1.5220    6.4360   22.2020 N.ar   23  A23        -0.2693
    497  OP1        1.3080   10.3150   26.4920 O.3    23  A23        -0.4373
    498  OP2        3.7400    9.8180   25.8890 O.co2  23  A23        -0.5172
    499  P          1.9360    3.4470   26.6360 P.3    24  G24         0.2141
    500  C5'        1.7840    1.7440   24.6470 C.3    24  G24         0.1812
    501  O5'        2.5250    2.7400   25.3360 O.3    24  G24        -0.3114
    502  C4'        2.4070    1.4110   23.3120 C.3    24  G24         0.1773
    503  O4'        2.5500    2.6200   22.5180 O.3    24  G24        -0.3307
    504  C3'        3.8140    0.8310   23.3550 C.3    24  G24         0.1860
    505  O3'        3.8340   -0.5580   23.6370 O.3    24  G24        -0.3112
    506  C2'        4.3550    1.1770   21.9750 C.3    24  G24         0.2309
    507  O2'        3.8420    0.2830   20.9980 O.3    24  G24        -0.2156
    508  C1'        3.7310    2.5540   21.7460 C.3    24  G24         0.2408
    509  N1         7.7600    5.4570   20.5860 N.ar   24  G24        -0.1709
    510  C2         7.1690    4.4640   19.8450 C.ar   24  G24         0.2606
    511  N2         7.7250    4.2210   18.6490 N.pl3  24  G24        -0.0859
    512  N3         6.1150    3.7670   20.2490 N.ar   24  G24        -0.1918
    513  C4         5.6960    4.1570   21.4750 C.ar   24  G24         0.1723
    514  C5         6.2180    5.1390   22.2910 C.ar   24  G24         0.1748
    515  C6         7.3440    5.8750   21.8460 C.ar   24  G24         0.3023
    516  O6         7.9480    6.7850   22.4290 O.2    24  G24        -0.2633
    517  N7         5.5010    5.2380   23.4730 N.ar   24  G24        -0.2173
    518  C8         4.5710    4.3270   23.3610 C.ar   24  G24         0.1817
    519  N9         4.6300    3.6400   22.1750 N.ar   24  G24        -0.2693
    520  OP1        1.3770    2.4260   27.5590 O.3    24  G24        -0.4373
    521  OP2        2.9150    4.4250   27.1640 O.co2  24  G24        -0.5172
    522  P          5.0710   -1.2060   24.4350 P.3    25  C25         0.2141
    523  C5'        6.5460   -1.5690   22.2890 C.3    25  C25         0.1812
    524  O5'        6.3200   -0.8660   23.5040 O.3    25  C25        -0.3114
    525  C4'        7.7550   -1.0370   21.5570 C.3    25  C25         0.1773
    526  O4'        7.5930    0.3860   21.3080 O.3    25  C25        -0.3307
    527  C3'        9.0810   -1.1330   22.2980 C.3    25  C25         0.1860
    528  O3'        9.6740   -2.4190   22.2080 O.3    25  C25        -0.3112
    529  C2'        9.9110   -0.0330   21.6460 C.3    25  C25         0.2309
    530  O2'       10.4310   -0.4680   20.3960 O.3    25  C25        -0.2156
    531  C1'        8.8480    1.0340   21.3790 C.3    25  C25         0.2420
    532  N1         8.7950    2.0500   22.4500 N.ar   25  C25        -0.2535
    533  C2         9.7490    3.0720   22.4460 C.ar   25  C25         0.3532
    534  O2        10.6140    3.0820   21.5550 O.2    25  C25        -0.2443
    535  N3         9.7120    4.0150   23.4130 N.ar   25  C25        -0.1739
    536  C4         8.7650    3.9680   24.3490 C.ar   25  C25         0.1759
    537  N4         8.7640    4.9230   25.2800 N.pl3  25  C25        -0.1070
    538  C5         7.7770    2.9410   24.3750 C.ar   25  C25         0.0566
    539  C6         7.8260    2.0110   23.4140 C.ar   25  C25         0.0850
    540  OP1        4.8480   -2.6710   24.4640 O.2    25  C25        -0.5172
    541  OP2        5.1900   -0.4790   25.7190 O.co2  25  C25        -0.4373
    542  P         10.2810   -3.1290   23.5190 P.3    26  G26         0.2141
    543  C5'       12.6610   -2.2170   22.9240 C.3    26  G26         0.1812
    544  O5'       11.5710   -2.2530   23.8310 O.3    26  G26        -0.3114
    545  C4'       13.6310   -1.1160   23.2690 C.3    26  G26         0.1773
    546  O4'       13.0050    0.1800   23.0640 O.3    26  G26        -0.3307
    547  C3'       14.0940   -1.0610   24.7140 C.3    26  G26         0.1860
    548  O3'       15.0970   -2.0110   25.0180 O.3    26  G26        -0.3112
    549  C2'       14.5530    0.3800   24.8450 C.3    26  G26         0.2309
    550  O2'       15.7980    0.5740   24.1940 O.3    26  G26        -0.2156
    551  C1'       13.4710    1.0930   24.0400 C.3    26  G26         0.2408
    552  N1        11.7620    4.4850   27.3800 N.ar   26  G26        -0.1709
    553  C2        12.9540    4.4440   26.6970 C.ar   26  G26         0.2606
    554  N2        13.8090    5.4480   26.9410 N.pl3  26  G26        -0.0859
    555  N3        13.2860    3.4940   25.8360 N.ar   26  G26        -0.1918
    556  C4        12.3070    2.5730   25.7170 C.ar   26  G26         0.1723
    557  C5        11.0860    2.5140   26.3500 C.ar   26  G26         0.1748
    558  C6        10.7440    3.5410   27.2680 C.ar   26  G26         0.3023
    559  O6         9.7050    3.6660   27.9290 O.2    26  G26        -0.2633
    560  N7        10.3730    1.3940   25.9430 N.ar   26  G26        -0.2173
    561  C8        11.1600    0.7980   25.0880 C.ar   26  G26         0.1817
    562  N9        12.3410    1.4740   24.9000 N.ar   26  G26        -0.2693
    563  OP1       10.6860   -4.5010   23.1240 O.2    26  G26        -0.5172
    564  OP2        9.2850   -2.9640   24.6050 O.co2  26  G26        -0.4373
    565  P         15.2570   -2.5570   26.5190 P.3    27  U27         0.2141
    566  C5'       16.8720   -0.5960   27.1650 C.3    27  U27         0.1812
    567  O5'       15.6220   -1.2430   27.3380 O.3    27  U27        -0.3114
    568  C4'       17.1160    0.4240   28.2480 C.3    27  U27         0.1773
    569  O4'       16.1640    1.5150   28.1210 O.3    27  U27        -0.3307
    570  C3'       16.9150   -0.0610   29.6730 C.3    27  U27         0.1860
    571  O3'       18.0090   -0.8090   30.1690 O.3    27  U27        -0.3112
    572  C2'       16.6630    1.2360   30.4230 C.3    27  U27         0.2309
    573  O2'       17.8770    1.9510   30.6110 O.3    27  U27        -0.2156
    574  C1'       15.8140    1.9950   29.4050 C.3    27  U27         0.2420
    575  N1        14.3680    1.7680   29.6160 N.ar   27  U27        -0.2534
    576  C2        13.7520    2.5130   30.5990 C.ar   27  U27         0.3546
    577  O2        14.3510    3.3290   31.2800 O.2    27  U27        -0.2443
    578  N3        12.4120    2.2710   30.7630 N.ar   27  U27        -0.1530
    579  C4        11.6390    1.3710   30.0590 C.ar   27  U27         0.2846
    580  O4        10.4420    1.2680   30.3290 O.2    27  U27        -0.2650
    581  C5        12.3490    0.6330   29.0580 C.ar   27  U27         0.0814
    582  C6        13.6570    0.8520   28.8750 C.ar   27  U27         0.0870
    583  OP1       16.4090   -3.4880   26.5180 O.2    27  U27        -0.5172
    584  OP2       13.9300   -3.0650   26.9490 O.co2  27  U27        -0.4373
    585  P         17.7660   -1.9520   31.2720 P.3    28  G28         0.2141
    586  C5'       18.5490   -0.2790   33.1250 C.3    28  G28         0.1812
    587  O5'       17.5300   -1.1110   32.5990 O.3    28  G28        -0.3114
    588  C4'       18.0970    0.3890   34.3930 C.3    28  G28         0.1773
    589  O4'       17.0380    1.3310   34.0910 O.3    28  G28        -0.3307
    590  C3'       17.4860   -0.5310   35.4380 C.3    28  G28         0.1860
    591  O3'       18.4590   -1.1940   36.2250 O.3    28  G28        -0.3112
    592  C2'       16.5940    0.4100   36.2330 C.3    28  G28         0.2309
    593  O2'       17.3640    1.1770   37.1460 O.3    28  G28        -0.2156
    594  C1'       16.0900    1.3420   35.1340 C.3    28  G28         0.2408
    595  N1        11.0670    1.3530   35.8280 N.ar   28  G28        -0.1709
    596  C2        12.0650    1.8800   36.6110 C.ar   28  G28         0.2606
    597  N2        11.6790    2.5010   37.7360 N.pl3  28  G28        -0.0859
    598  N3        13.3500    1.8050   36.3160 N.ar   28  G28        -0.1918
    599  C4        13.5630    1.1540   35.1530 C.ar   28  G28         0.1723
    600  C5        12.6430    0.5870   34.2990 C.ar   28  G28         0.1748
    601  C6        11.2650    0.6730   34.6280 C.ar   28  G28         0.3023
    602  O6        10.2900    0.2430   34.0000 O.2    28  G28        -0.2633
    603  N7        13.2840    0.0080   33.2100 N.ar   28  G28        -0.2173
    604  C8        14.5540    0.2270   33.4210 C.ar   28  G28         0.1817
    605  N9        14.7890    0.9110   34.5890 N.ar   28  G28        -0.2693
    606  OP1       19.0240   -2.7290   31.3830 O.3    28  G28        -0.4373
    607  OP2       16.5190   -2.6650   30.9010 O.co2  28  G28        -0.5172
    608  P         18.1840   -2.6790   36.7650 P.3    29  U29         0.2141
    609  C5'       17.5790   -1.8180   39.1610 C.3    29  U29         0.1812
    610  O5'       17.1580   -2.4380   37.9550 O.3    29  U29        -0.3114
    611  C4'       16.4100   -1.4980   40.0550 C.3    29  U29         0.1773
    612  O4'       15.4870   -0.6170   39.3640 O.3    29  U29        -0.3307
    613  C3'       15.5430   -2.6750   40.4650 C.3    29  U29         0.1860
    614  O3'       16.1070   -3.4410   41.5140 O.3    29  U29        -0.3112
    615  C2'       14.2350   -1.9930   40.8350 C.3    29  U29         0.2309
    616  O2'       14.3390   -1.3640   42.1040 O.3    29  U29        -0.2156
    617  C1'       14.1630   -0.9040   39.7670 C.3    29  U29         0.2420
    618  N1        13.3890   -1.3380   38.5840 N.ar   29  U29        -0.2534
    619  C2        12.0150   -1.2150   38.6570 C.ar   29  U29         0.3546
    620  O2        11.4380   -0.7780   39.6380 O.2    29  U29        -0.2443
    621  N3        11.3360   -1.6240   37.5400 N.ar   29  U29        -0.1530
    622  C4        11.8760   -2.1410   36.3810 C.ar   29  U29         0.2846
    623  O4        11.1210   -2.4690   35.4650 O.2    29  U29        -0.2650
    624  C5        13.3050   -2.2380   36.3800 C.ar   29  U29         0.0814
    625  C6        13.9970   -1.8430   37.4540 C.ar   29  U29         0.0870
    626  OP1       19.4700   -3.1930   37.3020 O.3    29  U29        -0.4373
    627  OP2       17.5190   -3.4270   35.6710 O.co2  29  U29        -0.5172
    628  P         15.7830   -5.0130   41.6310 P.3    30  G30         0.2141
    629  C5'       13.7710   -4.3980   43.1780 C.3    30  G30         0.1812
    630  O5'       14.2390   -5.0270   41.9980 O.3    30  G30        -0.3114
    631  C4'       12.2690   -4.3980   43.2420 C.3    30  G30         0.1773
    632  O4'       11.7290   -3.5420   42.2040 O.3    30  G30        -0.3307
    633  C3'       11.5880   -5.7320   42.9910 C.3    30  G30         0.1860
    634  O3'       11.6290   -6.5990   44.1110 O.3    30  G30        -0.3112
    635  C2'       10.1850   -5.3010   42.5950 C.3    30  G30         0.2309
    636  O2'        9.4450   -4.8940   43.7360 O.3    30  G30        -0.2156
    637  C1'       10.4900   -4.0590   41.7600 C.3    30  G30         0.2408
    638  N1         7.8530   -5.0380   37.5660 N.ar   30  G30        -0.1709
    639  C2         7.4190   -4.7600   38.8390 C.ar   30  G30         0.2606
    640  N2         6.0920   -4.7340   39.0290 N.pl3  30  G30        -0.0859
    641  N3         8.2300   -4.5190   39.8520 N.ar   30  G30        -0.1918
    642  C4         9.5270   -4.5790   39.4880 C.ar   30  G30         0.1723
    643  C5        10.0700   -4.8520   38.2530 C.ar   30  G30         0.1748
    644  C6         9.1870   -5.1080   37.1700 C.ar   30  G30         0.3023
    645  O6         9.4590   -5.3690   35.9930 O.2    30  G30        -0.2633
    646  N7        11.4580   -4.8170   38.3130 N.ar   30  G30        -0.2173
    647  C8        11.7280   -4.5350   39.5600 C.ar   30  G30         0.1817
    648  N9        10.5960   -4.3780   40.3240 N.ar   30  G30        -0.2693
    649  OP1       16.5740   -5.5380   42.7660 O.3    30  G30        -0.4373
    650  OP2       15.9860   -5.6060   40.2850 O.co2  30  G30        -0.5172
    651  P         11.4100   -8.1820   43.9160 P.3    31  U31         0.2141
    652  C5'        8.8780   -7.8320   44.4820 C.3    31  U31         0.1812
    653  O5'        9.8640   -8.2800   43.5660 O.3    31  U31        -0.3114
    654  C4'        7.4950   -8.0240   43.9260 C.3    31  U31         0.1773
    655  O4'        7.3210   -7.1850   42.7560 O.3    31  U31        -0.3307
    656  C3'        7.1740   -9.4260   43.4320 C.3    31  U31         0.1860
    657  O3'        6.7950  -10.3040   44.4800 O.3    31  U31        -0.3112
    658  C2'        6.0780   -9.1780   42.4020 C.3    31  U31         0.2309
    659  O2'        4.8270   -8.9650   43.0390 O.3    31  U31        -0.2156
    660  C1'        6.5350   -7.8510   41.7940 C.3    31  U31         0.2420
    661  N1         7.3510   -8.0410   40.5730 N.ar   31  U31        -0.2534
    662  C2         6.6870   -8.1700   39.3700 C.ar   31  U31         0.3546
    663  O2         5.4720   -8.1580   39.2840 O.2    31  U31        -0.2443
    664  N3         7.4970   -8.3280   38.2710 N.ar   31  U31        -0.1530
    665  C4         8.8770   -8.3590   38.2530 C.ar   31  U31         0.2846
    666  O4         9.4690   -8.5070   37.1790 O.2    31  U31        -0.2650
    667  C5         9.4910   -8.2060   39.5380 C.ar   31  U31         0.0814
    668  C6         8.7260   -8.0530   40.6250 C.ar   31  U31         0.0870
    669  OP1       11.6730   -8.8250   45.2240 O.3    31  U31        -0.4373
    670  OP2       12.2180   -8.5970   42.7440 O.co2  31  U31        -0.5172
    671  P          6.7700  -11.8930   44.2410 P.3    32  G32         0.2141
    672  C5'        5.3420  -13.2250   42.5080 C.3    32  G32         0.1812
    673  O5'        5.4870  -12.0790   43.3230 O.3    32  G32        -0.3114
    674  C4'        4.4280  -12.9570   41.3440 C.3    32  G32         0.1773
    675  O4'        4.8400  -11.7470   40.6580 O.3    32  G32        -0.3307
    676  C3'        4.4260  -14.0120   40.2570 C.3    32  G32         0.1860
    677  O3'        3.6270  -15.1350   40.5840 O.3    32  G32        -0.3112
    678  C2'        3.9400  -13.2360   39.0420 C.3    32  G32         0.2309
    679  O2'        2.5320  -13.0530   39.0900 O.3    32  G32        -0.2156
    680  C1'        4.6110  -11.8800   39.2700 C.3    32  G32         0.2408
    681  N1         7.0120  -11.7090   34.7750 N.ar   32  G32        -0.1709
    682  C2         5.6700  -11.8260   35.0410 C.ar   32  G32         0.2606
    683  N2         4.8620  -11.9020   33.9740 N.pl3  32  G32        -0.0859
    684  N3         5.1580  -11.8630   36.2610 N.ar   32  G32        -0.1918
    685  C4         6.1120  -11.7670   37.2110 C.ar   32  G32         0.1723
    686  C5         7.4770  -11.6490   37.0510 C.ar   32  G32         0.1748
    687  C6         8.0100  -11.6150   35.7370 C.ar   32  G32         0.3023
    688  O6         9.1900  -11.5120   35.3870 O.2    32  G32        -0.2633
    689  N7         8.1130  -11.5810   38.2820 N.ar   32  G32        -0.2173
    690  C8         7.1440  -11.6580   39.1530 C.ar   32  G32         0.1817
    691  N9         5.9050  -11.7770   38.5710 N.ar   32  G32        -0.2693
    692  OP1        6.5420  -12.5340   45.5600 O.3    32  G32        -0.4373
    693  OP2        7.9950  -12.2470   43.4780 O.co2  32  G32        -0.5172
    694  P          4.0190  -16.5870   40.0290 P.3    33  A33         0.2141
    695  C5'        2.3040  -16.1150   38.1120 C.3    33  A33         0.1812
    696  O5'        3.6160  -16.4910   38.4990 O.3    33  A33        -0.3114
    697  C4'        2.1680  -16.1030   36.6160 C.3    33  A33         0.1773
    698  O4'        2.9250  -14.9910   36.0710 O.3    33  A33        -0.3307
    699  C3'        2.7300  -17.3230   35.8960 C.3    33  A33         0.1860
    700  O3'        1.8330  -18.4220   35.8890 O.3    33  A33        -0.3112
    701  C2'        3.0440  -16.7750   34.5130 C.3    33  A33         0.2309
    702  O2'        1.8580  -16.6460   33.7440 O.3    33  A33        -0.2156
    703  C1'        3.5360  -15.3720   34.8580 C.3    33  A33         0.2408
    704  N1         8.1360  -14.8330   32.5640 N.ar   33  A33        -0.2040
    705  C2         6.8900  -14.8810   32.0770 C.ar   33  A33         0.2016
    706  N3         5.7350  -15.0270   32.7250 N.ar   33  A33        -0.2048
    707  C4         5.9420  -15.1380   34.0490 C.ar   33  A33         0.1692
    708  C5         7.1620  -15.1110   34.6980 C.ar   33  A33         0.1518
    709  C6         8.3080  -14.9470   33.9000 C.ar   33  A33         0.1919
    710  N6         9.5500  -14.9020   34.3890 N.pl3  33  A33        -0.1054
    711  N7         6.9910  -15.2560   36.0690 N.ar   33  A33        -0.2193
    712  C8         5.6930  -15.3660   36.2200 C.ar   33  A33         0.1816
    713  N9         5.0000  -15.3140   35.0360 N.ar   33  A33        -0.2693
    714  OP1        3.1500  -17.5710   40.7210 O.3    33  A33        -0.4373
    715  OP2        5.4910  -16.7240   40.1530 O.co2  33  A33        -0.5172
    716  P          2.3820  -19.9260   35.7040 P.3    34  A34         0.2141
    717  C5'        1.7190  -19.7840   33.1760 C.3    34  A34         0.1812
    718  O5'        2.7270  -19.9880   34.1530 O.3    34  A34        -0.3114
    719  C4'        2.3000  -19.7290   31.7890 C.3    34  A34         0.1773
    720  O4'        3.1080  -18.5300   31.6390 O.3    34  A34        -0.3307
    721  C3'        3.2490  -20.8550   31.4220 C.3    34  A34         0.1860
    722  O3'        2.5810  -22.0490   31.0530 O.3    34  A34        -0.3112
    723  C2'        4.0700  -20.2330   30.3010 C.3    34  A34         0.2309
    724  O2'        3.3240  -20.1890   29.0940 O.3    34  A34        -0.2156
    725  C1'        4.2270  -18.8050   30.8210 C.3    34  A34         0.2408
    726  N1         9.2380  -17.6320   30.8060 N.ar   34  A34        -0.2040
    727  C2         8.3170  -17.6680   29.8320 C.ar   34  A34         0.2016
    728  N3         7.0240  -17.9830   29.9080 N.ar   34  A34        -0.2048
    729  C4         6.6850  -18.2900   31.1730 C.ar   34  A34         0.1692
    730  C5         7.5160  -18.2980   32.2770 C.ar   34  A34         0.1518
    731  C6         8.8610  -17.9480   32.0660 C.ar   34  A34         0.1919
    732  N6         9.7750  -17.9170   33.0420 N.pl3  34  A34        -0.1054
    733  N7         6.8130  -18.6660   33.4140 N.ar   34  A34        -0.2193
    734  C8         5.5920  -18.8750   32.9810 C.ar   34  A34         0.1816
    735  N9         5.4460  -18.6580   31.6360 N.ar   34  A34        -0.2693
    736  OP1        1.2520  -20.8390   36.0040 O.2    34  A34        -0.5172
    737  OP2        3.6260  -20.0470   36.5020 O.co2  34  A34        -0.4373
    738  P          3.4110  -23.4110   30.8560 P.3    35  U35         0.2141
    739  C5'        5.6600  -23.6990   29.5390 C.3    35  U35         0.1812
    740  O5'        4.4190  -23.0310   29.6850 O.3    35  U35        -0.3114
    741  C4'        6.5660  -22.9600   28.5890 C.3    35  U35         0.1773
    742  O4'        6.9450  -21.6800   29.1640 O.3    35  U35        -0.3307
    743  C3'        7.8930  -23.6330   28.2670 C.3    35  U35         0.1860
    744  O3'        7.7750  -24.6250   27.2590 O.3    35  U35        -0.3112
    745  C2'        8.7670  -22.4570   27.8520 C.3    35  U35         0.2309
    746  O2'        8.4830  -22.0730   26.5150 O.3    35  U35        -0.2156
    747  C1'        8.2650  -21.3550   28.7860 C.3    35  U35         0.2420
    748  N1         9.0950  -21.2390   30.0060 N.ar   35  U35        -0.2534
    749  C2        10.3170  -20.6170   29.8580 C.ar   35  U35         0.3546
    750  O2        10.7150  -20.1890   28.7880 O.2    35  U35        -0.2443
    751  N3        11.0620  -20.5220   31.0030 N.ar   35  U35        -0.1530
    752  C4        10.7200  -20.9740   32.2600 C.ar   35  U35         0.2846
    753  O4        11.5110  -20.8050   33.1910 O.2    35  U35        -0.2650
    754  C5         9.4340  -21.6050   32.3380 C.ar   35  U35         0.0814
    755  C6         8.6830  -21.7100   31.2310 C.ar   35  U35         0.0870
    756  OP1        2.4550  -24.4420   30.3860 O.2    35  U35        -0.5172
    757  OP2        4.1610  -23.6550   32.1110 O.co2  35  U35        -0.4373
    758  P          7.7450  -26.1880   27.6410 P.3    36  G36         0.2141
    759  C5'        8.3930  -28.1440   26.0130 C.3    36  G36         0.1812
    760  O5'        8.6590  -26.8370   26.5150 O.3    36  G36        -0.3114
    761  C4'        8.4700  -28.1780   24.5080 C.3    36  G36         0.1773
    762  O4'        9.7920  -27.7450   24.0860 O.3    36  G36        -0.3307
    763  C3'        8.2300  -29.5500   23.8590 C.3    36  G36         0.1860
    764  O3'        7.3440  -29.4100   22.7490 O.3    36  G36        -0.3112
    765  C2'        9.6170  -29.9530   23.3510 C.3    36  G36         0.2309
    766  O2'        9.6000  -30.7700   22.1990 O.3    36  G36        -0.2156
    767  C1'       10.2520  -28.5970   23.0650 C.3    36  G36         0.2408
    768  N1        14.4620  -27.3110   20.5090 N.ar   36  G36        -0.1709
    769  C2        13.1430  -27.1230   20.1800 C.ar   36  G36         0.2606
    770  N2        12.9070  -26.5100   19.0110 N.pl3  36  G36        -0.0859
    771  N3        12.1280  -27.5030   20.9370 N.ar   36  G36        -0.1918
    772  C4        12.5400  -28.1040   22.0760 C.ar   36  G36         0.1723
    773  C5        13.8340  -28.3410   22.4970 C.ar   36  G36         0.1748
    774  C6        14.9180  -27.9280   21.6710 C.ar   36  G36         0.3023
    775  O6        16.1380  -28.0470   21.8640 O.2    36  G36        -0.2633
    776  N7        13.8280  -28.9780   23.7270 N.ar   36  G36        -0.2173
    777  C8        12.5630  -29.1210   24.0290 C.ar   36  G36         0.1817
    778  N9        11.7210  -28.6010   23.0720 N.ar   36  G36        -0.2693
    779  OP1        6.3430  -26.6470   27.4850 O.2    36  G36        -0.5172
    780  OP2        8.3990  -26.3330   28.9640 O.co2  36  G36        -0.4373
    781  P          5.7660  -29.6600   22.9360 P.3    37  G37         0.2141
    782  C5'        4.4450  -31.7840   23.7130 C.3    37  G37         0.1812
    783  O5'        5.6980  -31.1420   23.5140 O.3    37  G37        -0.3114
    784  C4'        4.5880  -33.0530   24.5170 C.3    37  G37         0.1773
    785  O4'        5.6060  -33.9000   23.9250 O.3    37  G37        -0.3307
    786  C3'        5.0400  -32.8830   25.9570 C.3    37  G37         0.1860
    787  O3'        3.9810  -32.5230   26.8240 O.3    37  G37        -0.3112
    788  C2'        5.6480  -34.2410   26.2760 C.3    37  G37         0.2309
    789  O2'        4.6290  -35.1880   26.5620 O.3    37  G37        -0.2156
    790  C1'        6.2870  -34.6100   24.9380 C.3    37  G37         0.2408
    791  N1        10.9110  -35.1780   27.0360 N.ar   37  G37        -0.1709
    792  C2         9.7110  -35.7250   27.4150 C.ar   37  G37         0.2606
    793  N2         9.7450  -36.5290   28.4890 N.pl3  37  G37        -0.0859
    794  N3         8.5640  -35.5060   26.7910 N.ar   37  G37        -0.1918
    795  C4         8.7150  -34.6780   25.7330 C.ar   37  G37         0.1723
    796  C5         9.8710  -34.0790   25.2740 C.ar   37  G37         0.1748
    797  C6        11.0960  -34.3260   25.9520 C.ar   37  G37         0.3023
    798  O6        12.2300  -33.8920   25.6970 O.2    37  G37        -0.2633
    799  N7         9.6020  -33.2950   24.1590 N.ar   37  G37        -0.2173
    800  C8         8.3190  -33.4290   23.9630 C.ar   37  G37         0.1817
    801  N9         7.7160  -34.2480   24.8850 N.ar   37  G37        -0.2693
    802  OP1        5.1550  -29.6200   21.5840 O.2    37  G37        -0.5172
    803  OP2        5.2910  -28.6960   23.9650 O.co2  37  G37        -0.4373
    804  P          4.2680  -31.6240   28.1230 P.3    38  G38         0.2141
    805  C5'        4.3590  -33.6400   29.8000 C.3    38  G38         0.1812
    806  O5'        5.0500  -32.6270   29.0830 O.3    38  G38        -0.3114
    807  C4'        5.2230  -34.2440   30.8800 C.3    38  G38         0.1773
    808  O4'        6.3340  -34.9630   30.2780 O.3    38  G38        -0.3307
    809  C3'        5.8980  -33.2630   31.8280 C.3    38  G38         0.1860
    810  O3'        5.0360  -32.7810   32.8450 O.3    38  G38        -0.3112
    811  C2'        7.0730  -34.0760   32.3520 C.3    38  G38         0.2309
    812  O2'        6.6390  -35.0230   33.3190 O.3    38  G38        -0.2156
    813  C1'        7.4850  -34.8330   31.0910 C.3    38  G38         0.2408
    814  N1        12.4080  -33.5910   30.8170 N.ar   38  G38        -0.1709
    815  C2        11.7480  -34.3530   31.7460 C.ar   38  G38         0.2606
    816  N2        12.4950  -34.8510   32.7380 N.pl3  38  G38        -0.0859
    817  N3        10.4510  -34.6090   31.7080 N.ar   38  G38        -0.1918
    818  C4         9.8530  -34.0300   30.6450 C.ar   38  G38         0.1723
    819  C5        10.4200  -33.2500   29.6610 C.ar   38  G38         0.1748
    820  C6        11.8130  -32.9870   29.7150 C.ar   38  G38         0.3023
    821  O6        12.5040  -32.3220   28.9340 O.2    38  G38        -0.2633
    822  N7         9.4600  -32.8430   28.7460 N.ar   38  G38        -0.2173
    823  C8         8.3460  -33.3710   29.1810 C.ar   38  G38         0.1817
    824  N9         8.5180  -34.1060   30.3290 N.ar   38  G38        -0.2693
    825  OP1        2.9500  -31.2840   28.7110 O.3    38  G38        -0.4373
    826  OP2        5.1690  -30.5220   27.7040 O.co2  38  G38        -0.5172
    827  P          5.2960  -31.3380   33.5040 P.3    39  A39         0.2141
    828  C5'        6.6240  -32.3850   35.5040 C.3    39  A39         0.1812
    829  O5'        6.6290  -31.5660   34.3460 O.3    39  A39        -0.3114
    830  C4'        7.9830  -32.4400   36.1570 C.3    39  A39         0.1773
    831  O4'        8.9370  -33.0870   35.2710 O.3    39  A39        -0.3307
    832  C3'        8.6350  -31.1030   36.4720 C.3    39  A39         0.1860
    833  O3'        8.1190  -30.4890   37.6400 O.3    39  A39        -0.3112
    834  C2'       10.1040  -31.4840   36.5770 C.3    39  A39         0.2309
    835  O2'       10.3640  -32.1410   37.8090 O.3    39  A39        -0.2156
    836  C1'       10.2180  -32.5140   35.4530 C.3    39  A39         0.2408
    837  N1        14.1610  -30.6330   32.7300 N.ar   39  A39        -0.2040
    838  C2        14.0890  -31.1740   33.9520 C.ar   39  A39         0.2016
    839  N3        13.0270  -31.6430   34.6010 N.ar   39  A39        -0.2048
    840  C4        11.9180  -31.5180   33.8520 C.ar   39  A39         0.1692
    841  C5        11.8320  -30.9810   32.5830 C.ar   39  A39         0.1518
    842  C6        13.0280  -30.5170   32.0050 C.ar   39  A39         0.1919
    843  N6        13.1020  -29.9730   30.7860 N.pl3  39  A39        -0.1054
    844  N7        10.5220  -31.0180   32.1230 N.ar   39  A39        -0.2193
    845  C8         9.8540  -31.5620   33.1100 C.ar   39  A39         0.1816
    846  N9        10.6390  -31.8930   34.1860 N.ar   39  A39        -0.2693
    847  OP1        4.1620  -31.0660   34.4180 O.3    39  A39        -0.4373
    848  OP2        5.5590  -30.3900   32.3920 O.co2  39  A39        -0.5172
    849  P          7.9800  -28.8880   37.7180 P.3    40  U40         0.2141
    850  C5'       10.3770  -28.7810   38.7620 C.3    40  U40         0.1812
    851  O5'        9.4960  -28.4000   37.7200 O.3    40  U40        -0.3114
    852  C4'       11.8080  -28.4360   38.4400 C.3    40  U40         0.1773
    853  O4'       12.2250  -29.1060   37.2210 O.3    40  U40        -0.3307
    854  C3'       12.1050  -26.9760   38.1520 C.3    40  U40         0.1860
    855  O3'       12.1540  -26.1720   39.3140 O.3    40  U40        -0.3112
    856  C2'       13.4330  -27.0710   37.4160 C.3    40  U40         0.2309
    857  O2'       14.4910  -27.3400   38.3260 O.3    40  U40        -0.2156
    858  C1'       13.2030  -28.3210   36.5670 C.3    40  U40         0.2420
    859  N1        12.7220  -27.9840   35.2100 N.ar   40  U40        -0.2534
    860  C2        13.6920  -27.5510   34.3320 C.ar   40  U40         0.3546
    861  O2        14.8630  -27.4540   34.6600 O.2    40  U40        -0.2443
    862  N3        13.2480  -27.2340   33.0720 N.ar   40  U40        -0.1530
    863  C4        11.9510  -27.3100   32.6080 C.ar   40  U40         0.2846
    864  O4        11.7110  -26.9920   31.4390 O.2    40  U40        -0.2650
    865  C5        11.0000  -27.7670   33.5810 C.ar   40  U40         0.0814
    866  C6        11.4070  -28.0810   34.8210 C.ar   40  U40         0.0870
    867  OP1        7.3460  -28.5700   39.0190 O.3    40  U40        -0.4373
    868  OP2        7.3100  -28.4450   36.4700 O.co2  40  U40        -0.5172
    869  P         11.6540  -24.6440   39.2580 P.3    41  G41         0.2141
    870  C5'       14.0610  -23.8320   38.6240 C.3    41  G41         0.1812
    871  O5'       12.6960  -23.9670   38.2630 O.3    41  G41        -0.3114
    872  C4'       14.8820  -23.2570   37.4980 C.3    41  G41         0.1773
    873  O4'       14.8110  -24.1190   36.3350 O.3    41  G41        -0.3307
    874  C3'       14.4480  -21.8980   36.9690 C.3    41  G41         0.1860
    875  O3'       14.8640  -20.8300   37.8070 O.3    41  G41        -0.3112
    876  C2'       15.0810  -21.8730   35.5820 C.3    41  G41         0.2309
    877  O2'       16.4580  -21.5420   35.6680 O.3    41  G41        -0.2156
    878  C1'       14.9680  -23.3450   35.1630 C.3    41  G41         0.2408
    879  N1        13.3500  -23.4310   30.3440 N.ar   41  G41        -0.1709
    880  C2        14.5900  -23.1150   30.8460 C.ar   41  G41         0.2606
    881  N2        15.5260  -22.7800   29.9450 N.pl3  41  G41        -0.0859
    882  N3        14.8880  -23.1270   32.1370 N.ar   41  G41        -0.1918
    883  C4        13.8300  -23.4920   32.8960 C.ar   41  G41         0.1723
    884  C5        12.5530  -23.8260   32.4920 C.ar   41  G41         0.1748
    885  C6        12.2460  -23.8010   31.1050 C.ar   41  G41         0.3023
    886  O6        11.1750  -24.0580   30.5420 O.2    41  G41        -0.2633
    887  N7        11.7590  -24.1340   33.5890 N.ar   41  G41        -0.2173
    888  C8        12.5510  -23.9870   34.6190 C.ar   41  G41         0.1817
    889  N9        13.8200  -23.5920   34.2700 N.ar   41  G41        -0.2693
    890  OP1       11.8160  -24.0830   40.6190 O.3    41  G41        -0.4373
    891  OP2       10.3040  -24.6470   38.6440 O.co2  41  G41        -0.5172
    892  P         14.3700  -19.3240   37.5260 P.3    42  U42         0.2141
    893  C5'       16.9040  -18.8360   37.0460 C.3    42  U42         0.1812
    894  O5'       15.5460  -18.7300   36.6320 O.3    42  U42        -0.3114
    895  C4'       17.8300  -18.1530   36.0750 C.3    42  U42         0.1773
    896  O4'       17.6970  -18.7880   34.7740 O.3    42  U42        -0.3307
    897  C3'       17.5470  -16.6700   35.8520 C.3    42  U42         0.1860
    898  O3'       18.7680  -15.9870   35.5820 O.3    42  U42        -0.3112
    899  C2'       16.6810  -16.6790   34.6010 C.3    42  U42         0.2309
    900  O2'       16.6950  -15.4740   33.8680 O.3    42  U42        -0.2156
    901  C1'       17.2970  -17.8300   33.8120 C.3    42  U42         0.2420
    902  N1        16.3550  -18.4740   32.8750 N.ar   42  U42        -0.2534
    903  C2        16.7250  -18.5670   31.5480 C.ar   42  U42         0.3546
    904  O2        17.7960  -18.1600   31.1290 O.2    42  U42        -0.2443
    905  N3        15.7940  -19.1570   30.7280 N.ar   42  U42        -0.1530
    906  C4        14.5580  -19.6480   31.0990 C.ar   42  U42         0.2846
    907  O4        13.8330  -20.1570   30.2450 O.2    42  U42        -0.2650
    908  C5        14.2500  -19.5130   32.4890 C.ar   42  U42         0.0814
    909  C6        15.1350  -18.9380   33.3080 C.ar   42  U42         0.0870
    910  OP1       14.3330  -18.6300   38.8350 O.3    42  U42        -0.4373
    911  OP2       13.1240  -19.4070   36.7280 O.co2  42  U42        -0.5172
    912  P         19.4450  -15.0820   36.7210 P.3    43  C43         0.2141
    913  C5'       19.7940  -12.8940   35.3110 C.3    43  C43         0.1812
    914  O5'       20.3480  -14.0760   35.8800 O.3    43  C43        -0.3114
    915  C4'       20.4140  -12.5790   33.9730 C.3    43  C43         0.1773
    916  O4'       21.8510  -12.8030   34.0490 O.3    43  C43        -0.3307
    917  C3'       19.9120  -13.4310   32.8070 C.3    43  C43         0.1860
    918  O3'       19.9110  -12.6470   31.6140 O.3    43  C43        -0.3112
    919  C2'       20.9800  -14.5160   32.7050 C.3    43  C43         0.2309
    920  O2'       21.0790  -15.1290   31.4360 O.3    43  C43        -0.2156
    921  C1'       22.2420  -13.7340   33.0580 C.3    43  C43         0.2420
    922  N1        23.3360  -14.5690   33.6070 N.ar   43  C43        -0.2535
    923  C2        24.6250  -14.4300   33.0810 C.ar   43  C43         0.3532
    924  O2        24.8190  -13.6030   32.1760 O.2    43  C43        -0.2443
    925  N3        25.6280  -15.1970   33.5740 N.ar   43  C43        -0.1739
    926  C4        25.3850  -16.0790   34.5490 C.ar   43  C43         0.1759
    927  N4        26.4060  -16.8130   35.0050 N.pl3  43  C43        -0.1070
    928  C5        24.0810  -16.2430   35.1000 C.ar   43  C43         0.0566
    929  C6        23.0970  -15.4780   34.6020 C.ar   43  C43         0.0850
    930  OP1       20.3070  -15.9750   37.5320 O.3    43  C43        -0.4373
    931  OP2       18.3510  -14.3390   37.3950 O.co2  43  C43        -0.5172
    932  P         18.5900  -11.8440   31.1700 P.3    44  G44         0.2141
    933  C5'       18.7160  -13.0130   28.8300 C.3    44  G44         0.1812
    934  O5'       17.9870  -12.7670   30.0230 O.3    44  G44        -0.3114
    935  C4'       17.9320  -13.8780   27.8790 C.3    44  G44         0.1773
    936  O4'       17.7470  -15.1970   28.4580 O.3    44  G44        -0.3307
    937  C3'       16.5190  -13.4060   27.5670 C.3    44  G44         0.1860
    938  O3'       16.4800  -12.4060   26.5640 O.3    44  G44        -0.3112
    939  C2'       15.8130  -14.6960   27.1720 C.3    44  G44         0.2309
    940  O2'       16.1330  -15.0570   25.8360 O.3    44  G44        -0.2156
    941  C1'       16.4740  -15.7010   28.1160 C.3    44  G44         0.2408
    942  N1        12.0500  -17.2130   30.0850 N.ar   44  G44        -0.1709
    943  C2        12.4600  -17.1710   28.7750 C.ar   44  G44         0.2606
    944  N2        11.5770  -17.5850   27.8540 N.pl3  44  G44        -0.0859
    945  N3        13.6520  -16.7500   28.3910 N.ar   44  G44        -0.1918
    946  C4        14.4150  -16.3720   29.4360 C.ar   44  G44         0.1723
    947  C5        14.1040  -16.3750   30.7790 C.ar   44  G44         0.1748
    948  C6        12.8210  -16.8290   31.1780 C.ar   44  G44         0.3023
    949  O6        12.3530  -16.9100   32.3190 O.2    44  G44        -0.2633
    950  N7        15.1720  -15.9010   31.5300 N.ar   44  G44        -0.2173
    951  C8        16.0950  -15.6290   30.6450 C.ar   44  G44         0.1817
    952  N9        15.6970  -15.8880   29.3560 N.ar   44  G44        -0.2693
    953  OP1       19.0350  -10.5520   30.5940 O.2    44  G44        -0.5172
    954  OP2       17.6740  -11.8250   32.3370 O.co2  44  G44        -0.4373
    955  P         15.3990  -11.2220   26.6440 P.3    45  U45         0.2141
    956  C5'       13.5300  -12.5380   25.3710 C.3    45  U45         0.1812
    957  O5'       14.0140  -12.0020   26.5900 O.3    45  U45        -0.3114
    958  C4'       12.1140  -13.0400   25.5100 C.3    45  U45         0.1773
    959  O4'       12.0710  -14.1740   26.4180 O.3    45  U45        -0.3307
    960  C3'       11.1110  -12.0690   26.1080 C.3    45  U45         0.1860
    961  O3'       10.6700  -11.0890   25.1890 O.3    45  U45        -0.3112
    962  C2'       10.0100  -13.0050   26.5770 C.3    45  U45         0.2309
    963  O2'        9.2420  -13.4610   25.4740 O.3    45  U45        -0.2156
    964  C1'       10.8360  -14.1790   27.1090 C.3    45  U45         0.2420
    965  N1        11.1020  -14.0430   28.5520 N.ar   45  U45        -0.2534
    966  C2        10.0580  -14.3330   29.4060 C.ar   45  U45         0.3546
    967  O2         8.9630  -14.6990   29.0120 O.2    45  U45        -0.2443
    968  N3        10.3390  -14.1750   30.7380 N.ar   45  U45        -0.1530
    969  C4        11.5350  -13.7620   31.2860 C.ar   45  U45         0.2846
    970  O4        11.6340  -13.6760   32.5080 O.2    45  U45        -0.2650
    971  C5        12.5650  -13.4770   30.3350 C.ar   45  U45         0.0814
    972  C6        12.3210  -13.6180   29.0290 C.ar   45  U45         0.0870
    973  OP1       15.5630  -10.3990   25.4200 O.2    45  U45        -0.5172
    974  OP2       15.5600  -10.5720   27.9690 O.co2  45  U45        -0.4373
    975  P         10.1970   -9.6450   25.7100 P.3    46  C46         0.2141
    976  C5'        7.7380  -10.5490   25.5950 C.3    46  C46         0.1812
    977  O5'        8.7750   -9.9470   26.3550 O.3    46  C46        -0.3114
    978  C4'        6.6020  -10.9950   26.4800 C.3    46  C46         0.1773
    979  O4'        7.0750  -11.9980   27.4200 O.3    46  C46        -0.3307
    980  C3'        5.9880   -9.9190   27.3640 C.3    46  C46         0.1860
    981  O3'        5.0460   -9.1170   26.6760 O.3    46  C46        -0.3112
    982  C2'        5.3820  -10.7280   28.5000 C.3    46  C46         0.2309
    983  O2'        4.1530  -11.3090   28.0960 O.3    46  C46        -0.2156
    984  C1'        6.4150  -11.8470   28.6580 C.3    46  C46         0.2420
    985  N1         7.4220  -11.5320   29.6940 N.ar   46  C46        -0.2535
    986  C2         7.0710  -11.7120   31.0310 C.ar   46  C46         0.3532
    987  O2         5.9300  -12.1220   31.2890 O.2    46  C46        -0.2443
    988  N3         7.9750  -11.4320   32.0020 N.ar   46  C46        -0.1739
    989  C4         9.1930  -10.9930   31.6790 C.ar   46  C46         0.1759
    990  N4        10.0520  -10.7320   32.6740 N.pl3  46  C46        -0.1070
    991  C5         9.5780  -10.8000   30.3170 C.ar   46  C46         0.0566
    992  C6         8.6730  -11.0810   29.3680 C.ar   46  C46         0.0850
    993  OP1       10.0390   -8.7850   24.5160 O.2    46  C46        -0.5172
    994  OP2       11.1460   -9.2250   26.7700 O.co2  46  C46        -0.4373
    995  P          4.6950   -7.6360   27.2000 P.3    47  A47         0.2141
    996  C5'        2.5000   -8.3850   28.4320 C.3    47  A47         0.1812
    997  O5'        3.8390   -7.9170   28.5140 O.3    47  A47        -0.3114
    998  C4'        1.8780   -8.5180   29.8010 C.3    47  A47         0.1773
    999  O4'        2.6250   -9.4850   30.5890 O.3    47  A47        -0.3307
   1000  C3'        1.8800   -7.2600   30.6590 C.3    47  A47         0.1860
   1001  O3'        0.8210   -6.3720   30.3440 O.3    47  A47        -0.3112
   1002  C2'        1.8070   -7.8210   32.0710 C.3    47  A47         0.2309
   1003  O2'        0.4830   -8.2310   32.3800 O.3    47  A47        -0.2156
   1004  C1'        2.6800   -9.0690   31.9390 C.3    47  A47         0.2408
   1005  N1         6.2260   -8.6140   35.6760 N.ar   47  A47        -0.2040
   1006  C2         4.9160   -8.8950   35.7130 C.ar   47  A47         0.2016
   1007  N3         4.0460   -8.9990   34.7110 N.ar   47  A47        -0.2048
   1008  C4         4.6540   -8.7750   33.5330 C.ar   47  A47         0.1692
   1009  C5         5.9910   -8.4710   33.3350 C.ar   47  A47         0.1518
   1010  C6         6.8080   -8.3890   34.4780 C.ar   47  A47         0.1919
   1011  N6         8.1140   -8.1060   34.4370 N.pl3  47  A47        -0.1054
   1012  N7         6.2630   -8.3040   31.9840 N.ar   47  A47        -0.2193
   1013  C8         5.1050   -8.5030   31.4060 C.ar   47  A47         0.1816
   1014  N9         4.0880   -8.7930   32.2810 N.ar   47  A47        -0.2693
   1015  OP1        3.8430   -7.0010   26.1670 O.2    47  A47        -0.5172
   1016  OP2        5.9740   -6.9820   27.5630 O.co2  47  A47        -0.4373
   1017  P          1.0350   -4.7850   30.4640 P.3    48  C48         0.2141
   1018  C5'       -0.1070   -4.8940   32.8210 C.3    48  C48         0.1812
   1019  O5'        1.0220   -4.5420   32.0370 O.3    48  C48        -0.3114
   1020  C4'        0.2080   -4.8410   34.2950 C.3    48  C48         0.1773
   1021  O4'        1.2330   -5.8220   34.6140 O.3    48  C48        -0.3307
   1022  C3'        0.7860   -3.5300   34.8060 C.3    48  C48         0.1860
   1023  O3'       -0.2000   -2.5360   35.0370 O.3    48  C48        -0.3112
   1024  C2'        1.5230   -3.9640   36.0640 C.3    48  C48         0.2309
   1025  O2'        0.6130   -4.1720   37.1310 O.3    48  C48        -0.2156
   1026  C1'        2.0770   -5.3210   35.6300 C.3    48  C48         0.2420
   1027  N1         3.4480   -5.2050   35.0890 N.ar   48  C48        -0.2535
   1028  C2         4.5150   -5.3970   35.9650 C.ar   48  C48         0.3532
   1029  O2         4.2650   -5.6640   37.1510 O.2    48  C48        -0.2443
   1030  N3         5.7810   -5.2900   35.4990 N.ar   48  C48        -0.1739
   1031  C4         5.9970   -5.0000   34.2140 C.ar   48  C48         0.1759
   1032  N4         7.2620   -4.9030   33.7990 N.pl3  48  C48        -0.1070
   1033  C5         4.9240   -4.7940   33.2990 C.ar   48  C48         0.0566
   1034  C6         3.6780   -4.9060   33.7750 C.ar   48  C48         0.0850
   1035  OP1       -0.1460   -4.1380   29.8450 O.2    48  C48        -0.5172
   1036  OP2        2.3800   -4.4830   29.9190 O.co2  48  C48        -0.4373
   1037  P          0.2000   -0.9800   34.9970 P.3    49  A49         0.2141
   1038  C5'        0.3580   -0.8300   37.6090 C.3    49  A49         0.1812
   1039  O5'        1.0140   -0.7880   36.3510 O.3    49  A49        -0.3114
   1040  C4'        1.3290   -0.6220   38.7430 C.3    49  A49         0.1773
   1041  O4'        2.2990   -1.7040   38.7630 O.3    49  A49        -0.3307
   1042  C3'        2.1800    0.6380   38.6680 C.3    49  A49         0.1860
   1043  O3'        1.5000    1.7950   39.1320 O.3    49  A49        -0.3112
   1044  C2'        3.3980    0.2660   39.5030 C.3    49  A49         0.2309
   1045  O2'        3.1040    0.3580   40.8890 O.3    49  A49        -0.2156
   1046  C1'        3.5640   -1.2110   39.1480 C.3    49  A49         0.2408
   1047  N1         8.4960   -1.7280   37.7110 N.ar   49  A49        -0.2040
   1048  C2         7.9250   -1.5190   38.9060 C.ar   49  A49         0.2016
   1049  N3         6.6350   -1.3900   39.2130 N.ar   49  A49        -0.2048
   1050  C4         5.8720   -1.4980   38.1120 C.ar   49  A49         0.1692
   1051  C5         6.3130   -1.7140   36.8170 C.ar   49  A49         0.1518
   1052  C6         7.7030   -1.8340   36.6230 C.ar   49  A49         0.1919
   1053  N6         8.2740   -2.0410   35.4340 N.pl3  49  A49        -0.1054
   1054  N7         5.2400   -1.7700   35.9400 N.ar   49  A49        -0.2193
   1055  C8         4.1910   -1.5890   36.7050 C.ar   49  A49         0.1816
   1056  N9         4.5030   -1.4130   38.0300 N.ar   49  A49        -0.2693
   1057  OP1       -1.0650   -0.2020   35.0550 O.3    49  A49        -0.4373
   1058  OP2        1.1010   -0.7890   33.8360 O.co2  49  A49        -0.5172
   1059  P          1.7400    3.2170   38.4180 P.3    50  C50         0.2141
   1060  C5'        3.4780    3.8060   40.2810 C.3    50  C50         0.1812
   1061  O5'        3.2040    3.6090   38.9030 O.3    50  C50        -0.3114
   1062  C4'        4.9600    3.8670   40.5540 C.3    50  C50         0.1773
   1063  O4'        5.5860    2.5990   40.2150 O.3    50  C50        -0.3307
   1064  C3'        5.7510    4.8760   39.7470 C.3    50  C50         0.1860
   1065  O3'        5.6000    6.2070   40.2090 O.3    50  C50        -0.3112
   1066  C2'        7.1670    4.3340   39.8710 C.3    50  C50         0.2309
   1067  O2'        7.6970    4.6050   41.1620 O.3    50  C50        -0.2156
   1068  C1'        6.9080    2.8310   39.7640 C.3    50  C50         0.2420
   1069  N1         7.0220    2.3580   38.3690 N.ar   50  C50        -0.2535
   1070  C2         8.2550    1.8760   37.9330 C.ar   50  C50         0.3532
   1071  O2         9.1940    1.8530   38.7430 O.2    50  C50        -0.2443
   1072  N3         8.3910    1.4420   36.6550 N.ar   50  C50        -0.1739
   1073  C4         7.3500    1.4900   35.8230 C.ar   50  C50         0.1759
   1074  N4         7.5240    1.0610   34.5700 N.pl3  50  C50        -0.1070
   1075  C5         6.0810    1.9870   36.2420 C.ar   50  C50         0.0566
   1076  C6         5.9630    2.4080   37.5090 C.ar   50  C50         0.0850
   1077  OP1        0.7510    4.1640   38.9890 O.3    50  C50        -0.4373
   1078  OP2        1.7350    2.9820   36.9530 O.co2  50  C50        -0.5172
   1079  P          5.8100    7.4350   39.1960 P.3    51  A51         0.2141
   1080  C5'        8.3100    7.2850   39.9580 C.3    51  A51         0.1812
   1081  O5'        7.3690    7.3720   38.8960 O.3    51  A51        -0.3114
   1082  C4'        9.7180    7.2360   39.4340 C.3    51  A51         0.1773
   1083  O4'       10.0080    5.9120   38.9160 O.3    51  A51        -0.3307
   1084  C3'       10.0120    8.1640   38.2720 C.3    51  A51         0.1860
   1085  O3'       10.2630    9.4930   38.6900 O.3    51  A51        -0.3112
   1086  C2'       11.1940    7.4850   37.5860 C.3    51  A51         0.2309
   1087  O2'       12.4070    7.7540   38.2760 O.3    51  A51        -0.2156
   1088  C1'       10.8480    6.0090   37.7850 C.3    51  A51         0.2408
   1089  N1        11.3510    3.6270   33.2530 N.ar   51  A51        -0.2040
   1090  C2        12.2460    4.0690   34.1470 C.ar   51  A51         0.2016
   1091  N3        12.0430    4.6850   35.3100 N.ar   51  A51        -0.2048
   1092  C4        10.7260    4.8420   35.5370 C.ar   51  A51         0.1692
   1093  C5         9.6860    4.4440   34.7150 C.ar   51  A51         0.1518
   1094  C6        10.0350    3.8040   33.5110 C.ar   51  A51         0.1919
   1095  N6         9.1450    3.3610   32.6160 N.pl3  51  A51        -0.1054
   1096  N7         8.4630    4.7760   35.2790 N.ar   51  A51        -0.2193
   1097  C8         8.7820    5.3590   36.4120 C.ar   51  A51         0.1816
   1098  N9        10.1370    5.4390   36.6250 N.ar   51  A51        -0.2693
   1099  OP1        5.4880    8.6790   39.9420 O.3    51  A51        -0.4373
   1100  OP2        5.0450    7.1240   37.9620 O.co2  51  A51        -0.5172
   1101  P         10.3230   10.6810   37.6150 P.3    52  A52         0.2141
   1102  C5'       12.0490   11.0400   35.7040 C.3    52  A52         0.1812
   1103  O5'       11.7380   10.4500   36.9430 O.3    52  A52        -0.3114
   1104  C4'       13.2990   10.4530   35.1210 C.3    52  A52         0.1773
   1105  O4'       13.2160    9.0020   35.1320 O.3    52  A52        -0.3307
   1106  C3'       13.5550   10.8010   33.6710 C.3    52  A52         0.1860
   1107  O3'       14.1530   12.0700   33.5150 O.3    52  A52        -0.3112
   1108  C2'       14.4100    9.6430   33.1910 C.3    52  A52         0.2309
   1109  O2'       15.7460    9.7840   33.6490 O.3    52  A52        -0.2156
   1110  C1'       13.7600    8.4810   33.9390 C.3    52  A52         0.2408
   1111  N1        12.4350    5.5680   29.8960 N.ar   52  A52        -0.2040
   1112  C2        13.6270    5.9660   30.3600 C.ar   52  A52         0.2016
   1113  N3        13.9050    6.7250   31.4190 N.ar   52  A52        -0.2048
   1114  C4        12.7730    7.0920   32.0450 C.ar   52  A52         0.1692
   1115  C5        11.4760    6.7650   31.6860 C.ar   52  A52         0.1518
   1116  C6        11.3180    5.9570   30.5480 C.ar   52  A52         0.1919
   1117  N6        10.1320    5.5600   30.0840 N.pl3  52  A52        -0.1054
   1118  N7        10.5600    7.3290   32.5650 N.ar   52  A52        -0.2193
   1119  C8        11.3140    7.9740   33.4210 C.ar   52  A52         0.1816
   1120  N9        12.6610    7.8760   33.1650 N.ar   52  A52        -0.2693
   1121  OP1       10.3230   11.9610   38.3730 O.3    52  A52        -0.4373
   1122  OP2        9.2450   10.4380   36.6210 O.co2  52  A52        -0.5172
   1123  P         13.4150   13.1860   32.6410 P.3    53  C53         0.2141
   1124  C5'       15.1590   12.3580   30.8760 C.3    53  C53         0.1812
   1125  O5'       13.8360   12.7880   31.1580 O.3    53  C53        -0.3114
   1126  C4'       15.2180   11.4990   29.6390 C.3    53  C53         0.1773
   1127  O4'       14.5690   10.2240   29.8830 O.3    53  C53        -0.3307
   1128  C3'       14.4980   12.0350   28.4180 C.3    53  C53         0.1860
   1129  O3'       15.2160   13.0530   27.7470 O.3    53  C53        -0.3112
   1130  C2'       14.2980   10.7760   27.5880 C.3    53  C53         0.2309
   1131  O2'       15.5050   10.4100   26.9370 O.3    53  C53        -0.2156
   1132  C1'       14.0060    9.7430   28.6790 C.3    53  C53         0.2420
   1133  N1        12.5550    9.5470   28.8750 N.ar   53  C53        -0.2535
   1134  C2        11.9260    8.5890   28.0780 C.ar   53  C53         0.3532
   1135  O2        12.6180    7.9620   27.2640 O.2    53  C53        -0.2443
   1136  N3        10.5960    8.3760   28.2080 N.ar   53  C53        -0.1739
   1137  C4         9.9010    9.0860   29.0960 C.ar   53  C53         0.1759
   1138  N4         8.5920    8.8460   29.1990 N.pl3  53  C53        -0.1070
   1139  C5        10.5160   10.0730   29.9230 C.ar   53  C53         0.0566
   1140  C6        11.8350   10.2740   29.7820 C.ar   53  C53         0.0850
   1141  OP1       14.0100   14.4960   33.0080 O.3    53  C53        -0.4373
   1142  OP2       11.9560   12.9890   32.8220 O.co2  53  C53        -0.5172
   1143  P         14.4240   14.2420   27.0080 P.3    54  G54         0.2141
   1144  C5'       14.4070   12.6370   24.9320 C.3    54  G54         0.1812
   1145  O5'       13.6890   13.4860   25.8150 O.3    54  G54        -0.3114
   1146  C4'       13.4750   11.8600   24.0380 C.3    54  G54         0.1773
   1147  O4'       12.7110   10.9070   24.8260 O.3    54  G54        -0.3307
   1148  C3'       12.4170   12.6780   23.3170 C.3    54  G54         0.1860
   1149  O3'       12.9130   13.3150   22.1540 O.3    54  G54        -0.3112
   1150  C2'       11.3300   11.6490   23.0360 C.3    54  G54         0.2309
   1151  O2'       11.6720   10.8530   21.9120 O.3    54  G54        -0.2156
   1152  C1'       11.4090   10.7740   24.2920 C.3    54  G54         0.2408
   1153  N1         6.7450   10.0770   26.2690 N.ar   54  G54        -0.1709
   1154  C2         7.3540    9.4270   25.2240 C.ar   54  G54         0.2606
   1155  N2         6.6290    8.4710   24.6270 N.pl3  54  G54        -0.0859
   1156  N3         8.5800    9.6950   24.7970 N.ar   54  G54        -0.1918
   1157  C4         9.1650   10.6850   25.5110 C.ar   54  G54         0.1723
   1158  C5         8.6390   11.3960   26.5710 C.ar   54  G54         0.1748
   1159  C6         7.3230   11.0970   27.0180 C.ar   54  G54         0.3023
   1160  O6         6.6830   11.6160   27.9420 O.2    54  G54        -0.2633
   1161  N7         9.5530   12.3300   27.0370 N.ar   54  G54        -0.2173
   1162  C8        10.5950   12.1760   26.2650 C.ar   54  G54         0.1817
   1163  N9        10.4320   11.1930   25.3180 N.ar   54  G54        -0.2693
   1164  OP1       15.4420   15.1700   26.4680 O.2    54  G54        -0.5172
   1165  OP2       13.4170   14.7660   27.9650 O.co2  54  G54        -0.4373
   1166  P         12.3710   14.7660   21.7330 P.3    55  A55         0.2141
   1167  C5'       12.5850   13.8110   19.3030 C.3    55  A55         0.1812
   1168  O5'       11.8120   14.5160   20.2670 O.3    55  A55        -0.3114
   1169  C4'       11.7370   13.3340   18.1520 C.3    55  A55         0.1773
   1170  O4'       10.8770   12.2530   18.6090 O.3    55  A55        -0.3307
   1171  C3'       10.8110   14.3890   17.5450 C.3    55  A55         0.1860
   1172  O3'       10.7180   14.1870   16.1360 O.3    55  A55        -0.3112
   1173  C2'        9.4670   14.0730   18.1940 C.3    55  A55         0.2309
   1174  O2'        8.3400   14.4960   17.4560 O.3    55  A55        -0.2156
   1175  C1'        9.5320   12.5570   18.3020 C.3    55  A55         0.2408
   1176  N1         6.5580    8.6090   19.6680 N.ar   55  A55        -0.2040
   1177  C2         7.2860    8.8520   18.5720 C.ar   55  A55         0.2016
   1178  N3         8.0440    9.9060   18.2840 N.ar   55  A55        -0.2048
   1179  C4         8.0130   10.8000   19.2870 C.ar   55  A55         0.1692
   1180  C5         7.3160   10.6950   20.4750 C.ar   55  A55         0.1518
   1181  C6         6.5520    9.5300   20.6570 C.ar   55  A55         0.1919
   1182  N6         5.8280    9.2880   21.7500 N.pl3  55  A55        -0.1054
   1183  N7         7.5290   11.8140   21.2710 N.ar   55  A55        -0.2193
   1184  C8         8.3370   12.5610   20.5560 C.ar   55  A55         0.1816
   1185  N9         8.6760   12.0000   19.3500 N.ar   55  A55        -0.2693
   1186  OP1       13.5430   15.6720   21.6790 O.2    55  A55        -0.5172
   1187  OP2       11.2540   15.1000   22.6480 O.co2  55  A55        -0.4373
   1188  P         11.6840   14.9980   15.1400 P.3    56  A56         0.2141
   1189  C5'        9.6430   16.3920   14.2530 C.3    56  A56         0.1812
   1190  O5'       10.6920   15.4680   13.9870 O.3    56  A56        -0.3114
   1191  C4'        8.3840   16.0280   13.5060 C.3    56  A56         0.1773
   1192  O4'        8.7170   15.7820   12.1100 O.3    56  A56        -0.3307
   1193  C3'        7.6850   14.7580   13.9970 C.3    56  A56         0.1860
   1194  O3'        6.2830   14.8690   13.7570 O.3    56  A56        -0.3112
   1195  C2'        8.2600   13.6990   13.0700 C.3    56  A56         0.2309
   1196  O2'        7.4790   12.5280   12.9580 O.3    56  A56        -0.2156
   1197  C1'        8.3140   14.4710   11.7590 C.3    56  A56         0.2408
   1198  N1         8.7700   12.6420    7.0160 N.ar   56  A56        -0.2040
   1199  C2         7.7280   13.1000    7.7170 C.ar   56  A56         0.2016
   1200  N3         7.6920   13.5680    8.9610 N.ar   56  A56        -0.2048
   1201  C4         8.9180   13.5320    9.5120 C.ar   56  A56         0.1692
   1202  C5        10.0850   13.0890    8.9230 C.ar   56  A56         0.1518
   1203  C6         9.9880   12.6160    7.6010 C.ar   56  A56         0.1919
   1204  N6        11.0230   12.1490    6.8930 N.pl3  56  A56        -0.1054
   1205  N7        11.1480   13.2030    9.8130 N.ar   56  A56        -0.2193
   1206  C8        10.6060   13.7080   10.8990 C.ar   56  A56         0.1816
   1207  N9         9.2590   13.9320   10.7800 N.ar   56  A56        -0.2693
   1208  OP1       12.6650   14.0280   14.5980 O.2    56  A56        -0.5172
   1209  OP2       12.1840   16.1810   15.8850 O.co2  56  A56        -0.4373
   1210  P          5.3710   15.8250   14.6640 P.3    57  G57         0.2141
   1211  C5'        4.7600   17.7650   13.0350 C.3    57  G57         0.1812
   1212  O5'        5.6230   17.2580   14.0330 O.3    57  G57        -0.3114
   1213  C4'        5.3720   17.6370   11.6680 C.3    57  G57         0.1773
   1214  O4'        5.4440   16.2380   11.2860 O.3    57  G57        -0.3307
   1215  C3'        4.5940   18.2850   10.5420 C.3    57  G57         0.1860
   1216  O3'        4.8110   19.6790   10.4610 O.3    57  G57        -0.3112
   1217  C2'        5.0690   17.5110    9.3210 C.3    57  G57         0.2309
   1218  O2'        6.3560   17.9510    8.9200 O.3    57  G57        -0.2156
   1219  C1'        5.2030   16.1040    9.9010 C.3    57  G57         0.2408
   1220  N1         2.4460   13.2070    6.7200 N.ar   57  G57        -0.1709
   1221  C2         3.6420   13.8480    6.5050 C.ar   57  G57         0.2606
   1222  N2         4.1860   13.7040    5.2850 N.pl3  57  G57        -0.0859
   1223  N3         4.2650   14.5760    7.4180 N.ar   57  G57        -0.1918
   1224  C4         3.5900   14.6250    8.5840 C.ar   57  G57         0.1723
   1225  C5         2.3950   14.0200    8.9030 C.ar   57  G57         0.1748
   1226  C6         1.7370   13.2360    7.9160 C.ar   57  G57         0.3023
   1227  O6         0.6680   12.6210    8.0070 O.2    57  G57        -0.2633
   1228  N7         2.0360   14.3100   10.2140 N.ar   57  G57        -0.2173
   1229  C8         3.0000   15.0720   10.6590 C.ar   57  G57         0.1817
   1230  N9         3.9740   15.3060    9.7170 N.ar   57  G57        -0.2693
   1231  OP1        5.9190   15.7800   16.0390 O.3    57  G57        -0.4373
   1232  OP2        3.9610   15.4200   14.4410 O.co2  57  G57        -0.5172
   1233  P          3.7980   20.5930    9.6280 P.3    58  C58         0.2141
   1234  C5'        2.7870   19.9320    7.3090 C.3    58  C58         0.1812
   1235  O5'        3.9070   19.9680    8.1710 O.3    58  C58        -0.3114
   1236  C4'        3.0990   19.1770    6.0450 C.3    58  C58         0.1773
   1237  O4'        3.1140   17.7510    6.3110 O.3    58  C58        -0.3307
   1238  C3'        2.1000   19.3510    4.9160 C.3    58  C58         0.1860
   1239  O3'        2.3610   20.5150    4.1600 O.3    58  C58        -0.3112
   1240  C2'        2.2610   18.0630    4.1200 C.3    58  C58         0.2309
   1241  O2'        3.3990   18.1400    3.2760 O.3    58  C58        -0.2156
   1242  C1'        2.5530   17.0500    5.2270 C.3    58  C58         0.2420
   1243  N1         1.3290   16.3670    5.7020 N.ar   58  C58        -0.2535
   1244  C2         0.7510   15.3730    4.9150 C.ar   58  C58         0.3532
   1245  O2         1.2690   15.0900    3.8200 O.2    58  C58        -0.2443
   1246  N3        -0.3610   14.7460    5.3660 N.ar   58  C58        -0.1739
   1247  C4        -0.8930   15.0700    6.5460 C.ar   58  C58         0.1759
   1248  N4        -1.9950   14.4270    6.9500 N.pl3  58  C58        -0.1070
   1249  C5        -0.3170   16.0780    7.3700 C.ar   58  C58         0.0566
   1250  C6         0.7840   16.6880    6.9150 C.ar   58  C58         0.0850
   1251  OP1        4.3450   21.9710    9.6310 O.2    58  C58        -0.5172
   1252  OP2        2.4420   20.3600   10.1820 O.co2  58  C58        -0.4373
   1253  P          1.1580   21.4070    3.5750 P.3    59  G59         0.2141
   1254  C5'        1.2300   20.0250    1.3600 C.3    59  G59         0.1812
   1255  O5'        0.5000   20.4390    2.5020 O.3    59  G59        -0.3114
   1256  C4'        0.4340   19.0680    0.5160 C.3    59  G59         0.1773
   1257  O4'        0.2780   17.8050    1.2090 O.3    59  G59        -0.3307
   1258  C3'       -0.9900   19.4830    0.1980 C.3    59  G59         0.1860
   1259  O3'       -1.0650   20.4470   -0.8390 O.3    59  G59        -0.3112
   1260  C2'       -1.6470   18.1520   -0.1500 C.3    59  G59         0.2309
   1261  O2'       -1.3240   17.7580   -1.4760 O.3    59  G59        -0.2156
   1262  C1'       -0.9410   17.2020    0.8250 C.3    59  G59         0.2408
   1263  N1        -4.6970   14.4030    2.6000 N.ar   59  G59        -0.1709
   1264  C2        -4.0760   14.3960    1.3740 C.ar   59  G59         0.2606
   1265  N2        -4.5320   13.5130    0.4750 N.pl3  59  G59        -0.0859
   1266  N3        -3.0820   15.2050    1.0500 N.ar   59  G59        -0.1918
   1267  C4        -2.7550   16.0200    2.0690 C.ar   59  G59         0.1723
   1268  C5        -3.3010   16.1130    3.3280 C.ar   59  G59         0.1748
   1269  C6        -4.3710   15.2440    3.6610 C.ar   59  G59         0.3023
   1270  O6        -4.9980   15.1600    4.7230 O.2    59  G59        -0.2633
   1271  N7        -2.6590   17.1050    4.0620 N.ar   59  G59        -0.2173
   1272  C8        -1.7540   17.5860    3.2480 C.ar   59  G59         0.1817
   1273  N9        -1.7580   16.9560    2.0260 N.ar   59  G59        -0.2693
   1274  OP1        1.7770   22.5640    2.8950 O.2    59  G59        -0.5172
   1275  OP2        0.2050   21.6560    4.6840 O.co2  59  G59        -0.4373
   1276  P         -2.0140   21.7310   -0.6800 P.3    60  A60         0.2141
   1277  C5'       -4.5170   21.8970    0.0750 C.3    60  A60         0.1812
   1278  O5'       -3.4310   21.0840   -0.3480 O.3    60  A60        -0.3114
   1279  C4'       -5.8050   21.4810   -0.5860 C.3    60  A60         0.1773
   1280  O4'       -5.7250   21.7270   -2.0100 O.3    60  A60        -0.3307
   1281  C3'       -6.1600   20.0050   -0.4800 C.3    60  A60         0.1860
   1282  O3'       -6.7890   19.6910    0.7440 O.3    60  A60        -0.3112
   1283  C2'       -7.0590   19.7840   -1.6850 C.3    60  A60         0.2309
   1284  O2'       -8.3820   20.2090   -1.3990 O.3    60  A60        -0.2156
   1285  C1'       -6.4600   20.7460   -2.7080 C.3    60  A60         0.2408
   1286  N1        -6.1970   17.6410   -6.7850 N.ar   60  A60        -0.2040
   1287  C2        -7.2270   18.0780   -6.0490 C.ar   60  A60         0.2016
   1288  N3        -7.2180   18.8820   -4.9890 N.ar   60  A60        -0.2048
   1289  C4        -5.9600   19.2590   -4.6950 C.ar   60  A60         0.1692
   1290  C5        -4.8000   18.8920   -5.3570 C.ar   60  A60         0.1518
   1291  C6        -4.9450   18.0340   -6.4620 C.ar   60  A60         0.1919
   1292  N6        -3.9270   17.5860   -7.2040 N.pl3  60  A60        -0.1054
   1293  N7        -3.6930   19.4780   -4.7610 N.ar   60  A60        -0.2193
   1294  C8        -4.2000   20.1750   -3.7700 C.ar   60  A60         0.1816
   1295  N9        -5.5650   20.0740   -3.6660 N.ar   60  A60        -0.2693
   1296  OP1       -2.0640   22.4020   -1.9990 O.2    60  A60        -0.5172
   1297  OP2       -1.5260   22.5010    0.4920 O.co2  60  A60        -0.4373
   1298  P         -6.2710   18.4650    1.6280 P.3    61  G61         0.2141
   1299  C5'       -8.2070   16.9850    0.6560 C.3    61  G61         0.1812
   1300  O5'       -6.8130   17.1980    0.8300 O.3    61  G61        -0.3114
   1301  C4'       -8.4850   16.0890   -0.5250 C.3    61  G61         0.1773
   1302  O4'       -7.8870   16.6550   -1.7180 O.3    61  G61        -0.3307
   1303  C3'       -7.9130   14.6790   -0.4400 C.3    61  G61         0.1860
   1304  O3'       -8.7660   13.7950    0.2760 O.3    61  G61        -0.3112
   1305  C2'       -7.7350   14.2890   -1.9030 C.3    61  G61         0.2309
   1306  O2'       -8.9600   13.8280   -2.4480 O.3    61  G61        -0.2156
   1307  C1'       -7.4000   15.6310   -2.5530 C.3    61  G61         0.2408
   1308  N1        -3.3970   15.1100   -5.6800 N.ar   61  G61        -0.1709
   1309  C2        -4.7040   14.7450   -5.8740 C.ar   61  G61         0.2606
   1310  N2        -4.9790   14.1730   -7.0540 N.pl3  61  G61        -0.0859
   1311  N3        -5.6660   14.9230   -4.9820 N.ar   61  G61        -0.1918
   1312  C4        -5.2130   15.5140   -3.8540 C.ar   61  G61         0.1723
   1313  C5        -3.9310   15.9160   -3.5590 C.ar   61  G61         0.1748
   1314  C6        -2.9120   15.7150   -4.5260 C.ar   61  G61         0.3023
   1315  O6        -1.7160   16.0040   -4.4420 O.2    61  G61        -0.2633
   1316  N7        -3.8680   16.4760   -2.2900 N.ar   61  G61        -0.2173
   1317  C8        -5.0910   16.4080   -1.8430 C.ar   61  G61         0.1817
   1318  N9        -5.9530   15.8270   -2.7370 N.ar   61  G61        -0.2693
   1319  OP1       -6.9530   18.5660    2.9420 O.3    61  G61        -0.4373
   1320  OP2       -4.7890   18.4950    1.5860 O.co2  61  G61        -0.5172
   1321  P         -8.1690   12.5240    1.0590 P.3    62  A62         0.2141
   1322  C5'       -9.1600   11.0000   -0.8350 C.3    62  A62         0.1812
   1323  O5'       -8.0290   11.4290   -0.0880 O.3    62  A62        -0.3114
   1324  C4'       -8.7560   10.0770   -1.9580 C.3    62  A62         0.1773
   1325  O4'       -8.1720   10.8450   -3.0390 O.3    62  A62        -0.3307
   1326  C3'       -7.6930    9.0490   -1.6130 C.3    62  A62         0.1860
   1327  O3'       -8.2290    7.9030   -0.9870 O.3    62  A62        -0.3112
   1328  C2'       -7.0450    8.7590   -2.9580 C.3    62  A62         0.2309
   1329  O2'       -7.8390    7.8560   -3.7100 O.3    62  A62        -0.2156
   1330  C1'       -7.1090   10.1300   -3.6250 C.3    62  A62         0.2408
   1331  N1        -2.6690   11.7000   -5.7090 N.ar   62  A62        -0.2040
   1332  C2        -3.6680   10.9420   -6.1830 C.ar   62  A62         0.2016
   1333  N3        -4.8000   10.5650   -5.5860 N.ar   62  A62        -0.2048
   1334  C4        -4.8620   11.0690   -4.3420 C.ar   62  A62         0.1692
   1335  C5        -3.9180   11.8620   -3.7150 C.ar   62  A62         0.1518
   1336  C6        -2.7640   12.1830   -4.4490 C.ar   62  A62         0.1919
   1337  N6        -1.7730   12.9360   -3.9630 N.pl3  62  A62        -0.1054
   1338  N7        -4.3240   12.1870   -2.4290 N.ar   62  A62        -0.2193
   1339  C8        -5.4840   11.5890   -2.3040 C.ar   62  A62         0.1816
   1340  N9        -5.8680   10.8970   -3.4250 N.ar   62  A62        -0.2693
   1341  OP1       -9.1960   12.1000    2.0370 O.3    62  A62        -0.4373
   1342  OP2       -6.8280   12.9050    1.5570 O.co2  62  A62        -0.5172
   1343  P         -7.3520    7.0930    0.0780 P.3    63  G63         0.2141
   1344  C5'       -4.7750    6.7190   -0.1150 C.3    63  G63         0.1812
   1345  O5'       -6.0410    6.7500   -0.7460 O.3    63  G63        -0.3114
   1346  C4'       -3.8190    7.6960   -0.7500 C.3    63  G63         0.1773
   1347  O4'       -4.3100    9.0550   -0.5720 O.3    63  G63        -0.3307
   1348  C3'       -2.4180    7.7160   -0.1620 C.3    63  G63         0.1860
   1349  O3'       -1.5860    6.7080   -0.7040 O.3    63  G63        -0.3112
   1350  C2'       -1.9420    9.1320   -0.4570 C.3    63  G63         0.2309
   1351  O2'       -1.5230    9.2520   -1.8100 O.3    63  G63        -0.2156
   1352  C1'       -3.2360    9.9250   -0.2810 C.3    63  G63         0.2408
   1353  N1        -1.4790   12.9390    3.4790 N.ar   63  G63        -0.1709
   1354  C2        -0.9710   12.7460    2.2180 C.ar   63  G63         0.2606
   1355  N2         0.1400   13.4370    1.9190 N.pl3  63  G63        -0.0859
   1356  N3        -1.5080   11.9370    1.3160 N.ar   63  G63        -0.1918
   1357  C4        -2.6170   11.3250    1.7840 C.ar   63  G63         0.1723
   1358  C5        -3.2030   11.4510    3.0300 C.ar   63  G63         0.1748
   1359  C6        -2.6180   12.3230    3.9860 C.ar   63  G63         0.3023
   1360  O6        -2.9960   12.5720    5.1410 O.2    63  G63        -0.2633
   1361  N7        -4.3350   10.6540    3.1290 N.ar   63  G63        -0.2173
   1362  C8        -4.4140   10.0700    1.9640 C.ar   63  G63         0.1817
   1363  N9        -3.4020   10.4180    1.1030 N.ar   63  G63        -0.2693
   1364  OP1       -8.0930    5.8440    0.3960 O.2    63  G63        -0.5172
   1365  OP2       -7.0260    8.0320    1.1830 O.co2  63  G63        -0.4373
   1366  P         -0.5000    5.9750    0.2230 P.3    64  C64         0.2141
   1367  C5'        1.1530    7.7190   -0.8070 C.3    64  C64         0.1812
   1368  O5'        0.6440    7.0690    0.3450 O.3    64  C64        -0.3114
   1369  C4'        2.2640    8.6630   -0.4480 C.3    64  C64         0.1773
   1370  O4'        1.7110    9.8970    0.0870 O.3    64  C64        -0.3307
   1371  C3'        3.2090    8.1770    0.6380 C.3    64  C64         0.1860
   1372  O3'        4.1950    7.2830    0.1470 O.3    64  C64        -0.3112
   1373  C2'        3.7730    9.4770    1.1920 C.3    64  C64         0.2309
   1374  O2'        4.7800    9.9880    0.3340 O.3    64  C64        -0.2156
   1375  C1'        2.5520   10.3980    1.1030 C.3    64  C64         0.2420
   1376  N1         1.7860   10.4400    2.3700 N.ar   64  C64        -0.2535
   1377  C2         2.1430   11.3850    3.3330 C.ar   64  C64         0.3532
   1378  O2         3.0960   12.1420    3.1000 O.2    64  C64        -0.2443
   1379  N3         1.4550   11.4470    4.4940 N.ar   64  C64        -0.1739
   1380  C4         0.4310   10.6200    4.7130 C.ar   64  C64         0.1759
   1381  N4        -0.2230   10.7200    5.8760 N.pl3  64  C64        -0.1070
   1382  C5         0.0380    9.6470    3.7470 C.ar   64  C64         0.0566
   1383  C6         0.7320    9.5970    2.5990 C.ar   64  C64         0.0850
   1384  OP1        0.0030    4.7980   -0.5330 O.2    64  C64        -0.5172
   1385  OP2       -1.1290    5.7560    1.5430 O.co2  64  C64        -0.4373
   1386  P          5.1010    6.4330    1.1620 P.3    65  G65         0.2141
   1387  C5'        6.3620    7.4210    3.2310 C.3    65  G65         0.1812
   1388  O5'        5.9690    7.5580    1.8760 O.3    65  G65        -0.3114
   1389  C4'        6.6300    8.7620    3.8580 C.3    65  G65         0.1773
   1390  O4'        5.3840    9.4870    4.0280 O.3    65  G65        -0.3307
   1391  C3'        7.2280    8.7390    5.2530 C.3    65  G65         0.1860
   1392  O3'        8.6240    8.4940    5.2480 O.3    65  G65        -0.3112
   1393  C2'        6.8550   10.1150    5.7830 C.3    65  G65         0.2309
   1394  O2'        7.7040   11.1050    5.2220 O.3    65  G65        -0.2156
   1395  C1'        5.4590   10.2960    5.1840 C.3    65  G65         0.2408
   1396  N1         3.2520   10.9530    9.7850 N.ar   65  G65        -0.1709
   1397  C2         4.3710   11.5580    9.2590 C.ar   65  G65         0.2606
   1398  N2         4.9840   12.4520   10.0490 N.pl3  65  G65        -0.0859
   1399  N3         4.8580   11.3060    8.0530 N.ar   65  G65        -0.1918
   1400  C4         4.1300   10.3880    7.3850 C.ar   65  G65         0.1723
   1401  C5         2.9980    9.7240    7.8210 C.ar   65  G65         0.1748
   1402  C6         2.4840   10.0030    9.1180 C.ar   65  G65         0.3023
   1403  O6         1.4920    9.5190    9.6760 O.2    65  G65        -0.2633
   1404  N7         2.5380    8.8500    6.8470 N.ar   65  G65        -0.2173
   1405  C8         3.3800    8.9900    5.8580 C.ar   65  G65         0.1817
   1406  N9         4.3810    9.8980    6.1170 N.ar   65  G65        -0.2693
   1407  OP1        5.9780    5.5650    0.3410 O.2    65  G65        -0.5172
   1408  OP2        4.1890    5.7980    2.1450 O.co2  65  G65        -0.4373
   1409  P          9.2320    7.2530    6.0660 P.3    66  C66         0.2141
   1410  C5'       10.0250    8.9550    7.8900 C.3    66  C66         0.1812
   1411  O5'        9.2730    7.7990    7.5570 O.3    66  C66        -0.3114
   1412  C4'        9.5510    9.5600    9.1840 C.3    66  C66         0.1773
   1413  O4'        8.1880   10.0350    9.0330 O.3    66  C66        -0.3307
   1414  C3'        9.4840    8.6150   10.3750 C.3    66  C66         0.1860
   1415  O3'       10.7420    8.4240   10.9970 O.3    66  C66        -0.3112
   1416  C2'        8.4580    9.2910   11.2710 C.3    66  C66         0.2309
   1417  O2'        9.0410   10.3880   11.9600 O.3    66  C66        -0.2156
   1418  C1'        7.4750    9.8410   10.2380 C.3    66  C66         0.2420
   1419  N1         6.3600    8.9040    9.9770 N.ar   66  C66        -0.2535
   1420  C2         5.3050    8.8350   10.8900 C.ar   66  C66         0.3532
   1421  O2         5.3400    9.5540   11.8980 O.2    66  C66        -0.2443
   1422  N3         4.2770    7.9830   10.6560 N.ar   66  C66        -0.1739
   1423  C4         4.2750    7.2210    9.5590 C.ar   66  C66         0.1759
   1424  N4         3.2360    6.4010    9.3690 N.pl3  66  C66        -0.1070
   1425  C5         5.3390    7.2710    8.6100 C.ar   66  C66         0.0566
   1426  C6         6.3480    8.1220    8.8530 C.ar   66  C66         0.0850
   1427  OP1       10.6110    7.0380    5.5700 O.2    66  C66        -0.5172
   1428  OP2        8.2550    6.1380    5.9660 O.co2  66  C66        -0.4373
   1429  P         11.0930    7.0290   11.7110 P.3    67  G67         0.2141
   1430  C5'       10.2810    7.9060   14.0510 C.3    67  G67         0.1812
   1431  O5'       10.1070    7.0100   12.9580 O.3    67  G67        -0.3114
   1432  C4'        9.4780    7.4680   15.2500 C.3    67  G67         0.1773
   1433  O4'        8.0830    7.3340   14.8580 O.3    67  G67        -0.3307
   1434  C3'        9.8810    6.1160   15.8350 C.3    67  G67         0.1860
   1435  O3'        9.6130    6.1070   17.2380 O.3    67  G67        -0.3112
   1436  C2'        8.9250    5.1590   15.1320 C.3    67  G67         0.2309
   1437  O2'        8.7070    3.9410   15.8120 O.3    67  G67        -0.2156
   1438  C1'        7.6540    6.0010   15.0580 C.3    67  G67         0.2408
   1439  N1         3.0690    4.2620   13.8190 N.ar   67  G67        -0.1709
   1440  C2         3.6070    4.5110   15.0550 C.ar   67  G67         0.2606
   1441  N2         2.8180    4.2580   16.1110 N.pl3  67  G67        -0.0859
   1442  N3         4.8320    4.9650   15.2460 N.ar   67  G67        -0.1918
   1443  C4         5.4840    5.1610   14.0820 C.ar   67  G67         0.1723
   1444  C5         5.0430    4.9450   12.7960 C.ar   67  G67         0.1748
   1445  C6         3.7270    4.4490   12.6090 C.ar   67  G67         0.3023
   1446  O6         3.1470    4.1860   11.5500 O.2    67  G67        -0.2633
   1447  N7         6.0300    5.2740   11.8750 N.ar   67  G67        -0.2173
   1448  C8         7.0340    5.6740   12.6060 C.ar   67  G67         0.1817
   1449  N9         6.7630    5.6340   13.9550 N.ar   67  G67        -0.2693
   1450  OP1       12.4970    7.1230   12.1760 O.3    67  G67        -0.4373
   1451  OP2       10.7260    5.9460   10.7660 O.co2  67  G67        -0.5172
   1452  P         10.7700    6.4710   18.2950 P.3    68  G68         0.2141
   1453  C5'       11.4270    3.9400   18.1760 C.3    68  G68         0.1812
   1454  O5'       11.8220    5.2980   18.0910 O.3    68  G68        -0.3114
   1455  C4'       12.3150    3.0610   17.3340 C.3    68  G68         0.1773
   1456  O4'       13.6510    3.0440   17.8780 O.3    68  G68        -0.3307
   1457  C3'       11.9150    1.5980   17.2440 C.3    68  G68         0.1860
   1458  O3'       10.9230    1.3930   16.2560 O.3    68  G68        -0.3112
   1459  C2'       13.2360    0.8890   16.9350 C.3    68  G68         0.2309
   1460  O2'       13.4710    0.8550   15.5340 O.3    68  G68        -0.2156
   1461  C1'       14.2750    1.8200   17.5800 C.3    68  G68         0.2408
   1462  N1        18.4090    1.7780   20.4540 N.ar   68  G68        -0.1709
   1463  C2        18.1610    2.4210   19.2660 C.ar   68  G68         0.2606
   1464  N2        19.1610    3.1630   18.7680 N.pl3  68  G68        -0.0859
   1465  N3        17.0130    2.3400   18.6140 N.ar   68  G68        -0.1918
   1466  C4        16.1200    1.5530   19.2520 C.ar   68  G68         0.1723
   1467  C5        16.2620    0.8690   20.4360 C.ar   68  G68         0.1748
   1468  C6        17.4990    0.9640   21.1250 C.ar   68  G68         0.3023
   1469  O6        17.8230    0.4300   22.1920 O.2    68  G68        -0.2633
   1470  N7        15.0970    0.1750   20.7430 N.ar   68  G68        -0.2173
   1471  C8        14.2800    0.4450   19.7590 C.ar   68  G68         0.1817
   1472  N9        14.8470    1.2720   18.8210 N.ar   68  G68        -0.2693
   1473  OP1       10.1660    6.3800   19.6470 O.3    68  G68        -0.4373
   1474  OP2       11.3690    7.7600   17.8670 O.co2  68  G68        -0.5172
   1475  P         10.1110    0.0160   16.1630 P.3    69  U69         0.2141
   1476  C5'        8.2700    0.9030   17.8040 C.3    69  U69         0.1812
   1477  O5'        8.6260    0.4640   16.5060 O.3    69  U69        -0.3114
   1478  C4'        6.7750    0.9290   17.9630 C.3    69  U69         0.1773
   1479  O4'        6.2210    1.9540   17.1030 O.3    69  U69        -0.3307
   1480  C3'        6.0540   -0.3480   17.5490 C.3    69  U69         0.1860
   1481  O3'        6.0220   -1.3140   18.5850 O.3    69  U69        -0.3112
   1482  C2'        4.6750    0.1520   17.1410 C.3    69  U69         0.2309
   1483  O2'        3.8600    0.3480   18.2830 O.3    69  U69        -0.2156
   1484  C1'        5.0020    1.5210   16.5470 C.3    69  U69         0.2420
   1485  N1         5.1470    1.4810   15.0720 N.ar   69  U69        -0.2534
   1486  C2         4.0310    1.2090   14.3060 C.ar   69  U69         0.3546
   1487  O2         2.9340    0.9840   14.7850 O.2    69  U69        -0.2443
   1488  N3         4.2450    1.2040   12.9480 N.ar   69  U69        -0.1530
   1489  C4         5.4300    1.4470   12.2870 C.ar   69  U69         0.2846
   1490  O4         5.4550    1.4110   11.0530 O.2    69  U69        -0.2650
   1491  C5         6.5390    1.7300   13.1470 C.ar   69  U69         0.0814
   1492  C6         6.3590    1.7440   14.4740 C.ar   69  U69         0.0870
   1493  OP1       10.6320   -0.8800   17.2230 O.3    69  U69        -0.4373
   1494  OP2       10.1820   -0.4330   14.7500 O.co2  69  U69        -0.5172
   1495  P          6.0270   -2.8880   18.2400 P.3    70  G70         0.2141
   1496  C5'        3.6540   -3.1260   19.3280 C.3    70  G70         0.1812
   1497  O5'        4.4780   -3.2410   18.1780 O.3    70  G70        -0.3114
   1498  C4'        2.2470   -3.5720   19.0330 C.3    70  G70         0.1773
   1499  O4'        1.6350   -2.6510   18.0950 O.3    70  G70        -0.3307
   1500  C3'        2.1140   -4.9350   18.3670 C.3    70  G70         0.1860
   1501  O3'        2.1460   -6.0050   19.2960 O.3    70  G70        -0.3112
   1502  C2'        0.7970   -4.8180   17.6170 C.3    70  G70         0.2309
   1503  O2'       -0.2980   -4.9880   18.5040 O.3    70  G70        -0.2156
   1504  C1'        0.8320   -3.3570   17.1770 C.3    70  G70         0.2408
   1505  N1         0.0130   -3.6360   12.1640 N.ar   70  G70        -0.1709
   1506  C2        -0.8400   -3.9100   13.2070 C.ar   70  G70         0.2606
   1507  N2        -2.0790   -4.3070   12.8790 N.pl3  70  G70        -0.0859
   1508  N3        -0.5070   -3.8040   14.4830 N.ar   70  G70        -0.1918
   1509  C4         0.7690   -3.3920   14.6350 C.ar   70  G70         0.1723
   1510  C5         1.7020   -3.0920   13.6660 C.ar   70  G70         0.1748
   1511  C6         1.3300   -3.2080   12.3010 C.ar   70  G70         0.3023
   1512  O6         2.0140   -2.9880   11.2950 O.2    70  G70        -0.2633
   1513  N7         2.9070   -2.7070   14.2470 N.ar   70  G70        -0.2173
   1514  C8         2.6880   -2.7740   15.5320 C.ar   70  G70         0.1817
   1515  N9         1.4130   -3.1900   15.8320 N.ar   70  G70        -0.2693
   1516  OP1        6.6560   -3.5820   19.3870 O.3    70  G70        -0.4373
   1517  OP2        6.6320   -3.0400   16.8950 O.co2  70  G70        -0.5172
   1518  P          2.6860   -7.4520   18.8500 P.3    71  A71         0.2141
   1519  C5'        0.2100   -8.1920   18.3910 C.3    71  A71         0.1812
   1520  O5'        1.5270   -7.9840   17.8960 O.3    71  A71        -0.3114
   1521  C4'       -0.7680   -8.4500   17.2720 C.3    71  A71         0.1773
   1522  O4'       -0.8080   -7.3050   16.3800 O.3    71  A71        -0.3307
   1523  C3'       -0.4400   -9.6220   16.3550 C.3    71  A71         0.1860
   1524  O3'       -0.8310  -10.8740   16.8970 O.3    71  A71        -0.3112
   1525  C2'       -1.1720   -9.2550   15.0700 C.3    71  A71         0.2309
   1526  O2'       -2.5580   -9.5440   15.1810 O.3    71  A71        -0.2156
   1527  C1'       -1.0020   -7.7350   15.0490 C.3    71  A71         0.2408
   1528  N1         0.7210   -6.4660   10.3530 N.ar   71  A71        -0.2040
   1529  C2        -0.4830   -6.8370   10.8070 C.ar   71  A71         0.2016
   1530  N3        -0.8680   -7.1550   12.0420 N.ar   71  A71        -0.2048
   1531  C4         0.1680   -7.0620   12.8940 C.ar   71  A71         0.1692
   1532  C5         1.4660   -6.6950   12.5810 C.ar   71  A71         0.1518
   1533  C6         1.7400   -6.3810   11.2340 C.ar   71  A71         0.1919
   1534  N6         2.9410   -6.0060   10.7800 N.pl3  71  A71        -0.1054
   1535  N7         2.2620   -6.7170   13.7190 N.ar   71  A71        -0.2193
   1536  C8         1.4460   -7.0860   14.6780 C.ar   71  A71         0.1816
   1537  N9         0.1620   -7.3170   14.2450 N.ar   71  A71        -0.2693
   1538  OP1        2.7550   -8.2870   20.0750 O.3    71  A71        -0.4373
   1539  OP2        3.9240   -7.2350   18.0660 O.co2  71  A71        -0.5172
   1540  P         -0.1110  -12.2280   16.4140 P.3    72  A72         0.2141
   1541  C5'       -2.0680  -12.6670   14.7250 C.3    72  A72         0.1812
   1542  O5'       -0.6850  -12.4310   14.9440 O.3    72  A72        -0.3114
   1543  C4'       -2.3860  -12.7480   13.2540 C.3    72  A72         0.1773
   1544  O4'       -2.1790  -11.4490   12.6350 O.3    72  A72        -0.3307
   1545  C3'       -1.5150  -13.6910   12.4370 C.3    72  A72         0.1860
   1546  O3'       -1.9300  -15.0440   12.5210 O.3    72  A72        -0.3112
   1547  C2'       -1.6120  -13.1070   11.0360 C.3    72  A72         0.2309
   1548  O2'       -2.8470  -13.4590   10.4310 O.3    72  A72        -0.2156
   1549  C1'       -1.6350  -11.6110   11.3410 C.3    72  A72         0.2408
   1550  N1         2.0680   -9.3530    8.5300 N.ar   72  A72        -0.2040
   1551  C2         0.8500   -9.8110    8.2100 C.ar   72  A72         0.2016
   1552  N3        -0.0670  -10.3880    8.9830 N.ar   72  A72        -0.2048
   1553  C4         0.3760  -10.4850   10.2490 C.ar   72  A72         0.1692
   1554  C5         1.6040  -10.0620   10.7300 C.ar   72  A72         0.1518
   1555  C6         2.4850   -9.4650    9.8100 C.ar   72  A72         0.1919
   1556  N6         3.6990   -9.0120   10.1350 N.pl3  72  A72        -0.1054
   1557  N7         1.7170  -10.3270   12.0870 N.ar   72  A72        -0.2193
   1558  C8         0.5760  -10.8930   12.3930 C.ar   72  A72         0.1816
   1559  N9        -0.2820  -11.0240   11.3290 N.ar   72  A72        -0.2693
   1560  OP1       -0.5930  -13.3170   17.2980 O.3    72  A72        -0.4373
   1561  OP2        1.3460  -11.9520   16.3520 O.co2  72  A72        -0.5172
   1562  P         -0.8500  -16.2280   12.4130 P.3    73  U73         0.2141
   1563  C5'       -1.2630  -16.3570    9.8310 C.3    73  U73         0.1812
   1564  O5'       -0.3630  -16.1260   10.9030 O.3    73  U73        -0.3114
   1565  C4'       -0.6030  -16.1130    8.4990 C.3    73  U73         0.1773
   1566  O4'       -0.2940  -14.7020    8.3560 O.3    73  U73        -0.3307
   1567  C3'        0.7330  -16.8060    8.2830 C.3    73  U73         0.1860
   1568  O3'        0.5970  -18.1670    7.9070 O.3    73  U73        -0.3112
   1569  C2'        1.3910  -15.9380    7.2190 C.3    73  U73         0.2309
   1570  O2'        0.8720  -16.2400    5.9330 O.3    73  U73        -0.2156
   1571  C1'        0.9030  -14.5450    7.6210 C.3    73  U73         0.2420
   1572  N1         1.8870  -13.8320    8.4660 N.ar   73  U73        -0.2534
   1573  C2         2.8560  -13.0930    7.8140 C.ar   73  U73         0.3546
   1574  O2         2.9200  -13.0240    6.5990 O.2    73  U73        -0.2443
   1575  N3         3.7500  -12.4480    8.6320 N.ar   73  U73        -0.1530
   1576  C4         3.7670  -12.4620   10.0120 C.ar   73  U73         0.2846
   1577  O4         4.6370  -11.8280   10.6130 O.2    73  U73        -0.2650
   1578  C5         2.7300  -13.2470   10.6130 C.ar   73  U73         0.0814
   1579  C6         1.8450  -13.8890    9.8400 C.ar   73  U73         0.0870
   1580  OP1       -1.5760  -17.5030   12.6240 O.2    73  U73        -0.5172
   1581  OP2        0.2680  -15.8840   13.3270 O.co2  73  U73        -0.4373
   1582  P          1.7630  -19.2210    8.2450 P.3    74  C74         0.2141
   1583  C5'        2.6770  -18.9230    5.8060 C.3    74  C74         0.1812
   1584  O5'        2.9030  -18.8310    7.2050 O.3    74  C74        -0.3114
   1585  C4'        3.8040  -18.3010    5.0210 C.3    74  C74         0.1773
   1586  O4'        3.8410  -16.8710    5.2660 O.3    74  C74        -0.3307
   1587  C3'        5.2060  -18.7720    5.3790 C.3    74  C74         0.1860
   1588  O3'        5.5490  -20.0100    4.7790 O.3    74  C74        -0.3112
   1589  C2'        6.0730  -17.6060    4.9220 C.3    74  C74         0.2309
   1590  O2'        6.2510  -17.6320    3.5130 O.3    74  C74        -0.2156
   1591  C1'        5.1790  -16.4170    5.2710 C.3    74  C74         0.2420
   1592  N1         5.4840  -15.8710    6.6080 N.ar   74  C74        -0.2535
   1593  C2         6.5000  -14.9190    6.7230 C.ar   74  C74         0.3532
   1594  O2         7.1130  -14.5700    5.7000 O.2    74  C74        -0.2443
   1595  N3         6.7870  -14.4060    7.9420 N.ar   74  C74        -0.1739
   1596  C4         6.1030  -14.8090    9.0150 C.ar   74  C74         0.1759
   1597  N4         6.4220  -14.2750   10.1970 N.pl3  74  C74        -0.1070
   1598  C5         5.0610  -15.7780    8.9240 C.ar   74  C74         0.0566
   1599  C6         4.7870  -16.2770    7.7110 C.ar   74  C74         0.0850
   1600  OP1        1.2360  -20.5720    7.9320 O.2    74  C74        -0.5172
   1601  OP2        2.2210  -18.9390    9.6280 O.co2  74  C74        -0.4373
   1602  P          6.6800  -20.9420    5.4380 P.3    75  A75         0.2141
   1603  C5'        8.5310  -19.9390    3.8750 C.3    75  A75         0.1812
   1604  O5'        8.0140  -20.1100    5.1880 O.3    75  A75        -0.3114
   1605  C4'        9.8010  -19.1260    3.8820 C.3    75  A75         0.1773
   1606  O4'        9.5090  -17.7630    4.2880 O.3    75  A75        -0.3307
   1607  C3'       10.8740  -19.5790    4.8590 C.3    75  A75         0.1860
   1608  O3'       11.6450  -20.6630    4.3740 O.3    75  A75        -0.3112
   1609  C2'       11.6760  -18.3060    5.0810 C.3    75  A75         0.2309
   1610  O2'       12.5330  -18.0520    3.9780 O.3    75  A75        -0.2156
   1611  C1'       10.5670  -17.2590    5.0760 C.3    75  A75         0.2408
   1612  N1        11.2280  -14.6150    9.4430 N.ar   75  A75        -0.2040
   1613  C2        11.9180  -14.6490    8.2940 C.ar   75  A75         0.2016
   1614  N3        11.6910  -15.3650    7.1950 N.ar   75  A75        -0.2048
   1615  C4        10.5950  -16.1280    7.3470 C.ar   75  A75         0.1692
   1616  C5         9.7830  -16.2030    8.4640 C.ar   75  A75         0.1518
   1617  C6        10.1310  -15.3960    9.5630 C.ar   75  A75         0.1919
   1618  N6         9.4430  -15.3640   10.7090 N.pl3  75  A75        -0.1054
   1619  N7         8.7460  -17.1020    8.2540 N.ar   75  A75        -0.2193
   1620  C8         8.9480  -17.5440    7.0360 C.ar   75  A75         0.1816
   1621  N9        10.0530  -16.9960    6.4320 N.ar   75  A75        -0.2693
   1622  OP1        6.7180  -22.2020    4.6560 O.2    75  A75        -0.5172
   1623  OP2        6.3950  -21.0150    6.8930 O.co2  75  A75        -0.4373
   1624  P         12.2200  -21.7640    5.3930 P.3    76  U76         0.2141
   1625  C5'       14.5200  -20.5130    5.4400 C.3    76  U76         0.1812
   1626  O5'       13.3800  -20.9770    6.1450 O.3    76  U76        -0.3114
   1627  C4'       15.3580  -19.5930    6.2910 C.3    76  U76         0.1773
   1628  O4'       14.6070  -18.3880    6.6040 O.3    76  U76        -0.3307
   1629  C3'       15.7580  -20.1260    7.6570 C.3    76  U76         0.1860
   1630  O3'       16.8400  -21.0380    7.6120 O.3    76  U76        -0.3112
   1631  C2'       16.0660  -18.8480    8.4150 C.3    76  U76         0.2309
   1632  O2'       17.3100  -18.3070    7.9950 O.3    76  U76        -0.2156
   1633  C1'       14.9490  -17.9410    7.9030 C.3    76  U76         0.2420
   1634  N1        13.7480  -18.0230    8.7640 N.ar   76  U76        -0.2534
   1635  C2        13.7770  -17.3070    9.9420 C.ar   76  U76         0.3546
   1636  O2        14.7310  -16.6220   10.2670 O.2    76  U76        -0.2443
   1637  N3        12.6510  -17.4220   10.7220 N.ar   76  U76        -0.1530
   1638  C4        11.5230  -18.1690   10.4470 C.ar   76  U76         0.2846
   1639  O4        10.5890  -18.1710   11.2500 O.2    76  U76        -0.2650
   1640  C5        11.5730  -18.8880    9.2110 C.ar   76  U76         0.0814
   1641  C6        12.6590  -18.7960    8.4330 C.ar   76  U76         0.0870
   1642  OP1       12.7990  -22.8580    4.5730 O.2    76  U76        -0.5172
   1643  OP2       11.1310  -22.0880    6.3480 O.co2  76  U76        -0.4373
   1644  P         16.8870  -22.2790    8.6360 P.3    77  U77         0.2141
   1645  C5'       18.2160  -20.7430   10.2950 C.3    77  U77         0.1812
   1646  O5'       17.0890  -21.5710   10.0470 O.3    77  U77        -0.3114
   1647  C4'       18.1160  -20.0560   11.6340 C.3    77  U77         0.1773
   1648  O4'       16.9840  -19.1500   11.6450 O.3    77  U77        -0.3307
   1649  C3'       17.8590  -20.9550   12.8290 C.3    77  U77         0.1860
   1650  O3'       19.0150  -21.6400   13.2730 O.3    77  U77        -0.3112
   1651  C2'       17.2920  -19.9820   13.8490 C.3    77  U77         0.2309
   1652  O2'       18.3270  -19.1990   14.4250 O.3    77  U77        -0.2156
   1653  C1'       16.4430  -19.0800   12.9510 C.3    77  U77         0.2420
   1654  N1        15.0310  -19.5210   12.9090 N.ar   77  U77        -0.2534
   1655  C2        14.2420  -19.1490   13.9790 C.ar   77  U77         0.3546
   1656  O2        14.6680  -18.4850   14.9070 O.2    77  U77        -0.2443
   1657  N3        12.9390  -19.5760   13.9250 N.ar   77  U77        -0.1530
   1658  C4        12.3560  -20.3300   12.9280 C.ar   77  U77         0.2846
   1659  O4        11.1640  -20.6340   13.0270 O.2    77  U77        -0.2650
   1660  C5        13.2380  -20.6800   11.8540 C.ar   77  U77         0.0814
   1661  C6        14.5160  -20.2750   11.8810 C.ar   77  U77         0.0870
   1662  OP1       18.0880  -23.0800    8.2970 O.2    77  U77        -0.5172
   1663  OP2       15.5560  -22.9340    8.5880 O.co2  77  U77        -0.4373
   1664  P         18.8820  -23.1180   13.8840 P.3    78  G78         0.2141
   1665  C5'       18.8330  -22.2390   16.3500 C.3    78  G78         0.1812
   1666  O5'       18.1490  -22.8590   15.2730 O.3    78  G78        -0.3114
   1667  C4'       17.8980  -21.9150   17.4900 C.3    78  G78         0.1773
   1668  O4'       16.8110  -21.0760   17.0150 O.3    78  G78        -0.3307
   1669  C3'       17.1860  -23.0950   18.1340 C.3    78  G78         0.1860
   1670  O3'       18.0030  -23.8180   19.0410 O.3    78  G78        -0.3112
   1671  C2'       15.9870  -22.4270   18.7920 C.3    78  G78         0.2309
   1672  O2'       16.3710  -21.7830   19.9970 O.3    78  G78        -0.2156
   1673  C1'       15.6400  -21.3500   17.7590 C.3    78  G78         0.2408
   1674  N1        10.6540  -21.9610   17.2090 N.ar   78  G78        -0.1709
   1675  C2        11.3730  -21.4720   18.2680 C.ar   78  G78         0.2606
   1676  N2        10.6690  -21.0940   19.3430 N.pl3  78  G78        -0.0859
   1677  N3        12.6910  -21.3630   18.2760 N.ar   78  G78        -0.1918
   1678  C4        13.2400  -21.7940   17.1230 C.ar   78  G78         0.1723
   1679  C5        12.6170  -22.3040   16.0050 C.ar   78  G78         0.1748
   1680  C6        11.2010  -22.4150   16.0110 C.ar   78  G78         0.3023
   1681  O6        10.4550  -22.8390   15.1240 O.2    78  G78        -0.2633
   1682  N7        13.5530  -22.6290   15.0320 N.ar   78  G78        -0.2173
   1683  C8        14.7050  -22.3180   15.5690 C.ar   78  G78         0.1817
   1684  N9        14.5810  -21.7990   16.8360 N.ar   78  G78        -0.2693
   1685  OP1       20.2590  -23.6160   14.1240 O.3    78  G78        -0.4373
   1686  OP2       17.9920  -23.8870   12.9800 O.co2  78  G78        -0.5172
   1687  P         17.6980  -25.3700   19.3410 P.3    79  C79         0.2141
   1688  C5'       16.8200  -24.7440   21.7440 C.3    79  C79         0.1812
   1689  O5'       17.7600  -25.4450   20.9310 O.3    79  C79        -0.3114
   1690  C4'       17.3090  -24.6320   23.1670 C.3    79  C79         0.1773
   1691  O4'       16.2290  -24.1510   24.0250 O.3    79  C79        -0.3307
   1692  C3'       17.8010  -25.9480   23.7900 C.3    79  C79         0.1860
   1693  O3'       18.9700  -25.7060   24.5720 O.3    79  C79        -0.3112
   1694  C2'       16.6490  -26.3370   24.7090 C.3    79  C79         0.2309
   1695  O2'       17.0130  -27.1620   25.7930 O.3    79  C79        -0.2156
   1696  C1'       16.1690  -24.9700   25.1730 C.3    79  C79         0.2420
   1697  N1        14.7910  -24.9710   25.7230 N.ar   79  C79        -0.2535
   1698  C2        14.5180  -24.2100   26.8700 C.ar   79  C79         0.3532
   1699  O2        15.4100  -23.4960   27.3460 O.2    79  C79        -0.2443
   1700  N3        13.2820  -24.2390   27.4220 N.ar   79  C79        -0.1739
   1701  C4        12.3440  -25.0180   26.8850 C.ar   79  C79         0.1759
   1702  N4        11.1380  -25.0260   27.4520 N.pl3  79  C79        -0.1070
   1703  C5        12.5950  -25.8170   25.7350 C.ar   79  C79         0.0566
   1704  C6        13.8240  -25.7830   25.2000 C.ar   79  C79         0.0850
   1705  OP1       18.8130  -26.1570   18.7590 O.2    79  C79        -0.5172
   1706  OP2       16.3170  -25.6430   18.8760 O.co2  79  C79        -0.4373
   1707  P         20.2390  -26.6850   24.4470 P.3    80  A80         0.2141
   1708  C5'       21.8130  -25.7000   26.3040 C.3    80  A80         0.1812
   1709  O5'       20.8460  -26.6690   25.9200 O.3    80  A80        -0.3114
   1710  C4'       21.8570  -25.5280   27.8030 C.3    80  A80         0.1773
   1711  O4'       20.7510  -24.6940   28.2310 O.3    80  A80        -0.3307
   1712  C3'       21.7070  -26.8020   28.6220 C.3    80  A80         0.1860
   1713  O3'       22.9250  -27.5170   28.7580 O.3    80  A80        -0.3112
   1714  C2'       21.1440  -26.2910   29.9430 C.3    80  A80         0.2309
   1715  O2'       22.1770  -25.7510   30.7520 O.3    80  A80        -0.2156
   1716  C1'       20.2540  -25.1430   29.4710 C.3    80  A80         0.2408
   1717  N1        15.6420  -26.1280   31.6370 N.ar   80  A80        -0.2040
   1718  C2        16.8140  -25.7480   32.1670 C.ar   80  A80         0.2016
   1719  N3        17.9790  -25.5070   31.5680 N.ar   80  A80        -0.2048
   1720  C4        17.8730  -25.6960   30.2390 C.ar   80  A80         0.1692
   1721  C5        16.7360  -26.0870   29.5520 C.ar   80  A80         0.1518
   1722  C6        15.5680  -26.3110   30.2990 C.ar   80  A80         0.1919
   1723  N6        14.4080  -26.6880   29.7520 N.pl3  80  A80        -0.1054
   1724  N7        16.9900  -26.1830   28.1940 N.ar   80  A80        -0.2193
   1725  C8        18.2530  -25.8570   28.0870 C.ar   80  A80         0.1816
   1726  N9        18.8530  -25.5600   29.2830 N.ar   80  A80        -0.2693
   1727  OP1       21.1890  -26.0470   23.5020 O.2    80  A80        -0.5172
   1728  OP2       19.7190  -28.0370   24.1320 O.co2  80  A80        -0.4373
   1729  P         22.9410  -29.1190   28.6430 P.3    81  U81         0.2141
   1730  C5'       23.1510  -29.4570   31.2360 C.3    81  U81         0.1812
   1731  O5'       22.3710  -29.5830   30.0550 O.3    81  U81        -0.3114
   1732  C4'       22.4400  -30.0390   32.4320 C.3    81  U81         0.1773
   1733  O4'       21.3170  -29.1910   32.7980 O.3    81  U81        -0.3307
   1734  C3'       21.8170  -31.4120   32.2330 C.3    81  U81         0.1860
   1735  O3'       22.7530  -32.4700   32.3550 O.3    81  U81        -0.3112
   1736  C2'       20.7210  -31.4390   33.2890 C.3    81  U81         0.2309
   1737  O2'       21.2640  -31.7130   34.5720 O.3    81  U81        -0.2156
   1738  C1'       20.2470  -29.9850   33.2660 C.3    81  U81         0.2420
   1739  N1        19.0940  -29.7950   32.3630 N.ar   81  U81        -0.2534
   1740  C2        17.8490  -30.1830   32.8190 C.ar   81  U81         0.3546
   1741  O2        17.6710  -30.6720   33.9210 O.2    81  U81        -0.2443
   1742  N3        16.8200  -29.9800   31.9340 N.ar   81  U81        -0.1530
   1743  C4        16.9090  -29.4350   30.6680 C.ar   81  U81         0.2846
   1744  O4        15.8890  -29.3140   29.9870 O.2    81  U81        -0.2650
   1745  C5        18.2310  -29.0580   30.2710 C.ar   81  U81         0.0814
   1746  C6        19.2530  -29.2470   31.1120 C.ar   81  U81         0.0870
   1747  OP1       24.3580  -29.5320   28.5110 O.3    81  U81        -0.4373
   1748  OP2       21.9900  -29.4890   27.5690 O.co2  81  U81        -0.5172
   1749  P         22.7110  -33.7030   31.3270 P.3    82  C82         0.2141
   1750  C5'       21.2930  -35.1090   33.0130 C.3    82  C82         0.1812
   1751  O5'       21.3830  -34.4730   31.7520 O.3    82  C82        -0.3114
   1752  C4'       19.8640  -35.3990   33.4070 C.3    82  C82         0.1773
   1753  O4'       19.0610  -34.1890   33.3610 O.3    82  C82        -0.3307
   1754  C3'       19.0860  -36.3600   32.5260 C.3    82  C82         0.1860
   1755  O3'       19.4620  -37.7170   32.7010 O.3    82  C82        -0.3112
   1756  C2'       17.6530  -36.0630   32.9480 C.3    82  C82         0.2309
   1757  O2'       17.3730  -36.6450   34.2150 O.3    82  C82        -0.2156
   1758  C1'       17.7080  -34.5420   33.1240 C.3    82  C82         0.2420
   1759  N1        17.2190  -33.8360   31.9250 N.ar   82  C82        -0.2535
   1760  C2        15.8330  -33.6830   31.8350 C.ar   82  C82         0.3532
   1761  O2        15.1250  -34.1270   32.7560 O.2    82  C82        -0.2443
   1762  N3        15.3000  -33.0580   30.7640 N.ar   82  C82        -0.1739
   1763  C4        16.0990  -32.5980   29.8010 C.ar   82  C82         0.1759
   1764  N4        15.5210  -31.9860   28.7660 N.pl3  82  C82        -0.1070
   1765  C5        17.5170  -32.7430   29.8630 C.ar   82  C82         0.0566
   1766  C6        18.0360  -33.3690   30.9340 C.ar   82  C82         0.0850
   1767  OP1       23.8960  -34.5470   31.6110 O.3    82  C82        -0.4373
   1768  OP2       22.5530  -33.1330   29.9670 O.co2  82  C82        -0.5172
   1769  P         19.3540  -38.7490   31.4740 P.3    83  C83         0.2141
   1770  C5'       17.0800  -39.7830   32.2650 C.3    83  C83         0.1812
   1771  O5'       17.7840  -38.9780   31.3330 O.3    83  C83        -0.3114
   1772  C4'       15.5870  -39.6980   32.0650 C.3    83  C83         0.1773
   1773  O4'       15.1480  -38.3130   32.1450 O.3    83  C83        -0.3307
   1774  C3'       15.0590  -40.1570   30.7180 C.3    83  C83         0.1860
   1775  O3'       14.9890  -41.5650   30.5900 O.3    83  C83        -0.3112
   1776  C2'       13.7050  -39.4720   30.6620 C.3    83  C83         0.2309
   1777  O2'       12.7780  -40.1280   31.5150 O.3    83  C83        -0.2156
   1778  C1'       14.0490  -38.1140   31.2750 C.3    83  C83         0.2420
   1779  N1        14.4380  -37.1420   30.2340 N.ar   83  C83        -0.2535
   1780  C2        13.4200  -36.5250   29.5040 C.ar   83  C83         0.3532
   1781  O2        12.2420  -36.7950   29.7800 O.2    83  C83        -0.2443
   1782  N3        13.7400  -35.6490   28.5240 N.ar   83  C83        -0.1739
   1783  C4        15.0210  -35.3880   28.2620 C.ar   83  C83         0.1759
   1784  N4        15.2920  -34.5120   27.2910 N.pl3  83  C83        -0.1070
   1785  C5        16.0810  -36.0110   28.9860 C.ar   83  C83         0.0566
   1786  C6        15.7490  -36.8790   29.9510 C.ar   83  C83         0.0850
   1787  OP1       20.0100  -40.0060   31.9060 O.3    83  C83        -0.4373
   1788  OP2       19.8710  -38.0540   30.2700 O.co2  83  C83        -0.5172
   1789  P         15.1050  -42.2460   29.1390 P.3    84  G84         0.2141
   1790  C5'       12.4980  -42.1470   28.8720 C.3    84  G84         0.1812
   1791  O5'       13.7800  -41.7530   28.4060 O.3    84  G84        -0.3114
   1792  C4'       11.3960  -41.4170   28.1440 C.3    84  G84         0.1773
   1793  O4'       11.6240  -39.9870   28.2190 O.3    84  G84        -0.3307
   1794  C3'       11.2820  -41.6950   26.6530 C.3    84  G84         0.1860
   1795  O3'       10.5830  -42.8930   26.3680 O.3    84  G84        -0.3112
   1796  C2'       10.5830  -40.4460   26.1290 C.3    84  G84         0.2309
   1797  O2'        9.1830  -40.5220   26.3520 O.3    84  G84        -0.2156
   1798  C1'       11.1580  -39.3620   27.0430 C.3    84  G84         0.2408
   1799  N1        12.4930  -36.1740   23.3370 N.ar   84  G84        -0.1709
   1800  C2        11.2590  -36.6890   23.6530 C.ar   84  G84         0.2606
   1801  N2        10.2340  -36.3080   22.8790 N.pl3  84  G84        -0.0859
   1802  N3        11.0440  -37.5200   24.6560 N.ar   84  G84        -0.1918
   1803  C4        12.1790  -37.8010   25.3290 C.ar   84  G84         0.1723
   1804  C5        13.4570  -37.3440   25.0990 C.ar   84  G84         0.1748
   1805  C6        13.6760  -36.4490   24.0190 C.ar   84  G84         0.3023
   1806  O6        14.7380  -35.9290   23.6530 O.2    84  G84        -0.2633
   1807  N7        14.3440  -37.8800   26.0250 N.ar   84  G84        -0.2173
   1808  C8        13.6010  -38.6380   26.7860 C.ar   84  G84         0.1817
   1809  N9        12.2790  -38.6400   26.4130 N.ar   84  G84        -0.2693
   1810  OP1       15.0540  -43.7140   29.3410 O.3    84  G84        -0.4373
   1811  OP2       16.2950  -41.6600   28.4770 O.co2  84  G84        -0.5172
   1812  P         10.9580  -43.7620   25.0690 P.3    85  C85         0.2141
   1813  C5'        9.1460  -42.4370   23.7220 C.3    85  C85         0.1812
   1814  O5'       10.5020  -42.8250   23.8730 O.3    85  C85        -0.3114
   1815  C4'        8.9730  -41.5170   22.5440 C.3    85  C85         0.1773
   1816  O4'        9.6240  -40.2490   22.8120 O.3    85  C85        -0.3307
   1817  C3'        9.6030  -41.9860   21.2440 C.3    85  C85         0.1860
   1818  O3'        8.8000  -42.9230   20.5510 O.3    85  C85        -0.3112
   1819  C2'        9.8130  -40.6850   20.4830 C.3    85  C85         0.2309
   1820  O2'        8.5980  -40.2530   19.8900 O.3    85  C85        -0.2156
   1821  C1'       10.1660  -39.7230   21.6180 C.3    85  C85         0.2420
   1822  N1        11.6290  -39.5710   21.7910 N.ar   85  C85        -0.2535
   1823  C2        12.3520  -38.7690   20.8990 C.ar   85  C85         0.3532
   1824  O2        11.7580  -38.2060   19.9650 O.2    85  C85        -0.2443
   1825  N3        13.6870  -38.6290   21.0660 N.ar   85  C85        -0.1739
   1826  C4        14.3010  -39.2440   22.0780 C.ar   85  C85         0.1759
   1827  N4        15.6200  -39.0760   22.2050 N.pl3  85  C85        -0.1070
   1828  C5        13.5900  -40.0610   23.0050 C.ar   85  C85         0.0566
   1829  C6        12.2690  -40.1910   22.8280 C.ar   85  C85         0.0850
   1830  OP1       10.1170  -44.9840   25.1030 O.3    85  C85        -0.4373
   1831  OP2       12.4340  -43.9120   25.0540 O.co2  85  C85        -0.5172
   1832  P          9.4850  -44.1160   19.7240 P.3    86  U86         0.2141
   1833  C5'        9.2400  -42.8030   17.4690 C.3    86  U86         0.1812
   1834  O5'       10.0900  -43.3660   18.4570 O.3    86  U86        -0.3114
   1835  C4'       10.0340  -42.1890   16.3430 C.3    86  U86         0.1773
   1836  O4'       10.7460  -41.0200   16.8240 O.3    86  U86        -0.3307
   1837  C3'       11.1210  -43.0670   15.7400 C.3    86  U86         0.1860
   1838  O3'       10.6190  -43.9880   14.7890 O.3    86  U86        -0.3112
   1839  C2'       12.0840  -42.0450   15.1500 C.3    86  U86         0.2309
   1840  O2'       11.5940  -41.5550   13.9100 O.3    86  U86        -0.2156
   1841  C1'       11.9980  -40.9180   16.1800 C.3    86  U86         0.2420
   1842  N1        13.0610  -41.0130   17.2050 N.ar   86  U86        -0.2534
   1843  C2        14.3250  -40.5730   16.8650 C.ar   86  U86         0.3546
   1844  O2        14.6000  -40.1270   15.7630 O.2    86  U86        -0.2443
   1845  N3        15.2610  -40.6800   17.8620 N.ar   86  U86        -0.1530
   1846  C4        15.0660  -41.1670   19.1410 C.ar   86  U86         0.2846
   1847  O4        16.0130  -41.1960   19.9290 O.2    86  U86        -0.2650
   1848  C5        13.7290  -41.5980   19.4190 C.ar   86  U86         0.0814
   1849  C6        12.7970  -41.5030   18.4640 C.ar   86  U86         0.0870
   1850  OP1        8.3980  -45.0300   19.2980 O.2    86  U86        -0.5172
   1851  OP2       10.5830  -44.6570   20.5630 O.co2  86  U86        -0.4373
   1852  P         11.3390  -45.4070   14.5760 P.3    87  C87         0.2141
   1853  C5'       12.6250  -44.5250   12.4680 C.3    87  C87         0.1812
   1854  O5'       12.6730  -45.0140   13.8000 O.3    87  C87        -0.3114
   1855  C4'       13.9690  -44.0080   12.0220 C.3    87  C87         0.1773
   1856  O4'       14.4000  -42.9330   12.9010 O.3    87  C87        -0.3307
   1857  C3'       15.1180  -45.0040   12.0720 C.3    87  C87         0.1860
   1858  O3'       15.1470  -45.8780   10.9570 O.3    87  C87        -0.3112
   1859  C2'       16.3350  -44.0960   12.1680 C.3    87  C87         0.2309
   1860  O2'       16.6420  -43.5340   10.9000 O.3    87  C87        -0.2156
   1861  C1'       15.8020  -42.9840   13.0700 C.3    87  C87         0.2420
   1862  N1        16.0930  -43.2440   14.4940 N.ar   87  C87        -0.2535
   1863  C2        17.3380  -42.8630   14.9980 C.ar   87  C87         0.3532
   1864  O2        18.1550  -42.3270   14.2340 O.2    87  C87        -0.2443
   1865  N3        17.6170  -43.0920   16.3020 N.ar   87  C87        -0.1739
   1866  C4        16.7090  -43.6750   17.0900 C.ar   87  C87         0.1759
   1867  N4        17.0310  -43.8790   18.3700 N.pl3  87  C87        -0.1070
   1868  C5        15.4320  -44.0730   16.6000 C.ar   87  C87         0.0566
   1869  C6        15.1680  -43.8370   15.3080 C.ar   87  C87         0.0850
   1870  OP1       10.4610  -46.2120   13.6950 O.2    87  C87        -0.5172
   1871  OP2       11.6740  -45.9350   15.9210 O.co2  87  C87        -0.4373
   1872  P         15.7540  -47.3570   11.1080 P.3    88  C88         0.2141
   1873  C5'       18.1250  -46.5540   10.3220 C.3    88  C88         0.1812
   1874  O5'       17.3040  -47.0820   11.3530 O.3    88  C88        -0.3114
   1875  C4'       19.5330  -46.3030   10.8060 C.3    88  C88         0.1773
   1876  O4'       19.5200  -45.3310   11.8830 O.3    88  C88        -0.3307
   1877  C3'       20.2590  -47.4960   11.4050 C.3    88  C88         0.1860
   1878  O3'       20.7930  -48.3700   10.4270 O.3    88  C88        -0.3112
   1879  C2'       21.3190  -46.8330   12.2720 C.3    88  C88         0.2309
   1880  O2'       22.3990  -46.3700   11.4750 O.3    88  C88        -0.2156
   1881  C1'       20.5550  -45.6190   12.8020 C.3    88  C88         0.2420
   1882  N1        19.9530  -45.8790   14.1310 N.ar   88  C88        -0.2535
   1883  C2        20.7730  -45.8120   15.2630 C.ar   88  C88         0.3532
   1884  O2        21.9750  -45.5400   15.1200 O.2    88  C88        -0.2443
   1885  N3        20.2420  -46.0500   16.4840 N.ar   88  C88        -0.1739
   1886  C4        18.9470  -46.3440   16.6070 C.ar   88  C88         0.1759
   1887  N4        18.4720  -46.5690   17.8380 N.pl3  88  C88        -0.1070
   1888  C5        18.0860  -46.4170   15.4730 C.ar   88  C88         0.0566
   1889  C6        18.6260  -46.1800   14.2680 C.ar   88  C88         0.0850
   1890  OP1       15.5640  -48.0420    9.8080 O.2    88  C88        -0.5172
   1891  OP2       15.1510  -47.9550   12.3230 O.co2  88  C88        -0.4373
   1892  P         20.9320  -49.9390   10.7410 P.3    89  A89         0.2141
   1893  C5'       23.4140  -49.6440   11.5330 C.3    89  A89         0.1813
   1894  O5'       22.0730  -49.9810   11.8540 O.3    89  A89        -0.3114
   1895  C4'       24.2870  -49.5900   12.7620 C.3    89  A89         0.1801
   1896  O4'       23.7570  -48.6240   13.7050 O.3    89  A89        -0.3306
   1897  C3'       24.3890  -50.8720   13.5730 C.3    89  A89         0.2161
   1898  O3'       25.2920  -51.8090   13.0140 O.3    89  A89        -0.2175
   1899  C2'       24.8100  -50.3620   14.9460 C.3    89  A89         0.2337
   1900  O2'       26.2030  -50.0880   14.9770 O.3    89  A89        -0.2155
   1901  C1'       24.0560  -49.0330   15.0250 C.3    89  A89         0.2409
   1902  N1        21.9820  -49.1060   19.7110 N.ar   89  A89        -0.2040
   1903  C2        23.2420  -48.9680   19.2790 C.ar   89  A89         0.2016
   1904  N3        23.7050  -48.9590   18.0320 N.ar   89  A89        -0.2048
   1905  C4        22.7000  -49.1170   17.1520 C.ar   89  A89         0.1692
   1906  C5        21.3570  -49.2740   17.4380 C.ar   89  A89         0.1518
   1907  C6        20.9960  -49.2660   18.8000 C.ar   89  A89         0.1919
   1908  N6        19.7430  -49.4040   19.2410 N.pl3  89  A89        -0.1054
   1909  N7        20.6200  -49.4080   16.2670 N.ar   89  A89        -0.2193
   1910  C8        21.5190  -49.3340   15.3150 C.ar   89  A89         0.1816
   1911  N9        22.7980  -49.1560   15.7830 N.ar   89  A89        -0.2693
   1912  OP1       21.4150  -50.5890    9.4970 O.2    89  A89        -0.5172
   1913  OP2       19.6440  -50.3840   11.3240 O.co2  89  A89        -0.4373
@<TRIPOS>BOND
     1  1292  1291    1
     2  1310  1309    1
     3  1286  1291   ar
     4  1286  1287   ar
     5  1291  1290   ar
     6  1332  1331   ar
     7  1332  1333   ar
     8  1287  1288   ar
     9  1309  1308   ar
    10  1309  1311   ar
    11  1331  1336   ar
    12  1308  1314   ar
    13  1333  1334   ar
    14  1290  1293   ar
    15  1290  1289   ar
    16  1288  1289   ar
    17  1311  1312   ar
    18  1293  1294   ar
    19  1289  1295   ar
    20  1314  1315    2
    21  1314  1313   ar
    22  1336  1337    1
    23  1336  1335   ar
    24  1334  1335   ar
    25  1334  1340   ar
    26  1312  1313   ar
    27  1312  1318   ar
    28  1294  1295   ar
    29  1335  1338   ar
    30  1329  1328    1
    31  1295  1285    1
    32  1330  1340    1
    33  1330  1325    1
    34  1330  1328    1
    35  1313  1316   ar
    36  1340  1339   ar
    37  1325  1324    1
    38  1328  1326    1
    39  1318  1307    1
    40  1318  1317   ar
    41  1285  1280    1
    42  1285  1283    1
    43  1307  1305    1
    44  1307  1302    1
    45  1306  1305    1
    46  1338  1339   ar
    47  1316  1317   ar
    48  1280  1279    1
    49  1296  1276    2
    50  1324  1326    1
    51  1324  1322    1
    52  1305  1303    1
    53  1351  1350    1
    54  1302  1301    1
    55  1283  1284    1
    56  1283  1281    1
    57  1326  1327    1
    58  1261  1260    1
    59  1327  1343    1
    60  1259  1276    1
    61  1259  1258    1
    62  1322  1323    1
    63  1367  1369    1
    64  1367  1368    1
    65  1346  1347    1
    66  1346  1348    1
    67  1346  1344    1
    68  1345  1344    1
    69  1345  1343    1
    70  1349  1348    1
    71  1349  1366    1
    72  1276  1278    1
    73  1276  1297    1
    74  1279  1281    1
    75  1279  1277    1
    76  1347  1352    1
    77  1384  1366    2
    78  1301  1303    1
    79  1301  1299    1
    80  1281  1282    1
    81   327   309    2
    82  1350  1352    1
    83  1350  1348    1
    84  1369  1370    1
    85  1369  1371    1
    86  1303  1304    1
    87  1278  1277    1
    88  1352  1363    1
    89  1260  1258    1
    90  1260  1262    1
    91  1323  1321    1
    92  1343  1364    2
    93  1343  1365    1
    94  1370  1375    1
    95  1372  1371    1
    96  1372  1386    1
    97  1258  1256    1
    98  1366  1368    1
    99  1366  1385    1
   100  1304  1321    1
   101  1374  1373    1
   102  1407  1386    2
   103  1265  1264    1
   104  1256  1257    1
   105  1256  1254    1
   106   295   309    1
   107   295   294    1
   108  1371  1373    1
   109  1299  1300    1
   110  1282  1298    1
   111  1262  1257    1
   112  1262  1273    1
   113  1300  1298    1
   114   309   311    1
   115   309   328    1
   116   290   292    1
   117   290   291    1
   118   307   289    2
   119  1266  1264   ar
   120  1266  1267   ar
   121  1321  1342    2
   122  1321  1341    1
   123   310   311    1
   124   310   312    1
   125  1375  1373    1
   126  1375  1376    1
   127  1363  1357   ar
   128  1363  1362   ar
   129   292   294    1
   130   292   293    1
   131  1386  1388    1
   132  1386  1408    1
   133   297   296    1
   134  1356  1357   ar
   135  1356  1354   ar
   136  1254  1255    1
   137  1264  1263   ar
   138   347   329    2
   139  1320  1298    2
   140   294   296    1
   141  1298  1319    1
   142   275   274    1
   143  1357  1358   ar
   144  1388  1387    1
   145  1355  1354    1
   146  1362  1361   ar
   147  1273  1267   ar
   148  1273  1272   ar
   149   273   289    1
   150   273   272    1
   151   291   289    1
   152  1267  1268   ar
   153   312   314    1
   154   312   313    1
   155   289   308    1
   156   293   298    1
   157   315   329    1
   158   315   314    1
   159  1354  1353   ar
   160   296   298    1
   161  1376  1383   ar
   162  1376  1377   ar
   163   329   348    1
   164   329   331    1
   165  1255  1253    1
   166  1383  1382   ar
   167  1263  1269   ar
   168   314   316    1
   169  1274  1253    2
   170   298   299    1
   171  1358  1361   ar
   172  1358  1359   ar
   173   274   272    1
   174   274   276    1
   175   313   318    1
   176  1378  1377    2
   177   272   270    1
   178   270   268    1
   179   270   271    1
   180  1387  1389    1
   181  1272  1271   ar
   182  1241  1240    1
   183  1268  1269   ar
   184  1268  1271   ar
   185  1377  1379   ar
   186  1353  1359   ar
   187  1590  1589    1
   188  1253  1239    1
   189  1253  1275    1
   190  1269  1270    2
   191  1382  1380   ar
   192  1245  1244    2
   193   331   330    1
   194  1389  1390    1
   195  1389  1391    1
   196   268   269    1
   197  1603  1605    1
   198  1603  1604    1
   199  1605  1606    1
   200  1605  1607    1
   201   317   316    1
   202   330   332    1
   203  1610  1609    1
   204  1359  1360    2
   205   276   271    1
   206   276   286    1
   207  1390  1395    1
   208  1240  1238    1
   209  1240  1242    1
   210   316   318    1
   211  1239  1238    1
   212  1606  1611    1
   213   299   306   ar
   214   299   300   ar
   215   318   319    1
   216  1608  1607    1
   217  1608  1624    1
   218  1379  1380   ar
   219  1642  1624    2
   220   306   305   ar
   221  1622  1602    2
   222  1380  1381    1
   223  1588  1587    1
   224  1588  1602    1
   225   326   319   ar
   226   326   325   ar
   227  1607  1609    1
   228  1244  1246   ar
   229  1244  1243   ar
   230  1238  1236    1
   231  1589  1591    1
   232  1589  1587    1
   233   301   300    2
   234  1585  1586    1
   235  1585  1587    1
   236  1585  1583    1
   237  1611  1609    1
   238  1611  1621    1
   239   269   267    1
   240  1395  1393    1
   241  1395  1406    1
   242  1604  1602    1
   243   279   280   ar
   244   279   278   ar
   245  1394  1393    1
   246  1242  1243    1
   247  1242  1237    1
   248  1392  1391    1
   249  1392  1409    1
   250  1391  1393    1
   251  1586  1591    1
   252  1591  1592    1
   253   319   320   ar
   254   300   302   ar
   255  1222  1221    1
   256   252   251    1
   257   287   267    2
   258  1246  1247   ar
   259   286   280   ar
   260   286   285   ar
   261   332   333    1
   262   332   334    1
   263  1624  1626    1
   264  1624  1643    1
   265  1602  1623    1
   266  1625  1626    1
   267  1625  1627    1
   268  1427  1409    2
   269   325   323   ar
   270  1594  1593    2
   271  1243  1250   ar
   272  1583  1584    1
   273  1405  1406   ar
   274  1405  1404   ar
   275   280   281   ar
   276   305   303   ar
   277  1570  1569    1
   278  1428  1409    1
   279   256   255    1
   280   278   277   ar
   281  1236  1237    1
   282  1236  1234    1
   283   333   338    1
   284  1409  1411    1
   285   267   250    1
   286   267   288    1
   287   335   334    1
   288   335   349    1
   289  1406  1400   ar
   290   371   349    2
   291   334   336    1
   292  1627  1628    1
   293  1627  1629    1
   294   250   249    1
   295   285   284   ar
   296  1621  1620   ar
   297  1621  1615   ar
   298   370   349    1
   299  1221  1220   ar
   300  1221  1223   ar
   301   251   249    1
   302   251   253    1
   303  1247  1248    1
   304  1247  1249   ar
   305   302   303   ar
   306   346   345   ar
   307   346   339   ar
   308  1574  1573    2
   309  1628  1633    1
   310  1592  1593   ar
   311  1592  1599   ar
   312   320   321    2
   313   320   322   ar
   314   349   351    1
   315  1220  1226   ar
   316  1593  1595   ar
   317   345   343   ar
   318  1404  1401   ar
   319  1204  1203    1
   320  1250  1249   ar
   321   303   304    2
   322   257   255   ar
   323   257   258   ar
   324  1198  1203   ar
   325  1198  1199   ar
   326   323   322   ar
   327   323   324    2
   328  1620  1619   ar
   329   255   254   ar
   330   281   284   ar
   331   281   282   ar
   332  1614  1615   ar
   333  1614  1613   ar
   334  1584  1582    1
   335  1569  1571    1
   336  1569  1567    1
   337   249   247    1
   338   277   282   ar
   339  1234  1235    1
   340  1615  1616   ar
   341  1400  1401   ar
   342  1400  1399   ar
   343   338   339    1
   344   338   336    1
   345  1223  1224   ar
   346   253   248    1
   347   253   264    1
   348  1411  1410    1
   349  1203  1202   ar
   350  1630  1629    1
   351  1630  1644    1
   352  1571  1566    1
   353  1571  1572    1
   354   339   340   ar
   355  1629  1631    1
   356   336   337    1
   357  1599  1598   ar
   358  1199  1200   ar
   359  1573  1572   ar
   360  1573  1575   ar
   361  1401  1402   ar
   362   247   248    1
   363   247   245    1
   364  1410  1412    1
   365  1633  1631    1
   366  1633  1634    1
   367  1568  1582    1
   368  1568  1567    1
   369  1226  1227    2
   370  1226  1225   ar
   371   282   283    1
   372  1600  1582    2
   373  1595  1596   ar
   374  1632  1631    1
   375  1399  1397   ar
   376   254   260   ar
   377   343   344    1
   378   343   342   ar
   379  1235  1233    1
   380   258   264   ar
   381   258   259   ar
   382  1551  1550   ar
   383  1551  1552   ar
   384  1582  1601    1
   385  1619  1616   ar
   386   351   350    1
   387  1567  1565    1
   388  1613  1612   ar
   389  1662  1644    2
   390  1566  1565    1
   391  1641  1634   ar
   392  1641  1640   ar
   393   264   263   ar
   394  1616  1617   ar
   395  1572  1579   ar
   396  1565  1563    1
   397  1550  1555   ar
   398  1224  1225   ar
   399  1224  1230   ar
   400  1663  1644    1
   401  1425  1426   ar
   402  1425  1423   ar
   403  1575  1576   ar
   404  1644  1646    1
   405  1634  1635   ar
   406  1426  1419   ar
   407  1225  1228   ar
   408  1218  1217    1
   409  1202  1201   ar
   410  1202  1205   ar
   411  1598  1596   ar
   412   340   342   ar
   413   340   341    2
   414  1200  1201   ar
   415  1552  1553   ar
   416  1596  1597    1
   417   245   246    1
   418  1413  1412    1
   419  1413  1418    1
   420   350   352    1
   421  1402  1403    2
   422  1402  1396   ar
   423  1412  1414    1
   424  1640  1638   ar
   425  1397  1396   ar
   426  1397  1398    1
   427  1217  1219    1
   428  1217  1215    1
   429   259   260   ar
   430   259   262   ar
   431   260   261    2
   432  1424  1423    1
   433  1612  1617   ar
   434  1912  1892    2
   435  1201  1207   ar
   436  1423  1422   ar
   437  1617  1618    1
   438  1233  1251    2
   439  1233  1252    1
   440  1233  1216    1
   441  1230  1219    1
   442  1230  1229   ar
   443   263   262   ar
   444  1890  1872    2
   445  1555  1556    1
   446  1555  1554   ar
   447  1205  1206   ar
   448  1563  1564    1
   449  1579  1578   ar
   450  1219  1214    1
   451  1635  1636    2
   452  1635  1637   ar
   453  1419  1418    1
   454  1419  1420   ar
   455   367   368   ar
   456   367   364   ar
   457   368   369   ar
   458  1576  1577    2
   459  1576  1578   ar
   460  1646  1645    1
   461   246   244    1
   462  1228  1229   ar
   463  1418  1416    1
   464  1553  1554   ar
   465  1553  1559   ar
   466  1645  1647    1
   467  1873  1875    1
   468  1873  1874    1
   469  1528  1529   ar
   470  1528  1533   ar
   471  1414  1415    1
   472  1414  1416    1
   473   236   235    2
   474  1878  1892    1
   475  1878  1877    1
   476  1548  1547    1
   477  1638  1637   ar
   478  1638  1639    2
   479   353   352    1
   480   353   358    1
   481  1216  1215    1
   482   352   354    1
   483  1215  1213    1
   484  1422  1420   ar
   485   232   231    1
   486  1554  1557   ar
   487  1892  1913    1
   488  1892  1894    1
   489  1451  1429    2
   490  1207  1206   ar
   491  1207  1197    1
   492  1534  1533    1
   493  1875  1877    1
   494  1875  1876    1
   495  1529  1530   ar
   496  1420  1421    2
   497  1860  1859    1
   498  1564  1562    1
   499  1858  1872    1
   500  1858  1857    1
   501  1415  1429    1
   502  1547  1549    1
   503  1547  1545    1
   504  1490  1489    2
   505  1872  1874    1
   506  1872  1891    1
   507  1533  1532   ar
   508   369   358    1
   509   369   363   ar
   510  1416  1417    1
   511   265   244    2
   512  1214  1213    1
   513  1512  1511    2
   514   387   386    1
   515   364   365   ar
   516   364   363   ar
   517   409   408    2
   518  1559  1549    1
   519  1559  1558   ar
   520  1549  1544    1
   521   391   372    2
   522   231   233    1
   523   231   229    1
   524   235   237   ar
   525   235   234   ar
   526   366   365    2
   527  1877  1879    1
   528   244   230    1
   529   244   266    1
   530  1880  1879    1
   531   354   355    1
   532   354   356    1
   533  1893  1894    1
   534  1893  1895    1
   535  1446  1445    2
   536   430   429    2
   537   237   238   ar
   538   358   356    1
   539  1647  1648    1
   540  1647  1649    1
   541  1648  1653    1
   542  1213  1211    1
   543  1429  1450    1
   544  1429  1431    1
   545  1197  1192    1
   546  1197  1195    1
   547  1660  1661   ar
   548  1660  1658   ar
   549  1447  1448   ar
   550  1447  1444   ar
   551  1661  1654   ar
   552  1876  1881    1
   553   365   359   ar
   554  1855  1857    1
   555  1855  1853    1
   556  1855  1856    1
   557  1530  1531   ar
   558  1857  1859    1
   559   355   372    1
   560   230   229    1
   561  1557  1558   ar
   562  1192  1191    1
   563   363   362   ar
   564  1505  1511   ar
   565  1505  1506   ar
   566  1859  1861    1
   567   233   234    1
   568   233   228    1
   569   428   429   ar
   570   428   426   ar
   571  1879  1881    1
   572  1489  1488   ar
   573  1489  1491   ar
   574   388   386   ar
   575   388   389   ar
   576  1511  1510   ar
   577   234   241   ar
   578   386   385   ar
   579  1562  1546    1
   580  1562  1580    2
   581  1562  1581    1
   582  1545  1546    1
   583  1545  1543    1
   584  1853  1854    1
   585   229   227    1
   586   429   431   ar
   587   408   402   ar
   588   408   407   ar
   589   372   390    1
   590   372   374    1
   591   356   357    1
   592    55    54    1
   593  1532  1531   ar
   594  1532  1535   ar
   595  1448  1449   ar
   596  1445  1444   ar
   597  1445  1439   ar
   598  1544  1543    1
   599   238   239    2
   600   238   240   ar
   601   112    92    2
   602  1895  1897    1
   603  1895  1896    1
   604   427   426    2
   605  1444  1443   ar
   606  1881  1882    1
   607   402   403   ar
   608  1649  1650    1
   609  1649  1651    1
   610  1507  1506    1
   611  1531  1537   ar
   612  1856  1861    1
   613  1654  1653    1
   614  1654  1655   ar
   615  1658  1659    2
   616  1658  1657   ar
   617  1488  1486   ar
   618  1653  1651    1
   619  1196  1195    1
   620  1431  1430    1
   621  1686  1664    2
   622    77    76    1
   623    75    92    1
   624    75    74    1
   625  1898  1897    1
   626   135   114    2
   627  1211  1212    1
   628    93    95    1
   629    93    94    1
   630    70    72    1
   631    70    71    1
   632  1195  1193    1
   633  1861  1862    1
   634    72    73    1
   635    72    74    1
   636   426   425   ar
   637  1491  1492   ar
   638   212   213   ar
   639   212   217   ar
   640  1506  1508   ar
   641  1543  1541    1
   642  1650  1664    1
   643   359   360   ar
   644   389   382   ar
   645   228   227    1
   646   241   240   ar
   647   362   360   ar
   648  1191  1193    1
   649  1191  1189    1
   650   213   214   ar
   651   227   225    1
   652   385   383   ar
   653  1897  1899    1
   654    90    69    2
   655    95    96    1
   656    95    97    1
   657  1510  1513   ar
   658  1510  1509   ar
   659   407   410   ar
   660   407   406   ar
   661  1870  1852    2
   662  1896  1901    1
   663    92    94    1
   664    92   113    1
   665   374   373    1
   666  1535  1536   ar
   667   218   217    1
   668  1194  1193    1
   669  1194  1210    1
   670    73    78    1
   671  1854  1852    1
   672    74    76    1
   673   410   411   ar
   674  1439  1440   ar
   675    53    52    1
   676    53    69    1
   677    98   114    1
   678    98    97    1
   679   431   432   ar
   680  1651  1652    1
   681  1664  1685    1
   682  1664  1666    1
   683  1840  1839    1
   684  1657  1655   ar
   685  1449  1443   ar
   686  1449  1438    1
   687    54    52    1
   688    54    56    1
   689  1655  1656    2
   690  1190  1189    1
   691  1190  1188    1
   692   360   361    1
   693  1212  1210    1
   694  1430  1432    1
   695   403   404    1
   696   403   405   ar
   697   217   216   ar
   698  1443  1442   ar
   699   114   136    1
   700   114   116    1
   701  1882  1889   ar
   702  1882  1883   ar
   703    76    78    1
   704    50    52    1
   705    50    51    1
   706    50    48    1
   707  1864  1863    2
   708  1537  1536   ar
   709  1537  1527    1
   710  1513  1514   ar
   711  1889  1888   ar
   712  1486  1487    2
   713  1486  1485   ar
   714    71    69    1
   715   425   432   ar
   716   425   424    1
   717    36    35    1
   718  1232  1210    2
   719    78    89    1
   720  1492  1485   ar
   721    69    91    1
   722  1508  1509   ar
   723    96   101    1
   724  1862  1863   ar
   725  1862  1869   ar
   726    56    51    1
   727    56    66    1
   728    97    99    1
   729  1852  1838    1
   730  1852  1871    1
   731  1208  1188    2
   732   382   383   ar
   733   382   381    1
   734  1509  1515   ar
   735   214   215   ar
   736  1210  1231    1
   737   383   384    2
   738  1541  1542    1
   739  1494  1475    2
   740  1838  1837    1
   741  1433  1438    1
   742  1433  1432    1
   743   406   405   ar
   744   406   412   ar
   745   373   375    1
   746  1542  1540    1
   747  1899  1900    1
   748  1899  1901    1
   749   100    99    1
   750    48    49    1
   751   225   226    1
   752  1863  1865   ar
   753  1901  1911    1
   754  1682  1683   ar
   755  1682  1679   ar
   756  1527  1525    1
   757  1527  1522    1
   758  1440  1442   ar
   759  1440  1441    1
   760  1438  1436    1
   761  1525  1526    1
   762  1525  1523    1
   763  1485  1484    1
   764   411   412   ar
   765  1884  1883    2
   766  1681  1680    2
   767  1436  1437    1
   768  1436  1434    1
   769  1188  1209    1
   770  1188  1172    1
   771  1839  1837    1
   772  1839  1841    1
   773    32    31    1
   774  1432  1434    1
   775  1883  1885   ar
   776   226   224    1
   777  1666  1665    1
   778   216   215   ar
   779   216   219   ar
   780    59    58   ar
   781    59    60   ar
   782  1869  1868   ar
   783  1910  1911   ar
   784  1910  1909   ar
   785   414   392    2
   786   424   422    1
   787   424   419    1
   788   422   423    1
   789   422   420    1
   790  1888  1886   ar
   791   116   115    1
   792   376   381    1
   793   376   375    1
   794   215   221   ar
   795    99   101    1
   796  1514  1515   ar
   797  1460  1459    1
   798  1683  1684   ar
   799   115   117    1
   800   101   111    1
   801    35    37   ar
   802    35    34   ar
   803  1837  1835    1
   804  1844  1843    2
   805  1911  1905   ar
   806   453   435    2
   807   412   401    1
   808  1515  1504    1
   809  1434  1435    1
   810   381   379    1
   811    66    60   ar
   812    66    65   ar
   813    37    38   ar
   814    89    88   ar
   815    89    83   ar
   816   375   377    1
   817    58    57   ar
   818  1679  1680   ar
   819  1679  1678   ar
   820  1680  1674   ar
   821  1172  1171    1
   822   377   379    1
   823   377   378    1
   824    60    61   ar
   825  1475  1458    1
   826  1475  1477    1
   827  1475  1493    1
   828  1841  1836    1
   829  1841  1842    1
   830  1458  1457    1
   831  1909  1906   ar
   832   196   195    2
   833   454   435    1
   834  1865  1866   ar
   835   471   470    1
   836  1835  1836    1
   837  1835  1833    1
   838  1665  1667    1
   839  1561  1540    2
   840  1523  1524    1
   841  1523  1521    1
   842    49    47    1
   843  1522  1521    1
   844   219   220   ar
   845    31    33    1
   846    31    29    1
   847  1540  1524    1
   848  1540  1560    1
   849  1885  1886   ar
   850  1477  1476    1
   851  1484  1479    1
   852  1484  1482    1
   853    82    83   ar
   854    82    80   ar
   855   420   421    1
   856   420   418    1
   857    88    87   ar
   858  1868  1866   ar
   859  1886  1887    1
   860   419   418    1
   861   379   380    1
   862   224   243    2
   863   224   242    1
   864   224   208    1
   865    34    40   ar
   866   221   220   ar
   867   221   211    1
   868   435   421    1
   869   435   437    1
   870    13    12    1
   871   392   378    1
   872   392   394    1
   873   392   413    1
   874   209   210    1
   875   209   211    1
   876   209   207    1
   877    83    84   ar
   878   465   470   ar
   879   465   466   ar
   880   111   110   ar
   881   111   105   ar
   882  1684  1678   ar
   883  1684  1673    1
   884  1843  1842   ar
   885  1843  1845   ar
   886  1517  1495    2
   887    33    44    1
   888    33    28    1
   889  1459  1457    1
   890  1459  1461    1
   891    67    47    2
   892   110   109   ar
   893  1668  1667    1
   894  1668  1673    1
   895   117   118    1
   896   117   119    1
   897    65    64   ar
   898  1866  1867    1
   899  1479  1478    1
   900  1678  1677   ar
   901   450   449    2
   902  1482  1480    1
   903  1482  1483    1
   904   189   195   ar
   905   189   190   ar
   906  1905  1906   ar
   907  1905  1904   ar
   908    38    44   ar
   909    38    39   ar
   910    30    47    1
   911    30    29    1
   912  1504  1502    1
   913  1504  1499    1
   914   470   469   ar
   915   195   194   ar
   916  1842  1849   ar
   917  1674  1675   ar
   918   394   393    1
   919  1435  1452    1
   920  1457  1455    1
   921    57    62   ar
   922  1521  1519    1
   923   401   396    1
   924   401   399    1
   925  1455  1456    1
   926  1455  1453    1
   927    47    68    1
   928   451   449   ar
   929   451   452   ar
   930   211   206    1
   931  1906  1907   ar
   932  1174  1173    1
   933  1833  1834    1
   934  1667  1669    1
   935    29    27    1
   936    61    64   ar
   937    61    62   ar
   938   418   416    1
   939  1171  1169    1
   940  1171  1173    1
   941  1480  1478    1
   942  1480  1481    1
   943   118   123    1
   944    81    80    1
   945  1461  1456    1
   946  1461  1472    1
   947  1502  1500    1
   948  1502  1503    1
   949   155   137    2
   950    80    79   ar
   951    44    43   ar
   952   466   467   ar
   953   207   208    1
   954   207   205    1
   955   156   137    1
   956   434   415    2
   957    28    27    1
   958  1673  1671    1
   959  1476  1478    1
   960   396   395    1
   961   399   397    1
   962   399   400    1
   963   449   448   ar
   964  1845  1846   ar
   965   191   190    1
   966    87    84   ar
   967  1474  1452    2
   968   417   416    1
   969   417   415    1
   970  1520  1519    1
   971  1520  1518    1
   972    27    25    1
   973   119   120    1
   974   119   121    1
   975   120   137    1
   976    84    85   ar
   977  1904  1903   ar
   978   105   104   ar
   979   105   106   ar
   980    40    39   ar
   981    40    41    2
   982    12    11   ar
   983    12    14   ar
   984  1539  1518    2
   985  1454  1453    1
   986  1454  1452    1
   987  1499  1498    1
   988   190   192   ar
   989    62    63    1
   990   437   436    1
   991   133   132   ar
   992   133   134   ar
   993  1669  1671    1
   994  1669  1670    1
   995   109   106   ar
   996  1169  1170    1
   997  1169  1167    1
   998   397   395    1
   999   397   398    1
  1000  1497  1495    1
  1001  1497  1496    1
  1002  1173  1175    1
  1003   137   139    1
  1004  1495  1481    1
  1005  1495  1516    1
  1006    39    42   ar
  1007  1675  1677   ar
  1008  1675  1676    1
  1009  1178  1177   ar
  1010  1178  1179   ar
  1011   452   445   ar
  1012  1452  1473    1
  1013  1175  1170    1
  1014  1175  1185    1
  1015    11    17   ar
  1016  1500  1498    1
  1017  1500  1501    1
  1018   194   197   ar
  1019   194   193   ar
  1020   104   103   ar
  1021   469   472   ar
  1022   469   468   ar
  1023  1834  1832    1
  1024  1849  1848   ar
  1025   132   129   ar
  1026   393   395    1
  1027  1177  1176   ar
  1028  1465  1466   ar
  1029  1465  1463   ar
  1030   511   510    1
  1031   415   398    1
  1032   415   433    1
  1033  1705  1687    2
  1034  1464  1463    1
  1035   206   205    1
  1036  1671  1672    1
  1037  1907  1908    1
  1038  1907  1902   ar
  1039   487   488   ar
  1040   487   492   ar
  1041   197   198   ar
  1042  1472  1466   ar
  1043  1472  1471   ar
  1044   106   107   ar
  1045  1518  1501    1
  1046  1518  1538    1
  1047  1706  1687    1
  1048   467   468   ar
  1049    79    85   ar
  1050   123   134    1
  1051   123   121    1
  1052    14    15   ar
  1053   493   492    1
  1054   770   769    1
  1055  1498  1496    1
  1056   134   128   ar
  1057  1670  1687    1
  1058    43    42   ar
  1059   205   203    1
  1060   472   473   ar
  1061  1846  1848   ar
  1062  1846  1847    2
  1063   436   438    1
  1064   223   202    2
  1065    85    86    2
  1066   192   193   ar
  1067   468   474   ar
  1068   448   446   ar
  1069  1466  1467   ar
  1070  1463  1462   ar
  1071  1903  1902   ar
  1072   193   199   ar
  1073  1179  1185   ar
  1074  1179  1180   ar
  1075   488   489   ar
  1076  1850  1832    2
  1077  1167  1168    1
  1078    25    26    1
  1079   204   203    1
  1080   204   202    1
  1081   121   122    1
  1082  1687  1689    1
  1083  1185  1184   ar
  1084   492   491   ar
  1085    17    18    2
  1086    17    16   ar
  1087   445   446   ar
  1088   445   444    1
  1089  1176  1181   ar
  1090   103   102   ar
  1091  1832  1818    1
  1092  1832  1851    1
  1093  1471  1470   ar
  1094   129   128   ar
  1095   129   130   ar
  1096   139   138    1
  1097   510   512   ar
  1098   510   509   ar
  1099  1820  1819    1
  1100   198   199   ar
  1101  1824  1823    2
  1102   178   157    2
  1103   202   222    1
  1104   202   185    1
  1105   128   127   ar
  1106   446   447    2
  1107   107   102   ar
  1108   107   108    1
  1109   769   768   ar
  1110   769   771   ar
  1111    15    16   ar
  1112    15    21   ar
  1113   512   513   ar
  1114  1168  1166    1
  1115   473   474   ar
  1116    26    24    1
  1117   199   188    1
  1118   439   438    1
  1119   439   444    1
  1120   474   464    1
  1121   530   529    1
  1122   489   490   ar
  1123   442   444    1
  1124   442   440    1
  1125   442   443    1
  1126  1467  1470   ar
  1127  1467  1468   ar
  1128  1462  1468   ar
  1129     9     8    1
  1130   438   440    1
  1131  1180  1181   ar
  1132  1180  1183   ar
  1133  1819  1817    1
  1134  1819  1821    1
  1135   768   774   ar
  1136  1818  1817    1
  1137   138   140    1
  1138  1184  1183   ar
  1139   509   515   ar
  1140   131   130    2
  1141    16    19   ar
  1142  1181  1182    1
  1143   491   490   ar
  1144   491   494   ar
  1145   130   124   ar
  1146  1823  1825   ar
  1147  1823  1822   ar
  1148  1689  1688    1
  1149   177   157    1
  1150   771   772   ar
  1151   440   441    1
  1152     8    10    1
  1153     8     6    1
  1154   507   506    1
  1155   490   496   ar
  1156  1825  1826   ar
  1157  1468  1469    2
  1158   157   143    1
  1159   157   159    1
  1160   184   186    1
  1161   184   185    1
  1162   184   182    1
  1163   186   188    1
  1164   186   187    1
  1165   127   125   ar
  1166  1817  1815    1
  1167   153   154   ar
  1168   153   151   ar
  1169   459   464    1
  1170   459   458    1
  1171   526   531    1
  1172   526   525    1
  1173    21    10    1
  1174    21    20   ar
  1175   531   529    1
  1176   531   532    1
  1177   173   172    1
  1178    10     5    1
  1179   513   519   ar
  1180   513   514   ar
  1181   188   183    1
  1182   464   462    1
  1183   534   533    2
  1184   525   523    1
  1185   525   527    1
  1186   494   495   ar
  1187   802   781    2
  1188  1821  1822    1
  1189  1821  1816    1
  1190   529   527    1
  1191   774   775    2
  1192   774   773   ar
  1193  1186  1166    2
  1194   154   147   ar
  1195   201   179    2
  1196  1166  1149    1
  1197  1166  1187    1
  1198   143   142    1
  1199  1688  1690    1
  1200   508   506    1
  1201   508   519    1
  1202   508   503    1
  1203  1822  1829   ar
  1204    24    45    2
  1205    24     7    1
  1206    24    46    1
  1207   515   514   ar
  1208   515   516    2
  1209   124   125   ar
  1210   152   151    2
  1211  1151  1150    1
  1212   140   142    1
  1213   140   141    1
  1214   174   175   ar
  1215   174   171   ar
  1216   506   504    1
  1217   142   144    1
  1218    19    20   ar
  1219   125   126    1
  1220   772   773   ar
  1221   772   778   ar
  1222  1826  1827    1
  1223  1826  1828   ar
  1224   151   150   ar
  1225  1149  1148    1
  1226   519   518   ar
  1227   180   182    1
  1228   180   181    1
  1229     7     6    1
  1230   766   765    1
  1231   496   495   ar
  1232   496   486    1
  1233   528   527    1
  1234   528   542    1
  1235     6     4    1
  1236   183   182    1
  1237   523   524    1
  1238   514   517   ar
  1239   159   158    1
  1240   441   455    1
  1241   533   532   ar
  1242   533   535   ar
  1243   532   539   ar
  1244   773   776   ar
  1245   457   456    1
  1246   457   455    1
  1247   503   502    1
  1248   172   171   ar
  1249   172   167   ar
  1250  1815  1816    1
  1251  1815  1813    1
  1252   456   458    1
  1253   458   460    1
  1254   141   146    1
  1255   175   176   ar
  1256   171   170   ar
  1257   764   781    1
  1258   764   763    1
  1259  1829  1828   ar
  1260     5     4    1
  1261   462   463    1
  1262   462   460    1
  1263  1801  1800    1
  1264   476   455    2
  1265   543   545    1
  1266   543   544    1
  1267   781   783    1
  1268   781   803    1
  1269   147   146    1
  1270   147   148   ar
  1271   486   484    1
  1272   486   481    1
  1273  1150  1148    1
  1274  1150  1152    1
  1275   179   181    1
  1276   179   200    1
  1277   179   163    1
  1278   546   545    1
  1279   546   551    1
  1280   767   778    1
  1281   767   765    1
  1282   767   762    1
  1283   778   777   ar
  1284   563   542    2
  1285  1690  1692    1
  1286  1690  1691    1
  1287   455   475    1
  1288   545   547    1
  1289     4     2    1
  1290   502   504    1
  1291   502   500    1
  1292  1148  1146    1
  1293  1799  1800   ar
  1294  1799  1805   ar
  1295   765   763    1
  1296   504   505    1
  1297   518   517   ar
  1298   150   148   ar
  1299   144   146    1
  1300   144   145    1
  1301   535   536   ar
  1302   539   538   ar
  1303  1727  1707    2
  1304   524   522    1
  1305   167   168   ar
  1306   783   782    1
  1307   542   544    1
  1308   542   564    1
  1309   158   160    1
  1310   505   522    1
  1311   460   461    1
  1312  1806  1805    2
  1313  1800  1802   ar
  1314   484   485    1
  1315   484   482    1
  1316   782   784    1
  1317  1813  1814    1
  1318   776   777   ar
  1319  1692  1693    1
  1320  1692  1694    1
  1321   148   149    2
  1322   763   761    1
  1323  1814  1812    1
  1324   176   170   ar
  1325   176   166    1
  1326   785   784    1
  1327   785   790    1
  1328   170   169   ar
  1329   800   799   ar
  1330   800   801   ar
  1331   481   480    1
  1332  1805  1804   ar
  1333  1691  1696    1
  1334  1146  1147    1
  1335  1146  1144    1
  1336   551   549    1
  1337   551   562    1
  1338   162   163    1
  1339   162   160    1
  1340   162   164    1
  1341   762   761    1
  1342  1728  1707    1
  1343   461   477    1
  1344   799   796   ar
  1345   550   549    1
  1346  1152  1147    1
  1347  1152  1163    1
  1348   536   538   ar
  1349   536   537    1
  1350   522   540    2
  1351   522   541    1
  1352  1707  1693    1
  1353  1707  1709    1
  1354   761   759    1
  1355   993   975    2
  1356   784   786    1
  1357   160   161    1
  1358  1155  1154    1
  1359   168   169   ar
  1360   500   501    1
  1361  1802  1803   ar
  1362  1694  1696    1
  1363  1694  1695    1
  1364     2     3    1
  1365   547   549    1
  1366   547   548    1
  1367  1156  1154   ar
  1368  1156  1157   ar
  1369   161   166    1
  1370     3     1    1
  1371   801   790    1
  1372   801   795   ar
  1373   164   166    1
  1374   164   165    1
  1375   562   561   ar
  1376   562   556   ar
  1377  1144  1145    1
  1378   790   788    1
  1379   548   565    1
  1380   482   480    1
  1381   482   483    1
  1382  1831  1812    2
  1383  1812  1830    1
  1384  1812  1795    1
  1385   561   560   ar
  1386  1804  1803   ar
  1387  1804  1807   ar
  1388  1696  1697    1
  1389   961   975    1
  1390   961   960    1
  1391  1704  1697   ar
  1392  1704  1703   ar
  1393  1154  1153   ar
  1394   796   795   ar
  1395   796   797   ar
  1396   480   478    1
  1397  1163  1157   ar
  1398  1163  1162   ar
  1399  1803  1809   ar
  1400   501   499    1
  1401   956   958    1
  1402   956   957    1
  1403   973   955    2
  1404   963   962    1
  1405   958   960    1
  1406   958   959    1
  1407  1157  1158   ar
  1408   976   977    1
  1409   976   978    1
  1410   798   797    2
  1411   975   977    1
  1412   975   994    1
  1413   477   498    2
  1414   477   479    1
  1415   477   497    1
  1416   556   555   ar
  1417   556   557   ar
  1418  1697  1698   ar
  1419   795   794   ar
  1420  1703  1701   ar
  1421  1145  1143    1
  1422   940   939    1
  1423   555   553   ar
  1424   479   478    1
  1425  1709  1708    1
  1426   560   557   ar
  1427   797   791   ar
  1428   786   788    1
  1429   786   787    1
  1430   759   760    1
  1431  1807  1808   ar
  1432   483   499    1
  1433   960   962    1
  1434  1796  1797    1
  1435  1796  1794    1
  1436  1796  1798    1
  1437  1015   995    2
  1438  1162  1161   ar
  1439  1153  1159   ar
  1440   788   789    1
  1441     1    23    1
  1442     1    22    1
  1443  1708  1710    1
  1444   557   558   ar
  1445  1795  1794    1
  1446  1809  1808   ar
  1447  1809  1798    1
  1448   959   964    1
  1449  1164  1143    2
  1450   978   980    1
  1451   978   979    1
  1452   760   758    1
  1453   746   745    1
  1454   583   565    2
  1455   565   584    1
  1456   565   567    1
  1457   938   955    1
  1458   938   937    1
  1459  1158  1159   ar
  1460  1158  1161   ar
  1461   962   964    1
  1462   957   955    1
  1463   499   521    2
  1464   499   520    1
  1465   955   974    1
  1466  1794  1792    1
  1467   981   995    1
  1468   981   980    1
  1469   553   554    1
  1470   553   552   ar
  1471   794   792   ar
  1472   787   804    1
  1473  1698  1699    2
  1474  1698  1700   ar
  1475  1701  1700   ar
  1476  1701  1702    1
  1477  1131  1130    1
  1478  1143  1129    1
  1479  1143  1165    1
  1480  1159  1160    2
  1481   791   792   ar
  1482  1798  1793    1
  1483   964   965    1
  1484   566   567    1
  1485   566   568    1
  1486   939   937    1
  1487   939   941    1
  1488   995  1016    1
  1489   995   997    1
  1490   744   758    1
  1491   744   743    1
  1492  1135  1134    2
  1493   558   552   ar
  1494   558   559    2
  1495  1784  1783    1
  1496   980   982    1
  1497   792   793    1
  1498   979   984    1
  1499   779   758    2
  1500   937   935    1
  1501  1748  1729    2
  1502  1130  1128    1
  1503  1130  1132    1
  1504   758   780    1
  1505   826   804    2
  1506  1129  1128    1
  1507  1710  1711    1
  1508  1710  1712    1
  1509   745   743    1
  1510   745   747    1
  1511   944   943    1
  1512   935   936    1
  1513   935   933    1
  1514  1134  1136   ar
  1515  1134  1133   ar
  1516  1725  1724   ar
  1517  1725  1726   ar
  1518   983   982    1
  1519   941   936    1
  1520   941   952    1
  1521   569   568    1
  1522   569   574    1
  1523   804   825    1
  1524   804   806    1
  1525  1792  1793    1
  1526  1792  1790    1
  1527  1724  1721   ar
  1528  1136  1137   ar
  1529  1711  1716    1
  1530   568   570    1
  1531  1783  1782   ar
  1532  1783  1785   ar
  1533   743   741    1
  1534   945   943   ar
  1535   945   946   ar
  1536  1791  1790    1
  1537  1791  1789    1
  1538  1128  1126    1
  1539   996   997    1
  1540   996   998    1
  1541  1811  1789    2
  1542   982   984    1
  1543  1747  1729    1
  1544  1782  1780   ar
  1545   965   972   ar
  1546   965   966   ar
  1547   741   742    1
  1548   741   739    1
  1549  1712  1713    1
  1550  1712  1714    1
  1551  1729  1713    1
  1552  1729  1731    1
  1553   984   985    1
  1554  1132  1133    1
  1555  1132  1127    1
  1556   822   823   ar
  1557   822   819   ar
  1558  1764  1763    1
  1559   943   942   ar
  1560   747   742    1
  1561   747   748    1
  1562   750   749    2
  1563   933   934    1
  1564  1133  1140   ar
  1565   582   581   ar
  1566   582   575   ar
  1567   821   820    2
  1568  1785  1786   ar
  1569   967   966    2
  1570   972   971   ar
  1571   581   579   ar
  1572   806   805    1
  1573   724   723    1
  1574  1137  1138    1
  1575  1137  1139   ar
  1576  1789  1810    1
  1577  1789  1775    1
  1578   823   824   ar
  1579  1726  1716    1
  1580  1726  1720   ar
  1581   952   946   ar
  1582   952   951   ar
  1583   992   985   ar
  1584   992   991   ar
  1585   574   575    1
  1586   574   572    1
  1587   966   968   ar
  1588   946   947   ar
  1589  1716  1714    1
  1590  1780  1781    2
  1591  1780  1779   ar
  1592   739   740    1
  1593  1721  1720   ar
  1594  1721  1722   ar
  1595   575   576   ar
  1596  1126  1127    1
  1597  1126  1124    1
  1598   819   820   ar
  1599   819   818   ar
  1600   570   571    1
  1601   570   572    1
  1602   740   738    1
  1603   985   986   ar
  1604   820   814   ar
  1605  1723  1722    1
  1606  1140  1139   ar
  1607   805   807    1
  1608   998   999    1
  1609   998  1000    1
  1610  1763  1765   ar
  1611  1763  1762   ar
  1612   727   728   ar
  1613   727   726   ar
  1614  1035  1017    2
  1615   749   748   ar
  1616   749   751   ar
  1617  1765  1766   ar
  1618  1111  1112   ar
  1619  1111  1116   ar
  1620   728   729   ar
  1621  1036  1017    1
  1622  1714  1715    1
  1623   881   880    1
  1624  1786  1779   ar
  1625  1768  1749    2
  1626  1744  1743    2
  1627   748   755   ar
  1628   934   932    1
  1629  1731  1730    1
  1630   579   580    2
  1631   579   578   ar
  1632  1117  1116    1
  1633   942   948   ar
  1634   571   585    1
  1635  1779  1778    1
  1636  1720  1719   ar
  1637   907   906    2
  1638  1788  1769    2
  1639  1745  1743   ar
  1640  1745  1746   ar
  1641   808   807    1
  1642   808   813    1
  1643  1722  1717   ar
  1644   723   725    1
  1645   723   721    1
  1646   991   989   ar
  1647   824   818   ar
  1648   824   813    1
  1649   971   969   ar
  1650  1001  1017    1
  1651  1001  1000    1
  1652   879   880   ar
  1653   879   885   ar
  1654  1112  1113   ar
  1655   756   738    2
  1656   572   573    1
  1657  1017  1019    1
  1658   886   885    2
  1659  1116  1115   ar
  1660   999  1004    1
  1661  1775  1774    1
  1662   953   932    2
  1663   576   578   ar
  1664   576   577    2
  1665   951   950   ar
  1666   818   817   ar
  1667  1000  1002    1
  1668  1776  1774    1
  1669  1776  1778    1
  1670  1776  1777    1
  1671  1743  1742   ar
  1672  1774  1772    1
  1673   905   906   ar
  1674   905   903   ar
  1675   968   969   ar
  1676  1762  1760   ar
  1677   947   948   ar
  1678   947   950   ar
  1679   843   842    1
  1680   726   731   ar
  1681   814   815   ar
  1682   725   735    1
  1683   725   720    1
  1684   880   882   ar
  1685   738   722    1
  1686   738   757    1
  1687  1124  1125    1
  1688   807   809    1
  1689   607   585    2
  1690  1766  1759   ar
  1691   751   752   ar
  1692   986   987    2
  1693   986   988   ar
  1694   722   721    1
  1695   813   811    1
  1696   906   908   ar
  1697   885   884   ar
  1698  1746  1739   ar
  1699   904   903    2
  1700  1125  1123    1
  1701   932   918    1
  1702   932   954    1
  1703   729   735   ar
  1704   729   730   ar
  1705   948   949    2
  1706   755   754   ar
  1707  1730  1732    1
  1708   585   606    1
  1709   585   587    1
  1710  1778  1773    1
  1711   969   970    2
  1712  1749  1767    1
  1713  1749  1751    1
  1714  1749  1735    1
  1715  1771  1769    1
  1716  1771  1770    1
  1717  1013  1012   ar
  1718  1013  1014   ar
  1719  1113  1114   ar
  1720   721   719    1
  1721   920   919    1
  1722   864   863    2
  1723  1769  1787    1
  1724  1769  1755    1
  1725   903   902   ar
  1726  1719  1718   ar
  1727   918   917    1
  1728   735   734   ar
  1729  1717  1718   ar
  1730   720   719    1
  1731   989   988   ar
  1732   989   990    1
  1733  1115  1114   ar
  1734  1115  1118   ar
  1735   817   815   ar
  1736   815   816    1
  1737  1751  1750    1
  1738   719   717    1
  1739   809   811    1
  1740   809   810    1
  1741  1760  1759   ar
  1742  1760  1761    2
  1743  1759  1758    1
  1744  1742  1740   ar
  1745  1004  1002    1
  1746  1004  1014    1
  1747  1012  1009   ar
  1748   842   841   ar
  1749   842   837   ar
  1750  1019  1018    1
  1751  1114  1120   ar
  1752  1772  1773    1
  1753  1772  1770    1
  1754   731   730   ar
  1755   731   732    1
  1756  1002  1003    1
  1757   705   704   ar
  1758   705   706   ar
  1759   844   841   ar
  1760   844   845   ar
  1761   882   883   ar
  1762   924   923    2
  1763  1734  1735    1
  1764  1734  1732    1
  1765  1734  1736    1
  1766   752   754   ar
  1767   752   753    2
  1768   730   733   ar
  1769  1014  1008   ar
  1770   811   812    1
  1771  1739  1740   ar
  1772  1739  1738    1
  1773   848   827    2
  1774  1732  1733    1
  1775   908   909   ar
  1776   884   883   ar
  1777   884   887   ar
  1778  1754  1755    1
  1779  1754  1756    1
  1780  1754  1752    1
  1781   704   709   ar
  1782  1118  1119   ar
  1783   841   840   ar
  1784   587   586    1
  1785   863   862   ar
  1786   863   865   ar
  1787  1095  1094    1
  1788  1123  1142    2
  1789  1123  1141    1
  1790  1123  1107    1
  1791   919   917    1
  1792   919   921    1
  1793   706   707   ar
  1794   837   838   ar
  1795  1733  1738    1
  1796   917   915    1
  1797  1740  1741    2
  1798  1018  1020    1
  1799   810   827    1
  1800   902   909   ar
  1801   902   901    1
  1802   883   889   ar
  1803  1756  1758    1
  1804  1756  1757    1
  1805   734   733   ar
  1806  1750  1752    1
  1807   921   922    1
  1808   921   916    1
  1809   862   860   ar
  1810   923   925   ar
  1811   923   922   ar
  1812   845   846   ar
  1813  1758  1753    1
  1814   586   588    1
  1815  1120  1119   ar
  1816  1120  1110    1
  1817   717   718    1
  1818  1108  1109    1
  1819  1108  1106    1
  1820  1108  1110    1
  1821   603   604   ar
  1822   603   600   ar
  1823  1089  1094   ar
  1824  1089  1090   ar
  1825  1738  1736    1
  1826  1736  1737    1
  1827  1033  1034   ar
  1828  1033  1031   ar
  1829  1009  1008   ar
  1830  1009  1010   ar
  1831  1753  1752    1
  1832   604   605   ar
  1833   827   829    1
  1834   827   847    1
  1835  1094  1093   ar
  1836  1107  1106    1
  1837  1008  1007   ar
  1838   925   926   ar
  1839   865   866   ar
  1840   887   888   ar
  1841   922   929   ar
  1842  1106  1104    1
  1843   702   701    1
  1844  1034  1027   ar
  1845  1032  1031    1
  1846   901   899    1
  1847   901   896    1
  1848  1058  1037    2
  1849   840   846   ar
  1850   840   839   ar
  1851   900   899    1
  1852   709   710    1
  1853   709   708   ar
  1854  1110  1105    1
  1855   838   839   ar
  1856   915   916    1
  1857   915   913    1
  1858   683   682    1
  1859   602   601    2
  1860   707   708   ar
  1861   707   713   ar
  1862   589   588    1
  1863   589   594    1
  1864  1090  1091   ar
  1865   718   716    1
  1866   846   836    1
  1867  1031  1030   ar
  1868   889   888   ar
  1869   889   878    1
  1870  1020  1021    1
  1871  1020  1022    1
  1872   600   601   ar
  1873   600   599   ar
  1874   860   861    2
  1875   860   859   ar
  1876   829   828    1
  1877   588   590    1
  1878  1011  1010    1
  1879  1010  1005   ar
  1880   701   703    1
  1881   701   699    1
  1882   926   927    1
  1883   926   928   ar
  1884  1074  1073    1
  1885   605   594    1
  1886   605   599   ar
  1887   899   897    1
  1888   929   928   ar
  1889  1021  1026    1
  1890   601   595   ar
  1891   708   711   ar
  1892  1007  1006   ar
  1893  1093  1096   ar
  1894  1093  1092   ar
  1895   896   895    1
  1896   681   682   ar
  1897   681   687   ar
  1898  1022  1023    1
  1899  1022  1024    1
  1900   866   859   ar
  1901   703   713    1
  1902   703   698    1
  1903  1037  1023    1
  1904  1037  1057    1
  1905  1037  1039    1
  1906   713   712   ar
  1907   682   684   ar
  1908  1027  1026    1
  1909  1027  1028   ar
  1910  1104  1105    1
  1911  1104  1102    1
  1912   594   592    1
  1913   599   598   ar
  1914   878   876    1
  1915   878   873    1
  1916   859   858    1
  1917   831   836    1
  1918   831   830    1
  1919  1096  1097   ar
  1920  1091  1092   ar
  1921   913   914    1
  1922   688   687    2
  1923  1053  1052    1
  1924   590   591    1
  1925   590   592    1
  1926   836   834    1
  1927   623   622    2
  1928  1030  1028   ar
  1929   828   830    1
  1930  1092  1098   ar
  1931   898   897    1
  1932   898   912    1
  1933   876   877    1
  1934   876   874    1
  1935  1026  1024    1
  1936   627   608    2
  1937  1005  1006   ar
  1938  1102  1103    1
  1939   716   700    1
  1940   716   736    2
  1941   716   737    1
  1942   687   686   ar
  1943  1073  1075   ar
  1944  1073  1072   ar
  1945   595   596   ar
  1946   897   895    1
  1947   914   912    1
  1948   700   699    1
  1949   699   697    1
  1950  1054  1055   ar
  1951  1054  1051   ar
  1952  1028  1029    2
  1953   645   644    2
  1954  1024  1025    1
  1955   711   712   ar
  1956   698   697    1
  1957   895   893    1
  1958   830   832    1
  1959   591   608    1
  1960   592   593    1
  1961  1075  1076   ar
  1962   684   685   ar
  1963   598   596   ar
  1964   873   872    1
  1965  1039  1038    1
  1966   624   622   ar
  1967   624   625   ar
  1968   622   621   ar
  1969  1097  1098   ar
  1970   868   849    2
  1971   832   834    1
  1972   832   833    1
  1973   858   853    1
  1974   858   856    1
  1975   834   835    1
  1976   596   597    1
  1977   697   695    1
  1978  1122  1101    2
  1979  1052  1051   ar
  1980  1052  1047   ar
  1981  1098  1088    1
  1982   894   893    1
  1983   894   892    1
  1984  1072  1070   ar
  1985  1055  1056   ar
  1986   912   931    2
  1987   912   930    1
  1988   911   892    2
  1989   608   626    1
  1990   608   610    1
  1991  1051  1050   ar
  1992  1103  1101    1
  1993  1078  1059    2
  1994   874   872    1
  1995   874   875    1
  1996   686   685   ar
  1997   686   689   ar
  1998   644   638   ar
  1999   644   643   ar
  2000   666   665    2
  2001   685   691   ar
  2002   853   852    1
  2003   856   854    1
  2004   856   857    1
  2005   625   618   ar
  2006   872   870    1
  2007  1076  1069   ar
  2008   892   875    1
  2009   892   910    1
  2010   621   619   ar
  2011   638   639   ar
  2012  1086  1088    1
  2013  1086  1084    1
  2014  1086  1087    1
  2015  1038  1040    1
  2016  1101  1121    1
  2017  1101  1085    1
  2018   833   849    1
  2019  1047  1048   ar
  2020   849   851    1
  2021   849   867    1
  2022   851   850    1
  2023  1088  1083    1
  2024  1070  1069   ar
  2025  1070  1071    2
  2026   610   609    1
  2027  1100  1079    2
  2028  1056  1050   ar
  2029  1056  1046    1
  2030  1050  1049   ar
  2031   695   696    1
  2032   854   852    1
  2033   854   855    1
  2034   643   646   ar
  2035   643   642   ar
  2036   665   664   ar
  2037   665   667   ar
  2038   871   870    1
  2039   871   869    1
  2040   664   662   ar
  2041  1084  1085    1
  2042  1084  1082    1
  2043   689   690   ar
  2044   646   647   ar
  2045  1069  1068    1
  2046  1059  1061    1
  2047  1059  1077    1
  2048  1059  1043    1
  2049   852   850    1
  2050   696   694    1
  2051   691   690   ar
  2052   691   680    1
  2053   618   619   ar
  2054   618   617    1
  2055   891   869    2
  2056   619   620    2
  2057  1042  1040    1
  2058  1042  1043    1
  2059  1042  1044    1
  2060  1040  1041    1
  2061  1041  1046    1
  2062   639   640    1
  2063   639   641   ar
  2064  1081  1079    1
  2065  1081  1080    1
  2066  1061  1060    1
  2067  1048  1049   ar
  2068  1083  1082    1
  2069   678   679    1
  2070   678   680    1
  2071   678   676    1
  2072  1046  1044    1
  2073   609   611    1
  2074  1079  1099    1
  2075  1079  1065    1
  2076   869   855    1
  2077   869   890    1
  2078   680   675    1
  2079   663   662    2
  2080   612   617    1
  2081   612   611    1
  2082   662   661   ar
  2083  1082  1080    1
  2084   642   641   ar
  2085   642   648   ar
  2086  1044  1045    1
  2087   667   668   ar
  2088   647   648   ar
  2089  1064  1066    1
  2090  1064  1065    1
  2091  1064  1062    1
  2092  1068  1066    1
  2093  1068  1063    1
  2094   617   615    1
  2095  1066  1067    1
  2096   694   715    2
  2097   694   677    1
  2098   694   714    1
  2099   611   613    1
  2100  1063  1062    1
  2101   676   677    1
  2102   676   674    1
  2103  1060  1062    1
  2104   650   628    2
  2105   648   637    1
  2106   613   615    1
  2107   613   614    1
  2108   661   668   ar
  2109   661   660    1
  2110   675   674    1
  2111   615   616    1
  2112   674   672    1
  2113   614   628    1
  2114   628   630    1
  2115   628   649    1
  2116   637   632    1
  2117   637   635    1
  2118   660   658    1
  2119   660   655    1
  2120   630   629    1
  2121   632   631    1
  2122   658   659    1
  2123   658   656    1
  2124   672   673    1
  2125   635   633    1
  2126   635   636    1
  2127   670   651    2
  2128   655   654    1
  2129   633   631    1
  2130   633   634    1
  2131   629   631    1
  2132   673   671    1
  2133   656   654    1
  2134   656   657    1
  2135   693   671    2
  2136   653   651    1
  2137   653   652    1
  2138   651   634    1
  2139   651   669    1
  2140   654   652    1
  2141   671   657    1
  2142   671   692    1
