1kod cryst
  MOE2001           3D
RNA APTAMER
 18 17  0  0  1  0  0  0  0  0  1 V2000
    1.7870    4.1030   36.2110 C   0  0  0  0  0  0  0  0  0  0  0  0
    1.1080    3.1150   36.4480 O   0  5  0  0  0  0  0  0  0  0  0  0
    2.9140    4.2780   36.6570 O   0  0  0  0  0  0  0  0  0  0  0  0
    1.1870    5.1880   35.2950 C   0  0  0  0  0  0  0  0  0  0  0  0
    1.4570    6.5360   35.8820 N   0  3  0  0  0  0  0  0  0  0  0  0
    1.0350    6.5950   36.7970 H   0  0  0  0  0  0  0  0  0  0  0  0
    2.4530    6.6750   35.9620 H   0  0  0  0  0  0  0  0  0  0  0  0
    1.0650    7.2480   35.2840 H   0  0  0  0  0  0  0  0  0  0  0  0
    1.8020    5.1100   33.8780 C   0  0  0  0  0  0  0  0  0  0  0  0
    2.3660    3.7200   33.6140 C   0  0  0  0  0  0  0  0  0  0  0  0
    1.2240    2.7320   33.3870 C   0  0  0  0  0  0  0  0  0  0  0  0
    1.7360    1.3410   33.5910 N   0  0  0  0  0  0  0  0  0  0  0  0
    2.6980    1.1910   33.8560 H   0  0  0  0  0  0  0  0  0  0  0  0
    0.9480    0.3120   33.4290 C   0  0  0  0  0  0  0  0  0  0  0  0
    0.8260   -0.5310   34.3150 O   0  0  0  0  0  0  0  0  0  0  0  0
    0.2950    0.1660   32.3130 N   0  0  0  0  0  0  0  0  0  0  0  0
    0.3890    0.8530   31.5800 H   0  0  0  0  0  0  0  0  0  0  0  0
   -0.3050   -0.6340   32.1810 H   0  0  0  0  0  0  0  0  0  0  0  0
  1  4  1  0  0  0  0
  1  2  1  0  0  0  0
  1  3  2  0  0  0  0
  4  9  1  0  0  0  0
  4  5  1  0  0  0  0
  5  8  1  0  0  0  0
  5  7  1  0  0  0  0
  5  6  1  0  0  0  0
  9 10  1  0  0  0  0
 10 11  1  0  0  0  0
 11 12  1  0  0  0  0
 12 13  1  0  0  0  0
 12 14  1  0  0  0  0
 14 16  1  0  0  0  0
 14 15  2  0  0  0  0
 16 18  1  0  0  0  0
 16 17  1  0  0  0  0
M  CHG  1   2  -1
M  CHG  1   5   1
M  END
>  <SYMMETRIC_BONDS>
4 1 2

$$$$
