1kod cryst
 OpenBabel11021811393D
libRbt.so/2013.1/901 2013/11/27
 12 11  0  0  0  0  0  0  0  0999 V2000
    1.9045    4.5574   37.1882 C   0  0  0  0  0  0  0  0  0  0  0  0
    1.3622    3.5422   37.5988 O   0  5  0  0  0  0  0  0  0  0  0  0
    2.8757    5.0756   37.7249 O   0  0  0  0  0  0  0  0  0  0  0  0
    1.3311    5.2191   35.9196 C   0  0  1  0  0  0  0  0  0  0  0  0
    1.1923    6.6899   36.1481 N   0  3  0  0  0  0  0  0  0  0  0  0
    2.2572    4.9710   34.7060 C   0  0  0  0  0  0  0  0  0  0  0  0
    1.4460    4.8950   33.4191 C   0  0  0  0  0  0  0  0  0  0  0  0
    0.6085    3.6181   33.4092 C   0  0  0  0  0  0  0  0  0  0  0  0
    1.4935    2.4581   33.0780 N   0  0  0  0  0  0  0  0  0  0  0  0
    1.0364    1.2358   33.1339 C   0  0  0  0  0  0  0  0  0  0  0  0
    1.6176    0.3777   33.7946 O   0  0  0  0  0  0  0  0  0  0  0  0
   -0.0371    0.9152   32.4721 N   0  0  0  0  0  0  0  0  0  0  0  0
  1  2  1  0  0  0  0
  1  3  2  0  0  0  0
  4  1  1  1  0  0  0
  4  6  1  0  0  0  0
  4  5  1  0  0  0  0
  6  7  1  0  0  0  0
  7  8  1  0  0  0  0
  8  9  1  0  0  0  0
  9 10  1  0  0  0  0
 10 12  1  0  0  0  0
 10 11  2  0  0  0  0
M  CHG  2   2  -1   5   1
M  END
>  <CHROM.1>
133.10900664,148.63103380,66.85170302,-69.48034442,-77.02719510,-6.61117827
1.42125923,3.63611993,34.90110398,-0.75459381,1.32249121,3.10008407

>  <Name>
1kod cryst

>  <RI>
0

>  <Rbt.Current_Directory>
/home/itssahil/PROJECTS/Mol_Feturizer/New_Systems/rnas/1kod

>  <Rbt.Executable>
rbdock ($Id: //depot/dev/client3/rdock/2013.1/src/exe/rbdock.cxx#4 $)

>  <Rbt.Library>
libRbt.so (2013.1, Build901 2013/11/27)

>  <Rbt.Parameter_File>
/export/apps/rDock/src/rDock_2013.1_src/data/scripts/dock_solv.prm

>  <Rbt.Receptor>
prm/pocket_docking_2.prm

>  <SCORE>
-21.5623

>  <SCORE.INTER>
-17.6103

>  <SCORE.INTER.CONST>
1

>  <SCORE.INTER.POLAR>
-2.95141

>  <SCORE.INTER.ROT>
5

>  <SCORE.INTER.SOLV>
11.3509

>  <SCORE.INTER.VDW>
-12.6192

>  <SCORE.INTER.norm>
-1.46753

>  <SCORE.INTRA>
-3.95199

>  <SCORE.INTRA.DIHEDRAL>
-1.27928

>  <SCORE.INTRA.DIHEDRAL.0>
7.7847

>  <SCORE.INTRA.POLAR>
0

>  <SCORE.INTRA.POLAR.0>
0

>  <SCORE.INTRA.REPUL>
0

>  <SCORE.INTRA.REPUL.0>
0

>  <SCORE.INTRA.SOLV>
-2.14955

>  <SCORE.INTRA.SOLV.lig_0>
-57.5465

>  <SCORE.INTRA.VDW>
-2.23758

>  <SCORE.INTRA.VDW.0>
1.39369

>  <SCORE.INTRA.norm>
-0.329333

>  <SCORE.RESTR>
0

>  <SCORE.RESTR.CAVITY>
0

>  <SCORE.RESTR.norm>
0

>  <SCORE.SYSTEM>
0

>  <SCORE.SYSTEM.CONST>
0

>  <SCORE.SYSTEM.DIHEDRAL>
0

>  <SCORE.SYSTEM.SOLV>
0

>  <SCORE.SYSTEM.norm>
0

>  <SCORE.heavy>
12

>  <SCORE.norm>
-1.79686

>  <SYMMETRIC_BONDS>
4 1 2

>  <RMSD>
1.095

$$$$
1kod cryst
 OpenBabel11021811393D
libRbt.so/2013.1/901 2013/11/27
 12 11  0  0  0  0  0  0  0  0999 V2000
    1.2394    4.2071   36.9949 C   0  0  0  0  0  0  0  0  0  0  0  0
    0.1156    3.7288   37.0364 O   0  5  0  0  0  0  0  0  0  0  0  0
    2.1748    3.8091   37.6778 O   0  0  0  0  0  0  0  0  0  0  0  0
    1.4901    5.3773   36.0233 C   0  0  1  0  0  0  0  0  0  0  0  0
    2.0602    6.5344   36.7788 N   0  3  0  0  0  0  0  0  0  0  0  0
    2.4714    4.9588   34.9034 C   0  0  0  0  0  0  0  0  0  0  0  0
    1.7589    4.9061   33.5582 C   0  0  0  0  0  0  0  0  0  0  0  0
    0.8382    3.6889   33.5069 C   0  0  0  0  0  0  0  0  0  0  0  0
    1.6438    2.4847   33.1331 N   0  0  0  0  0  0  0  0  0  0  0  0
    1.1185    1.2901   33.1881 C   0  0  0  0  0  0  0  0  0  0  0  0
    1.6692    0.3906   33.8191 O   0  0  0  0  0  0  0  0  0  0  0  0
    0.0083    1.0414   32.5567 N   0  0  0  0  0  0  0  0  0  0  0  0
  1  2  1  0  0  0  0
  1  3  2  0  0  0  0
  4  1  1  1  0  0  0
  4  6  1  0  0  0  0
  4  5  1  0  0  0  0
  6  7  1  0  0  0  0
  7  8  1  0  0  0  0
  8  9  1  0  0  0  0
  9 10  1  0  0  0  0
 10 12  1  0  0  0  0
 10 11  2  0  0  0  0
M  CHG  2   2  -1   5   1
M  END
>  <CHROM.1>
125.27300005,112.12463533,-59.56881805,-72.69329354,-82.65159057,-8.74614603
1.38452336,3.53320849,34.95641434,0.95558342,1.32283440,1.35946107

>  <Name>
1kod cryst

>  <RI>
0

>  <Rbt.Current_Directory>
/home/itssahil/PROJECTS/Mol_Feturizer/New_Systems/rnas/1kod

>  <Rbt.Executable>
rbdock ($Id: //depot/dev/client3/rdock/2013.1/src/exe/rbdock.cxx#4 $)

>  <Rbt.Library>
libRbt.so (2013.1, Build901 2013/11/27)

>  <Rbt.Parameter_File>
/export/apps/rDock/src/rDock_2013.1_src/data/scripts/dock_solv.prm

>  <Rbt.Receptor>
prm/pocket_docking_2.prm

>  <SCORE>
-15.3517

>  <SCORE.INTER>
-12.7599

>  <SCORE.INTER.CONST>
1

>  <SCORE.INTER.POLAR>
-1.98813

>  <SCORE.INTER.ROT>
5

>  <SCORE.INTER.SOLV>
10.9269

>  <SCORE.INTER.VDW>
-12.4551

>  <SCORE.INTER.norm>
-1.06333

>  <SCORE.INTRA>
-2.59177

>  <SCORE.INTRA.DIHEDRAL>
1.74859

>  <SCORE.INTRA.DIHEDRAL.0>
7.7847

>  <SCORE.INTRA.POLAR>
0

>  <SCORE.INTRA.POLAR.0>
0

>  <SCORE.INTRA.REPUL>
0

>  <SCORE.INTRA.REPUL.0>
0

>  <SCORE.INTRA.SOLV>
-1.97012

>  <SCORE.INTRA.SOLV.lig_0>
-57.5465

>  <SCORE.INTRA.VDW>
-2.48101

>  <SCORE.INTRA.VDW.0>
1.39369

>  <SCORE.INTRA.norm>
-0.215981

>  <SCORE.RESTR>
0

>  <SCORE.RESTR.CAVITY>
0

>  <SCORE.RESTR.norm>
0

>  <SCORE.SYSTEM>
0

>  <SCORE.SYSTEM.CONST>
0

>  <SCORE.SYSTEM.DIHEDRAL>
0

>  <SCORE.SYSTEM.SOLV>
0

>  <SCORE.SYSTEM.norm>
0

>  <SCORE.heavy>
12

>  <SCORE.norm>
-1.27931

>  <SYMMETRIC_BONDS>
4 1 2

>  <RMSD>
1.152

$$$$
1kod cryst
 OpenBabel11021811393D
libRbt.so/2013.1/901 2013/11/27
 12 11  0  0  0  0  0  0  0  0999 V2000
    2.2544    4.9521   37.0981 C   0  0  0  0  0  0  0  0  0  0  0  0
    2.0213    4.3253   38.1209 O   0  5  0  0  0  0  0  0  0  0  0  0
    3.3800    5.1293   36.6494 O   0  0  0  0  0  0  0  0  0  0  0  0
    1.0591    5.5504   36.3303 C   0  0  1  0  0  0  0  0  0  0  0  0
    1.0702    7.0379   36.4785 N   0  3  0  0  0  0  0  0  0  0  0  0
    1.1315    5.1811   34.8301 C   0  0  0  0  0  0  0  0  0  0  0  0
    1.3380    3.6821   34.6562 C   0  0  0  0  0  0  0  0  0  0  0  0
    1.0244    3.2794   33.2170 C   0  0  0  0  0  0  0  0  0  0  0  0
    1.7314    1.9982   32.9050 N   0  0  0  0  0  0  0  0  0  0  0  0
    1.1189    0.8519   33.0355 C   0  0  0  0  0  0  0  0  0  0  0  0
    1.6105   -0.0491   33.7116 O   0  0  0  0  0  0  0  0  0  0  0  0
   -0.0166    0.6523   32.4324 N   0  0  0  0  0  0  0  0  0  0  0  0
  1  2  1  0  0  0  0
  1  3  2  0  0  0  0
  4  1  1  1  0  0  0
  4  6  1  0  0  0  0
  4  5  1  0  0  0  0
  6  7  1  0  0  0  0
  7  8  1  0  0  0  0
  8  9  1  0  0  0  0
  9 10  1  0  0  0  0
 10 12  1  0  0  0  0
 10 11  2  0  0  0  0
M  CHG  2   2  -1   5   1
M  END
>  <CHROM.1>
109.17410258,50.65645589,54.32770944,164.40577939,157.23401728,-85.22154119
1.48150000,3.56168571,34.96753994,-1.29562384,1.02398772,-2.69154833

>  <Name>
1kod cryst

>  <RI>
0

>  <Rbt.Current_Directory>
/home/itssahil/PROJECTS/Mol_Feturizer/New_Systems/rnas/1kod

>  <Rbt.Executable>
rbdock ($Id: //depot/dev/client3/rdock/2013.1/src/exe/rbdock.cxx#4 $)

>  <Rbt.Library>
libRbt.so (2013.1, Build901 2013/11/27)

>  <Rbt.Parameter_File>
/export/apps/rDock/src/rDock_2013.1_src/data/scripts/dock_solv.prm

>  <Rbt.Receptor>
prm/pocket_docking_2.prm

>  <SCORE>
-21.0182

>  <SCORE.INTER>
-16.7425

>  <SCORE.INTER.CONST>
1

>  <SCORE.INTER.POLAR>
-3.02969

>  <SCORE.INTER.ROT>
5

>  <SCORE.INTER.SOLV>
11.0893

>  <SCORE.INTER.VDW>
-11.6925

>  <SCORE.INTER.norm>
-1.39521

>  <SCORE.INTRA>
-4.31662

>  <SCORE.INTRA.DIHEDRAL>
-2.45309

>  <SCORE.INTRA.DIHEDRAL.0>
7.7847

>  <SCORE.INTRA.POLAR>
0

>  <SCORE.INTRA.POLAR.0>
0

>  <SCORE.INTRA.REPUL>
0

>  <SCORE.INTRA.REPUL.0>
0

>  <SCORE.INTRA.SOLV>
-2.49041

>  <SCORE.INTRA.SOLV.lig_0>
-57.5465

>  <SCORE.INTRA.VDW>
-1.84486

>  <SCORE.INTRA.VDW.0>
1.39369

>  <SCORE.INTRA.norm>
-0.359718

>  <SCORE.RESTR>
0.0408873

>  <SCORE.RESTR.CAVITY>
0.0408873

>  <SCORE.RESTR.norm>
0.00340728

>  <SCORE.SYSTEM>
0

>  <SCORE.SYSTEM.CONST>
0

>  <SCORE.SYSTEM.DIHEDRAL>
0

>  <SCORE.SYSTEM.SOLV>
0

>  <SCORE.SYSTEM.norm>
0

>  <SCORE.heavy>
12

>  <SCORE.norm>
-1.75152

>  <SYMMETRIC_BONDS>
4 1 2

>  <RMSD>
1.175

$$$$
1kod cryst
 OpenBabel11021811393D
libRbt.so/2013.1/901 2013/11/27
 12 11  0  0  0  0  0  0  0  0999 V2000
    1.8246    5.1730   35.8114 C   0  0  0  0  0  0  0  0  0  0  0  0
    0.7252    5.1419   36.3440 O   0  5  0  0  0  0  0  0  0  0  0  0
    2.8815    5.1068   36.4263 O   0  0  0  0  0  0  0  0  0  0  0  0
    1.8791    5.3002   34.2761 C   0  0  1  0  0  0  0  0  0  0  0  0
    1.9284    6.7464   33.9008 N   0  3  0  0  0  0  0  0  0  0  0  0
    3.1244    4.5780   33.7105 C   0  0  0  0  0  0  0  0  0  0  0  0
    3.2040    3.1522   34.2401 C   0  0  0  0  0  0  0  0  0  0  0  0
    1.8372    2.4806   34.1275 C   0  0  0  0  0  0  0  0  0  0  0  0
    2.0056    1.1383   33.4882 N   0  0  0  0  0  0  0  0  0  0  0  0
    0.9646    0.4044   33.1989 C   0  0  0  0  0  0  0  0  0  0  0  0
    0.8849   -0.7562   33.5954 O   0  0  0  0  0  0  0  0  0  0  0  0
    0.0064    0.8986   32.4703 N   0  0  0  0  0  0  0  0  0  0  0  0
  1  2  1  0  0  0  0
  1  3  2  0  0  0  0
  4  1  1  1  0  0  0
  4  6  1  0  0  0  0
  4  5  1  0  0  0  0
  6  7  1  0  0  0  0
  7  8  1  0  0  0  0
  8  9  1  0  0  0  0
  9 10  1  0  0  0  0
 10 12  1  0  0  0  0
 10 11  2  0  0  0  0
M  CHG  2   2  -1   5   1
M  END
>  <CHROM.1>
90.59512208,51.37143257,-166.00239074,46.34636857,131.27063960,4.66405164
1.75605581,3.30216928,34.29541640,0.81718711,1.27982094,1.08707101

>  <Name>
1kod cryst

>  <RI>
0

>  <Rbt.Current_Directory>
/home/itssahil/PROJECTS/Mol_Feturizer/New_Systems/rnas/1kod

>  <Rbt.Executable>
rbdock ($Id: //depot/dev/client3/rdock/2013.1/src/exe/rbdock.cxx#4 $)

>  <Rbt.Library>
libRbt.so (2013.1, Build901 2013/11/27)

>  <Rbt.Parameter_File>
/export/apps/rDock/src/rDock_2013.1_src/data/scripts/dock_solv.prm

>  <Rbt.Receptor>
prm/pocket_docking_2.prm

>  <SCORE>
-20.0714

>  <SCORE.INTER>
-20.8516

>  <SCORE.INTER.CONST>
1

>  <SCORE.INTER.POLAR>
-4.08969

>  <SCORE.INTER.ROT>
5

>  <SCORE.INTER.SOLV>
16.7524

>  <SCORE.INTER.VDW>
-12.7862

>  <SCORE.INTER.norm>
-1.73763

>  <SCORE.INTRA>
0.2276

>  <SCORE.INTRA.DIHEDRAL>
0.9834

>  <SCORE.INTRA.DIHEDRAL.0>
7.7847

>  <SCORE.INTRA.POLAR>
0

>  <SCORE.INTRA.POLAR.0>
0

>  <SCORE.INTRA.REPUL>
0

>  <SCORE.INTRA.REPUL.0>
0

>  <SCORE.INTRA.SOLV>
-1.66648

>  <SCORE.INTRA.SOLV.lig_0>
-57.5465

>  <SCORE.INTRA.VDW>
0.569141

>  <SCORE.INTRA.VDW.0>
1.39369

>  <SCORE.INTRA.norm>
0.0189667

>  <SCORE.RESTR>
0.552514

>  <SCORE.RESTR.CAVITY>
0.552514

>  <SCORE.RESTR.norm>
0.0460429

>  <SCORE.SYSTEM>
0

>  <SCORE.SYSTEM.CONST>
0

>  <SCORE.SYSTEM.DIHEDRAL>
0

>  <SCORE.SYSTEM.SOLV>
0

>  <SCORE.SYSTEM.norm>
0

>  <SCORE.heavy>
12

>  <SCORE.norm>
-1.67262

>  <SYMMETRIC_BONDS>
4 1 2

>  <RMSD>
1.221

$$$$
1kod cryst
 OpenBabel11021811393D
libRbt.so/2013.1/901 2013/11/27
 12 11  0  0  0  0  0  0  0  0999 V2000
    1.9058    4.8451   36.9716 C   0  0  0  0  0  0  0  0  0  0  0  0
    3.0516    5.1545   37.2628 O   0  5  0  0  0  0  0  0  0  0  0  0
    1.2464    4.0173   37.5876 O   0  0  0  0  0  0  0  0  0  0  0  0
    1.2562    5.5418   35.7596 C   0  0  1  0  0  0  0  0  0  0  0  0
    1.6603    6.9808   35.7407 N   0  3  0  0  0  0  0  0  0  0  0  0
    1.6946    4.8657   34.4394 C   0  0  0  0  0  0  0  0  0  0  0  0
    1.5300    3.3542   34.5306 C   0  0  0  0  0  0  0  0  0  0  0  0
    2.2153    2.6857   33.3409 C   0  0  0  0  0  0  0  0  0  0  0  0
    2.3565    1.2225   33.6197 N   0  0  0  0  0  0  0  0  0  0  0  0
    1.3027    0.4539   33.6877 C   0  0  0  0  0  0  0  0  0  0  0  0
    1.1087   -0.2601   34.6691 O   0  0  0  0  0  0  0  0  0  0  0  0
    0.4545    0.4293   32.7013 N   0  0  0  0  0  0  0  0  0  0  0  0
  1  2  1  0  0  0  0
  1  3  2  0  0  0  0
  4  1  1  1  0  0  0
  4  6  1  0  0  0  0
  4  5  1  0  0  0  0
  6  7  1  0  0  0  0
  7  8  1  0  0  0  0
  8  9  1  0  0  0  0
  9 10  1  0  0  0  0
 10 12  1  0  0  0  0
 10 11  2  0  0  0  0
M  CHG  2   2  -1   5   1
M  END
>  <CHROM.1>
-38.88127860,48.96782350,68.38172561,-168.93979956,165.45904596,-112.45096844
1.65065542,3.28805483,35.03888554,-0.23294137,1.45873298,2.32380765

>  <Name>
1kod cryst

>  <RI>
0

>  <Rbt.Current_Directory>
/home/itssahil/PROJECTS/Mol_Feturizer/New_Systems/rnas/1kod

>  <Rbt.Executable>
rbdock ($Id: //depot/dev/client3/rdock/2013.1/src/exe/rbdock.cxx#4 $)

>  <Rbt.Library>
libRbt.so (2013.1, Build901 2013/11/27)

>  <Rbt.Parameter_File>
/export/apps/rDock/src/rDock_2013.1_src/data/scripts/dock_solv.prm

>  <Rbt.Receptor>
prm/pocket_docking_2.prm

>  <SCORE>
-21.2211

>  <SCORE.INTER>
-16.5575

>  <SCORE.INTER.CONST>
1

>  <SCORE.INTER.POLAR>
-3.22911

>  <SCORE.INTER.ROT>
5

>  <SCORE.INTER.SOLV>
10.7943

>  <SCORE.INTER.VDW>
-10.8061

>  <SCORE.INTER.norm>
-1.37979

>  <SCORE.INTRA>
-4.66611

>  <SCORE.INTRA.DIHEDRAL>
-3.68962

>  <SCORE.INTRA.DIHEDRAL.0>
7.7847

>  <SCORE.INTRA.POLAR>
0

>  <SCORE.INTRA.POLAR.0>
0

>  <SCORE.INTRA.REPUL>
0

>  <SCORE.INTRA.REPUL.0>
0

>  <SCORE.INTRA.SOLV>
-2.11211

>  <SCORE.INTRA.SOLV.lig_0>
-57.5465

>  <SCORE.INTRA.VDW>
-1.76524

>  <SCORE.INTRA.VDW.0>
1.39369

>  <SCORE.INTRA.norm>
-0.388842

>  <SCORE.RESTR>
0.00249043

>  <SCORE.RESTR.CAVITY>
0.00249043

>  <SCORE.RESTR.norm>
0.000207536

>  <SCORE.SYSTEM>
0

>  <SCORE.SYSTEM.CONST>
0

>  <SCORE.SYSTEM.DIHEDRAL>
0

>  <SCORE.SYSTEM.SOLV>
0

>  <SCORE.SYSTEM.norm>
0

>  <SCORE.heavy>
12

>  <SCORE.norm>
-1.76843

>  <SYMMETRIC_BONDS>
4 1 2

>  <RMSD>
1.233

$$$$
1kod cryst
 OpenBabel11021811393D
libRbt.so/2013.1/901 2013/11/27
 12 11  0  0  0  0  0  0  0  0999 V2000
    1.9307    4.7561   37.1924 C   0  0  0  0  0  0  0  0  0  0  0  0
    1.6563    3.6598   37.6572 O   0  5  0  0  0  0  0  0  0  0  0  0
    3.0611    5.2270   37.1793 O   0  0  0  0  0  0  0  0  0  0  0  0
    0.7848    5.5900   36.5860 C   0  0  1  0  0  0  0  0  0  0  0  0
    1.3147    6.9197   36.1550 N   0  3  0  0  0  0  0  0  0  0  0  0
    0.1630    4.8640   35.3701 C   0  0  0  0  0  0  0  0  0  0  0  0
    1.2528    4.3128   34.4598 C   0  0  0  0  0  0  0  0  0  0  0  0
    0.6211    3.5334   33.3086 C   0  0  0  0  0  0  0  0  0  0  0  0
    1.4853    2.3553   32.9864 N   0  0  0  0  0  0  0  0  0  0  0  0
    1.0132    1.1406   33.0741 C   0  0  0  0  0  0  0  0  0  0  0  0
    1.5939    0.2881   33.7423 O   0  0  0  0  0  0  0  0  0  0  0  0
   -0.0751    0.8214   32.4362 N   0  0  0  0  0  0  0  0  0  0  0  0
  1  2  1  0  0  0  0
  1  3  2  0  0  0  0
  4  1  1  6  0  0  0
  4  6  1  0  0  0  0
  4  5  1  0  0  0  0
  6  7  1  0  0  0  0
  7  8  1  0  0  0  0
  8  9  1  0  0  0  0
  9 10  1  0  0  0  0
 10 12  1  0  0  0  0
 10 11  2  0  0  0  0
M  CHG  2   2  -1   5   1
M  END
>  <CHROM.1>
176.51821688,-45.16070473,60.14099377,176.84742071,-143.65714527,-59.93356247
1.25060772,3.62951847,35.01296717,-1.27047102,1.05487975,-2.68427177

>  <Name>
1kod cryst

>  <RI>
0

>  <Rbt.Current_Directory>
/home/itssahil/PROJECTS/Mol_Feturizer/New_Systems/rnas/1kod

>  <Rbt.Executable>
rbdock ($Id: //depot/dev/client3/rdock/2013.1/src/exe/rbdock.cxx#4 $)

>  <Rbt.Library>
libRbt.so (2013.1, Build901 2013/11/27)

>  <Rbt.Parameter_File>
/export/apps/rDock/src/rDock_2013.1_src/data/scripts/dock_solv.prm

>  <Rbt.Receptor>
prm/pocket_docking_2.prm

>  <SCORE>
-21.2669

>  <SCORE.INTER>
-18.4908

>  <SCORE.INTER.CONST>
1

>  <SCORE.INTER.POLAR>
-2.95185

>  <SCORE.INTER.ROT>
5

>  <SCORE.INTER.SOLV>
11.1192

>  <SCORE.INTER.VDW>
-13.1275

>  <SCORE.INTER.norm>
-1.5409

>  <SCORE.INTRA>
-2.78415

>  <SCORE.INTRA.DIHEDRAL>
-1.10565

>  <SCORE.INTRA.DIHEDRAL.0>
7.7847

>  <SCORE.INTRA.POLAR>
0

>  <SCORE.INTRA.POLAR.0>
0

>  <SCORE.INTRA.REPUL>
0

>  <SCORE.INTRA.REPUL.0>
0

>  <SCORE.INTRA.SOLV>
-1.19096

>  <SCORE.INTRA.SOLV.lig_0>
-57.5465

>  <SCORE.INTRA.VDW>
-1.63584

>  <SCORE.INTRA.VDW.0>
1.39369

>  <SCORE.INTRA.norm>
-0.232012

>  <SCORE.RESTR>
0.00808309

>  <SCORE.RESTR.CAVITY>
0.00808309

>  <SCORE.RESTR.norm>
0.00067359

>  <SCORE.SYSTEM>
0

>  <SCORE.SYSTEM.CONST>
0

>  <SCORE.SYSTEM.DIHEDRAL>
0

>  <SCORE.SYSTEM.SOLV>
0

>  <SCORE.SYSTEM.norm>
0

>  <SCORE.heavy>
12

>  <SCORE.norm>
-1.77224

>  <SYMMETRIC_BONDS>
4 1 2

>  <RMSD>
1.279

$$$$
1kod cryst
 OpenBabel11021811393D
libRbt.so/2013.1/901 2013/11/27
 12 11  0  0  0  0  0  0  0  0999 V2000
    1.2465    5.3664   35.7335 C   0  0  0  0  0  0  0  0  0  0  0  0
    0.3277    4.6586   36.1185 O   0  5  0  0  0  0  0  0  0  0  0  0
    2.1005    5.8369   36.4744 O   0  0  0  0  0  0  0  0  0  0  0  0
    1.3329    5.6803   34.2268 C   0  0  1  0  0  0  0  0  0  0  0  0
    2.6057    6.4123   33.9460 N   0  3  0  0  0  0  0  0  0  0  0  0
    1.2920    4.3784   33.3928 C   0  0  0  0  0  0  0  0  0  0  0  0
    2.5019    3.5060   33.7009 C   0  0  0  0  0  0  0  0  0  0  0  0
    2.0691    2.2887   34.5149 C   0  0  0  0  0  0  0  0  0  0  0  0
    2.1679    1.0681   33.6552 N   0  0  0  0  0  0  0  0  0  0  0  0
    1.0902    0.4523   33.2485 C   0  0  0  0  0  0  0  0  0  0  0  0
    0.9451   -0.7528   33.4413 O   0  0  0  0  0  0  0  0  0  0  0  0
    0.1645    1.1152   32.6185 N   0  0  0  0  0  0  0  0  0  0  0  0
  1  2  1  0  0  0  0
  1  3  2  0  0  0  0
  4  1  1  1  0  0  0
  4  6  1  0  0  0  0
  4  5  1  0  0  0  0
  6  7  1  0  0  0  0
  7  8  1  0  0  0  0
  8  9  1  0  0  0  0
  9 10  1  0  0  0  0
 10 12  1  0  0  0  0
 10 11  2  0  0  0  0
M  CHG  2   2  -1   5   1
M  END
>  <CHROM.1>
-173.19075821,-63.21162259,51.55901452,107.96932096,109.23823700,70.00986325
1.49696599,3.34604671,34.25467267,1.30591486,1.11739715,0.58186115

>  <Name>
1kod cryst

>  <RI>
0

>  <Rbt.Current_Directory>
/home/itssahil/PROJECTS/Mol_Feturizer/New_Systems/rnas/1kod

>  <Rbt.Executable>
rbdock ($Id: //depot/dev/client3/rdock/2013.1/src/exe/rbdock.cxx#4 $)

>  <Rbt.Library>
libRbt.so (2013.1, Build901 2013/11/27)

>  <Rbt.Parameter_File>
/export/apps/rDock/src/rDock_2013.1_src/data/scripts/dock_solv.prm

>  <Rbt.Receptor>
prm/pocket_docking_2.prm

>  <SCORE>
-23.375

>  <SCORE.INTER>
-24.4031

>  <SCORE.INTER.CONST>
1

>  <SCORE.INTER.POLAR>
-4.04057

>  <SCORE.INTER.ROT>
5

>  <SCORE.INTER.SOLV>
14.7882

>  <SCORE.INTER.VDW>
-14.6629

>  <SCORE.INTER.norm>
-2.03359

>  <SCORE.INTRA>
0.660661

>  <SCORE.INTRA.DIHEDRAL>
5.29623

>  <SCORE.INTRA.DIHEDRAL.0>
7.7847

>  <SCORE.INTRA.POLAR>
0

>  <SCORE.INTRA.POLAR.0>
0

>  <SCORE.INTRA.REPUL>
0

>  <SCORE.INTRA.REPUL.0>
0

>  <SCORE.INTRA.SOLV>
0.210038

>  <SCORE.INTRA.SOLV.lig_0>
-57.5465

>  <SCORE.INTRA.VDW>
-2.09247

>  <SCORE.INTRA.VDW.0>
1.39369

>  <SCORE.INTRA.norm>
0.0550551

>  <SCORE.RESTR>
0.367473

>  <SCORE.RESTR.CAVITY>
0.367473

>  <SCORE.RESTR.norm>
0.0306227

>  <SCORE.SYSTEM>
0

>  <SCORE.SYSTEM.CONST>
0

>  <SCORE.SYSTEM.DIHEDRAL>
0

>  <SCORE.SYSTEM.SOLV>
0

>  <SCORE.SYSTEM.norm>
0

>  <SCORE.heavy>
12

>  <SCORE.norm>
-1.94792

>  <SYMMETRIC_BONDS>
4 1 2

>  <RMSD>
1.300

$$$$
1kod cryst
 OpenBabel11021811393D
libRbt.so/2013.1/901 2013/11/27
 12 11  0  0  0  0  0  0  0  0999 V2000
    2.2859    5.0668   37.0738 C   0  0  0  0  0  0  0  0  0  0  0  0
    1.9757    4.4127   38.0583 O   0  5  0  0  0  0  0  0  0  0  0  0
    3.4183    5.1025   36.6089 O   0  0  0  0  0  0  0  0  0  0  0  0
    1.1843    5.8911   36.3787 C   0  0  1  0  0  0  0  0  0  0  0  0
    1.8023    7.0722   35.7023 N   0  3  0  0  0  0  0  0  0  0  0  0
    0.4346    5.0321   35.3336 C   0  0  0  0  0  0  0  0  0  0  0  0
    1.4173    4.3880   34.3645 C   0  0  0  0  0  0  0  0  0  0  0  0
    0.6604    3.5316   33.3518 C   0  0  0  0  0  0  0  0  0  0  0  0
    1.4911    2.3354   33.0085 N   0  0  0  0  0  0  0  0  0  0  0  0
    0.9851    1.1332   33.0752 C   0  0  0  0  0  0  0  0  0  0  0  0
    1.5416    0.2530   33.7280 O   0  0  0  0  0  0  0  0  0  0  0  0
   -0.1119    0.8559   32.4325 N   0  0  0  0  0  0  0  0  0  0  0  0
  1  2  1  0  0  0  0
  1  3  2  0  0  0  0
  4  1  1  6  0  0  0
  4  6  1  0  0  0  0
  4  5  1  0  0  0  0
  6  7  1  0  0  0  0
  7  8  1  0  0  0  0
  8  9  1  0  0  0  0
  9 10  1  0  0  0  0
 10 12  1  0  0  0  0
 10 11  2  0  0  0  0
M  CHG  2   2  -1   5   1
M  END
>  <CHROM.1>
152.18003125,-53.14290184,60.90869573,179.32265025,-145.37028979,-51.31891414
1.44265116,3.76194917,34.92222839,-1.12809875,1.06435246,-2.85298264

>  <Name>
1kod cryst

>  <RI>
0

>  <Rbt.Current_Directory>
/home/itssahil/PROJECTS/Mol_Feturizer/New_Systems/rnas/1kod

>  <Rbt.Executable>
rbdock ($Id: //depot/dev/client3/rdock/2013.1/src/exe/rbdock.cxx#4 $)

>  <Rbt.Library>
libRbt.so (2013.1, Build901 2013/11/27)

>  <Rbt.Parameter_File>
/export/apps/rDock/src/rDock_2013.1_src/data/scripts/dock_solv.prm

>  <Rbt.Receptor>
prm/pocket_docking_2.prm

>  <SCORE>
-21.5084

>  <SCORE.INTER>
-18.0078

>  <SCORE.INTER.CONST>
1

>  <SCORE.INTER.POLAR>
-3.0306

>  <SCORE.INTER.ROT>
5

>  <SCORE.INTER.SOLV>
10.7961

>  <SCORE.INTER.VDW>
-12.4352

>  <SCORE.INTER.norm>
-1.50065

>  <SCORE.INTRA>
-3.50058

>  <SCORE.INTRA.DIHEDRAL>
-1.95333

>  <SCORE.INTRA.DIHEDRAL.0>
7.7847

>  <SCORE.INTRA.POLAR>
0

>  <SCORE.INTRA.POLAR.0>
0

>  <SCORE.INTRA.REPUL>
0

>  <SCORE.INTRA.REPUL.0>
0

>  <SCORE.INTRA.SOLV>
-1.2716

>  <SCORE.INTRA.SOLV.lig_0>
-57.5465

>  <SCORE.INTRA.VDW>
-1.88812

>  <SCORE.INTRA.VDW.0>
1.39369

>  <SCORE.INTRA.norm>
-0.291715

>  <SCORE.RESTR>
0

>  <SCORE.RESTR.CAVITY>
0

>  <SCORE.RESTR.norm>
0

>  <SCORE.SYSTEM>
0

>  <SCORE.SYSTEM.CONST>
0

>  <SCORE.SYSTEM.DIHEDRAL>
0

>  <SCORE.SYSTEM.SOLV>
0

>  <SCORE.SYSTEM.norm>
0

>  <SCORE.heavy>
12

>  <SCORE.norm>
-1.79237

>  <SYMMETRIC_BONDS>
4 1 2

>  <RMSD>
1.328

$$$$
1kod cryst
 OpenBabel11021811393D
libRbt.so/2013.1/901 2013/11/27
 12 11  0  0  0  0  0  0  0  0999 V2000
    2.7504    5.1494   37.1232 C   0  0  0  0  0  0  0  0  0  0  0  0
    2.6658    4.0335   37.6140 O   0  5  0  0  0  0  0  0  0  0  0  0
    3.4948    6.0250   37.5462 O   0  0  0  0  0  0  0  0  0  0  0  0
    1.8691    5.4680   35.8992 C   0  0  1  0  0  0  0  0  0  0  0  0
    1.5287    6.9236   35.8999 N   0  3  0  0  0  0  0  0  0  0  0  0
    2.6052    5.1111   34.5865 C   0  0  0  0  0  0  0  0  0  0  0  0
    1.6164    4.9830   33.4351 C   0  0  0  0  0  0  0  0  0  0  0  0
    0.7961    3.7051   33.5963 C   0  0  0  0  0  0  0  0  0  0  0  0
    1.6307    2.5352   33.1798 N   0  0  0  0  0  0  0  0  0  0  0  0
    1.1367    1.3262   33.1974 C   0  0  0  0  0  0  0  0  0  0  0  0
    1.7134    0.4210   33.7962 O   0  0  0  0  0  0  0  0  0  0  0  0
    0.0302    1.0697   32.5626 N   0  0  0  0  0  0  0  0  0  0  0  0
  1  2  1  0  0  0  0
  1  3  2  0  0  0  0
  4  1  1  1  0  0  0
  4  6  1  0  0  0  0
  4  5  1  0  0  0  0
  6  7  1  0  0  0  0
  7  8  1  0  0  0  0
  8  9  1  0  0  0  0
  9 10  1  0  0  0  0
 10 12  1  0  0  0  0
 10 11  2  0  0  0  0
M  CHG  2   2  -1   5   1
M  END
>  <CHROM.1>
149.46962611,161.34341522,-176.57116749,-72.03177229,-77.25120487,1.64099591
1.81665736,3.90576954,34.88336327,-0.90094315,1.11507284,-3.06135155

>  <Name>
1kod cryst

>  <RI>
0

>  <Rbt.Current_Directory>
/home/itssahil/PROJECTS/Mol_Feturizer/New_Systems/rnas/1kod

>  <Rbt.Executable>
rbdock ($Id: //depot/dev/client3/rdock/2013.1/src/exe/rbdock.cxx#4 $)

>  <Rbt.Library>
libRbt.so (2013.1, Build901 2013/11/27)

>  <Rbt.Parameter_File>
/export/apps/rDock/src/rDock_2013.1_src/data/scripts/dock_solv.prm

>  <Rbt.Receptor>
prm/pocket_docking_3.prm

>  <SCORE>
-22.0007

>  <SCORE.INTER>
-17.529

>  <SCORE.INTER.CONST>
1

>  <SCORE.INTER.POLAR>
-2.9926

>  <SCORE.INTER.ROT>
5

>  <SCORE.INTER.SOLV>
10.3845

>  <SCORE.INTER.VDW>
-12.1055

>  <SCORE.INTER.norm>
-1.46075

>  <SCORE.INTRA>
-4.47167

>  <SCORE.INTRA.DIHEDRAL>
-2.74144

>  <SCORE.INTRA.DIHEDRAL.0>
7.7847

>  <SCORE.INTRA.POLAR>
0

>  <SCORE.INTRA.POLAR.0>
0

>  <SCORE.INTRA.REPUL>
0

>  <SCORE.INTRA.REPUL.0>
0

>  <SCORE.INTRA.SOLV>
-1.9017

>  <SCORE.INTRA.SOLV.lig_0>
-57.5465

>  <SCORE.INTRA.VDW>
-2.1501

>  <SCORE.INTRA.VDW.0>
1.39369

>  <SCORE.INTRA.norm>
-0.372639

>  <SCORE.RESTR>
0

>  <SCORE.RESTR.CAVITY>
0

>  <SCORE.RESTR.norm>
0

>  <SCORE.SYSTEM>
0

>  <SCORE.SYSTEM.CONST>
0

>  <SCORE.SYSTEM.DIHEDRAL>
0

>  <SCORE.SYSTEM.SOLV>
0

>  <SCORE.SYSTEM.norm>
0

>  <SCORE.heavy>
12

>  <SCORE.norm>
-1.83339

>  <SYMMETRIC_BONDS>
4 1 2

>  <RMSD>
1.381

$$$$
1kod cryst
 OpenBabel11021811393D
libRbt.so/2013.1/901 2013/11/27
 12 11  0  0  0  0  0  0  0  0999 V2000
    2.5731    4.1717   37.3152 C   0  0  0  0  0  0  0  0  0  0  0  0
    3.0779    5.0705   37.9714 O   0  5  0  0  0  0  0  0  0  0  0  0
    2.7411    2.9812   37.5480 O   0  0  0  0  0  0  0  0  0  0  0  0
    1.6712    4.5639   36.1282 C   0  0  1  0  0  0  0  0  0  0  0  0
    1.0523    5.8979   36.3965 N   0  3  0  0  0  0  0  0  0  0  0  0
    2.4891    4.6293   34.8171 C   0  0  0  0  0  0  0  0  0  0  0  0
    1.5699    4.8447   33.6218 C   0  0  0  0  0  0  0  0  0  0  0  0
    0.6592    3.6320   33.4434 C   0  0  0  0  0  0  0  0  0  0  0  0
    1.4943    2.4459   33.0768 N   0  0  0  0  0  0  0  0  0  0  0  0
    0.9921    1.2408   33.1182 C   0  0  0  0  0  0  0  0  0  0  0  0
    1.5507    0.3494   33.7537 O   0  0  0  0  0  0  0  0  0  0  0  0
   -0.1030    0.9732   32.4684 N   0  0  0  0  0  0  0  0  0  0  0  0
  1  2  1  0  0  0  0
  1  3  2  0  0  0  0
  4  1  1  1  0  0  0
  4  6  1  0  0  0  0
  4  5  1  0  0  0  0
  6  7  1  0  0  0  0
  7  8  1  0  0  0  0
  8  9  1  0  0  0  0
  9 10  1  0  0  0  0
 10 12  1  0  0  0  0
 10 11  2  0  0  0  0
M  CHG  2   2  -1   5   1
M  END
>  <CHROM.1>
-27.94241398,172.92665050,60.26695084,-65.19961519,-65.62542564,-13.13481358
1.63864817,3.40357958,34.99008436,-0.85905795,1.13020857,-2.92440868

>  <Name>
1kod cryst

>  <RI>
0

>  <Rbt.Current_Directory>
/home/itssahil/PROJECTS/Mol_Feturizer/New_Systems/rnas/1kod

>  <Rbt.Executable>
rbdock ($Id: //depot/dev/client3/rdock/2013.1/src/exe/rbdock.cxx#4 $)

>  <Rbt.Library>
libRbt.so (2013.1, Build901 2013/11/27)

>  <Rbt.Parameter_File>
/export/apps/rDock/src/rDock_2013.1_src/data/scripts/dock_solv.prm

>  <Rbt.Receptor>
prm/pocket_docking_2.prm

>  <SCORE>
-17.7931

>  <SCORE.INTER>
-12.7726

>  <SCORE.INTER.CONST>
1

>  <SCORE.INTER.POLAR>
-1.97131

>  <SCORE.INTER.ROT>
5

>  <SCORE.INTER.SOLV>
9.58545

>  <SCORE.INTER.VDW>
-12.0725

>  <SCORE.INTER.norm>
-1.06438

>  <SCORE.INTRA>
-5.02051

>  <SCORE.INTRA.DIHEDRAL>
-5.13172

>  <SCORE.INTRA.DIHEDRAL.0>
7.7847

>  <SCORE.INTRA.POLAR>
0

>  <SCORE.INTRA.POLAR.0>
0

>  <SCORE.INTRA.REPUL>
0

>  <SCORE.INTRA.REPUL.0>
0

>  <SCORE.INTRA.SOLV>
-1.48072

>  <SCORE.INTRA.SOLV.lig_0>
-57.5465

>  <SCORE.INTRA.VDW>
-1.71429

>  <SCORE.INTRA.VDW.0>
1.39369

>  <SCORE.INTRA.norm>
-0.418376

>  <SCORE.RESTR>
0

>  <SCORE.RESTR.CAVITY>
0

>  <SCORE.RESTR.norm>
0

>  <SCORE.SYSTEM>
0

>  <SCORE.SYSTEM.CONST>
0

>  <SCORE.SYSTEM.DIHEDRAL>
0

>  <SCORE.SYSTEM.SOLV>
0

>  <SCORE.SYSTEM.norm>
0

>  <SCORE.heavy>
12

>  <SCORE.norm>
-1.48276

>  <SYMMETRIC_BONDS>
4 1 2

>  <RMSD>
1.475

$$$$
1kod cryst
 OpenBabel11021811393D
libRbt.so/2013.1/901 2013/11/27
 12 11  0  0  0  0  0  0  0  0999 V2000
    0.7596    5.0713   35.7578 C   0  0  0  0  0  0  0  0  0  0  0  0
    1.0613    5.3827   36.9004 O   0  5  0  0  0  0  0  0  0  0  0  0
   -0.1777    4.3347   35.4775 O   0  0  0  0  0  0  0  0  0  0  0  0
    1.6094    5.6432   34.6059 C   0  0  1  0  0  0  0  0  0  0  0  0
    2.0222    7.0401   34.9417 N   0  3  0  0  0  0  0  0  0  0  0  0
    2.8682    4.7758   34.3709 C   0  0  0  0  0  0  0  0  0  0  0  0
    2.5259    3.5492   33.5354 C   0  0  0  0  0  0  0  0  0  0  0  0
    2.0889    2.4059   34.4485 C   0  0  0  0  0  0  0  0  0  0  0  0
    2.1778    1.1179   33.6924 N   0  0  0  0  0  0  0  0  0  0  0  0
    1.0950    0.4884   33.3217 C   0  0  0  0  0  0  0  0  0  0  0  0
    0.9268   -0.6945   33.6098 O   0  0  0  0  0  0  0  0  0  0  0  0
    0.1891    1.1125   32.6268 N   0  0  0  0  0  0  0  0  0  0  0  0
  1  2  1  0  0  0  0
  1  3  2  0  0  0  0
  4  1  1  1  0  0  0
  4  6  1  0  0  0  0
  4  5  1  0  0  0  0
  6  7  1  0  0  0  0
  7  8  1  0  0  0  0
  8  9  1  0  0  0  0
  9 10  1  0  0  0  0
 10 12  1  0  0  0  0
 10 11  2  0  0  0  0
M  CHG  2   2  -1   5   1
M  END
>  <CHROM.1>
-36.38344255,80.96314488,57.57806313,-88.47919460,-162.16783275,71.15290440
1.41453493,3.37168342,34.44812795,1.48940649,0.59602960,0.41438941

>  <Name>
1kod cryst

>  <RI>
0

>  <Rbt.Current_Directory>
/home/itssahil/PROJECTS/Mol_Feturizer/New_Systems/rnas/1kod

>  <Rbt.Executable>
rbdock ($Id: //depot/dev/client3/rdock/2013.1/src/exe/rbdock.cxx#4 $)

>  <Rbt.Library>
libRbt.so (2013.1, Build901 2013/11/27)

>  <Rbt.Parameter_File>
/export/apps/rDock/src/rDock_2013.1_src/data/scripts/dock_solv.prm

>  <Rbt.Receptor>
prm/pocket_docking_2.prm

>  <SCORE>
-26.2216

>  <SCORE.INTER>
-22.5963

>  <SCORE.INTER.CONST>
1

>  <SCORE.INTER.POLAR>
-4.02145

>  <SCORE.INTER.ROT>
5

>  <SCORE.INTER.SOLV>
14.8275

>  <SCORE.INTER.VDW>
-13.5352

>  <SCORE.INTER.norm>
-1.88302

>  <SCORE.INTRA>
-3.64074

>  <SCORE.INTRA.DIHEDRAL>
-0.196871

>  <SCORE.INTRA.DIHEDRAL.0>
7.7847

>  <SCORE.INTRA.POLAR>
0

>  <SCORE.INTRA.POLAR.0>
0

>  <SCORE.INTRA.REPUL>
0

>  <SCORE.INTRA.REPUL.0>
0

>  <SCORE.INTRA.SOLV>
-1.40723

>  <SCORE.INTRA.SOLV.lig_0>
-57.5465

>  <SCORE.INTRA.VDW>
-2.83869

>  <SCORE.INTRA.VDW.0>
1.39369

>  <SCORE.INTRA.norm>
-0.303395

>  <SCORE.RESTR>
0.0154061

>  <SCORE.RESTR.CAVITY>
0.0154061

>  <SCORE.RESTR.norm>
0.00128384

>  <SCORE.SYSTEM>
0

>  <SCORE.SYSTEM.CONST>
0

>  <SCORE.SYSTEM.DIHEDRAL>
0

>  <SCORE.SYSTEM.SOLV>
0

>  <SCORE.SYSTEM.norm>
0

>  <SCORE.heavy>
12

>  <SCORE.norm>
-2.18513

>  <SYMMETRIC_BONDS>
4 1 2

>  <RMSD>
1.478

$$$$
1kod cryst
 OpenBabel11021811393D
libRbt.so/2013.1/901 2013/11/27
 12 11  0  0  0  0  0  0  0  0999 V2000
    1.0207    5.2576   36.3764 C   0  0  0  0  0  0  0  0  0  0  0  0
    0.9536    6.1628   37.1946 O   0  5  0  0  0  0  0  0  0  0  0  0
    0.6103    4.1221   36.5816 O   0  0  0  0  0  0  0  0  0  0  0  0
    1.6571    5.5683   35.0072 C   0  0  1  0  0  0  0  0  0  0  0  0
    1.9860    7.0246   34.9334 N   0  3  0  0  0  0  0  0  0  0  0  0
    2.9453    4.7376   34.8008 C   0  0  0  0  0  0  0  0  0  0  0  0
    2.6100    3.2618   34.6293 C   0  0  0  0  0  0  0  0  0  0  0  0
    1.6795    3.0775   33.4326 C   0  0  0  0  0  0  0  0  0  0  0  0
    1.8999    1.7174   32.8496 N   0  0  0  0  0  0  0  0  0  0  0  0
    0.9654    0.8071   32.9136 C   0  0  0  0  0  0  0  0  0  0  0  0
    1.2026   -0.3043   33.3818 O   0  0  0  0  0  0  0  0  0  0  0  0
   -0.2269    1.0705   32.4640 N   0  0  0  0  0  0  0  0  0  0  0  0
  1  2  1  0  0  0  0
  1  3  2  0  0  0  0
  4  1  1  1  0  0  0
  4  6  1  0  0  0  0
  4  5  1  0  0  0  0
  6  7  1  0  0  0  0
  7  8  1  0  0  0  0
  8  9  1  0  0  0  0
  9 10  1  0  0  0  0
 10 12  1  0  0  0  0
 10 11  2  0  0  0  0
M  CHG  2   2  -1   5   1
M  END
>  <CHROM.1>
-4.33247982,69.19774112,178.71479922,58.68443989,151.52664113,-67.16621171
1.42739897,3.56155461,34.55021610,1.43970429,0.82678591,0.63206031

>  <Name>
1kod cryst

>  <RI>
0

>  <Rbt.Current_Directory>
/home/itssahil/PROJECTS/Mol_Feturizer/New_Systems/rnas/1kod

>  <Rbt.Executable>
rbdock ($Id: //depot/dev/client3/rdock/2013.1/src/exe/rbdock.cxx#4 $)

>  <Rbt.Library>
libRbt.so (2013.1, Build901 2013/11/27)

>  <Rbt.Parameter_File>
/export/apps/rDock/src/rDock_2013.1_src/data/scripts/dock_solv.prm

>  <Rbt.Receptor>
prm/pocket_docking_2.prm

>  <SCORE>
-22.3362

>  <SCORE.INTER>
-18.8413

>  <SCORE.INTER.CONST>
1

>  <SCORE.INTER.POLAR>
-3.48779

>  <SCORE.INTER.ROT>
5

>  <SCORE.INTER.SOLV>
14.3403

>  <SCORE.INTER.VDW>
-12.6484

>  <SCORE.INTER.norm>
-1.57011

>  <SCORE.INTRA>
-3.53198

>  <SCORE.INTRA.DIHEDRAL>
-2.69865

>  <SCORE.INTRA.DIHEDRAL.0>
7.7847

>  <SCORE.INTRA.POLAR>
0

>  <SCORE.INTRA.POLAR.0>
0

>  <SCORE.INTRA.REPUL>
0

>  <SCORE.INTRA.REPUL.0>
0

>  <SCORE.INTRA.SOLV>
-1.77499

>  <SCORE.INTRA.SOLV.lig_0>
-57.5465

>  <SCORE.INTRA.VDW>
-1.29516

>  <SCORE.INTRA.VDW.0>
1.39369

>  <SCORE.INTRA.norm>
-0.294332

>  <SCORE.RESTR>
0.0370861

>  <SCORE.RESTR.CAVITY>
0.0370861

>  <SCORE.RESTR.norm>
0.00309051

>  <SCORE.SYSTEM>
0

>  <SCORE.SYSTEM.CONST>
0

>  <SCORE.SYSTEM.DIHEDRAL>
0

>  <SCORE.SYSTEM.SOLV>
0

>  <SCORE.SYSTEM.norm>
0

>  <SCORE.heavy>
12

>  <SCORE.norm>
-1.86135

>  <SYMMETRIC_BONDS>
4 1 2

>  <RMSD>
1.482

$$$$
1kod cryst
 OpenBabel11021811393D
libRbt.so/2013.1/901 2013/11/27
 12 11  0  0  0  0  0  0  0  0999 V2000
    2.2541    5.3104   36.3304 C   0  0  0  0  0  0  0  0  0  0  0  0
    2.9660    6.0213   37.0240 O   0  5  0  0  0  0  0  0  0  0  0  0
    1.6116    4.3616   36.7623 O   0  0  0  0  0  0  0  0  0  0  0  0
    2.1605    5.6320   34.8257 C   0  0  1  0  0  0  0  0  0  0  0  0
    2.1400    7.1148   34.6369 N   0  3  0  0  0  0  0  0  0  0  0  0
    3.3635    5.0314   34.0614 C   0  0  0  0  0  0  0  0  0  0  0  0
    3.4423    3.5266   34.2828 C   0  0  0  0  0  0  0  0  0  0  0  0
    2.3093    2.8322   33.5304 C   0  0  0  0  0  0  0  0  0  0  0  0
    2.4508    1.3519   33.6956 N   0  0  0  0  0  0  0  0  0  0  0  0
    1.3945    0.5891   33.7872 C   0  0  0  0  0  0  0  0  0  0  0  0
    1.2628   -0.1905   34.7282 O   0  0  0  0  0  0  0  0  0  0  0  0
    0.4766    0.6410   32.8664 N   0  0  0  0  0  0  0  0  0  0  0  0
  1  2  1  0  0  0  0
  1  3  2  0  0  0  0
  4  1  1  1  0  0  0
  4  6  1  0  0  0  0
  4  5  1  0  0  0  0
  6  7  1  0  0  0  0
  7  8  1  0  0  0  0
  8  9  1  0  0  0  0
  9 10  1  0  0  0  0
 10 12  1  0  0  0  0
 10 11  2  0  0  0  0
M  CHG  2   2  -1   5   1
M  END
>  <CHROM.1>
-38.53142624,57.07019080,42.63035463,71.69817246,176.76239532,-35.17211775
2.13670269,3.53557457,34.71900959,0.85670915,1.26986888,1.04045761

>  <Name>
1kod cryst

>  <RI>
0

>  <Rbt.Current_Directory>
/home/itssahil/PROJECTS/Mol_Feturizer/New_Systems/rnas/1kod

>  <Rbt.Executable>
rbdock ($Id: //depot/dev/client3/rdock/2013.1/src/exe/rbdock.cxx#4 $)

>  <Rbt.Library>
libRbt.so (2013.1, Build901 2013/11/27)

>  <Rbt.Parameter_File>
/export/apps/rDock/src/rDock_2013.1_src/data/scripts/dock_solv.prm

>  <Rbt.Receptor>
prm/pocket_docking_8.prm

>  <SCORE>
-21.5534

>  <SCORE.INTER>
-16.6783

>  <SCORE.INTER.CONST>
1

>  <SCORE.INTER.POLAR>
-3.21544

>  <SCORE.INTER.ROT>
5

>  <SCORE.INTER.SOLV>
11.7832

>  <SCORE.INTER.VDW>
-11.2618

>  <SCORE.INTER.norm>
-1.38985

>  <SCORE.INTRA>
-4.87513

>  <SCORE.INTRA.DIHEDRAL>
-4.2183

>  <SCORE.INTRA.DIHEDRAL.0>
7.7847

>  <SCORE.INTRA.POLAR>
0

>  <SCORE.INTRA.POLAR.0>
0

>  <SCORE.INTRA.REPUL>
0

>  <SCORE.INTRA.REPUL.0>
0

>  <SCORE.INTRA.SOLV>
-1.97303

>  <SCORE.INTRA.SOLV.lig_0>
-57.5465

>  <SCORE.INTRA.VDW>
-1.77947

>  <SCORE.INTRA.VDW.0>
1.39369

>  <SCORE.INTRA.norm>
-0.406261

>  <SCORE.RESTR>
0

>  <SCORE.RESTR.CAVITY>
0

>  <SCORE.RESTR.norm>
0

>  <SCORE.SYSTEM>
0

>  <SCORE.SYSTEM.CONST>
0

>  <SCORE.SYSTEM.DIHEDRAL>
0

>  <SCORE.SYSTEM.SOLV>
0

>  <SCORE.SYSTEM.norm>
0

>  <SCORE.heavy>
12

>  <SCORE.norm>
-1.79612

>  <SYMMETRIC_BONDS>
4 1 2

>  <RMSD>
1.490

$$$$
1kod cryst
 OpenBabel11021811393D
libRbt.so/2013.1/901 2013/11/27
 12 11  0  0  0  0  0  0  0  0999 V2000
    1.1347    3.4249   37.2803 C   0  0  0  0  0  0  0  0  0  0  0  0
   -0.0552    3.4856   37.5520 O   0  5  0  0  0  0  0  0  0  0  0  0
    1.8690    2.5118   37.6364 O   0  0  0  0  0  0  0  0  0  0  0  0
    1.7416    4.5647   36.4384 C   0  0  1  0  0  0  0  0  0  0  0  0
    3.1539    4.7995   36.8682 N   0  3  0  0  0  0  0  0  0  0  0  0
    1.7128    4.2092   34.9335 C   0  0  0  0  0  0  0  0  0  0  0  0
    2.1170    2.7566   34.7178 C   0  0  0  0  0  0  0  0  0  0  0  0
    2.5102    2.5394   33.2584 C   0  0  0  0  0  0  0  0  0  0  0  0
    2.2967    1.1011   32.9056 N   0  0  0  0  0  0  0  0  0  0  0  0
    1.1403    0.5304   33.1125 C   0  0  0  0  0  0  0  0  0  0  0  0
    1.0616   -0.5135   33.7565 O   0  0  0  0  0  0  0  0  0  0  0  0
    0.0590    1.0611   32.6201 N   0  0  0  0  0  0  0  0  0  0  0  0
  1  2  1  0  0  0  0
  1  3  2  0  0  0  0
  4  1  1  1  0  0  0
  4  6  1  0  0  0  0
  4  5  1  0  0  0  0
  6  7  1  0  0  0  0
  7  8  1  0  0  0  0
  8  9  1  0  0  0  0
  9 10  1  0  0  0  0
 10 12  1  0  0  0  0
 10 11  2  0  0  0  0
M  CHG  2   2  -1   5   1
M  END
>  <CHROM.1>
146.25083155,-42.23795820,179.14060585,-162.22963222,-154.35820650,-126.39735292
1.56946397,2.53048209,35.10834802,1.42802269,0.81206207,0.98857869

>  <Name>
1kod cryst

>  <RI>
0

>  <Rbt.Current_Directory>
/home/itssahil/PROJECTS/Mol_Feturizer/New_Systems/rnas/1kod

>  <Rbt.Executable>
rbdock ($Id: //depot/dev/client3/rdock/2013.1/src/exe/rbdock.cxx#4 $)

>  <Rbt.Library>
libRbt.so (2013.1, Build901 2013/11/27)

>  <Rbt.Parameter_File>
/export/apps/rDock/src/rDock_2013.1_src/data/scripts/dock_solv.prm

>  <Rbt.Receptor>
prm/pocket_docking_2.prm

>  <SCORE>
-12.1143

>  <SCORE.INTER>
-10.0264

>  <SCORE.INTER.CONST>
1

>  <SCORE.INTER.POLAR>
-2.36709

>  <SCORE.INTER.ROT>
5

>  <SCORE.INTER.SOLV>
12.9732

>  <SCORE.INTER.VDW>
-10.0517

>  <SCORE.INTER.norm>
-0.835535

>  <SCORE.INTRA>
-2.13409

>  <SCORE.INTRA.DIHEDRAL>
-1.14413

>  <SCORE.INTRA.DIHEDRAL.0>
7.7847

>  <SCORE.INTRA.POLAR>
0

>  <SCORE.INTRA.POLAR.0>
0

>  <SCORE.INTRA.REPUL>
0

>  <SCORE.INTRA.REPUL.0>
0

>  <SCORE.INTRA.SOLV>
-0.893262

>  <SCORE.INTRA.SOLV.lig_0>
-57.5465

>  <SCORE.INTRA.VDW>
-1.11539

>  <SCORE.INTRA.VDW.0>
1.39369

>  <SCORE.INTRA.norm>
-0.177841

>  <SCORE.RESTR>
0.0462114

>  <SCORE.RESTR.CAVITY>
0.0462114

>  <SCORE.RESTR.norm>
0.00385095

>  <SCORE.SYSTEM>
0

>  <SCORE.SYSTEM.CONST>
0

>  <SCORE.SYSTEM.DIHEDRAL>
0

>  <SCORE.SYSTEM.SOLV>
0

>  <SCORE.SYSTEM.norm>
0

>  <SCORE.heavy>
12

>  <SCORE.norm>
-1.00952

>  <SYMMETRIC_BONDS>
4 1 2

>  <RMSD>
1.499

$$$$
1kod cryst
 OpenBabel11021811393D
libRbt.so/2013.1/901 2013/11/27
 12 11  0  0  0  0  0  0  0  0999 V2000
    0.9967    4.3460   37.2958 C   0  0  0  0  0  0  0  0  0  0  0  0
    2.0357    4.8861   37.6452 O   0  5  0  0  0  0  0  0  0  0  0  0
    0.6220    3.2567   37.7113 O   0  0  0  0  0  0  0  0  0  0  0  0
    0.1082    5.0836   36.2746 C   0  0  1  0  0  0  0  0  0  0  0  0
    0.0433    6.5338   36.6314 N   0  3  0  0  0  0  0  0  0  0  0  0
    0.6745    4.9294   34.8436 C   0  0  0  0  0  0  0  0  0  0  0  0
    1.2034    3.5179   34.6254 C   0  0  0  0  0  0  0  0  0  0  0  0
    1.3797    3.2558   33.1314 C   0  0  0  0  0  0  0  0  0  0  0  0
    1.9884    1.9020   32.9432 N   0  0  0  0  0  0  0  0  0  0  0  0
    1.2877    0.8217   33.1619 C   0  0  0  0  0  0  0  0  0  0  0  0
    1.7010   -0.0516   33.9215 O   0  0  0  0  0  0  0  0  0  0  0  0
    0.1462    0.6574   32.5593 N   0  0  0  0  0  0  0  0  0  0  0  0
  1  2  1  0  0  0  0
  1  3  2  0  0  0  0
  4  1  1  1  0  0  0
  4  6  1  0  0  0  0
  4  5  1  0  0  0  0
  6  7  1  0  0  0  0
  7  8  1  0  0  0  0
  8  9  1  0  0  0  0
  9 10  1  0  0  0  0
 10 12  1  0  0  0  0
 10 11  2  0  0  0  0
M  CHG  2   2  -1   5   1
M  END
>  <CHROM.1>
-42.47369813,39.71298401,-65.97501686,163.70936156,176.09971294,-107.85974274
1.01174257,3.27077780,35.08075057,-1.93674722,1.33459706,-2.04443688

>  <Name>
1kod cryst

>  <RI>
0

>  <Rbt.Current_Directory>
/home/itssahil/PROJECTS/Mol_Feturizer/New_Systems/rnas/1kod

>  <Rbt.Executable>
rbdock ($Id: //depot/dev/client3/rdock/2013.1/src/exe/rbdock.cxx#4 $)

>  <Rbt.Library>
libRbt.so (2013.1, Build901 2013/11/27)

>  <Rbt.Parameter_File>
/export/apps/rDock/src/rDock_2013.1_src/data/scripts/dock_solv.prm

>  <Rbt.Receptor>
prm/pocket_docking_2.prm

>  <SCORE>
-20.2294

>  <SCORE.INTER>
-16.4965

>  <SCORE.INTER.CONST>
1

>  <SCORE.INTER.POLAR>
-2.88531

>  <SCORE.INTER.ROT>
5

>  <SCORE.INTER.SOLV>
15.4285

>  <SCORE.INTER.VDW>
-13.4561

>  <SCORE.INTER.norm>
-1.37471

>  <SCORE.INTRA>
-3.9288

>  <SCORE.INTRA.DIHEDRAL>
-3.02692

>  <SCORE.INTRA.DIHEDRAL.0>
7.7847

>  <SCORE.INTRA.POLAR>
0

>  <SCORE.INTRA.POLAR.0>
0

>  <SCORE.INTRA.REPUL>
0

>  <SCORE.INTRA.REPUL.0>
0

>  <SCORE.INTRA.SOLV>
-2.09429

>  <SCORE.INTRA.SOLV.lig_0>
-57.5465

>  <SCORE.INTRA.VDW>
-1.3682

>  <SCORE.INTRA.VDW.0>
1.39369

>  <SCORE.INTRA.norm>
-0.3274

>  <SCORE.RESTR>
0.195925

>  <SCORE.RESTR.CAVITY>
0.195925

>  <SCORE.RESTR.norm>
0.0163271

>  <SCORE.SYSTEM>
0

>  <SCORE.SYSTEM.CONST>
0

>  <SCORE.SYSTEM.DIHEDRAL>
0

>  <SCORE.SYSTEM.SOLV>
0

>  <SCORE.SYSTEM.norm>
0

>  <SCORE.heavy>
12

>  <SCORE.norm>
-1.68578

>  <SYMMETRIC_BONDS>
4 1 2

>  <RMSD>
1.504

$$$$
1kod cryst
 OpenBabel11021811393D
libRbt.so/2013.1/901 2013/11/27
 12 11  0  0  0  0  0  0  0  0999 V2000
    1.1022    5.7123   35.7311 C   0  0  0  0  0  0  0  0  0  0  0  0
   -0.0386    5.7199   36.1690 O   0  5  0  0  0  0  0  0  0  0  0  0
    2.1023    5.6631   36.4362 O   0  0  0  0  0  0  0  0  0  0  0  0
    1.2883    5.7653   34.2017 C   0  0  1  0  0  0  0  0  0  0  0  0
    2.7457    5.8621   33.8836 N   0  3  0  0  0  0  0  0  0  0  0  0
    0.6976    4.5015   33.5340 C   0  0  0  0  0  0  0  0  0  0  0  0
    1.1922    3.2433   34.2356 C   0  0  0  0  0  0  0  0  0  0  0  0
    2.2409    2.5465   33.3717 C   0  0  0  0  0  0  0  0  0  0  0  0
    2.2841    1.0955   33.7340 N   0  0  0  0  0  0  0  0  0  0  0  0
    1.2012    0.3665   33.6893 C   0  0  0  0  0  0  0  0  0  0  0  0
    0.8455   -0.2899   34.6655 O   0  0  0  0  0  0  0  0  0  0  0  0
    0.4968    0.3200   32.5962 N   0  0  0  0  0  0  0  0  0  0  0  0
  1  2  1  0  0  0  0
  1  3  2  0  0  0  0
  4  1  1  1  0  0  0
  4  6  1  0  0  0  0
  4  5  1  0  0  0  0
  6  7  1  0  0  0  0
  7  8  1  0  0  0  0
  8  9  1  0  0  0  0
  9 10  1  0  0  0  0
 10 12  1  0  0  0  0
 10 11  2  0  0  0  0
M  CHG  2   2  -1   5   1
M  END
>  <CHROM.1>
175.30906715,-49.29016600,-52.81103373,-105.50324531,-155.84584536,-124.50916818
1.36574152,3.37308788,34.35799173,1.49093510,0.96671482,0.37356853

>  <Name>
1kod cryst

>  <RI>
0

>  <Rbt.Current_Directory>
/home/itssahil/PROJECTS/Mol_Feturizer/New_Systems/rnas/1kod

>  <Rbt.Executable>
rbdock ($Id: //depot/dev/client3/rdock/2013.1/src/exe/rbdock.cxx#4 $)

>  <Rbt.Library>
libRbt.so (2013.1, Build901 2013/11/27)

>  <Rbt.Parameter_File>
/export/apps/rDock/src/rDock_2013.1_src/data/scripts/dock_solv.prm

>  <Rbt.Receptor>
prm/pocket_docking_2.prm

>  <SCORE>
-18.9455

>  <SCORE.INTER>
-18.785

>  <SCORE.INTER.CONST>
1

>  <SCORE.INTER.POLAR>
-3.34726

>  <SCORE.INTER.ROT>
5

>  <SCORE.INTER.SOLV>
15.0718

>  <SCORE.INTER.VDW>
-13.3231

>  <SCORE.INTER.norm>
-1.56542

>  <SCORE.INTRA>
-0.308527

>  <SCORE.INTRA.DIHEDRAL>
2.18369

>  <SCORE.INTRA.DIHEDRAL.0>
7.7847

>  <SCORE.INTRA.POLAR>
0

>  <SCORE.INTRA.POLAR.0>
0

>  <SCORE.INTRA.REPUL>
0

>  <SCORE.INTRA.REPUL.0>
0

>  <SCORE.INTRA.SOLV>
0.0476611

>  <SCORE.INTRA.SOLV.lig_0>
-57.5465

>  <SCORE.INTRA.VDW>
-1.4242

>  <SCORE.INTRA.VDW.0>
1.39369

>  <SCORE.INTRA.norm>
-0.0257106

>  <SCORE.RESTR>
0.147962

>  <SCORE.RESTR.CAVITY>
0.147962

>  <SCORE.RESTR.norm>
0.0123302

>  <SCORE.SYSTEM>
0

>  <SCORE.SYSTEM.CONST>
0

>  <SCORE.SYSTEM.DIHEDRAL>
0

>  <SCORE.SYSTEM.SOLV>
0

>  <SCORE.SYSTEM.norm>
0

>  <SCORE.heavy>
12

>  <SCORE.norm>
-1.5788

>  <SYMMETRIC_BONDS>
4 1 2

>  <RMSD>
1.510

$$$$
1kod cryst
 OpenBabel11021811393D
libRbt.so/2013.1/901 2013/11/27
 12 11  0  0  0  0  0  0  0  0999 V2000
    1.1061    5.6563   35.5062 C   0  0  0  0  0  0  0  0  0  0  0  0
    0.0427    5.0661   35.6262 O   0  5  0  0  0  0  0  0  0  0  0  0
    1.6250    6.3135   36.3997 O   0  0  0  0  0  0  0  0  0  0  0  0
    1.8341    5.5629   34.1506 C   0  0  1  0  0  0  0  0  0  0  0  0
    2.1504    6.9401   33.6629 N   0  3  0  0  0  0  0  0  0  0  0  0
    3.1432    4.7506   34.2867 C   0  0  0  0  0  0  0  0  0  0  0  0
    2.8428    3.3130   34.6901 C   0  0  0  0  0  0  0  0  0  0  0  0
    2.2342    2.5599   33.5093 C   0  0  0  0  0  0  0  0  0  0  0  0
    2.2705    1.0921   33.7973 N   0  0  0  0  0  0  0  0  0  0  0  0
    1.1824    0.3732   33.7245 C   0  0  0  0  0  0  0  0  0  0  0  0
    0.8300   -0.3297   34.6692 O   0  0  0  0  0  0  0  0  0  0  0  0
    0.4692    0.3866   32.6363 N   0  0  0  0  0  0  0  0  0  0  0  0
  1  2  1  0  0  0  0
  1  3  2  0  0  0  0
  4  1  1  1  0  0  0
  4  6  1  0  0  0  0
  4  5  1  0  0  0  0
  6  7  1  0  0  0  0
  7  8  1  0  0  0  0
  8  9  1  0  0  0  0
  9 10  1  0  0  0  0
 10 12  1  0  0  0  0
 10 11  2  0  0  0  0
M  CHG  2   2  -1   5   1
M  END
>  <CHROM.1>
127.37004123,63.27678234,-156.45850374,72.42980116,165.65633549,-53.79837103
1.62908831,3.49303563,34.38312113,1.44855661,0.75363938,0.30844473

>  <Name>
1kod cryst

>  <RI>
0

>  <Rbt.Current_Directory>
/home/itssahil/PROJECTS/Mol_Feturizer/New_Systems/rnas/1kod

>  <Rbt.Executable>
rbdock ($Id: //depot/dev/client3/rdock/2013.1/src/exe/rbdock.cxx#4 $)

>  <Rbt.Library>
libRbt.so (2013.1, Build901 2013/11/27)

>  <Rbt.Parameter_File>
/export/apps/rDock/src/rDock_2013.1_src/data/scripts/dock_solv.prm

>  <Rbt.Receptor>
prm/pocket_docking_2.prm

>  <SCORE>
-23.6214

>  <SCORE.INTER>
-19.7575

>  <SCORE.INTER.CONST>
1

>  <SCORE.INTER.POLAR>
-3.82806

>  <SCORE.INTER.ROT>
5

>  <SCORE.INTER.SOLV>
19.1591

>  <SCORE.INTER.VDW>
-13.7311

>  <SCORE.INTER.norm>
-1.64645

>  <SCORE.INTRA>
-4.60378

>  <SCORE.INTRA.DIHEDRAL>
-2.93671

>  <SCORE.INTRA.DIHEDRAL.0>
7.7847

>  <SCORE.INTRA.POLAR>
0

>  <SCORE.INTRA.POLAR.0>
0

>  <SCORE.INTRA.REPUL>
0

>  <SCORE.INTRA.REPUL.0>
0

>  <SCORE.INTRA.SOLV>
-2.3935

>  <SCORE.INTRA.SOLV.lig_0>
-57.5465

>  <SCORE.INTRA.VDW>
-1.93868

>  <SCORE.INTRA.VDW.0>
1.39369

>  <SCORE.INTRA.norm>
-0.383648

>  <SCORE.RESTR>
0.739832

>  <SCORE.RESTR.CAVITY>
0.739832

>  <SCORE.RESTR.norm>
0.0616527

>  <SCORE.SYSTEM>
0

>  <SCORE.SYSTEM.CONST>
0

>  <SCORE.SYSTEM.DIHEDRAL>
0

>  <SCORE.SYSTEM.SOLV>
0

>  <SCORE.SYSTEM.norm>
0

>  <SCORE.heavy>
12

>  <SCORE.norm>
-1.96845

>  <SYMMETRIC_BONDS>
4 1 2

>  <RMSD>
1.525

$$$$
1kod cryst
 OpenBabel11021811393D
libRbt.so/2013.1/901 2013/11/27
 12 11  0  0  0  0  0  0  0  0999 V2000
    1.2695    4.0233   37.4759 C   0  0  0  0  0  0  0  0  0  0  0  0
    2.1915    4.7692   37.7707 O   0  5  0  0  0  0  0  0  0  0  0  0
    0.9957    3.0017   38.0931 O   0  0  0  0  0  0  0  0  0  0  0  0
    0.4020    4.3954   36.2571 C   0  0  1  0  0  0  0  0  0  0  0  0
   -0.0015    5.8313   36.3567 N   0  3  0  0  0  0  0  0  0  0  0  0
    1.1812    4.1688   34.9405 C   0  0  0  0  0  0  0  0  0  0  0  0
    1.5896    2.7078   34.8036 C   0  0  0  0  0  0  0  0  0  0  0  0
    2.3913    2.5121   33.5188 C   0  0  0  0  0  0  0  0  0  0  0  0
    2.2441    1.0941   33.0645 N   0  0  0  0  0  0  0  0  0  0  0  0
    1.0890    0.4889   33.1379 C   0  0  0  0  0  0  0  0  0  0  0  0
    0.9827   -0.5937   33.7099 O   0  0  0  0  0  0  0  0  0  0  0  0
    0.0400    1.0272   32.5874 N   0  0  0  0  0  0  0  0  0  0  0  0
  1  2  1  0  0  0  0
  1  3  2  0  0  0  0
  4  1  1  1  0  0  0
  4  6  1  0  0  0  0
  4  5  1  0  0  0  0
  6  7  1  0  0  0  0
  7  8  1  0  0  0  0
  8  9  1  0  0  0  0
  9 10  1  0  0  0  0
 10 12  1  0  0  0  0
 10 11  2  0  0  0  0
M  CHG  2   2  -1   5   1
M  END
>  <CHROM.1>
-48.39629045,60.12215336,-48.81102475,-178.38803641,-154.01232477,-139.38718747
1.17989822,2.80292080,35.15530482,-1.67889463,1.28771907,-2.25103317

>  <Name>
1kod cryst

>  <RI>
0

>  <Rbt.Current_Directory>
/home/itssahil/PROJECTS/Mol_Feturizer/New_Systems/rnas/1kod

>  <Rbt.Executable>
rbdock ($Id: //depot/dev/client3/rdock/2013.1/src/exe/rbdock.cxx#4 $)

>  <Rbt.Library>
libRbt.so (2013.1, Build901 2013/11/27)

>  <Rbt.Parameter_File>
/export/apps/rDock/src/rDock_2013.1_src/data/scripts/dock_solv.prm

>  <Rbt.Receptor>
prm/pocket_docking_2.prm

>  <SCORE>
-18.9613

>  <SCORE.INTER>
-14.8528

>  <SCORE.INTER.CONST>
1

>  <SCORE.INTER.POLAR>
-2.53932

>  <SCORE.INTER.ROT>
5

>  <SCORE.INTER.SOLV>
14.1023

>  <SCORE.INTER.VDW>
-13.0715

>  <SCORE.INTER.norm>
-1.23773

>  <SCORE.INTRA>
-4.10853

>  <SCORE.INTRA.DIHEDRAL>
-3.04542

>  <SCORE.INTRA.DIHEDRAL.0>
7.7847

>  <SCORE.INTRA.POLAR>
0

>  <SCORE.INTRA.POLAR.0>
0

>  <SCORE.INTRA.REPUL>
0

>  <SCORE.INTRA.REPUL.0>
0

>  <SCORE.INTRA.SOLV>
-2.19831

>  <SCORE.INTRA.SOLV.lig_0>
-57.5465

>  <SCORE.INTRA.VDW>
-1.48667

>  <SCORE.INTRA.VDW.0>
1.39369

>  <SCORE.INTRA.norm>
-0.342378

>  <SCORE.RESTR>
0

>  <SCORE.RESTR.CAVITY>
0

>  <SCORE.RESTR.norm>
0

>  <SCORE.SYSTEM>
0

>  <SCORE.SYSTEM.CONST>
0

>  <SCORE.SYSTEM.DIHEDRAL>
0

>  <SCORE.SYSTEM.SOLV>
0

>  <SCORE.SYSTEM.norm>
0

>  <SCORE.heavy>
12

>  <SCORE.norm>
-1.58011

>  <SYMMETRIC_BONDS>
4 1 2

>  <RMSD>
1.549

$$$$
1kod cryst
 OpenBabel11021811393D
libRbt.so/2013.1/901 2013/11/27
 12 11  0  0  0  0  0  0  0  0999 V2000
    1.2295    5.8422   35.6578 C   0  0  0  0  0  0  0  0  0  0  0  0
    0.5832    4.9190   36.1303 O   0  5  0  0  0  0  0  0  0  0  0  0
    1.4353    6.8988   36.2418 O   0  0  0  0  0  0  0  0  0  0  0  0
    1.8202    5.6608   34.2455 C   0  0  1  0  0  0  0  0  0  0  0  0
    2.1503    7.0009   33.6712 N   0  3  0  0  0  0  0  0  0  0  0  0
    3.0985    4.7915   34.2940 C   0  0  0  0  0  0  0  0  0  0  0  0
    2.7593    3.3607   34.6908 C   0  0  0  0  0  0  0  0  0  0  0  0
    2.1863    2.6119   33.4896 C   0  0  0  0  0  0  0  0  0  0  0  0
    2.2618    1.1408   33.7519 N   0  0  0  0  0  0  0  0  0  0  0  0
    1.1869    0.4004   33.7018 C   0  0  0  0  0  0  0  0  0  0  0  0
    0.8794   -0.3246   34.6454 O   0  0  0  0  0  0  0  0  0  0  0  0
    0.4389    0.4162   32.6372 N   0  0  0  0  0  0  0  0  0  0  0  0
  1  2  1  0  0  0  0
  1  3  2  0  0  0  0
  4  1  1  1  0  0  0
  4  6  1  0  0  0  0
  4  5  1  0  0  0  0
  6  7  1  0  0  0  0
  7  8  1  0  0  0  0
  8  9  1  0  0  0  0
  9 10  1  0  0  0  0
 10 12  1  0  0  0  0
 10 11  2  0  0  0  0
M  CHG  2   2  -1   5   1
M  END
>  <CHROM.1>
160.82928788,67.27345487,76.77305999,78.29443919,162.36432678,-56.33824848
1.65574489,3.57941204,34.42408871,1.42093294,0.94679773,0.36154860

>  <Name>
1kod cryst

>  <RI>
0

>  <Rbt.Current_Directory>
/home/itssahil/PROJECTS/Mol_Feturizer/New_Systems/rnas/1kod

>  <Rbt.Executable>
rbdock ($Id: //depot/dev/client3/rdock/2013.1/src/exe/rbdock.cxx#4 $)

>  <Rbt.Library>
libRbt.so (2013.1, Build901 2013/11/27)

>  <Rbt.Parameter_File>
/export/apps/rDock/src/rDock_2013.1_src/data/scripts/dock_solv.prm

>  <Rbt.Receptor>
prm/pocket_docking_2.prm

>  <SCORE>
-23.1046

>  <SCORE.INTER>
-19.7041

>  <SCORE.INTER.CONST>
1

>  <SCORE.INTER.POLAR>
-3.8237

>  <SCORE.INTER.ROT>
5

>  <SCORE.INTER.SOLV>
18.1152

>  <SCORE.INTER.VDW>
-13.3622

>  <SCORE.INTER.norm>
-1.64201

>  <SCORE.INTRA>
-4.18823

>  <SCORE.INTRA.DIHEDRAL>
-2.31578

>  <SCORE.INTRA.DIHEDRAL.0>
7.7847

>  <SCORE.INTRA.POLAR>
0

>  <SCORE.INTRA.POLAR.0>
0

>  <SCORE.INTRA.REPUL>
0

>  <SCORE.INTRA.REPUL.0>
0

>  <SCORE.INTRA.SOLV>
-2.13

>  <SCORE.INTRA.SOLV.lig_0>
-57.5465

>  <SCORE.INTRA.VDW>
-1.96534

>  <SCORE.INTRA.VDW.0>
1.39369

>  <SCORE.INTRA.norm>
-0.349019

>  <SCORE.RESTR>
0.787746

>  <SCORE.RESTR.CAVITY>
0.787746

>  <SCORE.RESTR.norm>
0.0656455

>  <SCORE.SYSTEM>
0

>  <SCORE.SYSTEM.CONST>
0

>  <SCORE.SYSTEM.DIHEDRAL>
0

>  <SCORE.SYSTEM.SOLV>
0

>  <SCORE.SYSTEM.norm>
0

>  <SCORE.heavy>
12

>  <SCORE.norm>
-1.92538

>  <SYMMETRIC_BONDS>
4 1 2

>  <RMSD>
1.554

$$$$
1kod cryst
 OpenBabel11021811393D
libRbt.so/2013.1/901 2013/11/27
 12 11  0  0  0  0  0  0  0  0999 V2000
    3.0123    5.1863   35.9118 C   0  0  0  0  0  0  0  0  0  0  0  0
    4.1710    5.3069   35.5426 O   0  5  0  0  0  0  0  0  0  0  0  0
    2.6705    4.5072   36.8718 O   0  0  0  0  0  0  0  0  0  0  0  0
    1.9215    5.9363   35.1218 C   0  0  1  0  0  0  0  0  0  0  0  0
    2.1680    7.4078   35.2129 N   0  3  0  0  0  0  0  0  0  0  0  0
    1.9254    5.5036   33.6369 C   0  0  0  0  0  0  0  0  0  0  0  0
    0.9957    4.3165   33.4219 C   0  0  0  0  0  0  0  0  0  0  0  0
    1.5087    3.1086   34.2027 C   0  0  0  0  0  0  0  0  0  0  0  0
    1.9253    2.0453   33.2360 N   0  0  0  0  0  0  0  0  0  0  0  0
    1.1220    1.0563   32.9484 C   0  0  0  0  0  0  0  0  0  0  0  0
    1.4972   -0.1091   33.0565 O   0  0  0  0  0  0  0  0  0  0  0  0
   -0.0843    1.3035   32.5278 N   0  0  0  0  0  0  0  0  0  0  0  0
  1  2  1  0  0  0  0
  1  3  2  0  0  0  0
  4  1  1  1  0  0  0
  4  6  1  0  0  0  0
  4  5  1  0  0  0  0
  6  7  1  0  0  0  0
  7  8  1  0  0  0  0
  8  9  1  0  0  0  0
  9 10  1  0  0  0  0
 10 12  1  0  0  0  0
 10 11  2  0  0  0  0
M  CHG  2   2  -1   5   1
M  END
>  <CHROM.1>
-62.10863211,90.02495567,71.72452145,-63.83408676,-114.20829640,81.92769263
1.91136075,3.81235577,34.31395698,-1.12414943,0.83181135,-3.00445352

>  <Name>
1kod cryst

>  <RI>
0

>  <Rbt.Current_Directory>
/home/itssahil/PROJECTS/Mol_Feturizer/New_Systems/rnas/1kod

>  <Rbt.Executable>
rbdock ($Id: //depot/dev/client3/rdock/2013.1/src/exe/rbdock.cxx#4 $)

>  <Rbt.Library>
libRbt.so (2013.1, Build901 2013/11/27)

>  <Rbt.Parameter_File>
/export/apps/rDock/src/rDock_2013.1_src/data/scripts/dock_solv.prm

>  <Rbt.Receptor>
prm/pocket_docking_4.prm

>  <SCORE>
-20.8947

>  <SCORE.INTER>
-19.5624

>  <SCORE.INTER.CONST>
1

>  <SCORE.INTER.POLAR>
-2.80695

>  <SCORE.INTER.ROT>
5

>  <SCORE.INTER.SOLV>
11.2246

>  <SCORE.INTER.VDW>
-14.36

>  <SCORE.INTER.norm>
-1.6302

>  <SCORE.INTRA>
-1.33224

>  <SCORE.INTRA.DIHEDRAL>
2.8065

>  <SCORE.INTRA.DIHEDRAL.0>
7.7847

>  <SCORE.INTRA.POLAR>
0

>  <SCORE.INTRA.POLAR.0>
0

>  <SCORE.INTRA.REPUL>
0

>  <SCORE.INTRA.REPUL.0>
0

>  <SCORE.INTRA.SOLV>
-1.48984

>  <SCORE.INTRA.SOLV.lig_0>
-57.5465

>  <SCORE.INTRA.VDW>
-1.99056

>  <SCORE.INTRA.VDW.0>
1.39369

>  <SCORE.INTRA.norm>
-0.11102

>  <SCORE.RESTR>
0

>  <SCORE.RESTR.CAVITY>
0

>  <SCORE.RESTR.norm>
0

>  <SCORE.SYSTEM>
0

>  <SCORE.SYSTEM.CONST>
0

>  <SCORE.SYSTEM.DIHEDRAL>
0

>  <SCORE.SYSTEM.SOLV>
0

>  <SCORE.SYSTEM.norm>
0

>  <SCORE.heavy>
12

>  <SCORE.norm>
-1.74122

>  <SYMMETRIC_BONDS>
4 1 2

>  <RMSD>
1.563

$$$$
1kod cryst
 OpenBabel11021811393D
libRbt.so/2013.1/901 2013/11/27
 12 11  0  0  0  0  0  0  0  0999 V2000
    2.9673    5.3381   36.2812 C   0  0  0  0  0  0  0  0  0  0  0  0
    4.0619    5.3026   35.7391 O   0  5  0  0  0  0  0  0  0  0  0  0
    2.7390    4.8641   37.3870 O   0  0  0  0  0  0  0  0  0  0  0  0
    1.8104    6.0224   35.5264 C   0  0  1  0  0  0  0  0  0  0  0  0
    2.1780    7.4426   35.2397 N   0  3  0  0  0  0  0  0  0  0  0  0
    1.5131    5.2884   34.1979 C   0  0  0  0  0  0  0  0  0  0  0  0
    0.5719    4.1141   34.4330 C   0  0  0  0  0  0  0  0  0  0  0  0
    0.3811    3.3349   33.1336 C   0  0  0  0  0  0  0  0  0  0  0  0
    1.4643    2.3093   33.0175 N   0  0  0  0  0  0  0  0  0  0  0  0
    1.1902    1.0372   33.1299 C   0  0  0  0  0  0  0  0  0  0  0  0
    1.8000    0.3319   33.9307 O   0  0  0  0  0  0  0  0  0  0  0  0
    0.2729    0.5036   32.3769 N   0  0  0  0  0  0  0  0  0  0  0  0
  1  2  1  0  0  0  0
  1  3  2  0  0  0  0
  4  1  1  6  0  0  0
  4  6  1  0  0  0  0
  4  5  1  0  0  0  0
  6  7  1  0  0  0  0
  7  8  1  0  0  0  0
  8  9  1  0  0  0  0
  9 10  1  0  0  0  0
 10 12  1  0  0  0  0
 10 11  2  0  0  0  0
M  CHG  2   2  -1   5   1
M  END
>  <CHROM.1>
-58.73735488,84.84000048,68.04463035,-175.39871948,87.34295110,-69.56060179
1.76755308,3.83559221,34.53558579,-1.12489679,0.84292638,-2.95882591

>  <Name>
1kod cryst

>  <RI>
0

>  <Rbt.Current_Directory>
/home/itssahil/PROJECTS/Mol_Feturizer/New_Systems/rnas/1kod

>  <Rbt.Executable>
rbdock ($Id: //depot/dev/client3/rdock/2013.1/src/exe/rbdock.cxx#4 $)

>  <Rbt.Library>
libRbt.so (2013.1, Build901 2013/11/27)

>  <Rbt.Parameter_File>
/export/apps/rDock/src/rDock_2013.1_src/data/scripts/dock_solv.prm

>  <Rbt.Receptor>
prm/pocket_docking_3.prm

>  <SCORE>
-21.6088

>  <SCORE.INTER>
-16.9782

>  <SCORE.INTER.CONST>
1

>  <SCORE.INTER.POLAR>
-2.54132

>  <SCORE.INTER.ROT>
5

>  <SCORE.INTER.SOLV>
11.4385

>  <SCORE.INTER.VDW>
-13.5939

>  <SCORE.INTER.norm>
-1.41485

>  <SCORE.INTRA>
-4.63054

>  <SCORE.INTRA.DIHEDRAL>
-1.04116

>  <SCORE.INTRA.DIHEDRAL.0>
7.7847

>  <SCORE.INTRA.POLAR>
0

>  <SCORE.INTRA.POLAR.0>
0

>  <SCORE.INTRA.REPUL>
0

>  <SCORE.INTRA.REPUL.0>
0

>  <SCORE.INTRA.SOLV>
-2.7443

>  <SCORE.INTRA.SOLV.lig_0>
-57.5465

>  <SCORE.INTRA.VDW>
-2.73781

>  <SCORE.INTRA.VDW.0>
1.39369

>  <SCORE.INTRA.norm>
-0.385878

>  <SCORE.RESTR>
0

>  <SCORE.RESTR.CAVITY>
0

>  <SCORE.RESTR.norm>
0

>  <SCORE.SYSTEM>
0

>  <SCORE.SYSTEM.CONST>
0

>  <SCORE.SYSTEM.DIHEDRAL>
0

>  <SCORE.SYSTEM.SOLV>
0

>  <SCORE.SYSTEM.norm>
0

>  <SCORE.heavy>
12

>  <SCORE.norm>
-1.80073

>  <SYMMETRIC_BONDS>
4 1 2

>  <RMSD>
1.584

$$$$
1kod cryst
 OpenBabel11021811393D
libRbt.so/2013.1/901 2013/11/27
 12 11  0  0  0  0  0  0  0  0999 V2000
    1.5586    5.9993   35.9774 C   0  0  0  0  0  0  0  0  0  0  0  0
    0.8992    5.2075   36.6343 O   0  5  0  0  0  0  0  0  0  0  0  0
    1.9438    7.0817   36.4015 O   0  0  0  0  0  0  0  0  0  0  0  0
    1.9268    5.6076   34.5326 C   0  0  1  0  0  0  0  0  0  0  0  0
    2.2426    6.8417   33.7505 N   0  3  0  0  0  0  0  0  0  0  0  0
    3.1490    4.6600   34.5166 C   0  0  0  0  0  0  0  0  0  0  0  0
    2.8843    3.4586   33.6185 C   0  0  0  0  0  0  0  0  0  0  0  0
    2.1099    2.3939   34.3922 C   0  0  0  0  0  0  0  0  0  0  0  0
    2.1814    1.1002   33.6441 N   0  0  0  0  0  0  0  0  0  0  0  0
    1.0901    0.4781   33.2859 C   0  0  0  0  0  0  0  0  0  0  0  0
    0.9134   -0.7013   33.5831 O   0  0  0  0  0  0  0  0  0  0  0  0
    0.1846    1.1058   32.5937 N   0  0  0  0  0  0  0  0  0  0  0  0
  1  2  1  0  0  0  0
  1  3  2  0  0  0  0
  4  1  1  1  0  0  0
  4  6  1  0  0  0  0
  4  5  1  0  0  0  0
  6  7  1  0  0  0  0
  7  8  1  0  0  0  0
  8  9  1  0  0  0  0
  9 10  1  0  0  0  0
 10 12  1  0  0  0  0
 10 11  2  0  0  0  0
M  CHG  2   2  -1   5   1
M  END
>  <CHROM.1>
158.39430602,132.10392750,-175.74359680,-83.59118420,-164.74946497,56.32200113
1.74406462,3.62665743,34.39939391,1.34820104,0.97064561,0.53235240

>  <Name>
1kod cryst

>  <RI>
0

>  <Rbt.Current_Directory>
/home/itssahil/PROJECTS/Mol_Feturizer/New_Systems/rnas/1kod

>  <Rbt.Executable>
rbdock ($Id: //depot/dev/client3/rdock/2013.1/src/exe/rbdock.cxx#4 $)

>  <Rbt.Library>
libRbt.so (2013.1, Build901 2013/11/27)

>  <Rbt.Parameter_File>
/export/apps/rDock/src/rDock_2013.1_src/data/scripts/dock_solv.prm

>  <Rbt.Receptor>
prm/pocket_docking_2.prm

>  <SCORE>
-25.688

>  <SCORE.INTER>
-23.5249

>  <SCORE.INTER.CONST>
1

>  <SCORE.INTER.POLAR>
-4.36341

>  <SCORE.INTER.ROT>
5

>  <SCORE.INTER.SOLV>
16.3138

>  <SCORE.INTER.VDW>
-13.5099

>  <SCORE.INTER.norm>
-1.96041

>  <SCORE.INTRA>
-2.82979

>  <SCORE.INTRA.DIHEDRAL>
2.02335

>  <SCORE.INTRA.DIHEDRAL.0>
7.7847

>  <SCORE.INTRA.POLAR>
0

>  <SCORE.INTRA.POLAR.0>
0

>  <SCORE.INTRA.REPUL>
0

>  <SCORE.INTRA.REPUL.0>
0

>  <SCORE.INTRA.SOLV>
-2.2935

>  <SCORE.INTRA.SOLV.lig_0>
-57.5465

>  <SCORE.INTRA.VDW>
-2.69471

>  <SCORE.INTRA.VDW.0>
1.39369

>  <SCORE.INTRA.norm>
-0.235816

>  <SCORE.RESTR>
0.666703

>  <SCORE.RESTR.CAVITY>
0.666703

>  <SCORE.RESTR.norm>
0.0555586

>  <SCORE.SYSTEM>
0

>  <SCORE.SYSTEM.CONST>
0

>  <SCORE.SYSTEM.DIHEDRAL>
0

>  <SCORE.SYSTEM.SOLV>
0

>  <SCORE.SYSTEM.norm>
0

>  <SCORE.heavy>
12

>  <SCORE.norm>
-2.14067

>  <SYMMETRIC_BONDS>
4 1 2

>  <RMSD>
1.585

$$$$
1kod cryst
 OpenBabel11021811393D
libRbt.so/2013.1/901 2013/11/27
 12 11  0  0  0  0  0  0  0  0999 V2000
    1.3927    5.6412   37.0926 C   0  0  0  0  0  0  0  0  0  0  0  0
    2.0506    4.6716   37.4397 O   0  5  0  0  0  0  0  0  0  0  0  0
    0.9953    6.5060   37.8632 O   0  0  0  0  0  0  0  0  0  0  0  0
    1.0477    5.7809   35.5967 C   0  0  1  0  0  0  0  0  0  0  0  0
    2.0453    6.6803   34.9406 N   0  3  0  0  0  0  0  0  0  0  0  0
    1.0617    4.4001   34.9001 C   0  0  0  0  0  0  0  0  0  0  0  0
    0.5988    4.5241   33.4543 C   0  0  0  0  0  0  0  0  0  0  0  0
    0.1176    3.1669   32.9461 C   0  0  0  0  0  0  0  0  0  0  0  0
    1.2749    2.2189   32.9193 N   0  0  0  0  0  0  0  0  0  0  0  0
    1.0826    0.9316   33.0279 C   0  0  0  0  0  0  0  0  0  0  0  0
    1.6814    0.2769   33.8784 O   0  0  0  0  0  0  0  0  0  0  0  0
    0.2605    0.3293   32.2189 N   0  0  0  0  0  0  0  0  0  0  0  0
  1  2  1  0  0  0  0
  1  3  2  0  0  0  0
  4  1  1  1  0  0  0
  4  6  1  0  0  0  0
  4  5  1  0  0  0  0
  6  7  1  0  0  0  0
  7  8  1  0  0  0  0
  8  9  1  0  0  0  0
  9 10  1  0  0  0  0
 10 12  1  0  0  0  0
 10 11  2  0  0  0  0
M  CHG  2   2  -1   5   1
M  END
>  <CHROM.1>
-96.04347321,174.89414377,-177.56478653,-158.83960407,-64.70385474,-26.39945549
1.15920735,3.76700032,34.69306064,-1.16572502,1.32335675,-2.87749032

>  <Name>
1kod cryst

>  <RI>
0

>  <Rbt.Current_Directory>
/home/itssahil/PROJECTS/Mol_Feturizer/New_Systems/rnas/1kod

>  <Rbt.Executable>
rbdock ($Id: //depot/dev/client3/rdock/2013.1/src/exe/rbdock.cxx#4 $)

>  <Rbt.Library>
libRbt.so (2013.1, Build901 2013/11/27)

>  <Rbt.Parameter_File>
/export/apps/rDock/src/rDock_2013.1_src/data/scripts/dock_solv.prm

>  <Rbt.Receptor>
prm/pocket_docking_2.prm

>  <SCORE>
-15.6266

>  <SCORE.INTER>
-11.4823

>  <SCORE.INTER.CONST>
1

>  <SCORE.INTER.POLAR>
-1.58178

>  <SCORE.INTER.ROT>
5

>  <SCORE.INTER.SOLV>
13.1647

>  <SCORE.INTER.VDW>
-13.7038

>  <SCORE.INTER.norm>
-0.956858

>  <SCORE.INTRA>
-4.41515

>  <SCORE.INTRA.DIHEDRAL>
-3.65845

>  <SCORE.INTRA.DIHEDRAL.0>
7.7847

>  <SCORE.INTRA.POLAR>
0

>  <SCORE.INTRA.POLAR.0>
0

>  <SCORE.INTRA.REPUL>
0

>  <SCORE.INTRA.REPUL.0>
0

>  <SCORE.INTRA.SOLV>
-2.29652

>  <SCORE.INTRA.SOLV.lig_0>
-57.5465

>  <SCORE.INTRA.VDW>
-1.43767

>  <SCORE.INTRA.VDW.0>
1.39369

>  <SCORE.INTRA.norm>
-0.36793

>  <SCORE.RESTR>
0.2709

>  <SCORE.RESTR.CAVITY>
0.2709

>  <SCORE.RESTR.norm>
0.022575

>  <SCORE.SYSTEM>
0

>  <SCORE.SYSTEM.CONST>
0

>  <SCORE.SYSTEM.DIHEDRAL>
0

>  <SCORE.SYSTEM.SOLV>
0

>  <SCORE.SYSTEM.norm>
0

>  <SCORE.heavy>
12

>  <SCORE.norm>
-1.30221

>  <SYMMETRIC_BONDS>
4 1 2

>  <RMSD>
1.595

$$$$
1kod cryst
 OpenBabel11021811393D
libRbt.so/2013.1/901 2013/11/27
 12 11  0  0  0  0  0  0  0  0999 V2000
    1.7983    4.8441   37.5704 C   0  0  0  0  0  0  0  0  0  0  0  0
    2.2596    3.8368   38.0861 O   0  5  0  0  0  0  0  0  0  0  0  0
    2.3772    5.9229   37.5455 O   0  0  0  0  0  0  0  0  0  0  0  0
    0.4079    4.7455   36.9121 C   0  0  1  0  0  0  0  0  0  0  0  0
   -0.4135    5.9291   37.3110 N   0  3  0  0  0  0  0  0  0  0  0  0
    0.5334    4.7006   35.3712 C   0  0  0  0  0  0  0  0  0  0  0  0
    1.2660    3.4405   34.9293 C   0  0  0  0  0  0  0  0  0  0  0  0
    1.2421    3.3344   33.4062 C   0  0  0  0  0  0  0  0  0  0  0  0
    1.8379    2.0234   33.0001 N   0  0  0  0  0  0  0  0  0  0  0  0
    1.1385    0.9230   33.0769 C   0  0  0  0  0  0  0  0  0  0  0  0
    1.5699   -0.0540   33.6852 O   0  0  0  0  0  0  0  0  0  0  0  0
   -0.0214    0.8509   32.4916 N   0  0  0  0  0  0  0  0  0  0  0  0
  1  2  1  0  0  0  0
  1  3  2  0  0  0  0
  4  1  1  1  0  0  0
  4  6  1  0  0  0  0
  4  5  1  0  0  0  0
  6  7  1  0  0  0  0
  7  8  1  0  0  0  0
  8  9  1  0  0  0  0
  9 10  1  0  0  0  0
 10 12  1  0  0  0  0
 10 11  2  0  0  0  0
M  CHG  2   2  -1   5   1
M  END
>  <CHROM.1>
135.27938521,64.14414462,-51.72864875,173.64601318,-174.11465413,-101.15905358
1.15449983,3.38494920,35.29801099,-1.53593505,0.69326210,-2.35799429

>  <Name>
1kod cryst

>  <RI>
0

>  <Rbt.Current_Directory>
/home/itssahil/PROJECTS/Mol_Feturizer/New_Systems/rnas/1kod

>  <Rbt.Executable>
rbdock ($Id: //depot/dev/client3/rdock/2013.1/src/exe/rbdock.cxx#4 $)

>  <Rbt.Library>
libRbt.so (2013.1, Build901 2013/11/27)

>  <Rbt.Parameter_File>
/export/apps/rDock/src/rDock_2013.1_src/data/scripts/dock_solv.prm

>  <Rbt.Receptor>
prm/pocket_docking_3.prm

>  <SCORE>
-20.8959

>  <SCORE.INTER>
-14.7101

>  <SCORE.INTER.CONST>
1

>  <SCORE.INTER.POLAR>
-2.21118

>  <SCORE.INTER.ROT>
5

>  <SCORE.INTER.SOLV>
14.0292

>  <SCORE.INTER.VDW>
-14.0459

>  <SCORE.INTER.norm>
-1.22585

>  <SCORE.INTRA>
-6.18574

>  <SCORE.INTRA.DIHEDRAL>
-5.01858

>  <SCORE.INTRA.DIHEDRAL.0>
7.7847

>  <SCORE.INTRA.POLAR>
0

>  <SCORE.INTRA.POLAR.0>
0

>  <SCORE.INTRA.REPUL>
0

>  <SCORE.INTRA.REPUL.0>
0

>  <SCORE.INTRA.SOLV>
-2.51608

>  <SCORE.INTRA.SOLV.lig_0>
-57.5465

>  <SCORE.INTRA.VDW>
-2.41841

>  <SCORE.INTRA.VDW.0>
1.39369

>  <SCORE.INTRA.norm>
-0.515478

>  <SCORE.RESTR>
0

>  <SCORE.RESTR.CAVITY>
0

>  <SCORE.RESTR.norm>
0

>  <SCORE.SYSTEM>
0

>  <SCORE.SYSTEM.CONST>
0

>  <SCORE.SYSTEM.DIHEDRAL>
0

>  <SCORE.SYSTEM.SOLV>
0

>  <SCORE.SYSTEM.norm>
0

>  <SCORE.heavy>
12

>  <SCORE.norm>
-1.74132

>  <SYMMETRIC_BONDS>
4 1 2

>  <RMSD>
1.596

$$$$
1kod cryst
 OpenBabel11021811393D
libRbt.so/2013.1/901 2013/11/27
 12 11  0  0  0  0  0  0  0  0999 V2000
    2.0289    5.7746   35.7067 C   0  0  0  0  0  0  0  0  0  0  0  0
    1.9356    4.8204   36.4645 O   0  5  0  0  0  0  0  0  0  0  0  0
    1.9572    6.9420   36.0694 O   0  0  0  0  0  0  0  0  0  0  0  0
    2.2525    5.4872   34.2088 C   0  0  1  0  0  0  0  0  0  0  0  0
    2.4519    6.7779   33.4816 N   0  3  0  0  0  0  0  0  0  0  0  0
    3.4904    4.5830   34.0034 C   0  0  0  0  0  0  0  0  0  0  0  0
    3.1941    3.1580   34.4524 C   0  0  0  0  0  0  0  0  0  0  0  0
    1.9075    2.6644   33.7944 C   0  0  0  0  0  0  0  0  0  0  0  0
    2.0673    1.2208   33.4351 N   0  0  0  0  0  0  0  0  0  0  0  0
    1.0245    0.4404   33.3382 C   0  0  0  0  0  0  0  0  0  0  0  0
    0.9703   -0.6158   33.9645 O   0  0  0  0  0  0  0  0  0  0  0  0
    0.0367    0.7735   32.5594 N   0  0  0  0  0  0  0  0  0  0  0  0
  1  2  1  0  0  0  0
  1  3  2  0  0  0  0
  4  1  1  1  0  0  0
  4  6  1  0  0  0  0
  4  5  1  0  0  0  0
  6  7  1  0  0  0  0
  7  8  1  0  0  0  0
  8  9  1  0  0  0  0
  9 10  1  0  0  0  0
 10 12  1  0  0  0  0
 10 11  2  0  0  0  0
M  CHG  2   2  -1   5   1
M  END
>  <CHROM.1>
-175.31062827,72.38276410,-96.21424969,51.54040700,141.97310253,-25.90764870
1.92934651,3.52359605,34.28018579,0.74239119,1.28082790,1.09987668

>  <Name>
1kod cryst

>  <RI>
0

>  <Rbt.Current_Directory>
/home/itssahil/PROJECTS/Mol_Feturizer/New_Systems/rnas/1kod

>  <Rbt.Executable>
rbdock ($Id: //depot/dev/client3/rdock/2013.1/src/exe/rbdock.cxx#4 $)

>  <Rbt.Library>
libRbt.so (2013.1, Build901 2013/11/27)

>  <Rbt.Parameter_File>
/export/apps/rDock/src/rDock_2013.1_src/data/scripts/dock_solv.prm

>  <Rbt.Receptor>
prm/pocket_docking_2.prm

>  <SCORE>
-20.9288

>  <SCORE.INTER>
-21.4109

>  <SCORE.INTER.CONST>
1

>  <SCORE.INTER.POLAR>
-4.37698

>  <SCORE.INTER.ROT>
5

>  <SCORE.INTER.SOLV>
17.2749

>  <SCORE.INTER.VDW>
-12.3756

>  <SCORE.INTER.norm>
-1.78424

>  <SCORE.INTRA>
-0.180423

>  <SCORE.INTRA.DIHEDRAL>
1.53138

>  <SCORE.INTRA.DIHEDRAL.0>
7.7847

>  <SCORE.INTRA.POLAR>
0

>  <SCORE.INTRA.POLAR.0>
0

>  <SCORE.INTRA.REPUL>
0

>  <SCORE.INTRA.REPUL.0>
0

>  <SCORE.INTRA.SOLV>
-1.89644

>  <SCORE.INTRA.SOLV.lig_0>
-57.5465

>  <SCORE.INTRA.VDW>
0.00210427

>  <SCORE.INTRA.VDW.0>
1.39369

>  <SCORE.INTRA.norm>
-0.0150352

>  <SCORE.RESTR>
0.662535

>  <SCORE.RESTR.CAVITY>
0.662535

>  <SCORE.RESTR.norm>
0.0552113

>  <SCORE.SYSTEM>
0

>  <SCORE.SYSTEM.CONST>
0

>  <SCORE.SYSTEM.DIHEDRAL>
0

>  <SCORE.SYSTEM.SOLV>
0

>  <SCORE.SYSTEM.norm>
0

>  <SCORE.heavy>
12

>  <SCORE.norm>
-1.74407

>  <SYMMETRIC_BONDS>
4 1 2

>  <RMSD>
1.597

$$$$
1kod cryst
 OpenBabel11021811393D
libRbt.so/2013.1/901 2013/11/27
 12 11  0  0  0  0  0  0  0  0999 V2000
    1.7202    6.0216   35.6579 C   0  0  0  0  0  0  0  0  0  0  0  0
    0.9498    5.2338   36.1863 O   0  5  0  0  0  0  0  0  0  0  0  0
    2.2878    6.9257   36.2580 O   0  0  0  0  0  0  0  0  0  0  0  0
    1.9923    5.8626   34.1490 C   0  0  1  0  0  0  0  0  0  0  0  0
    2.1845    7.2123   33.5358 N   0  3  0  0  0  0  0  0  0  0  0  0
    3.2547    5.0021   33.9077 C   0  0  0  0  0  0  0  0  0  0  0  0
    3.0397    3.5813   34.4127 C   0  0  0  0  0  0  0  0  0  0  0  0
    2.1962    2.7971   33.4100 C   0  0  0  0  0  0  0  0  0  0  0  0
    2.3616    1.3337   33.6741 N   0  0  0  0  0  0  0  0  0  0  0  0
    1.3189    0.5521   33.7626 C   0  0  0  0  0  0  0  0  0  0  0  0
    1.1580   -0.1713   34.7431 O   0  0  0  0  0  0  0  0  0  0  0  0
    0.4466    0.5246   32.7975 N   0  0  0  0  0  0  0  0  0  0  0  0
  1  2  1  0  0  0  0
  1  3  2  0  0  0  0
  4  1  1  1  0  0  0
  4  6  1  0  0  0  0
  4  5  1  0  0  0  0
  6  7  1  0  0  0  0
  7  8  1  0  0  0  0
  8  9  1  0  0  0  0
  9 10  1  0  0  0  0
 10 12  1  0  0  0  0
 10 11  2  0  0  0  0
M  CHG  2   2  -1   5   1
M  END
>  <CHROM.1>
145.29381463,64.42410581,-167.38268177,78.05888536,161.77974945,-48.62279530
1.89545402,3.75872192,34.37155399,1.25166587,1.13526746,0.50759814

>  <Name>
1kod cryst

>  <RI>
0

>  <Rbt.Current_Directory>
/home/itssahil/PROJECTS/Mol_Feturizer/New_Systems/rnas/1kod

>  <Rbt.Executable>
rbdock ($Id: //depot/dev/client3/rdock/2013.1/src/exe/rbdock.cxx#4 $)

>  <Rbt.Library>
libRbt.so (2013.1, Build901 2013/11/27)

>  <Rbt.Parameter_File>
/export/apps/rDock/src/rDock_2013.1_src/data/scripts/dock_solv.prm

>  <Rbt.Receptor>
prm/pocket_docking_7.prm

>  <SCORE>
-25.6484

>  <SCORE.INTER>
-21.0419

>  <SCORE.INTER.CONST>
1

>  <SCORE.INTER.POLAR>
-3.89599

>  <SCORE.INTER.ROT>
5

>  <SCORE.INTER.SOLV>
17.2038

>  <SCORE.INTER.VDW>
-13.7093

>  <SCORE.INTER.norm>
-1.7535

>  <SCORE.INTRA>
-4.60645

>  <SCORE.INTRA.DIHEDRAL>
-2.66458

>  <SCORE.INTRA.DIHEDRAL.0>
7.7847

>  <SCORE.INTRA.POLAR>
0

>  <SCORE.INTRA.POLAR.0>
0

>  <SCORE.INTRA.REPUL>
0

>  <SCORE.INTRA.REPUL.0>
0

>  <SCORE.INTRA.SOLV>
-2.24468

>  <SCORE.INTRA.SOLV.lig_0>
-57.5465

>  <SCORE.INTRA.VDW>
-2.15182

>  <SCORE.INTRA.VDW.0>
1.39369

>  <SCORE.INTRA.norm>
-0.383871

>  <SCORE.RESTR>
0

>  <SCORE.RESTR.CAVITY>
0

>  <SCORE.RESTR.norm>
0

>  <SCORE.SYSTEM>
0

>  <SCORE.SYSTEM.CONST>
0

>  <SCORE.SYSTEM.DIHEDRAL>
0

>  <SCORE.SYSTEM.SOLV>
0

>  <SCORE.SYSTEM.norm>
0

>  <SCORE.heavy>
12

>  <SCORE.norm>
-2.13737

>  <SYMMETRIC_BONDS>
4 1 2

>  <RMSD>
1.601

$$$$
1kod cryst
 OpenBabel11021811393D
libRbt.so/2013.1/901 2013/11/27
 12 11  0  0  0  0  0  0  0  0999 V2000
    0.3839    4.9859   36.4275 C   0  0  0  0  0  0  0  0  0  0  0  0
    0.0117    5.9691   37.0506 O   0  5  0  0  0  0  0  0  0  0  0  0
    0.0526    3.8395   36.7027 O   0  0  0  0  0  0  0  0  0  0  0  0
    1.3225    5.2066   35.2248 C   0  0  1  0  0  0  0  0  0  0  0  0
    1.7656    6.6340   35.1982 N   0  3  0  0  0  0  0  0  0  0  0  0
    2.5603    4.2840   35.3195 C   0  0  0  0  0  0  0  0  0  0  0  0
    2.2240    2.8831   34.8253 C   0  0  0  0  0  0  0  0  0  0  0  0
    1.8391    2.9331   33.3484 C   0  0  0  0  0  0  0  0  0  0  0  0
    1.9290    1.5541   32.7750 N   0  0  0  0  0  0  0  0  0  0  0  0
    0.9271    0.7230   32.8817 C   0  0  0  0  0  0  0  0  0  0  0  0
    1.0900   -0.3994   33.3552 O   0  0  0  0  0  0  0  0  0  0  0  0
   -0.2550    1.0777   32.4692 N   0  0  0  0  0  0  0  0  0  0  0  0
  1  2  1  0  0  0  0
  1  3  2  0  0  0  0
  4  1  1  1  0  0  0
  4  6  1  0  0  0  0
  4  5  1  0  0  0  0
  6  7  1  0  0  0  0
  7  8  1  0  0  0  0
  8  9  1  0  0  0  0
  9 10  1  0  0  0  0
 10 12  1  0  0  0  0
 10 11  2  0  0  0  0
M  CHG  2   2  -1   5   1
M  END
>  <CHROM.1>
8.87597454,80.95185144,-176.75482589,62.98565698,162.52062103,-95.09406974
1.13882758,3.32846062,34.63369282,1.58940468,0.63523430,0.57502847

>  <Name>
1kod cryst

>  <RI>
0

>  <Rbt.Current_Directory>
/home/itssahil/PROJECTS/Mol_Feturizer/New_Systems/rnas/1kod

>  <Rbt.Executable>
rbdock ($Id: //depot/dev/client3/rdock/2013.1/src/exe/rbdock.cxx#4 $)

>  <Rbt.Library>
libRbt.so (2013.1, Build901 2013/11/27)

>  <Rbt.Parameter_File>
/export/apps/rDock/src/rDock_2013.1_src/data/scripts/dock_solv.prm

>  <Rbt.Receptor>
prm/pocket_docking_2.prm

>  <SCORE>
-22.4297

>  <SCORE.INTER>
-18.4432

>  <SCORE.INTER.CONST>
1

>  <SCORE.INTER.POLAR>
-3.51243

>  <SCORE.INTER.ROT>
5

>  <SCORE.INTER.SOLV>
16.626

>  <SCORE.INTER.VDW>
-13.0627

>  <SCORE.INTER.norm>
-1.53694

>  <SCORE.INTRA>
-3.9865

>  <SCORE.INTRA.DIHEDRAL>
-3.00878

>  <SCORE.INTRA.DIHEDRAL.0>
7.7847

>  <SCORE.INTRA.POLAR>
0

>  <SCORE.INTRA.POLAR.0>
0

>  <SCORE.INTRA.REPUL>
0

>  <SCORE.INTRA.REPUL.0>
0

>  <SCORE.INTRA.SOLV>
-1.83842

>  <SCORE.INTRA.SOLV.lig_0>
-57.5465

>  <SCORE.INTRA.VDW>
-1.5629

>  <SCORE.INTRA.VDW.0>
1.39369

>  <SCORE.INTRA.norm>
-0.332209

>  <SCORE.RESTR>
0

>  <SCORE.RESTR.CAVITY>
0

>  <SCORE.RESTR.norm>
0

>  <SCORE.SYSTEM>
0

>  <SCORE.SYSTEM.CONST>
0

>  <SCORE.SYSTEM.DIHEDRAL>
0

>  <SCORE.SYSTEM.SOLV>
0

>  <SCORE.SYSTEM.norm>
0

>  <SCORE.heavy>
12

>  <SCORE.norm>
-1.86915

>  <SYMMETRIC_BONDS>
4 1 2

>  <RMSD>
1.602

$$$$
1kod cryst
 OpenBabel11021811393D
libRbt.so/2013.1/901 2013/11/27
 12 11  0  0  0  0  0  0  0  0999 V2000
    1.7543    6.1396   35.8985 C   0  0  0  0  0  0  0  0  0  0  0  0
    1.1711    5.3095   36.5799 O   0  5  0  0  0  0  0  0  0  0  0  0
    2.2636    7.1567   36.3520 O   0  0  0  0  0  0  0  0  0  0  0  0
    1.8544    5.8861   34.3813 C   0  0  1  0  0  0  0  0  0  0  0  0
    2.2409    7.1549   33.6920 N   0  3  0  0  0  0  0  0  0  0  0  0
    2.9054    4.7930   34.0768 C   0  0  0  0  0  0  0  0  0  0  0  0
    2.2489    3.5863   33.4188 C   0  0  0  0  0  0  0  0  0  0  0  0
    2.1641    2.4340   34.4172 C   0  0  0  0  0  0  0  0  0  0  0  0
    2.2076    1.1384   33.6700 N   0  0  0  0  0  0  0  0  0  0  0  0
    1.1033    0.5284   33.3320 C   0  0  0  0  0  0  0  0  0  0  0  0
    0.9183   -0.6485   33.6342 O   0  0  0  0  0  0  0  0  0  0  0  0
    0.1930    1.1654   32.6547 N   0  0  0  0  0  0  0  0  0  0  0  0
  1  2  1  0  0  0  0
  1  3  2  0  0  0  0
  4  1  1  1  0  0  0
  4  6  1  0  0  0  0
  4  5  1  0  0  0  0
  6  7  1  0  0  0  0
  7  8  1  0  0  0  0
  8  9  1  0  0  0  0
  9 10  1  0  0  0  0
 10 12  1  0  0  0  0
 10 11  2  0  0  0  0
M  CHG  2   2  -1   5   1
M  END
>  <CHROM.1>
164.13495748,117.39904887,178.87902465,-106.31858787,-151.10567230,85.43365471
1.74448163,3.74478104,34.33434706,1.05716127,1.27534556,0.80818081

>  <Name>
1kod cryst

>  <RI>
0

>  <Rbt.Current_Directory>
/home/itssahil/PROJECTS/Mol_Feturizer/New_Systems/rnas/1kod

>  <Rbt.Executable>
rbdock ($Id: //depot/dev/client3/rdock/2013.1/src/exe/rbdock.cxx#4 $)

>  <Rbt.Library>
libRbt.so (2013.1, Build901 2013/11/27)

>  <Rbt.Parameter_File>
/export/apps/rDock/src/rDock_2013.1_src/data/scripts/dock_solv.prm

>  <Rbt.Receptor>
prm/pocket_docking_7.prm

>  <SCORE>
-25.0754

>  <SCORE.INTER>
-25.1812

>  <SCORE.INTER.CONST>
1

>  <SCORE.INTER.POLAR>
-4.53056

>  <SCORE.INTER.ROT>
5

>  <SCORE.INTER.SOLV>
16.309

>  <SCORE.INTER.VDW>
-14.0552

>  <SCORE.INTER.norm>
-2.09843

>  <SCORE.INTRA>
0.105764

>  <SCORE.INTRA.DIHEDRAL>
7.5354

>  <SCORE.INTRA.DIHEDRAL.0>
7.7847

>  <SCORE.INTRA.POLAR>
0

>  <SCORE.INTRA.POLAR.0>
0

>  <SCORE.INTRA.REPUL>
0

>  <SCORE.INTRA.REPUL.0>
0

>  <SCORE.INTRA.SOLV>
-2.1481

>  <SCORE.INTRA.SOLV.lig_0>
-57.5465

>  <SCORE.INTRA.VDW>
-2.58788

>  <SCORE.INTRA.VDW.0>
1.39369

>  <SCORE.INTRA.norm>
0.0088137

>  <SCORE.RESTR>
0

>  <SCORE.RESTR.CAVITY>
0

>  <SCORE.RESTR.norm>
0

>  <SCORE.SYSTEM>
0

>  <SCORE.SYSTEM.CONST>
0

>  <SCORE.SYSTEM.DIHEDRAL>
0

>  <SCORE.SYSTEM.SOLV>
0

>  <SCORE.SYSTEM.norm>
0

>  <SCORE.heavy>
12

>  <SCORE.norm>
-2.08962

>  <SYMMETRIC_BONDS>
4 1 2

>  <RMSD>
1.604

$$$$
1kod cryst
 OpenBabel11021811393D
libRbt.so/2013.1/901 2013/11/27
 12 11  0  0  0  0  0  0  0  0999 V2000
    1.6443    5.9713   35.6087 C   0  0  0  0  0  0  0  0  0  0  0  0
    0.8112    5.2045   36.0683 O   0  5  0  0  0  0  0  0  0  0  0  0
    2.2061    6.8396   36.2646 O   0  0  0  0  0  0  0  0  0  0  0  0
    2.0079    5.8321   34.1171 C   0  0  1  0  0  0  0  0  0  0  0  0
    2.1907    7.1918   33.5233 N   0  3  0  0  0  0  0  0  0  0  0  0
    3.3097    5.0149   33.9447 C   0  0  0  0  0  0  0  0  0  0  0  0
    3.1116    3.5832   34.4252 C   0  0  0  0  0  0  0  0  0  0  0  0
    2.2417    2.8183   33.4301 C   0  0  0  0  0  0  0  0  0  0  0  0
    2.4065    1.3503   33.6674 N   0  0  0  0  0  0  0  0  0  0  0  0
    1.3623    0.5742   33.7835 C   0  0  0  0  0  0  0  0  0  0  0  0
    1.2326   -0.1619   34.7591 O   0  0  0  0  0  0  0  0  0  0  0  0
    0.4549    0.5661   32.8510 N   0  0  0  0  0  0  0  0  0  0  0  0
  1  2  1  0  0  0  0
  1  3  2  0  0  0  0
  4  1  1  1  0  0  0
  4  6  1  0  0  0  0
  4  5  1  0  0  0  0
  6  7  1  0  0  0  0
  7  8  1  0  0  0  0
  8  9  1  0  0  0  0
  9 10  1  0  0  0  0
 10 12  1  0  0  0  0
 10 11  2  0  0  0  0
M  CHG  2   2  -1   5   1
M  END
>  <CHROM.1>
141.05277594,64.58073223,-161.90159860,72.71883056,162.34976945,-49.43410052
1.89989323,3.75101065,34.36718837,1.32266563,1.05566755,0.42371448

>  <Name>
1kod cryst

>  <RI>
0

>  <Rbt.Current_Directory>
/home/itssahil/PROJECTS/Mol_Feturizer/New_Systems/rnas/1kod

>  <Rbt.Executable>
rbdock ($Id: //depot/dev/client3/rdock/2013.1/src/exe/rbdock.cxx#4 $)

>  <Rbt.Library>
libRbt.so (2013.1, Build901 2013/11/27)

>  <Rbt.Parameter_File>
/export/apps/rDock/src/rDock_2013.1_src/data/scripts/dock_solv.prm

>  <Rbt.Receptor>
prm/pocket_docking_4.prm

>  <SCORE>
-25.7057

>  <SCORE.INTER>
-21.0744

>  <SCORE.INTER.CONST>
1

>  <SCORE.INTER.POLAR>
-3.89568

>  <SCORE.INTER.ROT>
5

>  <SCORE.INTER.SOLV>
17.3837

>  <SCORE.INTER.VDW>
-13.7919

>  <SCORE.INTER.norm>
-1.7562

>  <SCORE.INTRA>
-4.63126

>  <SCORE.INTRA.DIHEDRAL>
-2.97143

>  <SCORE.INTRA.DIHEDRAL.0>
7.7847

>  <SCORE.INTRA.POLAR>
0

>  <SCORE.INTRA.POLAR.0>
0

>  <SCORE.INTRA.REPUL>
0

>  <SCORE.INTRA.REPUL.0>
0

>  <SCORE.INTRA.SOLV>
-2.25152

>  <SCORE.INTRA.SOLV.lig_0>
-57.5465

>  <SCORE.INTRA.VDW>
-2.01978

>  <SCORE.INTRA.VDW.0>
1.39369

>  <SCORE.INTRA.norm>
-0.385938

>  <SCORE.RESTR>
0

>  <SCORE.RESTR.CAVITY>
0

>  <SCORE.RESTR.norm>
0

>  <SCORE.SYSTEM>
0

>  <SCORE.SYSTEM.CONST>
0

>  <SCORE.SYSTEM.DIHEDRAL>
0

>  <SCORE.SYSTEM.SOLV>
0

>  <SCORE.SYSTEM.norm>
0

>  <SCORE.heavy>
12

>  <SCORE.norm>
-2.14214

>  <SYMMETRIC_BONDS>
4 1 2

>  <RMSD>
1.609

$$$$
1kod cryst
 OpenBabel11021811393D
libRbt.so/2013.1/901 2013/11/27
 12 11  0  0  0  0  0  0  0  0999 V2000
    1.0437    3.5421   37.3628 C   0  0  0  0  0  0  0  0  0  0  0  0
    1.2737    4.4271   38.1735 O   0  5  0  0  0  0  0  0  0  0  0  0
    1.2792    2.3571   37.5628 O   0  0  0  0  0  0  0  0  0  0  0  0
    0.4187    3.9451   36.0126 C   0  0  1  0  0  0  0  0  0  0  0  0
   -0.4676    5.1323   36.2122 N   0  3  0  0  0  0  0  0  0  0  0  0
    1.5184    4.2902   34.9812 C   0  0  0  0  0  0  0  0  0  0  0  0
    0.9109    4.5036   33.6008 C   0  0  0  0  0  0  0  0  0  0  0  0
    0.3376    3.1884   33.0780 C   0  0  0  0  0  0  0  0  0  0  0  0
    1.4375    2.1777   32.9926 N   0  0  0  0  0  0  0  0  0  0  0  0
    1.1746    0.9007   33.0711 C   0  0  0  0  0  0  0  0  0  0  0  0
    1.7573    0.1887   33.8861 O   0  0  0  0  0  0  0  0  0  0  0  0
    0.2981    0.3696   32.2693 N   0  0  0  0  0  0  0  0  0  0  0  0
  1  2  1  0  0  0  0
  1  3  2  0  0  0  0
  4  1  1  1  0  0  0
  4  6  1  0  0  0  0
  4  5  1  0  0  0  0
  6  7  1  0  0  0  0
  7  8  1  0  0  0  0
  8  9  1  0  0  0  0
  9 10  1  0  0  0  0
 10 12  1  0  0  0  0
 10 11  2  0  0  0  0
M  CHG  2   2  -1   5   1
M  END
>  <CHROM.1>
-32.00827881,172.32502567,66.26171678,-66.55882882,-59.86986560,-26.02356357
0.90154562,2.91732033,34.95229409,-1.71048375,1.28205869,-2.07076140

>  <Name>
1kod cryst

>  <RI>
0

>  <Rbt.Current_Directory>
/home/itssahil/PROJECTS/Mol_Feturizer/New_Systems/rnas/1kod

>  <Rbt.Executable>
rbdock ($Id: //depot/dev/client3/rdock/2013.1/src/exe/rbdock.cxx#4 $)

>  <Rbt.Library>
libRbt.so (2013.1, Build901 2013/11/27)

>  <Rbt.Parameter_File>
/export/apps/rDock/src/rDock_2013.1_src/data/scripts/dock_solv.prm

>  <Rbt.Receptor>
prm/pocket_docking_3.prm

>  <SCORE>
-19.2426

>  <SCORE.INTER>
-14.0758

>  <SCORE.INTER.CONST>
1

>  <SCORE.INTER.POLAR>
-1.60434

>  <SCORE.INTER.ROT>
5

>  <SCORE.INTER.SOLV>
16.3981

>  <SCORE.INTER.VDW>
-16.4355

>  <SCORE.INTER.norm>
-1.17299

>  <SCORE.INTRA>
-5.16679

>  <SCORE.INTRA.DIHEDRAL>
-5.05904

>  <SCORE.INTRA.DIHEDRAL.0>
7.7847

>  <SCORE.INTRA.POLAR>
0

>  <SCORE.INTRA.POLAR.0>
0

>  <SCORE.INTRA.REPUL>
0

>  <SCORE.INTRA.REPUL.0>
0

>  <SCORE.INTRA.SOLV>
-1.37872

>  <SCORE.INTRA.SOLV.lig_0>
-57.5465

>  <SCORE.INTRA.VDW>
-1.9479

>  <SCORE.INTRA.VDW.0>
1.39369

>  <SCORE.INTRA.norm>
-0.430566

>  <SCORE.RESTR>
0

>  <SCORE.RESTR.CAVITY>
0

>  <SCORE.RESTR.norm>
0

>  <SCORE.SYSTEM>
0

>  <SCORE.SYSTEM.CONST>
0

>  <SCORE.SYSTEM.DIHEDRAL>
0

>  <SCORE.SYSTEM.SOLV>
0

>  <SCORE.SYSTEM.norm>
0

>  <SCORE.heavy>
12

>  <SCORE.norm>
-1.60355

>  <SYMMETRIC_BONDS>
4 1 2

>  <RMSD>
1.623

$$$$
1kod cryst
 OpenBabel11021811393D
libRbt.so/2013.1/901 2013/11/27
 12 11  0  0  0  0  0  0  0  0999 V2000
    2.6444    5.7199   35.9642 C   0  0  0  0  0  0  0  0  0  0  0  0
    1.8384    5.8974   36.8654 O   0  5  0  0  0  0  0  0  0  0  0  0
    3.7333    5.1817   36.1204 O   0  0  0  0  0  0  0  0  0  0  0  0
    2.2630    6.2005   34.5500 C   0  0  1  0  0  0  0  0  0  0  0  0
    3.3859    7.0072   33.9818 N   0  3  0  0  0  0  0  0  0  0  0  0
    1.9715    4.9975   33.6227 C   0  0  0  0  0  0  0  0  0  0  0  0
    0.7327    4.2461   34.0925 C   0  0  0  0  0  0  0  0  0  0  0  0
    0.3469    3.1875   33.0618 C   0  0  0  0  0  0  0  0  0  0  0  0
    1.4435    2.1737   32.9715 N   0  0  0  0  0  0  0  0  0  0  0  0
    1.1797    0.8982   33.0695 C   0  0  0  0  0  0  0  0  0  0  0  0
    1.7738    0.1950   33.8838 O   0  0  0  0  0  0  0  0  0  0  0  0
    0.2897    0.3593   32.2880 N   0  0  0  0  0  0  0  0  0  0  0  0
  1  2  1  0  0  0  0
  1  3  2  0  0  0  0
  4  1  1  1  0  0  0
  4  6  1  0  0  0  0
  4  5  1  0  0  0  0
  6  7  1  0  0  0  0
  7  8  1  0  0  0  0
  8  9  1  0  0  0  0
  9 10  1  0  0  0  0
 10 12  1  0  0  0  0
 10 11  2  0  0  0  0
M  CHG  2   2  -1   5   1
M  END
>  <CHROM.1>
130.57927338,65.70289405,-70.92987574,172.08634224,63.93000159,-51.05623539
1.83074983,3.84228959,34.20557812,-0.73183682,1.14632259,2.78526830

>  <Name>
1kod cryst

>  <RI>
0

>  <Rbt.Current_Directory>
/home/itssahil/PROJECTS/Mol_Feturizer/New_Systems/rnas/1kod

>  <Rbt.Executable>
rbdock ($Id: //depot/dev/client3/rdock/2013.1/src/exe/rbdock.cxx#4 $)

>  <Rbt.Library>
libRbt.so (2013.1, Build901 2013/11/27)

>  <Rbt.Parameter_File>
/export/apps/rDock/src/rDock_2013.1_src/data/scripts/dock_solv.prm

>  <Rbt.Receptor>
prm/pocket_docking_7.prm

>  <SCORE>
-25.8698

>  <SCORE.INTER>
-20.061

>  <SCORE.INTER.CONST>
1

>  <SCORE.INTER.POLAR>
-2.78586

>  <SCORE.INTER.ROT>
5

>  <SCORE.INTER.SOLV>
12.6292

>  <SCORE.INTER.VDW>
-15.2309

>  <SCORE.INTER.norm>
-1.67175

>  <SCORE.INTRA>
-5.80883

>  <SCORE.INTRA.DIHEDRAL>
-4.82464

>  <SCORE.INTRA.DIHEDRAL.0>
7.7847

>  <SCORE.INTRA.POLAR>
0

>  <SCORE.INTRA.POLAR.0>
0

>  <SCORE.INTRA.REPUL>
0

>  <SCORE.INTRA.REPUL.0>
0

>  <SCORE.INTRA.SOLV>
-2.43965

>  <SCORE.INTRA.SOLV.lig_0>
-57.5465

>  <SCORE.INTRA.VDW>
-2.17669

>  <SCORE.INTRA.VDW.0>
1.39369

>  <SCORE.INTRA.norm>
-0.484069

>  <SCORE.RESTR>
0

>  <SCORE.RESTR.CAVITY>
0

>  <SCORE.RESTR.norm>
0

>  <SCORE.SYSTEM>
0

>  <SCORE.SYSTEM.CONST>
0

>  <SCORE.SYSTEM.DIHEDRAL>
0

>  <SCORE.SYSTEM.SOLV>
0

>  <SCORE.SYSTEM.norm>
0

>  <SCORE.heavy>
12

>  <SCORE.norm>
-2.15582

>  <SYMMETRIC_BONDS>
4 1 2

>  <RMSD>
1.623

$$$$
1kod cryst
 OpenBabel11021811393D
libRbt.so/2013.1/901 2013/11/27
 12 11  0  0  0  0  0  0  0  0999 V2000
    2.0459    6.0191   35.7178 C   0  0  0  0  0  0  0  0  0  0  0  0
    1.4300    5.1692   36.3437 O   0  5  0  0  0  0  0  0  0  0  0  0
    2.5841    6.9897   36.2355 O   0  0  0  0  0  0  0  0  0  0  0  0
    2.1511    5.8543   34.1888 C   0  0  1  0  0  0  0  0  0  0  0  0
    2.2387    7.2032   33.5505 N   0  3  0  0  0  0  0  0  0  0  0  0
    3.4001    5.0234   33.8120 C   0  0  0  0  0  0  0  0  0  0  0  0
    3.2612    3.5907   34.3098 C   0  0  0  0  0  0  0  0  0  0  0  0
    2.2401    2.8422   33.4560 C   0  0  0  0  0  0  0  0  0  0  0  0
    2.4021    1.3719   33.6805 N   0  0  0  0  0  0  0  0  0  0  0  0
    1.3565    0.5970   33.7913 C   0  0  0  0  0  0  0  0  0  0  0  0
    1.2265   -0.1473   34.7607 O   0  0  0  0  0  0  0  0  0  0  0  0
    0.4478    0.5987   32.8600 N   0  0  0  0  0  0  0  0  0  0  0  0
  1  2  1  0  0  0  0
  1  3  2  0  0  0  0
  4  1  1  1  0  0  0
  4  6  1  0  0  0  0
  4  5  1  0  0  0  0
  6  7  1  0  0  0  0
  7  8  1  0  0  0  0
  8  9  1  0  0  0  0
  9 10  1  0  0  0  0
 10 12  1  0  0  0  0
 10 11  2  0  0  0  0
M  CHG  2   2  -1   5   1
M  END
>  <CHROM.1>
149.81758201,66.10824606,-51.44179429,72.82661543,163.57427937,-41.14518472
2.05051492,3.77845716,34.38979865,1.03862058,1.23606312,0.72453091

>  <Name>
1kod cryst

>  <RI>
0

>  <Rbt.Current_Directory>
/home/itssahil/PROJECTS/Mol_Feturizer/New_Systems/rnas/1kod

>  <Rbt.Executable>
rbdock ($Id: //depot/dev/client3/rdock/2013.1/src/exe/rbdock.cxx#4 $)

>  <Rbt.Library>
libRbt.so (2013.1, Build901 2013/11/27)

>  <Rbt.Parameter_File>
/export/apps/rDock/src/rDock_2013.1_src/data/scripts/dock_solv.prm

>  <Rbt.Receptor>
prm/pocket_docking_3.prm

>  <SCORE>
-25.1467

>  <SCORE.INTER>
-20.2092

>  <SCORE.INTER.CONST>
1

>  <SCORE.INTER.POLAR>
-3.84815

>  <SCORE.INTER.ROT>
5

>  <SCORE.INTER.SOLV>
16.3116

>  <SCORE.INTER.VDW>
-13.0162

>  <SCORE.INTER.norm>
-1.6841

>  <SCORE.INTRA>
-4.93752

>  <SCORE.INTRA.DIHEDRAL>
-3.61254

>  <SCORE.INTRA.DIHEDRAL.0>
7.7847

>  <SCORE.INTRA.POLAR>
0

>  <SCORE.INTRA.POLAR.0>
0

>  <SCORE.INTRA.REPUL>
0

>  <SCORE.INTRA.REPUL.0>
0

>  <SCORE.INTRA.SOLV>
-2.17621

>  <SCORE.INTRA.SOLV.lig_0>
-57.5465

>  <SCORE.INTRA.VDW>
-2.04314

>  <SCORE.INTRA.VDW.0>
1.39369

>  <SCORE.INTRA.norm>
-0.41146

>  <SCORE.RESTR>
0

>  <SCORE.RESTR.CAVITY>
0

>  <SCORE.RESTR.norm>
0

>  <SCORE.SYSTEM>
0

>  <SCORE.SYSTEM.CONST>
0

>  <SCORE.SYSTEM.DIHEDRAL>
0

>  <SCORE.SYSTEM.SOLV>
0

>  <SCORE.SYSTEM.norm>
0

>  <SCORE.heavy>
12

>  <SCORE.norm>
-2.09556

>  <SYMMETRIC_BONDS>
4 1 2

>  <RMSD>
1.628

$$$$
1kod cryst
 OpenBabel11021811393D
libRbt.so/2013.1/901 2013/11/27
 12 11  0  0  0  0  0  0  0  0999 V2000
    2.0133    5.6203   35.4765 C   0  0  0  0  0  0  0  0  0  0  0  0
    1.0023    5.4017   36.1271 O   0  5  0  0  0  0  0  0  0  0  0  0
    3.0161    6.1536   35.9345 O   0  0  0  0  0  0  0  0  0  0  0  0
    2.0234    5.1962   33.9945 C   0  0  1  0  0  0  0  0  0  0  0  0
    2.2565    6.3985   33.1372 N   0  3  0  0  0  0  0  0  0  0  0  0
    3.1335    4.1520   33.7311 C   0  0  0  0  0  0  0  0  0  0  0  0
    3.0792    3.0383   34.7687 C   0  0  0  0  0  0  0  0  0  0  0  0
    1.7742    2.2586   34.6241 C   0  0  0  0  0  0  0  0  0  0  0  0
    2.0087    1.0776   33.7360 N   0  0  0  0  0  0  0  0  0  0  0  0
    1.0025    0.4180   33.2273 C   0  0  0  0  0  0  0  0  0  0  0  0
    0.9138   -0.7995   33.3694 O   0  0  0  0  0  0  0  0  0  0  0  0
    0.0901    1.0509   32.5490 N   0  0  0  0  0  0  0  0  0  0  0  0
  1  2  1  0  0  0  0
  1  3  2  0  0  0  0
  4  1  1  1  0  0  0
  4  6  1  0  0  0  0
  4  5  1  0  0  0  0
  6  7  1  0  0  0  0
  7  8  1  0  0  0  0
  8  9  1  0  0  0  0
  9 10  1  0  0  0  0
 10 12  1  0  0  0  0
 10 11  2  0  0  0  0
M  CHG  2   2  -1   5   1
M  END
>  <CHROM.1>
120.50490092,48.61252541,65.88861166,65.01091068,93.65735833,14.65655646
1.84908598,3.35528146,34.20438999,-0.52033458,1.31421149,2.40046893

>  <Name>
1kod cryst

>  <RI>
0

>  <Rbt.Current_Directory>
/home/itssahil/PROJECTS/Mol_Feturizer/New_Systems/rnas/1kod

>  <Rbt.Executable>
rbdock ($Id: //depot/dev/client3/rdock/2013.1/src/exe/rbdock.cxx#4 $)

>  <Rbt.Library>
libRbt.so (2013.1, Build901 2013/11/27)

>  <Rbt.Parameter_File>
/export/apps/rDock/src/rDock_2013.1_src/data/scripts/dock_solv.prm

>  <Rbt.Receptor>
prm/pocket_docking_3.prm

>  <SCORE>
-26.2981

>  <SCORE.INTER>
-23.2054

>  <SCORE.INTER.CONST>
1

>  <SCORE.INTER.POLAR>
-4.59035

>  <SCORE.INTER.ROT>
5

>  <SCORE.INTER.SOLV>
19.1569

>  <SCORE.INTER.VDW>
-13.4881

>  <SCORE.INTER.norm>
-1.93379

>  <SCORE.INTRA>
-3.09271

>  <SCORE.INTRA.DIHEDRAL>
-1.62076

>  <SCORE.INTRA.DIHEDRAL.0>
7.7847

>  <SCORE.INTRA.POLAR>
0

>  <SCORE.INTRA.POLAR.0>
0

>  <SCORE.INTRA.REPUL>
0

>  <SCORE.INTRA.REPUL.0>
0

>  <SCORE.INTRA.SOLV>
-1.62977

>  <SCORE.INTRA.SOLV.lig_0>
-57.5465

>  <SCORE.INTRA.VDW>
-1.46745

>  <SCORE.INTRA.VDW.0>
1.39369

>  <SCORE.INTRA.norm>
-0.257726

>  <SCORE.RESTR>
0

>  <SCORE.RESTR.CAVITY>
0

>  <SCORE.RESTR.norm>
0

>  <SCORE.SYSTEM>
0

>  <SCORE.SYSTEM.CONST>
0

>  <SCORE.SYSTEM.DIHEDRAL>
0

>  <SCORE.SYSTEM.SOLV>
0

>  <SCORE.SYSTEM.norm>
0

>  <SCORE.heavy>
12

>  <SCORE.norm>
-2.19151

>  <SYMMETRIC_BONDS>
4 1 2

>  <RMSD>
1.633

$$$$
1kod cryst
 OpenBabel11021811393D
libRbt.so/2013.1/901 2013/11/27
 12 11  0  0  0  0  0  0  0  0999 V2000
    1.6171    5.6481   37.2317 C   0  0  0  0  0  0  0  0  0  0  0  0
    2.3454    4.8492   37.8014 O   0  5  0  0  0  0  0  0  0  0  0  0
    1.8061    6.8581   37.2257 O   0  0  0  0  0  0  0  0  0  0  0  0
    0.3922    5.0961   36.4759 C   0  0  1  0  0  0  0  0  0  0  0  0
   -0.6482    6.1645   36.3723 N   0  3  0  0  0  0  0  0  0  0  0  0
    0.7904    4.6249   35.0576 C   0  0  0  0  0  0  0  0  0  0  0  0
    1.5258    3.2926   35.1219 C   0  0  0  0  0  0  0  0  0  0  0  0
    1.8841    2.8300   33.7114 C   0  0  0  0  0  0  0  0  0  0  0  0
    2.1988    1.3676   33.7441 N   0  0  0  0  0  0  0  0  0  0  0  0
    1.2412    0.4803   33.7013 C   0  0  0  0  0  0  0  0  0  0  0  0
    1.1626   -0.4003   34.5550 O   0  0  0  0  0  0  0  0  0  0  0  0
    0.3679    0.5164   32.7373 N   0  0  0  0  0  0  0  0  0  0  0  0
  1  2  1  0  0  0  0
  1  3  2  0  0  0  0
  4  1  1  6  0  0  0
  4  6  1  0  0  0  0
  4  5  1  0  0  0  0
  6  7  1  0  0  0  0
  7  8  1  0  0  0  0
  8  9  1  0  0  0  0
  9 10  1  0  0  0  0
 10 12  1  0  0  0  0
 10 11  2  0  0  0  0
M  CHG  2   2  -1   5   1
M  END
>  <CHROM.1>
155.60026412,75.72604546,-54.27471888,178.80865317,-162.21492751,-97.18088870
1.20340760,3.45829847,35.31776473,-1.59180545,0.59148043,-2.56896194

>  <Name>
1kod cryst

>  <RI>
0

>  <Rbt.Current_Directory>
/home/itssahil/PROJECTS/Mol_Feturizer/New_Systems/rnas/1kod

>  <Rbt.Executable>
rbdock ($Id: //depot/dev/client3/rdock/2013.1/src/exe/rbdock.cxx#4 $)

>  <Rbt.Library>
libRbt.so (2013.1, Build901 2013/11/27)

>  <Rbt.Parameter_File>
/export/apps/rDock/src/rDock_2013.1_src/data/scripts/dock_solv.prm

>  <Rbt.Receptor>
prm/pocket_docking_5.prm

>  <SCORE>
-23.2288

>  <SCORE.INTER>
-17.7381

>  <SCORE.INTER.CONST>
1

>  <SCORE.INTER.POLAR>
-3.13423

>  <SCORE.INTER.ROT>
5

>  <SCORE.INTER.SOLV>
15.1173

>  <SCORE.INTER.VDW>
-13.3504

>  <SCORE.INTER.norm>
-1.47817

>  <SCORE.INTRA>
-5.49071

>  <SCORE.INTRA.DIHEDRAL>
-3.52435

>  <SCORE.INTRA.DIHEDRAL.0>
7.7847

>  <SCORE.INTRA.POLAR>
0

>  <SCORE.INTRA.POLAR.0>
0

>  <SCORE.INTRA.REPUL>
0

>  <SCORE.INTRA.REPUL.0>
0

>  <SCORE.INTRA.SOLV>
-2.38564

>  <SCORE.INTRA.SOLV.lig_0>
-57.5465

>  <SCORE.INTRA.VDW>
-2.53571

>  <SCORE.INTRA.VDW.0>
1.39369

>  <SCORE.INTRA.norm>
-0.457559

>  <SCORE.RESTR>
0

>  <SCORE.RESTR.CAVITY>
0

>  <SCORE.RESTR.norm>
0

>  <SCORE.SYSTEM>
0

>  <SCORE.SYSTEM.CONST>
0

>  <SCORE.SYSTEM.DIHEDRAL>
0

>  <SCORE.SYSTEM.SOLV>
0

>  <SCORE.SYSTEM.norm>
0

>  <SCORE.heavy>
12

>  <SCORE.norm>
-1.93573

>  <SYMMETRIC_BONDS>
4 1 2

>  <RMSD>
1.637

$$$$
1kod cryst
 OpenBabel11021811393D
libRbt.so/2013.1/901 2013/11/27
 12 11  0  0  0  0  0  0  0  0999 V2000
    1.3653    6.0041   35.6199 C   0  0  0  0  0  0  0  0  0  0  0  0
    0.3972    5.4142   36.0763 O   0  5  0  0  0  0  0  0  0  0  0  0
    2.1323    6.6789   36.2952 O   0  0  0  0  0  0  0  0  0  0  0  0
    1.6338    5.8871   34.1065 C   0  0  1  0  0  0  0  0  0  0  0  0
    2.1353    7.1972   33.5901 N   0  3  0  0  0  0  0  0  0  0  0  0
    2.6804    4.7850   33.8195 C   0  0  0  0  0  0  0  0  0  0  0  0
    2.1053    3.4075   34.1225 C   0  0  0  0  0  0  0  0  0  0  0  0
    2.8645    2.3439   33.3324 C   0  0  0  0  0  0  0  0  0  0  0  0
    2.5973    1.0030   33.9400 N   0  0  0  0  0  0  0  0  0  0  0  0
    1.3794    0.5367   34.0125 C   0  0  0  0  0  0  0  0  0  0  0  0
    0.9173    0.1517   35.0843 O   0  0  0  0  0  0  0  0  0  0  0  0
    0.6494    0.4629   32.9379 N   0  0  0  0  0  0  0  0  0  0  0  0
  1  2  1  0  0  0  0
  1  3  2  0  0  0  0
  4  1  1  1  0  0  0
  4  6  1  0  0  0  0
  4  5  1  0  0  0  0
  6  7  1  0  0  0  0
  7  8  1  0  0  0  0
  8  9  1  0  0  0  0
  9 10  1  0  0  0  0
 10 12  1  0  0  0  0
 10 11  2  0  0  0  0
M  CHG  2   2  -1   5   1
M  END
>  <CHROM.1>
142.64969390,68.76179387,-54.26400958,156.79893498,162.49969823,-120.19755414
1.72958608,3.67739759,34.41313469,1.47605664,1.00106527,0.26932765

>  <Name>
1kod cryst

>  <RI>
0

>  <Rbt.Current_Directory>
/home/itssahil/PROJECTS/Mol_Feturizer/New_Systems/rnas/1kod

>  <Rbt.Executable>
rbdock ($Id: //depot/dev/client3/rdock/2013.1/src/exe/rbdock.cxx#4 $)

>  <Rbt.Library>
libRbt.so (2013.1, Build901 2013/11/27)

>  <Rbt.Parameter_File>
/export/apps/rDock/src/rDock_2013.1_src/data/scripts/dock_solv.prm

>  <Rbt.Receptor>
prm/pocket_docking_2.prm

>  <SCORE>
-20.7657

>  <SCORE.INTER>
-17.1771

>  <SCORE.INTER.CONST>
1

>  <SCORE.INTER.POLAR>
-3.54112

>  <SCORE.INTER.ROT>
5

>  <SCORE.INTER.SOLV>
17.576

>  <SCORE.INTER.VDW>
-12.4396

>  <SCORE.INTER.norm>
-1.43142

>  <SCORE.INTRA>
-4.46023

>  <SCORE.INTRA.DIHEDRAL>
-2.12475

>  <SCORE.INTRA.DIHEDRAL.0>
7.7847

>  <SCORE.INTRA.POLAR>
0

>  <SCORE.INTRA.POLAR.0>
0

>  <SCORE.INTRA.REPUL>
0

>  <SCORE.INTRA.REPUL.0>
0

>  <SCORE.INTRA.SOLV>
-2.41448

>  <SCORE.INTRA.SOLV.lig_0>
-57.5465

>  <SCORE.INTRA.VDW>
-2.19061

>  <SCORE.INTRA.VDW.0>
1.39369

>  <SCORE.INTRA.norm>
-0.371686

>  <SCORE.RESTR>
0.871614

>  <SCORE.RESTR.CAVITY>
0.871614

>  <SCORE.RESTR.norm>
0.0726345

>  <SCORE.SYSTEM>
0

>  <SCORE.SYSTEM.CONST>
0

>  <SCORE.SYSTEM.DIHEDRAL>
0

>  <SCORE.SYSTEM.SOLV>
0

>  <SCORE.SYSTEM.norm>
0

>  <SCORE.heavy>
12

>  <SCORE.norm>
-1.73047

>  <SYMMETRIC_BONDS>
4 1 2

>  <RMSD>
1.638

$$$$
1kod cryst
 OpenBabel11021811393D
libRbt.so/2013.1/901 2013/11/27
 12 11  0  0  0  0  0  0  0  0999 V2000
    1.9440    6.1461   35.7181 C   0  0  0  0  0  0  0  0  0  0  0  0
    0.9412    5.7542   36.2962 O   0  5  0  0  0  0  0  0  0  0  0  0
    2.8933    6.6747   36.2831 O   0  0  0  0  0  0  0  0  0  0  0  0
    2.0149    5.9598   34.1896 C   0  0  1  0  0  0  0  0  0  0  0  0
    2.2247    7.2889   33.5382 N   0  3  0  0  0  0  0  0  0  0  0  0
    3.1734    5.0093   33.8067 C   0  0  0  0  0  0  0  0  0  0  0  0
    2.8703    3.5861   34.2566 C   0  0  0  0  0  0  0  0  0  0  0  0
    1.6056    3.0823   33.5647 C   0  0  0  0  0  0  0  0  0  0  0  0
    1.8885    1.7513   32.9425 N   0  0  0  0  0  0  0  0  0  0  0  0
    0.9773    0.8155   32.9310 C   0  0  0  0  0  0  0  0  0  0  0  0
    1.2239   -0.3063   33.3682 O   0  0  0  0  0  0  0  0  0  0  0  0
   -0.2008    1.0652   32.4382 N   0  0  0  0  0  0  0  0  0  0  0  0
  1  2  1  0  0  0  0
  1  3  2  0  0  0  0
  4  1  1  1  0  0  0
  4  6  1  0  0  0  0
  4  5  1  0  0  0  0
  6  7  1  0  0  0  0
  7  8  1  0  0  0  0
  8  9  1  0  0  0  0
  9 10  1  0  0  0  0
 10 12  1  0  0  0  0
 10 11  2  0  0  0  0
M  CHG  2   2  -1   5   1
M  END
>  <CHROM.1>
122.77786161,68.99238359,-54.52645322,61.14785967,129.04890556,-36.72154490
1.78496739,3.92364960,34.10386022,1.04222654,1.14640228,0.85809164

>  <Name>
1kod cryst

>  <RI>
0

>  <Rbt.Current_Directory>
/home/itssahil/PROJECTS/Mol_Feturizer/New_Systems/rnas/1kod

>  <Rbt.Executable>
rbdock ($Id: //depot/dev/client3/rdock/2013.1/src/exe/rbdock.cxx#4 $)

>  <Rbt.Library>
libRbt.so (2013.1, Build901 2013/11/27)

>  <Rbt.Parameter_File>
/export/apps/rDock/src/rDock_2013.1_src/data/scripts/dock_solv.prm

>  <Rbt.Receptor>
prm/pocket_docking_5.prm

>  <SCORE>
-26.6292

>  <SCORE.INTER>
-23.7089

>  <SCORE.INTER.CONST>
1

>  <SCORE.INTER.POLAR>
-4.04927

>  <SCORE.INTER.ROT>
5

>  <SCORE.INTER.SOLV>
18.105

>  <SCORE.INTER.VDW>
-15.2767

>  <SCORE.INTER.norm>
-1.97574

>  <SCORE.INTRA>
-2.92039

>  <SCORE.INTRA.DIHEDRAL>
0.0310015

>  <SCORE.INTRA.DIHEDRAL.0>
7.7847

>  <SCORE.INTRA.POLAR>
0

>  <SCORE.INTRA.POLAR.0>
0

>  <SCORE.INTRA.REPUL>
0

>  <SCORE.INTRA.REPUL.0>
0

>  <SCORE.INTRA.SOLV>
-2.28755

>  <SCORE.INTRA.SOLV.lig_0>
-57.5465

>  <SCORE.INTRA.VDW>
-1.79212

>  <SCORE.INTRA.VDW.0>
1.39369

>  <SCORE.INTRA.norm>
-0.243366

>  <SCORE.RESTR>
0

>  <SCORE.RESTR.CAVITY>
0

>  <SCORE.RESTR.norm>
0

>  <SCORE.SYSTEM>
0

>  <SCORE.SYSTEM.CONST>
0

>  <SCORE.SYSTEM.DIHEDRAL>
0

>  <SCORE.SYSTEM.SOLV>
0

>  <SCORE.SYSTEM.norm>
0

>  <SCORE.heavy>
12

>  <SCORE.norm>
-2.2191

>  <SYMMETRIC_BONDS>
4 1 2

>  <RMSD>
1.650

$$$$
1kod cryst
 OpenBabel11021811393D
libRbt.so/2013.1/901 2013/11/27
 12 11  0  0  0  0  0  0  0  0999 V2000
    2.1151    5.9854   36.7742 C   0  0  0  0  0  0  0  0  0  0  0  0
    2.3386    7.0777   36.2740 O   0  5  0  0  0  0  0  0  0  0  0  0
    2.8618    5.4375   37.5754 O   0  0  0  0  0  0  0  0  0  0  0  0
    0.8156    5.2601   36.3723 C   0  0  1  0  0  0  0  0  0  0  0  0
   -0.3238    6.2268   36.4137 N   0  3  0  0  0  0  0  0  0  0  0  0
    0.9371    4.6668   34.9491 C   0  0  0  0  0  0  0  0  0  0  0  0
    1.7152    3.3578   34.9784 C   0  0  0  0  0  0  0  0  0  0  0  0
    1.8626    2.8108   33.5604 C   0  0  0  0  0  0  0  0  0  0  0  0
    2.1834    1.3512   33.6326 N   0  0  0  0  0  0  0  0  0  0  0  0
    1.2290    0.4595   33.6248 C   0  0  0  0  0  0  0  0  0  0  0  0
    1.1621   -0.3961   34.5046 O   0  0  0  0  0  0  0  0  0  0  0  0
    0.3465    0.4641   32.6686 N   0  0  0  0  0  0  0  0  0  0  0  0
  1  2  1  0  0  0  0
  1  3  2  0  0  0  0
  4  1  1  6  0  0  0
  4  6  1  0  0  0  0
  4  5  1  0  0  0  0
  6  7  1  0  0  0  0
  7  8  1  0  0  0  0
  8  9  1  0  0  0  0
  9 10  1  0  0  0  0
 10 12  1  0  0  0  0
 10 11  2  0  0  0  0
M  CHG  2   2  -1   5   1
M  END
>  <CHROM.1>
-45.71228142,79.73653434,55.91971265,-178.21611317,-160.50742595,-89.03238772
1.41696951,3.57273522,35.11780281,-1.50199003,0.39123900,-2.66425918

>  <Name>
1kod cryst

>  <RI>
0

>  <Rbt.Current_Directory>
/home/itssahil/PROJECTS/Mol_Feturizer/New_Systems/rnas/1kod

>  <Rbt.Executable>
rbdock ($Id: //depot/dev/client3/rdock/2013.1/src/exe/rbdock.cxx#4 $)

>  <Rbt.Library>
libRbt.so (2013.1, Build901 2013/11/27)

>  <Rbt.Parameter_File>
/export/apps/rDock/src/rDock_2013.1_src/data/scripts/dock_solv.prm

>  <Rbt.Receptor>
prm/pocket_docking_8.prm

>  <SCORE>
-22.8916

>  <SCORE.INTER>
-17.3865

>  <SCORE.INTER.CONST>
1

>  <SCORE.INTER.POLAR>
-3.14668

>  <SCORE.INTER.ROT>
5

>  <SCORE.INTER.SOLV>
14.1108

>  <SCORE.INTER.VDW>
-12.7389

>  <SCORE.INTER.norm>
-1.44887

>  <SCORE.INTRA>
-5.50517

>  <SCORE.INTRA.DIHEDRAL>
-2.91862

>  <SCORE.INTRA.DIHEDRAL.0>
7.7847

>  <SCORE.INTRA.POLAR>
0

>  <SCORE.INTRA.POLAR.0>
0

>  <SCORE.INTRA.REPUL>
0

>  <SCORE.INTRA.REPUL.0>
0

>  <SCORE.INTRA.SOLV>
-2.66393

>  <SCORE.INTRA.SOLV.lig_0>
-57.5465

>  <SCORE.INTRA.VDW>
-2.71389

>  <SCORE.INTRA.VDW.0>
1.39369

>  <SCORE.INTRA.norm>
-0.458764

>  <SCORE.RESTR>
0

>  <SCORE.RESTR.CAVITY>
0

>  <SCORE.RESTR.norm>
0

>  <SCORE.SYSTEM>
0

>  <SCORE.SYSTEM.CONST>
0

>  <SCORE.SYSTEM.DIHEDRAL>
0

>  <SCORE.SYSTEM.SOLV>
0

>  <SCORE.SYSTEM.norm>
0

>  <SCORE.heavy>
12

>  <SCORE.norm>
-1.90763

>  <SYMMETRIC_BONDS>
4 1 2

>  <RMSD>
1.682

$$$$
1kod cryst
 OpenBabel11021811393D
libRbt.so/2013.1/901 2013/11/27
 12 11  0  0  0  0  0  0  0  0999 V2000
    2.2291    6.0975   35.8173 C   0  0  0  0  0  0  0  0  0  0  0  0
    1.3041    6.7146   36.3242 O   0  5  0  0  0  0  0  0  0  0  0  0
    3.1791    5.6532   36.4495 O   0  0  0  0  0  0  0  0  0  0  0  0
    2.1923    5.8652   34.2938 C   0  0  1  0  0  0  0  0  0  0  0  0
    2.2464    7.1833   33.5908 N   0  3  0  0  0  0  0  0  0  0  0  0
    3.3867    4.9915   33.8440 C   0  0  0  0  0  0  0  0  0  0  0  0
    3.2238    3.5621   34.3443 C   0  0  0  0  0  0  0  0  0  0  0  0
    2.2018    2.8247   33.4821 C   0  0  0  0  0  0  0  0  0  0  0  0
    2.3716    1.3512   33.6789 N   0  0  0  0  0  0  0  0  0  0  0  0
    1.3301    0.5683   33.7709 C   0  0  0  0  0  0  0  0  0  0  0  0
    1.2010   -0.1952   34.7253 O   0  0  0  0  0  0  0  0  0  0  0  0
    0.4248    0.5827   32.8363 N   0  0  0  0  0  0  0  0  0  0  0  0
  1  2  1  0  0  0  0
  1  3  2  0  0  0  0
  4  1  1  1  0  0  0
  4  6  1  0  0  0  0
  4  5  1  0  0  0  0
  6  7  1  0  0  0  0
  7  8  1  0  0  0  0
  8  9  1  0  0  0  0
  9 10  1  0  0  0  0
 10 12  1  0  0  0  0
 10 11  2  0  0  0  0
M  CHG  2   2  -1   5   1
M  END
>  <CHROM.1>
63.06823104,69.58551685,-177.83438309,76.91732827,161.77003773,-40.63548826
2.09361775,3.78591940,34.42629328,0.56494509,1.37089393,1.24174133

>  <Name>
1kod cryst

>  <RI>
0

>  <Rbt.Current_Directory>
/home/itssahil/PROJECTS/Mol_Feturizer/New_Systems/rnas/1kod

>  <Rbt.Executable>
rbdock ($Id: //depot/dev/client3/rdock/2013.1/src/exe/rbdock.cxx#4 $)

>  <Rbt.Library>
libRbt.so (2013.1, Build901 2013/11/27)

>  <Rbt.Parameter_File>
/export/apps/rDock/src/rDock_2013.1_src/data/scripts/dock_solv.prm

>  <Rbt.Receptor>
prm/pocket_docking_3.prm

>  <SCORE>
-23.3031

>  <SCORE.INTER>
-19.5364

>  <SCORE.INTER.CONST>
1

>  <SCORE.INTER.POLAR>
-3.77247

>  <SCORE.INTER.ROT>
5

>  <SCORE.INTER.SOLV>
16.765

>  <SCORE.INTER.VDW>
-12.971

>  <SCORE.INTER.norm>
-1.62803

>  <SCORE.INTRA>
-3.76676

>  <SCORE.INTRA.DIHEDRAL>
-2.92569

>  <SCORE.INTRA.DIHEDRAL.0>
7.7847

>  <SCORE.INTRA.POLAR>
0

>  <SCORE.INTRA.POLAR.0>
0

>  <SCORE.INTRA.REPUL>
0

>  <SCORE.INTRA.REPUL.0>
0

>  <SCORE.INTRA.SOLV>
-2.50766

>  <SCORE.INTRA.SOLV.lig_0>
-57.5465

>  <SCORE.INTRA.VDW>
-1.05008

>  <SCORE.INTRA.VDW.0>
1.39369

>  <SCORE.INTRA.norm>
-0.313896

>  <SCORE.RESTR>
0

>  <SCORE.RESTR.CAVITY>
0

>  <SCORE.RESTR.norm>
0

>  <SCORE.SYSTEM>
0

>  <SCORE.SYSTEM.CONST>
0

>  <SCORE.SYSTEM.DIHEDRAL>
0

>  <SCORE.SYSTEM.SOLV>
0

>  <SCORE.SYSTEM.norm>
0

>  <SCORE.heavy>
12

>  <SCORE.norm>
-1.94193

>  <SYMMETRIC_BONDS>
4 1 2

>  <RMSD>
1.696

$$$$
1kod cryst
 OpenBabel11021811393D
libRbt.so/2013.1/901 2013/11/27
 12 11  0  0  0  0  0  0  0  0999 V2000
    1.9270    6.1119   35.7169 C   0  0  0  0  0  0  0  0  0  0  0  0
    0.9743    5.7733   36.4032 O   0  5  0  0  0  0  0  0  0  0  0  0
    2.9700    6.5622   36.1740 O   0  0  0  0  0  0  0  0  0  0  0  0
    1.8052    5.9591   34.1878 C   0  0  1  0  0  0  0  0  0  0  0  0
    2.1880    7.2456   33.5299 N   0  3  0  0  0  0  0  0  0  0  0  0
    2.7236    4.8248   33.6758 C   0  0  0  0  0  0  0  0  0  0  0  0
    2.2351    3.4719   34.1768 C   0  0  0  0  0  0  0  0  0  0  0  0
    2.8867    2.3534   33.3668 C   0  0  0  0  0  0  0  0  0  0  0  0
    2.6554    1.0496   34.0636 N   0  0  0  0  0  0  0  0  0  0  0  0
    1.4460    0.5775   34.2066 C   0  0  0  0  0  0  0  0  0  0  0  0
    1.0252    0.2545   35.3152 O   0  0  0  0  0  0  0  0  0  0  0  0
    0.6805    0.4317   33.1645 N   0  0  0  0  0  0  0  0  0  0  0  0
  1  2  1  0  0  0  0
  1  3  2  0  0  0  0
  4  1  1  1  0  0  0
  4  6  1  0  0  0  0
  4  5  1  0  0  0  0
  6  7  1  0  0  0  0
  7  8  1  0  0  0  0
  8  9  1  0  0  0  0
  9 10  1  0  0  0  0
 10 12  1  0  0  0  0
 10 11  2  0  0  0  0
M  CHG  2   2  -1   5   1
M  END
>  <CHROM.1>
129.49558627,67.31622913,56.96856295,164.08635406,166.88946847,-115.79808754
1.95253616,3.73916774,34.49972272,1.26762816,1.20046701,0.44740534

>  <Name>
1kod cryst

>  <RI>
0

>  <Rbt.Current_Directory>
/home/itssahil/PROJECTS/Mol_Feturizer/New_Systems/rnas/1kod

>  <Rbt.Executable>
rbdock ($Id: //depot/dev/client3/rdock/2013.1/src/exe/rbdock.cxx#4 $)

>  <Rbt.Library>
libRbt.so (2013.1, Build901 2013/11/27)

>  <Rbt.Parameter_File>
/export/apps/rDock/src/rDock_2013.1_src/data/scripts/dock_solv.prm

>  <Rbt.Receptor>
prm/pocket_docking_3.prm

>  <SCORE>
-22.4394

>  <SCORE.INTER>
-17.0578

>  <SCORE.INTER.CONST>
1

>  <SCORE.INTER.POLAR>
-3.40579

>  <SCORE.INTER.ROT>
5

>  <SCORE.INTER.SOLV>
16.2803

>  <SCORE.INTER.VDW>
-12.3793

>  <SCORE.INTER.norm>
-1.42149

>  <SCORE.INTRA>
-5.38155

>  <SCORE.INTRA.DIHEDRAL>
-3.7062

>  <SCORE.INTRA.DIHEDRAL.0>
7.7847

>  <SCORE.INTRA.POLAR>
0

>  <SCORE.INTRA.POLAR.0>
0

>  <SCORE.INTRA.REPUL>
0

>  <SCORE.INTRA.REPUL.0>
0

>  <SCORE.INTRA.SOLV>
-2.49874

>  <SCORE.INTRA.SOLV.lig_0>
-57.5465

>  <SCORE.INTRA.VDW>
-2.27908

>  <SCORE.INTRA.VDW.0>
1.39369

>  <SCORE.INTRA.norm>
-0.448463

>  <SCORE.RESTR>
0

>  <SCORE.RESTR.CAVITY>
0

>  <SCORE.RESTR.norm>
0

>  <SCORE.SYSTEM>
0

>  <SCORE.SYSTEM.CONST>
0

>  <SCORE.SYSTEM.DIHEDRAL>
0

>  <SCORE.SYSTEM.SOLV>
0

>  <SCORE.SYSTEM.norm>
0

>  <SCORE.heavy>
12

>  <SCORE.norm>
-1.86995

>  <SYMMETRIC_BONDS>
4 1 2

>  <RMSD>
1.697

$$$$
1kod cryst
 OpenBabel11021811393D
libRbt.so/2013.1/901 2013/11/27
 12 11  0  0  0  0  0  0  0  0999 V2000
    3.6011    4.9149   35.0228 C   0  0  0  0  0  0  0  0  0  0  0  0
    3.7172    4.3238   36.0861 O   0  5  0  0  0  0  0  0  0  0  0  0
    4.4524    4.9070   34.1426 O   0  0  0  0  0  0  0  0  0  0  0  0
    2.3051    5.7131   34.7789 C   0  0  1  0  0  0  0  0  0  0  0  0
    2.5797    6.8190   33.8113 N   0  3  0  0  0  0  0  0  0  0  0  0
    1.1954    4.7963   34.2129 C   0  0  0  0  0  0  0  0  0  0  0  0
    1.8038    3.6105   33.4755 C   0  0  0  0  0  0  0  0  0  0  0  0
    1.8956    2.4089   34.4133 C   0  0  0  0  0  0  0  0  0  0  0  0
    2.0694    1.1668   33.5973 N   0  0  0  0  0  0  0  0  0  0  0  0
    1.0311    0.4787   33.2044 C   0  0  0  0  0  0  0  0  0  0  0  0
    0.9508   -0.7252   33.4379 O   0  0  0  0  0  0  0  0  0  0  0  0
    0.0762    1.0673   32.5449 N   0  0  0  0  0  0  0  0  0  0  0  0
  1  2  1  0  0  0  0
  1  3  2  0  0  0  0
  4  1  1  6  0  0  0
  4  6  1  0  0  0  0
  4  5  1  0  0  0  0
  6  7  1  0  0  0  0
  7  8  1  0  0  0  0
  8  9  1  0  0  0  0
  9 10  1  0  0  0  0
 10 12  1  0  0  0  0
 10 11  2  0  0  0  0
M  CHG  2   2  -1   5   1
M  END
>  <CHROM.1>
153.86126301,-25.95769577,-178.78103564,95.15775552,162.06633586,88.83058365
2.15099206,3.30276769,34.03972709,-1.09353729,0.59453405,3.11965440

>  <Name>
1kod cryst

>  <RI>
0

>  <Rbt.Current_Directory>
/home/itssahil/PROJECTS/Mol_Feturizer/New_Systems/rnas/1kod

>  <Rbt.Executable>
rbdock ($Id: //depot/dev/client3/rdock/2013.1/src/exe/rbdock.cxx#4 $)

>  <Rbt.Library>
libRbt.so (2013.1, Build901 2013/11/27)

>  <Rbt.Parameter_File>
/export/apps/rDock/src/rDock_2013.1_src/data/scripts/dock_solv.prm

>  <Rbt.Receptor>
prm/pocket_docking_7.prm

>  <SCORE>
-22.818

>  <SCORE.INTER>
-23.8144

>  <SCORE.INTER.CONST>
1

>  <SCORE.INTER.POLAR>
-3.98476

>  <SCORE.INTER.ROT>
5

>  <SCORE.INTER.SOLV>
15.7441

>  <SCORE.INTER.VDW>
-14.7751

>  <SCORE.INTER.norm>
-1.98453

>  <SCORE.INTRA>
0.996379

>  <SCORE.INTRA.DIHEDRAL>
2.56786

>  <SCORE.INTRA.DIHEDRAL.0>
7.7847

>  <SCORE.INTRA.POLAR>
0

>  <SCORE.INTRA.POLAR.0>
0

>  <SCORE.INTRA.REPUL>
0

>  <SCORE.INTRA.REPUL.0>
0

>  <SCORE.INTRA.SOLV>
-0.0528755

>  <SCORE.INTRA.SOLV.lig_0>
-57.5465

>  <SCORE.INTRA.VDW>
-0.261111

>  <SCORE.INTRA.VDW.0>
1.39369

>  <SCORE.INTRA.norm>
0.0830316

>  <SCORE.RESTR>
0

>  <SCORE.RESTR.CAVITY>
0

>  <SCORE.RESTR.norm>
0

>  <SCORE.SYSTEM>
0

>  <SCORE.SYSTEM.CONST>
0

>  <SCORE.SYSTEM.DIHEDRAL>
0

>  <SCORE.SYSTEM.SOLV>
0

>  <SCORE.SYSTEM.norm>
0

>  <SCORE.heavy>
12

>  <SCORE.norm>
-1.9015

>  <SYMMETRIC_BONDS>
4 1 2

>  <RMSD>
1.702

$$$$
1kod cryst
 OpenBabel11021811393D
libRbt.so/2013.1/901 2013/11/27
 12 11  0  0  0  0  0  0  0  0999 V2000
    1.5116    5.7826   35.5834 C   0  0  0  0  0  0  0  0  0  0  0  0
    0.8962    5.1380   36.4195 O   0  5  0  0  0  0  0  0  0  0  0  0
    2.3368    6.6443   35.8596 O   0  0  0  0  0  0  0  0  0  0  0  0
    1.2316    5.4889   34.0963 C   0  0  1  0  0  0  0  0  0  0  0  0
    2.1808    6.2740   33.2495 N   0  3  0  0  0  0  0  0  0  0  0  0
    1.3980    3.9810   33.7950 C   0  0  0  0  0  0  0  0  0  0  0  0
    2.7832    3.5013   34.2084 C   0  0  0  0  0  0  0  0  0  0  0  0
    3.1839    2.2902   33.3690 C   0  0  0  0  0  0  0  0  0  0  0  0
    2.7819    1.0429   34.0910 N   0  0  0  0  0  0  0  0  0  0  0  0
    1.5220    0.7186   34.2069 C   0  0  0  0  0  0  0  0  0  0  0  0
    1.0342    0.4790   35.3093 O   0  0  0  0  0  0  0  0  0  0  0  0
    0.7754    0.6321   33.1447 N   0  0  0  0  0  0  0  0  0  0  0  0
  1  2  1  0  0  0  0
  1  3  2  0  0  0  0
  4  1  1  1  0  0  0
  4  6  1  0  0  0  0
  4  5  1  0  0  0  0
  6  7  1  0  0  0  0
  7  8  1  0  0  0  0
  8  9  1  0  0  0  0
  9 10  1  0  0  0  0
 10 12  1  0  0  0  0
 10 11  2  0  0  0  0
M  CHG  2   2  -1   5   1
M  END
>  <CHROM.1>
-174.12464090,-55.82515103,54.60074414,-153.66073292,-92.49556540,-109.42723127
1.80468284,3.51220463,34.44092603,1.51027532,1.10479510,0.23584019

>  <Name>
1kod cryst

>  <RI>
0

>  <Rbt.Current_Directory>
/home/itssahil/PROJECTS/Mol_Feturizer/New_Systems/rnas/1kod

>  <Rbt.Executable>
rbdock ($Id: //depot/dev/client3/rdock/2013.1/src/exe/rbdock.cxx#4 $)

>  <Rbt.Library>
libRbt.so (2013.1, Build901 2013/11/27)

>  <Rbt.Parameter_File>
/export/apps/rDock/src/rDock_2013.1_src/data/scripts/dock_solv.prm

>  <Rbt.Receptor>
prm/pocket_docking_3.prm

>  <SCORE>
-17.7893

>  <SCORE.INTER>
-15.7996

>  <SCORE.INTER.CONST>
1

>  <SCORE.INTER.POLAR>
-3.49129

>  <SCORE.INTER.ROT>
5

>  <SCORE.INTER.SOLV>
16.5884

>  <SCORE.INTER.VDW>
-11.3582

>  <SCORE.INTER.norm>
-1.31663

>  <SCORE.INTRA>
-1.98964

>  <SCORE.INTRA.DIHEDRAL>
0.189052

>  <SCORE.INTRA.DIHEDRAL.0>
7.7847

>  <SCORE.INTRA.POLAR>
0

>  <SCORE.INTRA.POLAR.0>
0

>  <SCORE.INTRA.REPUL>
0

>  <SCORE.INTRA.REPUL.0>
0

>  <SCORE.INTRA.SOLV>
-0.327229

>  <SCORE.INTRA.SOLV.lig_0>
-57.5465

>  <SCORE.INTRA.VDW>
-1.92055

>  <SCORE.INTRA.VDW.0>
1.39369

>  <SCORE.INTRA.norm>
-0.165803

>  <SCORE.RESTR>
0

>  <SCORE.RESTR.CAVITY>
0

>  <SCORE.RESTR.norm>
0

>  <SCORE.SYSTEM>
0

>  <SCORE.SYSTEM.CONST>
0

>  <SCORE.SYSTEM.DIHEDRAL>
0

>  <SCORE.SYSTEM.SOLV>
0

>  <SCORE.SYSTEM.norm>
0

>  <SCORE.heavy>
12

>  <SCORE.norm>
-1.48244

>  <SYMMETRIC_BONDS>
4 1 2

>  <RMSD>
1.704

$$$$
1kod cryst
 OpenBabel11021811393D
libRbt.so/2013.1/901 2013/11/27
 12 11  0  0  0  0  0  0  0  0999 V2000
    1.5821    5.9738   35.7279 C   0  0  0  0  0  0  0  0  0  0  0  0
    2.2508    5.2055   36.4031 O   0  5  0  0  0  0  0  0  0  0  0  0
    0.8273    6.8149   36.1997 O   0  0  0  0  0  0  0  0  0  0  0  0
    1.7006    5.8765   34.1941 C   0  0  1  0  0  0  0  0  0  0  0  0
    2.1659    7.1886   33.6495 N   0  3  0  0  0  0  0  0  0  0  0  0
    2.7004    4.7673   33.7912 C   0  0  0  0  0  0  0  0  0  0  0  0
    2.1520    3.3935   34.1542 C   0  0  0  0  0  0  0  0  0  0  0  0
    2.8462    2.3209   33.3179 C   0  0  0  0  0  0  0  0  0  0  0  0
    2.5922    0.9820   33.9355 N   0  0  0  0  0  0  0  0  0  0  0  0
    1.3805    0.4987   34.0003 C   0  0  0  0  0  0  0  0  0  0  0  0
    0.9132    0.1171   35.0710 O   0  0  0  0  0  0  0  0  0  0  0  0
    0.6625    0.4042   32.9192 N   0  0  0  0  0  0  0  0  0  0  0  0
  1  2  1  0  0  0  0
  1  3  2  0  0  0  0
  4  1  1  1  0  0  0
  4  6  1  0  0  0  0
  4  5  1  0  0  0  0
  6  7  1  0  0  0  0
  7  8  1  0  0  0  0
  8  9  1  0  0  0  0
  9 10  1  0  0  0  0
 10 12  1  0  0  0  0
 10 11  2  0  0  0  0
M  CHG  2   2  -1   5   1
M  END
>  <CHROM.1>
-120.86799048,67.66575325,177.61453203,158.78886726,164.28735010,-115.84261960
1.80676717,3.64971972,34.44884494,1.45029822,1.15778553,0.31406637

>  <Name>
1kod cryst

>  <RI>
0

>  <Rbt.Current_Directory>
/home/itssahil/PROJECTS/Mol_Feturizer/New_Systems/rnas/1kod

>  <Rbt.Executable>
rbdock ($Id: //depot/dev/client3/rdock/2013.1/src/exe/rbdock.cxx#4 $)

>  <Rbt.Library>
libRbt.so (2013.1, Build901 2013/11/27)

>  <Rbt.Parameter_File>
/export/apps/rDock/src/rDock_2013.1_src/data/scripts/dock_solv.prm

>  <Rbt.Receptor>
prm/pocket_docking_2.prm

>  <SCORE>
-19.3919

>  <SCORE.INTER>
-16.9343

>  <SCORE.INTER.CONST>
1

>  <SCORE.INTER.POLAR>
-3.50454

>  <SCORE.INTER.ROT>
5

>  <SCORE.INTER.SOLV>
17.1556

>  <SCORE.INTER.VDW>
-12.2596

>  <SCORE.INTER.norm>
-1.41119

>  <SCORE.INTRA>
-3.35713

>  <SCORE.INTRA.DIHEDRAL>
-2.73991

>  <SCORE.INTRA.DIHEDRAL.0>
7.7847

>  <SCORE.INTRA.POLAR>
0

>  <SCORE.INTRA.POLAR.0>
0

>  <SCORE.INTRA.REPUL>
0

>  <SCORE.INTRA.REPUL.0>
0

>  <SCORE.INTRA.SOLV>
-2.26186

>  <SCORE.INTRA.SOLV.lig_0>
-57.5465

>  <SCORE.INTRA.VDW>
-0.856245

>  <SCORE.INTRA.VDW.0>
1.39369

>  <SCORE.INTRA.norm>
-0.279761

>  <SCORE.RESTR>
0.899479

>  <SCORE.RESTR.CAVITY>
0.899479

>  <SCORE.RESTR.norm>
0.0749566

>  <SCORE.SYSTEM>
0

>  <SCORE.SYSTEM.CONST>
0

>  <SCORE.SYSTEM.DIHEDRAL>
0

>  <SCORE.SYSTEM.SOLV>
0

>  <SCORE.SYSTEM.norm>
0

>  <SCORE.heavy>
12

>  <SCORE.norm>
-1.61599

>  <SYMMETRIC_BONDS>
4 1 2

>  <RMSD>
1.722

$$$$
1kod cryst
 OpenBabel11021811393D
libRbt.so/2013.1/901 2013/11/27
 12 11  0  0  0  0  0  0  0  0999 V2000
    1.9274    6.0482   35.8829 C   0  0  0  0  0  0  0  0  0  0  0  0
    2.9743    6.4860   36.3364 O   0  5  0  0  0  0  0  0  0  0  0  0
    0.9630    5.7395   36.5716 O   0  0  0  0  0  0  0  0  0  0  0  0
    1.8181    5.8790   34.3546 C   0  0  1  0  0  0  0  0  0  0  0  0
    2.2120    7.1565   33.6857 N   0  3  0  0  0  0  0  0  0  0  0  0
    2.7359    4.7352   33.8631 C   0  0  0  0  0  0  0  0  0  0  0  0
    1.9067    3.5597   33.3626 C   0  0  0  0  0  0  0  0  0  0  0  0
    1.9579    2.4201   34.3777 C   0  0  0  0  0  0  0  0  0  0  0  0
    2.0858    1.1215   33.6456 N   0  0  0  0  0  0  0  0  0  0  0  0
    1.0227    0.4503   33.2914 C   0  0  0  0  0  0  0  0  0  0  0  0
    0.8940   -0.7317   33.6024 O   0  0  0  0  0  0  0  0  0  0  0  0
    0.0946    1.0315   32.5887 N   0  0  0  0  0  0  0  0  0  0  0  0
  1  2  1  0  0  0  0
  1  3  2  0  0  0  0
  4  1  1  1  0  0  0
  4  6  1  0  0  0  0
  4  5  1  0  0  0  0
  6  7  1  0  0  0  0
  7  8  1  0  0  0  0
  8  9  1  0  0  0  0
  9 10  1  0  0  0  0
 10 12  1  0  0  0  0
 10 11  2  0  0  0  0
M  CHG  2   2  -1   5   1
M  END
>  <CHROM.1>
-51.34869532,111.75756440,48.61091266,-105.89284503,-139.23417673,89.26066738
1.71219877,3.68168115,34.29000349,0.57186351,1.35692085,1.30993270

>  <Name>
1kod cryst

>  <RI>
0

>  <Rbt.Current_Directory>
/home/itssahil/PROJECTS/Mol_Feturizer/New_Systems/rnas/1kod

>  <Rbt.Executable>
rbdock ($Id: //depot/dev/client3/rdock/2013.1/src/exe/rbdock.cxx#4 $)

>  <Rbt.Library>
libRbt.so (2013.1, Build901 2013/11/27)

>  <Rbt.Parameter_File>
/export/apps/rDock/src/rDock_2013.1_src/data/scripts/dock_solv.prm

>  <Rbt.Receptor>
prm/pocket_docking_3.prm

>  <SCORE>
-24.4764

>  <SCORE.INTER>
-25.4373

>  <SCORE.INTER.CONST>
1

>  <SCORE.INTER.POLAR>
-4.53799

>  <SCORE.INTER.ROT>
5

>  <SCORE.INTER.SOLV>
16.6096

>  <SCORE.INTER.VDW>
-14.3014

>  <SCORE.INTER.norm>
-2.11978

>  <SCORE.INTRA>
0.960909

>  <SCORE.INTRA.DIHEDRAL>
9.22142

>  <SCORE.INTRA.DIHEDRAL.0>
7.7847

>  <SCORE.INTRA.POLAR>
0

>  <SCORE.INTRA.POLAR.0>
0

>  <SCORE.INTRA.REPUL>
0

>  <SCORE.INTRA.REPUL.0>
0

>  <SCORE.INTRA.SOLV>
-2.37998

>  <SCORE.INTRA.SOLV.lig_0>
-57.5465

>  <SCORE.INTRA.VDW>
-2.45981

>  <SCORE.INTRA.VDW.0>
1.39369

>  <SCORE.INTRA.norm>
0.0800757

>  <SCORE.RESTR>
0

>  <SCORE.RESTR.CAVITY>
0

>  <SCORE.RESTR.norm>
0

>  <SCORE.SYSTEM>
0

>  <SCORE.SYSTEM.CONST>
0

>  <SCORE.SYSTEM.DIHEDRAL>
0

>  <SCORE.SYSTEM.SOLV>
0

>  <SCORE.SYSTEM.norm>
0

>  <SCORE.heavy>
12

>  <SCORE.norm>
-2.0397

>  <SYMMETRIC_BONDS>
4 1 2

>  <RMSD>
1.752

$$$$
1kod cryst
 OpenBabel11021811393D
libRbt.so/2013.1/901 2013/11/27
 12 11  0  0  0  0  0  0  0  0999 V2000
    1.5300    5.9795   35.7290 C   0  0  0  0  0  0  0  0  0  0  0  0
    2.4963    6.3414   36.3837 O   0  5  0  0  0  0  0  0  0  0  0  0
    0.4443    5.6936   36.2179 O   0  0  0  0  0  0  0  0  0  0  0  0
    1.6912    5.8810   34.1991 C   0  0  1  0  0  0  0  0  0  0  0  0
    2.2154    7.1780   33.6722 N   0  3  0  0  0  0  0  0  0  0  0  0
    2.6655    4.7402   33.8232 C   0  0  0  0  0  0  0  0  0  0  0  0
    1.8974    3.5140   33.3474 C   0  0  0  0  0  0  0  0  0  0  0  0
    2.0527    2.3807   34.3590 C   0  0  0  0  0  0  0  0  0  0  0  0
    2.1315    1.0797   33.6242 N   0  0  0  0  0  0  0  0  0  0  0  0
    1.0441    0.4379   33.2900 C   0  0  0  0  0  0  0  0  0  0  0  0
    0.8893   -0.7405   33.6030 O   0  0  0  0  0  0  0  0  0  0  0  0
    0.1189    1.0446   32.6051 N   0  0  0  0  0  0  0  0  0  0  0  0
  1  2  1  0  0  0  0
  1  3  2  0  0  0  0
  4  1  1  1  0  0  0
  4  6  1  0  0  0  0
  4  5  1  0  0  0  0
  6  7  1  0  0  0  0
  7  8  1  0  0  0  0
  8  9  1  0  0  0  0
  9 10  1  0  0  0  0
 10 12  1  0  0  0  0
 10 11  2  0  0  0  0
M  CHG  2   2  -1   5   1
M  END
>  <CHROM.1>
-53.12950201,102.13577475,58.83778659,-112.08594705,-143.65389716,93.86913968
1.59365415,3.65140869,34.23285170,1.20637908,1.19697021,0.63978735

>  <Name>
1kod cryst

>  <RI>
0

>  <Rbt.Current_Directory>
/home/itssahil/PROJECTS/Mol_Feturizer/New_Systems/rnas/1kod

>  <Rbt.Executable>
rbdock ($Id: //depot/dev/client3/rdock/2013.1/src/exe/rbdock.cxx#4 $)

>  <Rbt.Library>
libRbt.so (2013.1, Build901 2013/11/27)

>  <Rbt.Parameter_File>
/export/apps/rDock/src/rDock_2013.1_src/data/scripts/dock_solv.prm

>  <Rbt.Receptor>
prm/pocket_docking_3.prm

>  <SCORE>
-25.3242

>  <SCORE.INTER>
-25.9927

>  <SCORE.INTER.CONST>
1

>  <SCORE.INTER.POLAR>
-4.53337

>  <SCORE.INTER.ROT>
5

>  <SCORE.INTER.SOLV>
17.427

>  <SCORE.INTER.VDW>
-14.9596

>  <SCORE.INTER.norm>
-2.16606

>  <SCORE.INTRA>
0.668535

>  <SCORE.INTRA.DIHEDRAL>
8.06904

>  <SCORE.INTRA.DIHEDRAL.0>
7.7847

>  <SCORE.INTRA.POLAR>
0

>  <SCORE.INTRA.POLAR.0>
0

>  <SCORE.INTRA.REPUL>
0

>  <SCORE.INTRA.REPUL.0>
0

>  <SCORE.INTRA.SOLV>
-2.30447

>  <SCORE.INTRA.SOLV.lig_0>
-57.5465

>  <SCORE.INTRA.VDW>
-2.21375

>  <SCORE.INTRA.VDW.0>
1.39369

>  <SCORE.INTRA.norm>
0.0557112

>  <SCORE.RESTR>
0

>  <SCORE.RESTR.CAVITY>
0

>  <SCORE.RESTR.norm>
0

>  <SCORE.SYSTEM>
0

>  <SCORE.SYSTEM.CONST>
0

>  <SCORE.SYSTEM.DIHEDRAL>
0

>  <SCORE.SYSTEM.SOLV>
0

>  <SCORE.SYSTEM.norm>
0

>  <SCORE.heavy>
12

>  <SCORE.norm>
-2.11035

>  <SYMMETRIC_BONDS>
4 1 2

>  <RMSD>
1.755

$$$$
1kod cryst
 OpenBabel11021811393D
libRbt.so/2013.1/901 2013/11/27
 12 11  0  0  0  0  0  0  0  0999 V2000
    2.0048    6.1738   35.6943 C   0  0  0  0  0  0  0  0  0  0  0  0
    1.1111    5.7445   36.4087 O   0  5  0  0  0  0  0  0  0  0  0  0
    3.0221    6.7053   36.1211 O   0  0  0  0  0  0  0  0  0  0  0  0
    1.8386    6.0336   34.1681 C   0  0  1  0  0  0  0  0  0  0  0  0
    2.1952    7.3278   33.5106 N   0  3  0  0  0  0  0  0  0  0  0  0
    2.7473    4.9088   33.6193 C   0  0  0  0  0  0  0  0  0  0  0  0
    2.2929    3.5509   34.1386 C   0  0  0  0  0  0  0  0  0  0  0  0
    3.0879    2.4416   33.4536 C   0  0  0  0  0  0  0  0  0  0  0  0
    2.7849    1.1395   34.1254 N   0  0  0  0  0  0  0  0  0  0  0  0
    1.5564    0.7038   34.2077 C   0  0  0  0  0  0  0  0  0  0  0  0
    1.0749    0.3841   35.2924 O   0  0  0  0  0  0  0  0  0  0  0  0
    0.8360    0.5910   33.1300 N   0  0  0  0  0  0  0  0  0  0  0  0
  1  2  1  0  0  0  0
  1  3  2  0  0  0  0
  4  1  1  1  0  0  0
  4  6  1  0  0  0  0
  4  5  1  0  0  0  0
  6  7  1  0  0  0  0
  7  8  1  0  0  0  0
  8  9  1  0  0  0  0
  9 10  1  0  0  0  0
 10 12  1  0  0  0  0
 10 11  2  0  0  0  0
M  CHG  2   2  -1   5   1
M  END
>  <CHROM.1>
134.14712283,66.50044668,-64.15105540,173.01117505,171.16623949,-122.83727522
2.03824437,3.83027503,34.48999988,1.27840190,1.22235902,0.43348563

>  <Name>
1kod cryst

>  <RI>
0

>  <Rbt.Current_Directory>
/home/itssahil/PROJECTS/Mol_Feturizer/New_Systems/rnas/1kod

>  <Rbt.Executable>
rbdock ($Id: //depot/dev/client3/rdock/2013.1/src/exe/rbdock.cxx#4 $)

>  <Rbt.Library>
libRbt.so (2013.1, Build901 2013/11/27)

>  <Rbt.Parameter_File>
/export/apps/rDock/src/rDock_2013.1_src/data/scripts/dock_solv.prm

>  <Rbt.Receptor>
prm/pocket_docking_4.prm

>  <SCORE>
-22.5416

>  <SCORE.INTER>
-16.7574

>  <SCORE.INTER.CONST>
1

>  <SCORE.INTER.POLAR>
-3.32925

>  <SCORE.INTER.ROT>
5

>  <SCORE.INTER.SOLV>
15.9826

>  <SCORE.INTER.VDW>
-12.3349

>  <SCORE.INTER.norm>
-1.39645

>  <SCORE.INTRA>
-5.78421

>  <SCORE.INTRA.DIHEDRAL>
-4.86026

>  <SCORE.INTRA.DIHEDRAL.0>
7.7847

>  <SCORE.INTRA.POLAR>
0

>  <SCORE.INTRA.POLAR.0>
0

>  <SCORE.INTRA.REPUL>
0

>  <SCORE.INTRA.REPUL.0>
0

>  <SCORE.INTRA.SOLV>
-2.41749

>  <SCORE.INTRA.SOLV.lig_0>
-57.5465

>  <SCORE.INTRA.VDW>
-2.14534

>  <SCORE.INTRA.VDW.0>
1.39369

>  <SCORE.INTRA.norm>
-0.482017

>  <SCORE.RESTR>
0

>  <SCORE.RESTR.CAVITY>
0

>  <SCORE.RESTR.norm>
0

>  <SCORE.SYSTEM>
0

>  <SCORE.SYSTEM.CONST>
0

>  <SCORE.SYSTEM.DIHEDRAL>
0

>  <SCORE.SYSTEM.SOLV>
0

>  <SCORE.SYSTEM.norm>
0

>  <SCORE.heavy>
12

>  <SCORE.norm>
-1.87847

>  <SYMMETRIC_BONDS>
4 1 2

>  <RMSD>
1.764

$$$$
1kod cryst
 OpenBabel11021811393D
libRbt.so/2013.1/901 2013/11/27
 12 11  0  0  0  0  0  0  0  0999 V2000
    1.5068    6.0128   35.7271 C   0  0  0  0  0  0  0  0  0  0  0  0
    2.0997    6.9290   36.2770 O   0  5  0  0  0  0  0  0  0  0  0  0
    0.7963    5.2093   36.3180 O   0  0  0  0  0  0  0  0  0  0  0  0
    1.6632    5.8656   34.2006 C   0  0  1  0  0  0  0  0  0  0  0  0
    2.1503    7.1568   33.6262 N   0  3  0  0  0  0  0  0  0  0  0  0
    2.6657    4.7384   33.8589 C   0  0  0  0  0  0  0  0  0  0  0  0
    1.9321    3.5044   33.3501 C   0  0  0  0  0  0  0  0  0  0  0  0
    2.0766    2.3644   34.3558 C   0  0  0  0  0  0  0  0  0  0  0  0
    2.1449    1.0668   33.6141 N   0  0  0  0  0  0  0  0  0  0  0  0
    1.0526    0.4307   33.2850 C   0  0  0  0  0  0  0  0  0  0  0  0
    0.8957   -0.7486   33.5934 O   0  0  0  0  0  0  0  0  0  0  0  0
    0.1246    1.0442   32.6100 N   0  0  0  0  0  0  0  0  0  0  0  0
  1  2  1  0  0  0  0
  1  3  2  0  0  0  0
  4  1  1  1  0  0  0
  4  6  1  0  0  0  0
  4  5  1  0  0  0  0
  6  7  1  0  0  0  0
  7  8  1  0  0  0  0
  8  9  1  0  0  0  0
  9 10  1  0  0  0  0
 10 12  1  0  0  0  0
 10 11  2  0  0  0  0
M  CHG  2   2  -1   5   1
M  END
>  <CHROM.1>
-19.15472796,105.54870908,-59.44902293,-112.74593723,-145.82150852,93.30660765
1.58692033,3.65532483,34.22875247,1.17969850,1.24393128,0.66481966

>  <Name>
1kod cryst

>  <RI>
0

>  <Rbt.Current_Directory>
/home/itssahil/PROJECTS/Mol_Feturizer/New_Systems/rnas/1kod

>  <Rbt.Executable>
rbdock ($Id: //depot/dev/client3/rdock/2013.1/src/exe/rbdock.cxx#4 $)

>  <Rbt.Library>
libRbt.so (2013.1, Build901 2013/11/27)

>  <Rbt.Parameter_File>
/export/apps/rDock/src/rDock_2013.1_src/data/scripts/dock_solv.prm

>  <Rbt.Receptor>
prm/pocket_docking_2.prm

>  <SCORE>
-24.1489

>  <SCORE.INTER>
-25.8466

>  <SCORE.INTER.CONST>
1

>  <SCORE.INTER.POLAR>
-4.58512

>  <SCORE.INTER.ROT>
5

>  <SCORE.INTER.SOLV>
17.6026

>  <SCORE.INTER.VDW>
-14.7482

>  <SCORE.INTER.norm>
-2.15388

>  <SCORE.INTRA>
0.858624

>  <SCORE.INTRA.DIHEDRAL>
8.14998

>  <SCORE.INTRA.DIHEDRAL.0>
7.7847

>  <SCORE.INTRA.POLAR>
0

>  <SCORE.INTRA.POLAR.0>
0

>  <SCORE.INTRA.REPUL>
0

>  <SCORE.INTRA.REPUL.0>
0

>  <SCORE.INTRA.SOLV>
-2.05569

>  <SCORE.INTRA.SOLV.lig_0>
-57.5465

>  <SCORE.INTRA.VDW>
-2.18852

>  <SCORE.INTRA.VDW.0>
1.39369

>  <SCORE.INTRA.norm>
0.071552

>  <SCORE.RESTR>
0.839086

>  <SCORE.RESTR.CAVITY>
0.839086

>  <SCORE.RESTR.norm>
0.0699238

>  <SCORE.SYSTEM>
0

>  <SCORE.SYSTEM.CONST>
0

>  <SCORE.SYSTEM.DIHEDRAL>
0

>  <SCORE.SYSTEM.SOLV>
0

>  <SCORE.SYSTEM.norm>
0

>  <SCORE.heavy>
12

>  <SCORE.norm>
-2.0124

>  <SYMMETRIC_BONDS>
4 1 2

>  <RMSD>
1.769

$$$$
1kod cryst
 OpenBabel11021811393D
libRbt.so/2013.1/901 2013/11/27
 12 11  0  0  0  0  0  0  0  0999 V2000
    2.4479    6.2882   35.8094 C   0  0  0  0  0  0  0  0  0  0  0  0
    2.1203    5.4248   36.6098 O   0  5  0  0  0  0  0  0  0  0  0  0
    2.9119    7.3748   36.1315 O   0  0  0  0  0  0  0  0  0  0  0  0
    2.2672    5.9867   34.3085 C   0  0  1  0  0  0  0  0  0  0  0  0
    2.2665    7.2703   33.5425 N   0  3  0  0  0  0  0  0  0  0  0  0
    3.4069    5.0781   33.7913 C   0  0  0  0  0  0  0  0  0  0  0  0
    3.2525    3.6631   34.3333 C   0  0  0  0  0  0  0  0  0  0  0  0
    2.2076    2.9064   33.5162 C   0  0  0  0  0  0  0  0  0  0  0  0
    2.4158    1.4364   33.7014 N   0  0  0  0  0  0  0  0  0  0  0  0
    1.3951    0.6269   33.7948 C   0  0  0  0  0  0  0  0  0  0  0  0
    1.2917   -0.1462   34.7446 O   0  0  0  0  0  0  0  0  0  0  0  0
    0.4834    0.6249   32.8664 N   0  0  0  0  0  0  0  0  0  0  0  0
  1  2  1  0  0  0  0
  1  3  2  0  0  0  0
  4  1  1  1  0  0  0
  4  6  1  0  0  0  0
  4  5  1  0  0  0  0
  6  7  1  0  0  0  0
  7  8  1  0  0  0  0
  8  9  1  0  0  0  0
  9 10  1  0  0  0  0
 10 12  1  0  0  0  0
 10 11  2  0  0  0  0
M  CHG  2   2  -1   5   1
M  END
>  <CHROM.1>
160.75669704,71.51476711,-61.06480599,79.95044781,159.34672581,-38.39797202
2.19237588,3.89705526,34.42461039,0.21049321,1.37033557,1.58421622

>  <Name>
1kod cryst

>  <RI>
0

>  <Rbt.Current_Directory>
/home/itssahil/PROJECTS/Mol_Feturizer/New_Systems/rnas/1kod

>  <Rbt.Executable>
rbdock ($Id: //depot/dev/client3/rdock/2013.1/src/exe/rbdock.cxx#4 $)

>  <Rbt.Library>
libRbt.so (2013.1, Build901 2013/11/27)

>  <Rbt.Parameter_File>
/export/apps/rDock/src/rDock_2013.1_src/data/scripts/dock_solv.prm

>  <Rbt.Receptor>
prm/pocket_docking_4.prm

>  <SCORE>
-23.5132

>  <SCORE.INTER>
-19.2323

>  <SCORE.INTER.CONST>
1

>  <SCORE.INTER.POLAR>
-3.69322

>  <SCORE.INTER.ROT>
5

>  <SCORE.INTER.SOLV>
15.9826

>  <SCORE.INTER.VDW>
-12.7717

>  <SCORE.INTER.norm>
-1.60269

>  <SCORE.INTRA>
-4.28086

>  <SCORE.INTRA.DIHEDRAL>
-2.1033

>  <SCORE.INTRA.DIHEDRAL.0>
7.7847

>  <SCORE.INTRA.POLAR>
0

>  <SCORE.INTRA.POLAR.0>
0

>  <SCORE.INTRA.REPUL>
0

>  <SCORE.INTRA.REPUL.0>
0

>  <SCORE.INTRA.SOLV>
-2.23663

>  <SCORE.INTRA.SOLV.lig_0>
-57.5465

>  <SCORE.INTRA.VDW>
-2.11089

>  <SCORE.INTRA.VDW.0>
1.39369

>  <SCORE.INTRA.norm>
-0.356738

>  <SCORE.RESTR>
0

>  <SCORE.RESTR.CAVITY>
0

>  <SCORE.RESTR.norm>
0

>  <SCORE.SYSTEM>
0

>  <SCORE.SYSTEM.CONST>
0

>  <SCORE.SYSTEM.DIHEDRAL>
0

>  <SCORE.SYSTEM.SOLV>
0

>  <SCORE.SYSTEM.norm>
0

>  <SCORE.heavy>
12

>  <SCORE.norm>
-1.95943

>  <SYMMETRIC_BONDS>
4 1 2

>  <RMSD>
1.779

$$$$
1kod cryst
 OpenBabel11021811393D
libRbt.so/2013.1/901 2013/11/27
 12 11  0  0  0  0  0  0  0  0999 V2000
    2.0204    4.9774   35.8700 C   0  0  0  0  0  0  0  0  0  0  0  0
    0.9481    5.0206   36.4546 O   0  5  0  0  0  0  0  0  0  0  0  0
    3.0952    4.8025   36.4304 O   0  0  0  0  0  0  0  0  0  0  0  0
    2.0147    5.1510   34.3383 C   0  0  1  0  0  0  0  0  0  0  0  0
    3.0764    6.1279   33.9470 N   0  3  0  0  0  0  0  0  0  0  0  0
    2.2726    3.7990   33.6328 C   0  0  0  0  0  0  0  0  0  0  0  0
    1.0044    2.9558   33.6096 C   0  0  0  0  0  0  0  0  0  0  0  0
    1.3127    1.5716   33.0431 C   0  0  0  0  0  0  0  0  0  0  0  0
    2.1226    0.8064   34.0416 N   0  0  0  0  0  0  0  0  0  0  0  0
    1.5852    0.3957   35.1590 C   0  0  0  0  0  0  0  0  0  0  0  0
    2.1015    0.6669   36.2409 O   0  0  0  0  0  0  0  0  0  0  0  0
    0.4999   -0.3216   35.1302 N   0  0  0  0  0  0  0  0  0  0  0  0
  1  2  1  0  0  0  0
  1  3  2  0  0  0  0
  4  1  1  1  0  0  0
  4  6  1  0  0  0  0
  4  5  1  0  0  0  0
  6  7  1  0  0  0  0
  7  8  1  0  0  0  0
  8  9  1  0  0  0  0
  9 10  1  0  0  0  0
 10 12  1  0  0  0  0
 10 11  2  0  0  0  0
M  CHG  2   2  -1   5   1
M  END
>  <CHROM.1>
133.15609628,78.88425302,-47.16612113,-174.09514172,71.09981033,-110.21355938
1.85717606,3.01070193,34.84539741,0.10471394,1.36221822,1.51468857

>  <Name>
1kod cryst

>  <RI>
0

>  <Rbt.Current_Directory>
/home/itssahil/PROJECTS/Mol_Feturizer/New_Systems/rnas/1kod

>  <Rbt.Executable>
rbdock ($Id: //depot/dev/client3/rdock/2013.1/src/exe/rbdock.cxx#4 $)

>  <Rbt.Library>
libRbt.so (2013.1, Build901 2013/11/27)

>  <Rbt.Parameter_File>
/export/apps/rDock/src/rDock_2013.1_src/data/scripts/dock_solv.prm

>  <Rbt.Receptor>
prm/pocket_docking_3.prm

>  <SCORE>
-25.0179

>  <SCORE.INTER>
-19.4867

>  <SCORE.INTER.CONST>
1

>  <SCORE.INTER.POLAR>
-3.24188

>  <SCORE.INTER.ROT>
5

>  <SCORE.INTER.SOLV>
12.2245

>  <SCORE.INTER.VDW>
-13.1931

>  <SCORE.INTER.norm>
-1.62389

>  <SCORE.INTRA>
-5.53118

>  <SCORE.INTRA.DIHEDRAL>
-3.40128

>  <SCORE.INTRA.DIHEDRAL.0>
7.7847

>  <SCORE.INTRA.POLAR>
0

>  <SCORE.INTRA.POLAR.0>
0

>  <SCORE.INTRA.REPUL>
0

>  <SCORE.INTRA.REPUL.0>
0

>  <SCORE.INTRA.SOLV>
-2.20174

>  <SCORE.INTRA.SOLV.lig_0>
-57.5465

>  <SCORE.INTRA.VDW>
-2.72968

>  <SCORE.INTRA.VDW.0>
1.39369

>  <SCORE.INTRA.norm>
-0.460932

>  <SCORE.RESTR>
0

>  <SCORE.RESTR.CAVITY>
0

>  <SCORE.RESTR.norm>
0

>  <SCORE.SYSTEM>
0

>  <SCORE.SYSTEM.CONST>
0

>  <SCORE.SYSTEM.DIHEDRAL>
0

>  <SCORE.SYSTEM.SOLV>
0

>  <SCORE.SYSTEM.norm>
0

>  <SCORE.heavy>
12

>  <SCORE.norm>
-2.08483

>  <SYMMETRIC_BONDS>
4 1 2

>  <RMSD>
1.780

$$$$
1kod cryst
 OpenBabel11021811393D
libRbt.so/2013.1/901 2013/11/27
 12 11  0  0  0  0  0  0  0  0999 V2000
    1.9533    6.3873   35.6641 C   0  0  0  0  0  0  0  0  0  0  0  0
    0.8387    6.4354   36.1626 O   0  5  0  0  0  0  0  0  0  0  0  0
    2.9874    6.5948   36.2863 O   0  0  0  0  0  0  0  0  0  0  0  0
    2.0591    6.0425   34.1653 C   0  0  1  0  0  0  0  0  0  0  0  0
    2.4010    7.2779   33.3962 N   0  3  0  0  0  0  0  0  0  0  0  0
    3.1459    4.9685   33.9257 C   0  0  0  0  0  0  0  0  0  0  0  0
    2.6820    3.6120   34.4401 C   0  0  0  0  0  0  0  0  0  0  0  0
    1.5269    3.1001   33.5824 C   0  0  0  0  0  0  0  0  0  0  0  0
    1.9069    1.7785   32.9928 N   0  0  0  0  0  0  0  0  0  0  0  0
    1.0580    0.7859   32.9834 C   0  0  0  0  0  0  0  0  0  0  0  0
    1.3673   -0.3092   33.4479 O   0  0  0  0  0  0  0  0  0  0  0  0
   -0.1237    0.9495   32.4637 N   0  0  0  0  0  0  0  0  0  0  0  0
  1  2  1  0  0  0  0
  1  3  2  0  0  0  0
  4  1  1  1  0  0  0
  4  6  1  0  0  0  0
  4  5  1  0  0  0  0
  6  7  1  0  0  0  0
  7  8  1  0  0  0  0
  8  9  1  0  0  0  0
  9 10  1  0  0  0  0
 10 12  1  0  0  0  0
 10 11  2  0  0  0  0
M  CHG  2   2  -1   5   1
M  END
>  <CHROM.1>
106.08804422,71.70767809,-103.25062343,67.90482367,121.58158294,-44.07754050
1.80953093,3.98939928,34.11531541,1.04916615,1.17929852,0.83812145

>  <Name>
1kod cryst

>  <RI>
0

>  <Rbt.Current_Directory>
/home/itssahil/PROJECTS/Mol_Feturizer/New_Systems/rnas/1kod

>  <Rbt.Executable>
rbdock ($Id: //depot/dev/client3/rdock/2013.1/src/exe/rbdock.cxx#4 $)

>  <Rbt.Library>
libRbt.so (2013.1, Build901 2013/11/27)

>  <Rbt.Parameter_File>
/export/apps/rDock/src/rDock_2013.1_src/data/scripts/dock_solv.prm

>  <Rbt.Receptor>
prm/pocket_docking_3.prm

>  <SCORE>
-24.7247

>  <SCORE.INTER>
-24.1878

>  <SCORE.INTER.CONST>
1

>  <SCORE.INTER.POLAR>
-4.26524

>  <SCORE.INTER.ROT>
5

>  <SCORE.INTER.SOLV>
18.7994

>  <SCORE.INTER.VDW>
-15.1076

>  <SCORE.INTER.norm>
-2.01565

>  <SCORE.INTRA>
-0.671128

>  <SCORE.INTRA.DIHEDRAL>
3.64058

>  <SCORE.INTRA.DIHEDRAL.0>
7.7847

>  <SCORE.INTRA.POLAR>
0

>  <SCORE.INTRA.POLAR.0>
0

>  <SCORE.INTRA.REPUL>
0

>  <SCORE.INTRA.REPUL.0>
0

>  <SCORE.INTRA.SOLV>
-2.50937

>  <SCORE.INTRA.SOLV.lig_0>
-57.5465

>  <SCORE.INTRA.VDW>
-1.23673

>  <SCORE.INTRA.VDW.0>
1.39369

>  <SCORE.INTRA.norm>
-0.0559274

>  <SCORE.RESTR>
0.134296

>  <SCORE.RESTR.CAVITY>
0.134296

>  <SCORE.RESTR.norm>
0.0111914

>  <SCORE.SYSTEM>
0

>  <SCORE.SYSTEM.CONST>
0

>  <SCORE.SYSTEM.DIHEDRAL>
0

>  <SCORE.SYSTEM.SOLV>
0

>  <SCORE.SYSTEM.norm>
0

>  <SCORE.heavy>
12

>  <SCORE.norm>
-2.06039

>  <SYMMETRIC_BONDS>
4 1 2

>  <RMSD>
1.790

$$$$
1kod cryst
 OpenBabel11021811393D
libRbt.so/2013.1/901 2013/11/27
 12 11  0  0  0  0  0  0  0  0999 V2000
    1.5013    4.8634   35.6540 C   0  0  0  0  0  0  0  0  0  0  0  0
    0.3927    4.7152   36.1463 O   0  5  0  0  0  0  0  0  0  0  0  0
    2.5349    4.9217   36.3082 O   0  0  0  0  0  0  0  0  0  0  0  0
    1.5998    4.9807   34.1201 C   0  0  1  0  0  0  0  0  0  0  0  0
    2.5909    6.0429   33.7676 N   0  3  0  0  0  0  0  0  0  0  0  0
    2.0406    3.6363   33.4952 C   0  0  0  0  0  0  0  0  0  0  0  0
    0.8385    2.7269   33.2768 C   0  0  0  0  0  0  0  0  0  0  0  0
    1.3107    1.3322   32.8721 C   0  0  0  0  0  0  0  0  0  0  0  0
    2.0890    0.7350   34.0018 N   0  0  0  0  0  0  0  0  0  0  0  0
    1.4923    0.3902   35.1113 C   0  0  0  0  0  0  0  0  0  0  0  0
    1.8949    0.8050   36.1959 O   0  0  0  0  0  0  0  0  0  0  0  0
    0.4695   -0.4133   35.0736 N   0  0  0  0  0  0  0  0  0  0  0  0
  1  2  1  0  0  0  0
  1  3  2  0  0  0  0
  4  1  1  1  0  0  0
  4  6  1  0  0  0  0
  4  5  1  0  0  0  0
  6  7  1  0  0  0  0
  7  8  1  0  0  0  0
  8  9  1  0  0  0  0
  9 10  1  0  0  0  0
 10 12  1  0  0  0  0
 10 11  2  0  0  0  0
M  CHG  2   2  -1   5   1
M  END
>  <CHROM.1>
138.82372506,84.89504496,-174.02642043,-170.99808273,63.93233377,-110.95081893
1.57888096,2.91249848,34.69095319,0.63241506,1.40737587,0.96505640

>  <Name>
1kod cryst

>  <RI>
0

>  <Rbt.Current_Directory>
/home/itssahil/PROJECTS/Mol_Feturizer/New_Systems/rnas/1kod

>  <Rbt.Executable>
rbdock ($Id: //depot/dev/client3/rdock/2013.1/src/exe/rbdock.cxx#4 $)

>  <Rbt.Library>
libRbt.so (2013.1, Build901 2013/11/27)

>  <Rbt.Parameter_File>
/export/apps/rDock/src/rDock_2013.1_src/data/scripts/dock_solv.prm

>  <Rbt.Receptor>
prm/pocket_docking_2.prm

>  <SCORE>
-23.1132

>  <SCORE.INTER>
-18.6667

>  <SCORE.INTER.CONST>
1

>  <SCORE.INTER.POLAR>
-2.98232

>  <SCORE.INTER.ROT>
5

>  <SCORE.INTER.SOLV>
15.2725

>  <SCORE.INTER.VDW>
-14.5276

>  <SCORE.INTER.norm>
-1.55556

>  <SCORE.INTRA>
-5.34326

>  <SCORE.INTRA.DIHEDRAL>
-3.17884

>  <SCORE.INTRA.DIHEDRAL.0>
7.7847

>  <SCORE.INTRA.POLAR>
0

>  <SCORE.INTRA.POLAR.0>
0

>  <SCORE.INTRA.REPUL>
0

>  <SCORE.INTRA.REPUL.0>
0

>  <SCORE.INTRA.SOLV>
-1.89542

>  <SCORE.INTRA.SOLV.lig_0>
-57.5465

>  <SCORE.INTRA.VDW>
-2.80612

>  <SCORE.INTRA.VDW.0>
1.39369

>  <SCORE.INTRA.norm>
-0.445271

>  <SCORE.RESTR>
0.896756

>  <SCORE.RESTR.CAVITY>
0.896756

>  <SCORE.RESTR.norm>
0.0747297

>  <SCORE.SYSTEM>
0

>  <SCORE.SYSTEM.CONST>
0

>  <SCORE.SYSTEM.DIHEDRAL>
0

>  <SCORE.SYSTEM.SOLV>
0

>  <SCORE.SYSTEM.norm>
0

>  <SCORE.heavy>
12

>  <SCORE.norm>
-1.9261

>  <SYMMETRIC_BONDS>
4 1 2

>  <RMSD>
1.796

$$$$
1kod cryst
 OpenBabel11021811393D
libRbt.so/2013.1/901 2013/11/27
 12 11  0  0  0  0  0  0  0  0999 V2000
    1.9901    6.0106   35.7654 C   0  0  0  0  0  0  0  0  0  0  0  0
    3.0739    5.6968   36.2348 O   0  5  0  0  0  0  0  0  0  0  0  0
    0.9595    6.0869   36.4226 O   0  0  0  0  0  0  0  0  0  0  0  0
    1.9215    6.3306   34.2591 C   0  0  1  0  0  0  0  0  0  0  0  0
    2.9866    7.3214   33.9146 N   0  3  0  0  0  0  0  0  0  0  0  0
    2.1185    5.0481   33.4172 C   0  0  0  0  0  0  0  0  0  0  0  0
    0.9760    4.0695   33.6555 C   0  0  0  0  0  0  0  0  0  0  0  0
    1.4945    2.8376   34.3940 C   0  0  0  0  0  0  0  0  0  0  0  0
    1.9407    1.8208   33.3911 N   0  0  0  0  0  0  0  0  0  0  0  0
    1.1221    0.8907   32.9778 C   0  0  0  0  0  0  0  0  0  0  0  0
    1.4394   -0.2953   33.0343 O   0  0  0  0  0  0  0  0  0  0  0  0
   -0.0367    1.2200   32.4862 N   0  0  0  0  0  0  0  0  0  0  0  0
  1  2  1  0  0  0  0
  1  3  2  0  0  0  0
  4  1  1  1  0  0  0
  4  6  1  0  0  0  0
  4  5  1  0  0  0  0
  6  7  1  0  0  0  0
  7  8  1  0  0  0  0
  8  9  1  0  0  0  0
  9 10  1  0  0  0  0
 10 12  1  0  0  0  0
 10 11  2  0  0  0  0
M  CHG  2   2  -1   5   1
M  END
>  <CHROM.1>
-50.70426714,64.44672197,-68.04385646,-111.97468804,-89.84826900,86.95791900
1.68110932,3.93490378,34.16010310,0.69000599,1.30420080,1.23888002

>  <Name>
1kod cryst

>  <RI>
0

>  <Rbt.Current_Directory>
/home/itssahil/PROJECTS/Mol_Feturizer/New_Systems/rnas/1kod

>  <Rbt.Executable>
rbdock ($Id: //depot/dev/client3/rdock/2013.1/src/exe/rbdock.cxx#4 $)

>  <Rbt.Library>
libRbt.so (2013.1, Build901 2013/11/27)

>  <Rbt.Parameter_File>
/export/apps/rDock/src/rDock_2013.1_src/data/scripts/dock_solv.prm

>  <Rbt.Receptor>
prm/pocket_docking_3.prm

>  <SCORE>
-21.0905

>  <SCORE.INTER>
-19.6909

>  <SCORE.INTER.CONST>
1

>  <SCORE.INTER.POLAR>
-2.75058

>  <SCORE.INTER.ROT>
5

>  <SCORE.INTER.SOLV>
13.3602

>  <SCORE.INTER.VDW>
-15.3454

>  <SCORE.INTER.norm>
-1.64091

>  <SCORE.INTRA>
-1.61384

>  <SCORE.INTRA.DIHEDRAL>
3.27792

>  <SCORE.INTRA.DIHEDRAL.0>
7.7847

>  <SCORE.INTRA.POLAR>
0

>  <SCORE.INTRA.POLAR.0>
0

>  <SCORE.INTRA.REPUL>
0

>  <SCORE.INTRA.REPUL.0>
0

>  <SCORE.INTRA.SOLV>
-1.47772

>  <SCORE.INTRA.SOLV.lig_0>
-57.5465

>  <SCORE.INTRA.VDW>
-2.51394

>  <SCORE.INTRA.VDW.0>
1.39369

>  <SCORE.INTRA.norm>
-0.134487

>  <SCORE.RESTR>
0.214195

>  <SCORE.RESTR.CAVITY>
0.214195

>  <SCORE.RESTR.norm>
0.0178495

>  <SCORE.SYSTEM>
0

>  <SCORE.SYSTEM.CONST>
0

>  <SCORE.SYSTEM.DIHEDRAL>
0

>  <SCORE.SYSTEM.SOLV>
0

>  <SCORE.SYSTEM.norm>
0

>  <SCORE.heavy>
12

>  <SCORE.norm>
-1.75754

>  <SYMMETRIC_BONDS>
4 1 2

>  <RMSD>
1.803

$$$$
1kod cryst
 OpenBabel11021811393D
libRbt.so/2013.1/901 2013/11/27
 12 11  0  0  0  0  0  0  0  0999 V2000
    3.4206    5.7379   35.4765 C   0  0  0  0  0  0  0  0  0  0  0  0
    4.4883    5.5241   34.9218 O   0  5  0  0  0  0  0  0  0  0  0  0
    3.2596    5.6811   36.6892 O   0  0  0  0  0  0  0  0  0  0  0  0
    2.2098    6.1025   34.5949 C   0  0  1  0  0  0  0  0  0  0  0  0
    2.4951    7.3748   33.8639 N   0  3  0  0  0  0  0  0  0  0  0  0
    1.9158    4.9769   33.5756 C   0  0  0  0  0  0  0  0  0  0  0  0
    1.9820    3.6126   34.2494 C   0  0  0  0  0  0  0  0  0  0  0  0
    2.1491    2.5213   33.1944 C   0  0  0  0  0  0  0  0  0  0  0  0
    2.2636    1.1958   33.8791 N   0  0  0  0  0  0  0  0  0  0  0  0
    1.2355    0.3935   33.9509 C   0  0  0  0  0  0  0  0  0  0  0  0
    0.8625   -0.0536   35.0333 O   0  0  0  0  0  0  0  0  0  0  0  0
    0.6059    0.0492   32.8655 N   0  0  0  0  0  0  0  0  0  0  0  0
  1  2  1  0  0  0  0
  1  3  2  0  0  0  0
  4  1  1  6  0  0  0
  4  6  1  0  0  0  0
  4  5  1  0  0  0  0
  6  7  1  0  0  0  0
  7  8  1  0  0  0  0
  8  9  1  0  0  0  0
  9 10  1  0  0  0  0
 10 12  1  0  0  0  0
 10 11  2  0  0  0  0
M  CHG  2   2  -1   5   1
M  END
>  <CHROM.1>
-61.74999667,44.55711853,89.34902022,-161.53143170,177.89216941,-79.44423705
2.24928862,3.60763710,34.35504822,-0.89759465,1.04895177,2.72333492

>  <Name>
1kod cryst

>  <RI>
0

>  <Rbt.Current_Directory>
/home/itssahil/PROJECTS/Mol_Feturizer/New_Systems/rnas/1kod

>  <Rbt.Executable>
rbdock ($Id: //depot/dev/client3/rdock/2013.1/src/exe/rbdock.cxx#4 $)

>  <Rbt.Library>
libRbt.so (2013.1, Build901 2013/11/27)

>  <Rbt.Parameter_File>
/export/apps/rDock/src/rDock_2013.1_src/data/scripts/dock_solv.prm

>  <Rbt.Receptor>
prm/pocket_docking_3.prm

>  <SCORE>
-19.5392

>  <SCORE.INTER>
-16.1158

>  <SCORE.INTER.CONST>
1

>  <SCORE.INTER.POLAR>
-3.02745

>  <SCORE.INTER.ROT>
5

>  <SCORE.INTER.SOLV>
14.3506

>  <SCORE.INTER.VDW>
-12.3692

>  <SCORE.INTER.norm>
-1.34298

>  <SCORE.INTRA>
-3.42445

>  <SCORE.INTRA.DIHEDRAL>
-1.67007

>  <SCORE.INTRA.DIHEDRAL.0>
7.7847

>  <SCORE.INTRA.POLAR>
0

>  <SCORE.INTRA.POLAR.0>
0

>  <SCORE.INTRA.REPUL>
0

>  <SCORE.INTRA.REPUL.0>
0

>  <SCORE.INTRA.SOLV>
-2.35154

>  <SCORE.INTRA.SOLV.lig_0>
-57.5465

>  <SCORE.INTRA.VDW>
-1.41365

>  <SCORE.INTRA.VDW.0>
1.39369

>  <SCORE.INTRA.norm>
-0.285371

>  <SCORE.RESTR>
0.00101998

>  <SCORE.RESTR.CAVITY>
0.00101998

>  <SCORE.RESTR.norm>
8.4998e-05

>  <SCORE.SYSTEM>
0

>  <SCORE.SYSTEM.CONST>
0

>  <SCORE.SYSTEM.DIHEDRAL>
0

>  <SCORE.SYSTEM.SOLV>
0

>  <SCORE.SYSTEM.norm>
0

>  <SCORE.heavy>
12

>  <SCORE.norm>
-1.62827

>  <SYMMETRIC_BONDS>
4 1 2

>  <RMSD>
1.809

$$$$
1kod cryst
 OpenBabel11021811393D
libRbt.so/2013.1/901 2013/11/27
 12 11  0  0  0  0  0  0  0  0999 V2000
    2.2841    5.7359   35.7319 C   0  0  0  0  0  0  0  0  0  0  0  0
    3.3224    5.1237   35.9328 O   0  5  0  0  0  0  0  0  0  0  0  0
    2.2230    6.7863   35.1052 O   0  0  0  0  0  0  0  0  0  0  0  0
    0.9777    5.1469   36.3000 C   0  0  1  0  0  0  0  0  0  0  0  0
   -0.0379    6.2353   36.4358 N   0  3  0  0  0  0  0  0  0  0  0  0
    0.4264    4.0401   35.3708 C   0  0  0  0  0  0  0  0  0  0  0  0
    1.3449    2.8251   35.3805 C   0  0  0  0  0  0  0  0  0  0  0  0
    2.2468    2.8476   34.1485 C   0  0  0  0  0  0  0  0  0  0  0  0
    2.3298    1.4659   33.5806 N   0  0  0  0  0  0  0  0  0  0  0  0
    1.2484    0.7573   33.3950 C   0  0  0  0  0  0  0  0  0  0  0  0
    1.1517   -0.3751   33.8629 O   0  0  0  0  0  0  0  0  0  0  0  0
    0.2665    1.2459   32.6946 N   0  0  0  0  0  0  0  0  0  0  0  0
  1  2  1  0  0  0  0
  1  3  2  0  0  0  0
  4  1  1  6  0  0  0
  4  6  1  0  0  0  0
  4  5  1  0  0  0  0
  6  7  1  0  0  0  0
  7  8  1  0  0  0  0
  8  9  1  0  0  0  0
  9 10  1  0  0  0  0
 10 12  1  0  0  0  0
 10 11  2  0  0  0  0
M  CHG  2   2  -1   5   1
M  END
>  <CHROM.1>
157.82430606,67.95369390,166.80213388,-99.42315650,-137.64598438,-132.32797170
1.46539525,3.50868355,34.82276519,-1.51166656,-0.12042639,-2.69823747

>  <Name>
1kod cryst

>  <RI>
0

>  <Rbt.Current_Directory>
/home/itssahil/PROJECTS/Mol_Feturizer/New_Systems/rnas/1kod

>  <Rbt.Executable>
rbdock ($Id: //depot/dev/client3/rdock/2013.1/src/exe/rbdock.cxx#4 $)

>  <Rbt.Library>
libRbt.so (2013.1, Build901 2013/11/27)

>  <Rbt.Parameter_File>
/export/apps/rDock/src/rDock_2013.1_src/data/scripts/dock_solv.prm

>  <Rbt.Receptor>
prm/pocket_docking_2.prm

>  <SCORE>
-17.9223

>  <SCORE.INTER>
-17.9158

>  <SCORE.INTER.CONST>
1

>  <SCORE.INTER.POLAR>
-3.84755

>  <SCORE.INTER.ROT>
5

>  <SCORE.INTER.SOLV>
13.0044

>  <SCORE.INTER.VDW>
-10.3868

>  <SCORE.INTER.norm>
-1.49298

>  <SCORE.INTRA>
-0.256886

>  <SCORE.INTRA.DIHEDRAL>
4.02144

>  <SCORE.INTRA.DIHEDRAL.0>
7.7847

>  <SCORE.INTRA.POLAR>
0

>  <SCORE.INTRA.POLAR.0>
0

>  <SCORE.INTRA.REPUL>
0

>  <SCORE.INTRA.REPUL.0>
0

>  <SCORE.INTRA.SOLV>
-0.949026

>  <SCORE.INTRA.SOLV.lig_0>
-57.5465

>  <SCORE.INTRA.VDW>
-1.79309

>  <SCORE.INTRA.VDW.0>
1.39369

>  <SCORE.INTRA.norm>
-0.0214071

>  <SCORE.RESTR>
0.250324

>  <SCORE.RESTR.CAVITY>
0.250324

>  <SCORE.RESTR.norm>
0.0208603

>  <SCORE.SYSTEM>
0

>  <SCORE.SYSTEM.CONST>
0

>  <SCORE.SYSTEM.DIHEDRAL>
0

>  <SCORE.SYSTEM.SOLV>
0

>  <SCORE.SYSTEM.norm>
0

>  <SCORE.heavy>
12

>  <SCORE.norm>
-1.49353

>  <SYMMETRIC_BONDS>
4 1 2

>  <RMSD>
1.812

$$$$
1kod cryst
 OpenBabel11021811393D
libRbt.so/2013.1/901 2013/11/27
 12 11  0  0  0  0  0  0  0  0999 V2000
    1.7856    5.9745   35.6368 C   0  0  0  0  0  0  0  0  0  0  0  0
    2.4375    6.7991   36.2601 O   0  5  0  0  0  0  0  0  0  0  0  0
    0.9401    5.2491   36.1452 O   0  0  0  0  0  0  0  0  0  0  0  0
    2.0442    5.8455   34.1226 C   0  0  1  0  0  0  0  0  0  0  0  0
    2.2168    7.2079   33.5321 N   0  3  0  0  0  0  0  0  0  0  0  0
    3.3127    5.0024   33.8535 C   0  0  0  0  0  0  0  0  0  0  0  0
    3.1288    3.5792   34.3638 C   0  0  0  0  0  0  0  0  0  0  0  0
    2.2306    2.7978   33.4075 C   0  0  0  0  0  0  0  0  0  0  0  0
    2.3894    1.3346   33.6767 N   0  0  0  0  0  0  0  0  0  0  0  0
    1.3424    0.5624   33.7930 C   0  0  0  0  0  0  0  0  0  0  0  0
    1.1972   -0.1538   34.7811 O   0  0  0  0  0  0  0  0  0  0  0  0
    0.4486    0.5368   32.8476 N   0  0  0  0  0  0  0  0  0  0  0  0
  1  2  1  0  0  0  0
  1  3  2  0  0  0  0
  4  1  1  1  0  0  0
  4  6  1  0  0  0  0
  4  5  1  0  0  0  0
  6  7  1  0  0  0  0
  7  8  1  0  0  0  0
  8  9  1  0  0  0  0
  9 10  1  0  0  0  0
 10 12  1  0  0  0  0
 10 11  2  0  0  0  0
M  CHG  2   2  -1   5   1
M  END
>  <CHROM.1>
-40.93332209,63.11423240,-46.00380562,75.93408440,163.05575665,-47.24760987
1.94183661,3.74704887,34.36619558,1.23938427,1.11997872,0.50791362

>  <Name>
1kod cryst

>  <RI>
0

>  <Rbt.Current_Directory>
/home/itssahil/PROJECTS/Mol_Feturizer/New_Systems/rnas/1kod

>  <Rbt.Executable>
rbdock ($Id: //depot/dev/client3/rdock/2013.1/src/exe/rbdock.cxx#4 $)

>  <Rbt.Library>
libRbt.so (2013.1, Build901 2013/11/27)

>  <Rbt.Parameter_File>
/export/apps/rDock/src/rDock_2013.1_src/data/scripts/dock_solv.prm

>  <Rbt.Receptor>
prm/pocket_docking_7.prm

>  <SCORE>
-25.6917

>  <SCORE.INTER>
-20.9463

>  <SCORE.INTER.CONST>
1

>  <SCORE.INTER.POLAR>
-3.89426

>  <SCORE.INTER.ROT>
5

>  <SCORE.INTER.SOLV>
16.972

>  <SCORE.INTER.VDW>
-13.574

>  <SCORE.INTER.norm>
-1.74553

>  <SCORE.INTRA>
-4.74531

>  <SCORE.INTRA.DIHEDRAL>
-3.02394

>  <SCORE.INTRA.DIHEDRAL.0>
7.7847

>  <SCORE.INTRA.POLAR>
0

>  <SCORE.INTRA.POLAR.0>
0

>  <SCORE.INTRA.REPUL>
0

>  <SCORE.INTRA.REPUL.0>
0

>  <SCORE.INTRA.SOLV>
-2.26954

>  <SCORE.INTRA.SOLV.lig_0>
-57.5465

>  <SCORE.INTRA.VDW>
-2.09857

>  <SCORE.INTRA.VDW.0>
1.39369

>  <SCORE.INTRA.norm>
-0.395442

>  <SCORE.RESTR>
0

>  <SCORE.RESTR.CAVITY>
0

>  <SCORE.RESTR.norm>
0

>  <SCORE.SYSTEM>
0

>  <SCORE.SYSTEM.CONST>
0

>  <SCORE.SYSTEM.DIHEDRAL>
0

>  <SCORE.SYSTEM.SOLV>
0

>  <SCORE.SYSTEM.norm>
0

>  <SCORE.heavy>
12

>  <SCORE.norm>
-2.14097

>  <SYMMETRIC_BONDS>
4 1 2

>  <RMSD>
1.817

$$$$
1kod cryst
 OpenBabel11021811393D
libRbt.so/2013.1/901 2013/11/27
 12 11  0  0  0  0  0  0  0  0999 V2000
    1.4699    5.9935   35.7029 C   0  0  0  0  0  0  0  0  0  0  0  0
    2.1198    6.8444   36.2919 O   0  5  0  0  0  0  0  0  0  0  0  0
    0.6844    5.2332   36.2547 O   0  0  0  0  0  0  0  0  0  0  0  0
    1.6506    5.8759   34.1765 C   0  0  1  0  0  0  0  0  0  0  0  0
    2.1346    7.1817   33.6333 N   0  3  0  0  0  0  0  0  0  0  0  0
    2.6684    4.7641   33.8296 C   0  0  0  0  0  0  0  0  0  0  0  0
    2.0838    3.3897   34.1283 C   0  0  0  0  0  0  0  0  0  0  0  0
    2.8269    2.3248   33.3249 C   0  0  0  0  0  0  0  0  0  0  0  0
    2.5760    0.9855   33.9429 N   0  0  0  0  0  0  0  0  0  0  0  0
    1.3649    0.5014   34.0118 C   0  0  0  0  0  0  0  0  0  0  0  0
    0.9016    0.1191   35.0841 O   0  0  0  0  0  0  0  0  0  0  0  0
    0.6431    0.4069   32.9332 N   0  0  0  0  0  0  0  0  0  0  0  0
  1  2  1  0  0  0  0
  1  3  2  0  0  0  0
  4  1  1  1  0  0  0
  4  6  1  0  0  0  0
  4  5  1  0  0  0  0
  6  7  1  0  0  0  0
  7  8  1  0  0  0  0
  8  9  1  0  0  0  0
  9 10  1  0  0  0  0
 10 12  1  0  0  0  0
 10 11  2  0  0  0  0
M  CHG  2   2  -1   5   1
M  END
>  <CHROM.1>
-24.25644785,70.30608754,58.85818401,158.66205628,161.33082594,-118.33751507
1.75249559,3.65623954,34.44457594,1.43109268,1.07715888,0.32290893

>  <Name>
1kod cryst

>  <RI>
0

>  <Rbt.Current_Directory>
/home/itssahil/PROJECTS/Mol_Feturizer/New_Systems/rnas/1kod

>  <Rbt.Executable>
rbdock ($Id: //depot/dev/client3/rdock/2013.1/src/exe/rbdock.cxx#4 $)

>  <Rbt.Library>
libRbt.so (2013.1, Build901 2013/11/27)

>  <Rbt.Parameter_File>
/export/apps/rDock/src/rDock_2013.1_src/data/scripts/dock_solv.prm

>  <Rbt.Receptor>
prm/pocket_docking_2.prm

>  <SCORE>
-20.8327

>  <SCORE.INTER>
-17.3145

>  <SCORE.INTER.CONST>
1

>  <SCORE.INTER.POLAR>
-3.54344

>  <SCORE.INTER.ROT>
5

>  <SCORE.INTER.SOLV>
16.9055

>  <SCORE.INTER.VDW>
-12.3

>  <SCORE.INTER.norm>
-1.44287

>  <SCORE.INTRA>
-4.38752

>  <SCORE.INTRA.DIHEDRAL>
-2.23663

>  <SCORE.INTRA.DIHEDRAL.0>
7.7847

>  <SCORE.INTRA.POLAR>
0

>  <SCORE.INTRA.POLAR.0>
0

>  <SCORE.INTRA.REPUL>
0

>  <SCORE.INTRA.REPUL.0>
0

>  <SCORE.INTRA.SOLV>
-2.26565

>  <SCORE.INTRA.SOLV.lig_0>
-57.5465

>  <SCORE.INTRA.VDW>
-2.13638

>  <SCORE.INTRA.VDW.0>
1.39369

>  <SCORE.INTRA.norm>
-0.365627

>  <SCORE.RESTR>
0.869276

>  <SCORE.RESTR.CAVITY>
0.869276

>  <SCORE.RESTR.norm>
0.0724396

>  <SCORE.SYSTEM>
0

>  <SCORE.SYSTEM.CONST>
0

>  <SCORE.SYSTEM.DIHEDRAL>
0

>  <SCORE.SYSTEM.SOLV>
0

>  <SCORE.SYSTEM.norm>
0

>  <SCORE.heavy>
12

>  <SCORE.norm>
-1.73606

>  <SYMMETRIC_BONDS>
4 1 2

>  <RMSD>
1.825

$$$$
1kod cryst
 OpenBabel11021811393D
libRbt.so/2013.1/901 2013/11/27
 12 11  0  0  0  0  0  0  0  0999 V2000
    1.9222    6.3316   35.8727 C   0  0  0  0  0  0  0  0  0  0  0  0
    1.1598    7.2738   36.0287 O   0  5  0  0  0  0  0  0  0  0  0  0
    2.5655    5.8185   36.7796 O   0  0  0  0  0  0  0  0  0  0  0  0
    2.0780    5.7573   34.4506 C   0  0  1  0  0  0  0  0  0  0  0  0
    2.3853    6.8685   33.4991 N   0  3  0  0  0  0  0  0  0  0  0  0
    3.2148    4.7096   34.4045 C   0  0  0  0  0  0  0  0  0  0  0  0
    2.8212    3.5296   33.5255 C   0  0  0  0  0  0  0  0  0  0  0  0
    2.1484    2.4531   34.3742 C   0  0  0  0  0  0  0  0  0  0  0  0
    2.2087    1.1488   33.6435 N   0  0  0  0  0  0  0  0  0  0  0  0
    1.1123    0.5225   33.3094 C   0  0  0  0  0  0  0  0  0  0  0  0
    0.9392   -0.6524   33.6257 O   0  0  0  0  0  0  0  0  0  0  0  0
    0.1974    1.1410   32.6212 N   0  0  0  0  0  0  0  0  0  0  0  0
  1  2  1  0  0  0  0
  1  3  2  0  0  0  0
  4  1  1  1  0  0  0
  4  6  1  0  0  0  0
  4  5  1  0  0  0  0
  6  7  1  0  0  0  0
  7  8  1  0  0  0  0
  8  9  1  0  0  0  0
  9 10  1  0  0  0  0
 10 12  1  0  0  0  0
 10 11  2  0  0  0  0
M  CHG  2   2  -1   5   1
M  END
>  <CHROM.1>
51.55012375,139.96191540,30.02748222,-91.15219696,-160.09394710,60.54237464
1.88526575,3.76525700,34.33033535,0.59083868,1.39484600,1.29664691

>  <Name>
1kod cryst

>  <RI>
0

>  <Rbt.Current_Directory>
/home/itssahil/PROJECTS/Mol_Feturizer/New_Systems/rnas/1kod

>  <Rbt.Executable>
rbdock ($Id: //depot/dev/client3/rdock/2013.1/src/exe/rbdock.cxx#4 $)

>  <Rbt.Library>
libRbt.so (2013.1, Build901 2013/11/27)

>  <Rbt.Parameter_File>
/export/apps/rDock/src/rDock_2013.1_src/data/scripts/dock_solv.prm

>  <Rbt.Receptor>
prm/pocket_docking_3.prm

>  <SCORE>
-23.976

>  <SCORE.INTER>
-23.6422

>  <SCORE.INTER.CONST>
1

>  <SCORE.INTER.POLAR>
-4.64473

>  <SCORE.INTER.ROT>
5

>  <SCORE.INTER.SOLV>
17.9004

>  <SCORE.INTER.VDW>
-13.1791

>  <SCORE.INTER.norm>
-1.97018

>  <SCORE.INTRA>
-0.333821

>  <SCORE.INTRA.DIHEDRAL>
4.72243

>  <SCORE.INTRA.DIHEDRAL.0>
7.7847

>  <SCORE.INTRA.POLAR>
0

>  <SCORE.INTRA.POLAR.0>
0

>  <SCORE.INTRA.REPUL>
0

>  <SCORE.INTRA.REPUL.0>
0

>  <SCORE.INTRA.SOLV>
-2.58011

>  <SCORE.INTRA.SOLV.lig_0>
-57.5465

>  <SCORE.INTRA.VDW>
-1.40498

>  <SCORE.INTRA.VDW.0>
1.39369

>  <SCORE.INTRA.norm>
-0.0278184

>  <SCORE.RESTR>
0

>  <SCORE.RESTR.CAVITY>
0

>  <SCORE.RESTR.norm>
0

>  <SCORE.SYSTEM>
0

>  <SCORE.SYSTEM.CONST>
0

>  <SCORE.SYSTEM.DIHEDRAL>
0

>  <SCORE.SYSTEM.SOLV>
0

>  <SCORE.SYSTEM.norm>
0

>  <SCORE.heavy>
12

>  <SCORE.norm>
-1.998

>  <SYMMETRIC_BONDS>
4 1 2

>  <RMSD>
1.827

$$$$
1kod cryst
 OpenBabel11021811393D
libRbt.so/2013.1/901 2013/11/27
 12 11  0  0  0  0  0  0  0  0999 V2000
    1.2068    6.3696   35.4685 C   0  0  0  0  0  0  0  0  0  0  0  0
    0.1607    6.0824   36.0312 O   0  5  0  0  0  0  0  0  0  0  0  0
    1.9024    7.3304   35.7728 O   0  0  0  0  0  0  0  0  0  0  0  0
    1.6751    5.4657   34.3110 C   0  0  1  0  0  0  0  0  0  0  0  0
    2.1703    6.3178   33.1870 N   0  3  0  0  0  0  0  0  0  0  0  0
    2.8061    4.5196   34.7779 C   0  0  0  0  0  0  0  0  0  0  0  0
    3.1470    3.5124   33.6874 C   0  0  0  0  0  0  0  0  0  0  0  0
    1.9084    2.6918   33.3344 C   0  0  0  0  0  0  0  0  0  0  0  0
    2.1692    1.2540   33.6558 N   0  0  0  0  0  0  0  0  0  0  0  0
    1.1901    0.3899   33.6797 C   0  0  0  0  0  0  0  0  0  0  0  0
    1.0044   -0.3214   34.6647 O   0  0  0  0  0  0  0  0  0  0  0  0
    0.4099    0.2668   32.6457 N   0  0  0  0  0  0  0  0  0  0  0  0
  1  2  1  0  0  0  0
  1  3  2  0  0  0  0
  4  1  1  1  0  0  0
  4  6  1  0  0  0  0
  4  5  1  0  0  0  0
  6  7  1  0  0  0  0
  7  8  1  0  0  0  0
  8  9  1  0  0  0  0
  9 10  1  0  0  0  0
 10 12  1  0  0  0  0
 10 11  2  0  0  0  0
M  CHG  2   2  -1   5   1
M  END
>  <CHROM.1>
136.89378890,172.95038135,-159.27208564,-58.98853295,-117.46856488,-12.81793030
1.63664435,3.67085541,34.25368061,1.48261714,0.79168912,0.30387294

>  <Name>
1kod cryst

>  <RI>
0

>  <Rbt.Current_Directory>
/home/itssahil/PROJECTS/Mol_Feturizer/New_Systems/rnas/1kod

>  <Rbt.Executable>
rbdock ($Id: //depot/dev/client3/rdock/2013.1/src/exe/rbdock.cxx#4 $)

>  <Rbt.Library>
libRbt.so (2013.1, Build901 2013/11/27)

>  <Rbt.Parameter_File>
/export/apps/rDock/src/rDock_2013.1_src/data/scripts/dock_solv.prm

>  <Rbt.Receptor>
prm/pocket_docking_2.prm

>  <SCORE>
-20.8317

>  <SCORE.INTER>
-19.1636

>  <SCORE.INTER.CONST>
1

>  <SCORE.INTER.POLAR>
-3.83632

>  <SCORE.INTER.ROT>
5

>  <SCORE.INTER.SOLV>
21.2012

>  <SCORE.INTER.VDW>
-13.9884

>  <SCORE.INTER.norm>
-1.59697

>  <SCORE.INTRA>
-1.88587

>  <SCORE.INTRA.DIHEDRAL>
1.08959

>  <SCORE.INTRA.DIHEDRAL.0>
7.7847

>  <SCORE.INTRA.POLAR>
0

>  <SCORE.INTRA.POLAR.0>
0

>  <SCORE.INTRA.REPUL>
0

>  <SCORE.INTRA.REPUL.0>
0

>  <SCORE.INTRA.SOLV>
-1.88262

>  <SCORE.INTRA.SOLV.lig_0>
-57.5465

>  <SCORE.INTRA.VDW>
-1.48936

>  <SCORE.INTRA.VDW.0>
1.39369

>  <SCORE.INTRA.norm>
-0.157156

>  <SCORE.RESTR>
0.217755

>  <SCORE.RESTR.CAVITY>
0.217755

>  <SCORE.RESTR.norm>
0.0181463

>  <SCORE.SYSTEM>
0

>  <SCORE.SYSTEM.CONST>
0

>  <SCORE.SYSTEM.DIHEDRAL>
0

>  <SCORE.SYSTEM.SOLV>
0

>  <SCORE.SYSTEM.norm>
0

>  <SCORE.heavy>
12

>  <SCORE.norm>
-1.73598

>  <SYMMETRIC_BONDS>
4 1 2

>  <RMSD>
1.828

$$$$
1kod cryst
 OpenBabel11021811393D
libRbt.so/2013.1/901 2013/11/27
 12 11  0  0  0  0  0  0  0  0999 V2000
    1.3514    6.0754   35.7848 C   0  0  0  0  0  0  0  0  0  0  0  0
    1.9980    6.8944   36.4209 O   0  5  0  0  0  0  0  0  0  0  0  0
    0.3882    5.4688   36.2363 O   0  0  0  0  0  0  0  0  0  0  0  0
    1.7749    5.7949   34.3294 C   0  0  1  0  0  0  0  0  0  0  0  0
    2.1939    7.0747   33.6804 N   0  3  0  0  0  0  0  0  0  0  0  0
    2.9466    4.7862   34.2846 C   0  0  0  0  0  0  0  0  0  0  0  0
    2.5656    3.5576   33.4689 C   0  0  0  0  0  0  0  0  0  0  0  0
    2.1293    2.4308   34.4026 C   0  0  0  0  0  0  0  0  0  0  0  0
    2.1860    1.1334   33.6594 N   0  0  0  0  0  0  0  0  0  0  0  0
    1.0879    0.5153   33.3161 C   0  0  0  0  0  0  0  0  0  0  0  0
    0.9086   -0.6619   33.6204 O   0  0  0  0  0  0  0  0  0  0  0  0
    0.1778    1.1445   32.6312 N   0  0  0  0  0  0  0  0  0  0  0  0
  1  2  1  0  0  0  0
  1  3  2  0  0  0  0
  4  1  1  1  0  0  0
  4  6  1  0  0  0  0
  4  5  1  0  0  0  0
  6  7  1  0  0  0  0
  7  8  1  0  0  0  0
  8  9  1  0  0  0  0
  9 10  1  0  0  0  0
 10 12  1  0  0  0  0
 10 11  2  0  0  0  0
M  CHG  2   2  -1   5   1
M  END
>  <CHROM.1>
-38.66895992,121.62616173,70.16455327,-98.33295963,-161.91182287,71.12275161
1.63150343,3.70886281,34.31070973,1.40533107,0.89588082,0.44001821

>  <Name>
1kod cryst

>  <RI>
0

>  <Rbt.Current_Directory>
/home/itssahil/PROJECTS/Mol_Feturizer/New_Systems/rnas/1kod

>  <Rbt.Executable>
rbdock ($Id: //depot/dev/client3/rdock/2013.1/src/exe/rbdock.cxx#4 $)

>  <Rbt.Library>
libRbt.so (2013.1, Build901 2013/11/27)

>  <Rbt.Parameter_File>
/export/apps/rDock/src/rDock_2013.1_src/data/scripts/dock_solv.prm

>  <Rbt.Receptor>
prm/pocket_docking_5.prm

>  <SCORE>
-26.4745

>  <SCORE.INTER>
-25.0439

>  <SCORE.INTER.CONST>
1

>  <SCORE.INTER.POLAR>
-4.55577

>  <SCORE.INTER.ROT>
5

>  <SCORE.INTER.SOLV>
17.5839

>  <SCORE.INTER.VDW>
-14.3047

>  <SCORE.INTER.norm>
-2.087

>  <SCORE.INTRA>
-1.43056

>  <SCORE.INTRA.DIHEDRAL>
5.33117

>  <SCORE.INTRA.DIHEDRAL.0>
7.7847

>  <SCORE.INTRA.POLAR>
0

>  <SCORE.INTRA.POLAR.0>
0

>  <SCORE.INTRA.REPUL>
0

>  <SCORE.INTRA.REPUL.0>
0

>  <SCORE.INTRA.SOLV>
-2.43731

>  <SCORE.INTRA.SOLV.lig_0>
-57.5465

>  <SCORE.INTRA.VDW>
-2.87748

>  <SCORE.INTRA.VDW.0>
1.39369

>  <SCORE.INTRA.norm>
-0.119213

>  <SCORE.RESTR>
0

>  <SCORE.RESTR.CAVITY>
0

>  <SCORE.RESTR.norm>
0

>  <SCORE.SYSTEM>
0

>  <SCORE.SYSTEM.CONST>
0

>  <SCORE.SYSTEM.DIHEDRAL>
0

>  <SCORE.SYSTEM.SOLV>
0

>  <SCORE.SYSTEM.norm>
0

>  <SCORE.heavy>
12

>  <SCORE.norm>
-2.20621

>  <SYMMETRIC_BONDS>
4 1 2

>  <RMSD>
1.829

$$$$
1kod cryst
 OpenBabel11021811393D
libRbt.so/2013.1/901 2013/11/27
 12 11  0  0  0  0  0  0  0  0999 V2000
    1.4801    5.9464   35.6119 C   0  0  0  0  0  0  0  0  0  0  0  0
    1.4536    7.1322   35.9062 O   0  5  0  0  0  0  0  0  0  0  0  0
    1.0830    5.0526   36.3489 O   0  0  0  0  0  0  0  0  0  0  0  0
    2.0448    5.5582   34.2311 C   0  0  1  0  0  0  0  0  0  0  0  0
    2.4128    6.7976   33.4807 N   0  3  0  0  0  0  0  0  0  0  0  0
    3.2929    4.6576   34.3832 C   0  0  0  0  0  0  0  0  0  0  0  0
    2.8866    3.2341   34.7417 C   0  0  0  0  0  0  0  0  0  0  0  0
    2.4310    2.4936   33.4863 C   0  0  0  0  0  0  0  0  0  0  0  0
    2.3462    1.0306   33.7880 N   0  0  0  0  0  0  0  0  0  0  0  0
    1.2030    0.4026   33.7184 C   0  0  0  0  0  0  0  0  0  0  0  0
    0.7918   -0.2600   34.6683 O   0  0  0  0  0  0  0  0  0  0  0  0
    0.4959    0.4641   32.6278 N   0  0  0  0  0  0  0  0  0  0  0  0
  1  2  1  0  0  0  0
  1  3  2  0  0  0  0
  4  1  1  1  0  0  0
  4  6  1  0  0  0  0
  4  5  1  0  0  0  0
  6  7  1  0  0  0  0
  7  8  1  0  0  0  0
  8  9  1  0  0  0  0
  9 10  1  0  0  0  0
 10 12  1  0  0  0  0
 10 11  2  0  0  0  0
M  CHG  2   2  -1   5   1
M  END
>  <CHROM.1>
-2.30506287,76.93634830,160.41455067,79.61534058,166.81422196,-62.77904466
1.81336781,3.56268309,34.40651824,1.37389887,0.97413861,0.39158375

>  <Name>
1kod cryst

>  <RI>
0

>  <Rbt.Current_Directory>
/home/itssahil/PROJECTS/Mol_Feturizer/New_Systems/rnas/1kod

>  <Rbt.Executable>
rbdock ($Id: //depot/dev/client3/rdock/2013.1/src/exe/rbdock.cxx#4 $)

>  <Rbt.Library>
libRbt.so (2013.1, Build901 2013/11/27)

>  <Rbt.Parameter_File>
/export/apps/rDock/src/rDock_2013.1_src/data/scripts/dock_solv.prm

>  <Rbt.Receptor>
prm/pocket_docking_2.prm

>  <SCORE>
-22.0742

>  <SCORE.INTER>
-18.9974

>  <SCORE.INTER.CONST>
1

>  <SCORE.INTER.POLAR>
-3.92367

>  <SCORE.INTER.ROT>
5

>  <SCORE.INTER.SOLV>
17.8158

>  <SCORE.INTER.VDW>
-12.458

>  <SCORE.INTER.norm>
-1.58312

>  <SCORE.INTRA>
-3.75221

>  <SCORE.INTRA.DIHEDRAL>
-1.62391

>  <SCORE.INTRA.DIHEDRAL.0>
7.7847

>  <SCORE.INTRA.POLAR>
0

>  <SCORE.INTRA.POLAR.0>
0

>  <SCORE.INTRA.REPUL>
0

>  <SCORE.INTRA.REPUL.0>
0

>  <SCORE.INTRA.SOLV>
-2.16231

>  <SCORE.INTRA.SOLV.lig_0>
-57.5465

>  <SCORE.INTRA.VDW>
-1.8591

>  <SCORE.INTRA.VDW.0>
1.39369

>  <SCORE.INTRA.norm>
-0.312684

>  <SCORE.RESTR>
0.67541

>  <SCORE.RESTR.CAVITY>
0.67541

>  <SCORE.RESTR.norm>
0.0562842

>  <SCORE.SYSTEM>
0

>  <SCORE.SYSTEM.CONST>
0

>  <SCORE.SYSTEM.DIHEDRAL>
0

>  <SCORE.SYSTEM.SOLV>
0

>  <SCORE.SYSTEM.norm>
0

>  <SCORE.heavy>
12

>  <SCORE.norm>
-1.83952

>  <SYMMETRIC_BONDS>
4 1 2

>  <RMSD>
1.832

$$$$
1kod cryst
 OpenBabel11021811393D
libRbt.so/2013.1/901 2013/11/27
 12 11  0  0  0  0  0  0  0  0999 V2000
    2.1742    6.0619   35.7780 C   0  0  0  0  0  0  0  0  0  0  0  0
    2.6819    7.0807   36.2225 O   0  5  0  0  0  0  0  0  0  0  0  0
    1.6625    5.1954   36.4758 O   0  0  0  0  0  0  0  0  0  0  0  0
    2.1781    5.8614   34.2496 C   0  0  1  0  0  0  0  0  0  0  0  0
    2.2318    7.1947   33.5757 N   0  3  0  0  0  0  0  0  0  0  0  0
    3.3948    5.0129   33.8116 C   0  0  0  0  0  0  0  0  0  0  0  0
    3.2567    3.5802   34.3100 C   0  0  0  0  0  0  0  0  0  0  0  0
    2.2198    2.8373   33.4705 C   0  0  0  0  0  0  0  0  0  0  0  0
    2.3884    1.3654   33.6794 N   0  0  0  0  0  0  0  0  0  0  0  0
    1.3463    0.5838   33.7758 C   0  0  0  0  0  0  0  0  0  0  0  0
    1.2150   -0.1719   34.7361 O   0  0  0  0  0  0  0  0  0  0  0  0
    0.4428    0.5913   32.8395 N   0  0  0  0  0  0  0  0  0  0  0  0
  1  2  1  0  0  0  0
  1  3  2  0  0  0  0
  4  1  1  1  0  0  0
  4  6  1  0  0  0  0
  4  5  1  0  0  0  0
  6  7  1  0  0  0  0
  7  8  1  0  0  0  0
  8  9  1  0  0  0  0
  9 10  1  0  0  0  0
 10 12  1  0  0  0  0
 10 11  2  0  0  0  0
M  CHG  2   2  -1   5   1
M  END
>  <CHROM.1>
-26.00255086,68.06453351,-177.15669695,74.78990991,162.95281553,-39.66173857
2.08492084,3.78531869,34.40745182,0.84351327,1.29960970,0.93752313

>  <Name>
1kod cryst

>  <RI>
0

>  <Rbt.Current_Directory>
/home/itssahil/PROJECTS/Mol_Feturizer/New_Systems/rnas/1kod

>  <Rbt.Executable>
rbdock ($Id: //depot/dev/client3/rdock/2013.1/src/exe/rbdock.cxx#4 $)

>  <Rbt.Library>
libRbt.so (2013.1, Build901 2013/11/27)

>  <Rbt.Parameter_File>
/export/apps/rDock/src/rDock_2013.1_src/data/scripts/dock_solv.prm

>  <Rbt.Receptor>
prm/pocket_docking_4.prm

>  <SCORE>
-24.7364

>  <SCORE.INTER>
-19.8677

>  <SCORE.INTER.CONST>
1

>  <SCORE.INTER.POLAR>
-3.82373

>  <SCORE.INTER.ROT>
5

>  <SCORE.INTER.SOLV>
16.1455

>  <SCORE.INTER.VDW>
-12.8145

>  <SCORE.INTER.norm>
-1.65564

>  <SCORE.INTRA>
-4.86868

>  <SCORE.INTRA.DIHEDRAL>
-3.39457

>  <SCORE.INTRA.DIHEDRAL.0>
7.7847

>  <SCORE.INTRA.POLAR>
0

>  <SCORE.INTRA.POLAR.0>
0

>  <SCORE.INTRA.REPUL>
0

>  <SCORE.INTRA.REPUL.0>
0

>  <SCORE.INTRA.SOLV>
-2.18262

>  <SCORE.INTRA.SOLV.lig_0>
-57.5465

>  <SCORE.INTRA.VDW>
-2.08008

>  <SCORE.INTRA.VDW.0>
1.39369

>  <SCORE.INTRA.norm>
-0.405723

>  <SCORE.RESTR>
0

>  <SCORE.RESTR.CAVITY>
0

>  <SCORE.RESTR.norm>
0

>  <SCORE.SYSTEM>
0

>  <SCORE.SYSTEM.CONST>
0

>  <SCORE.SYSTEM.DIHEDRAL>
0

>  <SCORE.SYSTEM.SOLV>
0

>  <SCORE.SYSTEM.norm>
0

>  <SCORE.heavy>
12

>  <SCORE.norm>
-2.06136

>  <SYMMETRIC_BONDS>
4 1 2

>  <RMSD>
1.833

$$$$
1kod cryst
 OpenBabel11021811393D
libRbt.so/2013.1/901 2013/11/27
 12 11  0  0  0  0  0  0  0  0999 V2000
    2.4281    5.8087   35.7569 C   0  0  0  0  0  0  0  0  0  0  0  0
    3.4401    6.3824   36.1315 O   0  5  0  0  0  0  0  0  0  0  0  0
    1.5306    5.4499   36.5089 O   0  0  0  0  0  0  0  0  0  0  0  0
    2.2757    5.5248   34.2495 C   0  0  1  0  0  0  0  0  0  0  0  0
    2.4661    6.7951   33.4849 N   0  3  0  0  0  0  0  0  0  0  0  0
    3.3155    4.4801   33.7810 C   0  0  0  0  0  0  0  0  0  0  0  0
    3.2527    3.2327   34.6528 C   0  0  0  0  0  0  0  0  0  0  0  0
    1.9013    2.5443   34.4756 C   0  0  0  0  0  0  0  0  0  0  0  0
    2.1001    1.2694   33.7181 N   0  0  0  0  0  0  0  0  0  0  0  0
    1.0742    0.5720   33.3091 C   0  0  0  0  0  0  0  0  0  0  0  0
    0.9750   -0.6211   33.5869 O   0  0  0  0  0  0  0  0  0  0  0  0
    0.1526    1.1392   32.5864 N   0  0  0  0  0  0  0  0  0  0  0  0
  1  2  1  0  0  0  0
  1  3  2  0  0  0  0
  4  1  1  1  0  0  0
  4  6  1  0  0  0  0
  4  5  1  0  0  0  0
  6  7  1  0  0  0  0
  7  8  1  0  0  0  0
  8  9  1  0  0  0  0
  9 10  1  0  0  0  0
 10 12  1  0  0  0  0
 10 11  2  0  0  0  0
M  CHG  2   2  -1   5   1
M  END
>  <CHROM.1>
-52.93743567,52.77815578,9.65046590,64.80719023,109.17646999,7.69087079,2.06606391
3.57232932,34.33966105,-0.31015548,1.28941717,2.21127969

>  <Name>
1kod cryst

>  <RI>
0

>  <Rbt.Current_Directory>
/home/itssahil/PROJECTS/Mol_Feturizer/New_Systems/rnas/1kod

>  <Rbt.Executable>
rbdock ($Id: //depot/dev/client3/rdock/2013.1/src/exe/rbdock.cxx#4 $)

>  <Rbt.Library>
libRbt.so (2013.1, Build901 2013/11/27)

>  <Rbt.Parameter_File>
/export/apps/rDock/src/rDock_2013.1_src/data/scripts/dock_solv.prm

>  <Rbt.Receptor>
prm/pocket_docking_4.prm

>  <SCORE>
-23.1731

>  <SCORE.INTER>
-23.129

>  <SCORE.INTER.CONST>
1

>  <SCORE.INTER.POLAR>
-4.62699

>  <SCORE.INTER.ROT>
5

>  <SCORE.INTER.SOLV>
16.2029

>  <SCORE.INTER.VDW>
-12.3304

>  <SCORE.INTER.norm>
-1.92742

>  <SCORE.INTRA>
-0.0440641

>  <SCORE.INTRA.DIHEDRAL>
3.19713

>  <SCORE.INTRA.DIHEDRAL.0>
7.7847

>  <SCORE.INTRA.POLAR>
0

>  <SCORE.INTRA.POLAR.0>
0

>  <SCORE.INTRA.REPUL>
0

>  <SCORE.INTRA.REPUL.0>
0

>  <SCORE.INTRA.SOLV>
-1.78537

>  <SCORE.INTRA.SOLV.lig_0>
-57.5465

>  <SCORE.INTRA.VDW>
-0.749943

>  <SCORE.INTRA.VDW.0>
1.39369

>  <SCORE.INTRA.norm>
-0.00367201

>  <SCORE.RESTR>
0

>  <SCORE.RESTR.CAVITY>
0

>  <SCORE.RESTR.norm>
0

>  <SCORE.SYSTEM>
0

>  <SCORE.SYSTEM.CONST>
0

>  <SCORE.SYSTEM.DIHEDRAL>
0

>  <SCORE.SYSTEM.SOLV>
0

>  <SCORE.SYSTEM.norm>
0

>  <SCORE.heavy>
12

>  <SCORE.norm>
-1.93109

>  <SYMMETRIC_BONDS>
4 1 2

>  <RMSD>
1.840

$$$$
1kod cryst
 OpenBabel11021811393D
libRbt.so/2013.1/901 2013/11/27
 12 11  0  0  0  0  0  0  0  0999 V2000
    1.7453    6.0935   35.6784 C   0  0  0  0  0  0  0  0  0  0  0  0
    2.4349    6.9216   36.2547 O   0  5  0  0  0  0  0  0  0  0  0  0
    0.9073    5.3972   36.2373 O   0  0  0  0  0  0  0  0  0  0  0  0
    1.9436    5.9209   34.1594 C   0  0  1  0  0  0  0  0  0  0  0  0
    2.1927    7.2573   33.5378 N   0  3  0  0  0  0  0  0  0  0  0  0
    3.1393    4.9847   33.8660 C   0  0  0  0  0  0  0  0  0  0  0  0
    2.8093    3.5523   34.2647 C   0  0  0  0  0  0  0  0  0  0  0  0
    1.6019    3.0585   33.4707 C   0  0  0  0  0  0  0  0  0  0  0  0
    1.9161    1.7149   32.8924 N   0  0  0  0  0  0  0  0  0  0  0  0
    1.0327    0.7534   32.9260 C   0  0  0  0  0  0  0  0  0  0  0  0
    1.3173   -0.3445   33.3994 O   0  0  0  0  0  0  0  0  0  0  0  0
   -0.1582    0.9512   32.4402 N   0  0  0  0  0  0  0  0  0  0  0  0
  1  2  1  0  0  0  0
  1  3  2  0  0  0  0
  4  1  1  1  0  0  0
  4  6  1  0  0  0  0
  4  5  1  0  0  0  0
  6  7  1  0  0  0  0
  7  8  1  0  0  0  0
  8  9  1  0  0  0  0
  9 10  1  0  0  0  0
 10 12  1  0  0  0  0
 10 11  2  0  0  0  0
M  CHG  2   2  -1   5   1
M  END
>  <CHROM.1>
-37.82479331,69.59700838,-170.59907462,60.29169546,131.33841916,-43.16250264
1.72873664,3.87602309,34.08723027,1.17733209,1.09826231,0.71369716

>  <Name>
1kod cryst

>  <RI>
0

>  <Rbt.Current_Directory>
/home/itssahil/PROJECTS/Mol_Feturizer/New_Systems/rnas/1kod

>  <Rbt.Executable>
rbdock ($Id: //depot/dev/client3/rdock/2013.1/src/exe/rbdock.cxx#4 $)

>  <Rbt.Library>
libRbt.so (2013.1, Build901 2013/11/27)

>  <Rbt.Parameter_File>
/export/apps/rDock/src/rDock_2013.1_src/data/scripts/dock_solv.prm

>  <Rbt.Receptor>
prm/pocket_docking_5.prm

>  <SCORE>
-26.6584

>  <SCORE.INTER>
-23.8353

>  <SCORE.INTER.CONST>
1

>  <SCORE.INTER.POLAR>
-4.09813

>  <SCORE.INTER.ROT>
5

>  <SCORE.INTER.SOLV>
18.4481

>  <SCORE.INTER.VDW>
-15.3125

>  <SCORE.INTER.norm>
-1.98628

>  <SCORE.INTRA>
-2.82307

>  <SCORE.INTRA.DIHEDRAL>
0.0369353

>  <SCORE.INTRA.DIHEDRAL.0>
7.7847

>  <SCORE.INTRA.POLAR>
0

>  <SCORE.INTRA.POLAR.0>
0

>  <SCORE.INTRA.REPUL>
0

>  <SCORE.INTRA.REPUL.0>
0

>  <SCORE.INTRA.SOLV>
-2.1021

>  <SCORE.INTRA.SOLV.lig_0>
-57.5465

>  <SCORE.INTRA.VDW>
-1.79049

>  <SCORE.INTRA.VDW.0>
1.39369

>  <SCORE.INTRA.norm>
-0.235256

>  <SCORE.RESTR>
0

>  <SCORE.RESTR.CAVITY>
0

>  <SCORE.RESTR.norm>
0

>  <SCORE.SYSTEM>
0

>  <SCORE.SYSTEM.CONST>
0

>  <SCORE.SYSTEM.DIHEDRAL>
0

>  <SCORE.SYSTEM.SOLV>
0

>  <SCORE.SYSTEM.norm>
0

>  <SCORE.heavy>
12

>  <SCORE.norm>
-2.22153

>  <SYMMETRIC_BONDS>
4 1 2

>  <RMSD>
1.842

$$$$
1kod cryst
 OpenBabel11021811393D
libRbt.so/2013.1/901 2013/11/27
 12 11  0  0  0  0  0  0  0  0999 V2000
    1.6344    5.9122   35.5615 C   0  0  0  0  0  0  0  0  0  0  0  0
    2.3103    6.6065   36.3061 O   0  5  0  0  0  0  0  0  0  0  0  0
    0.6396    5.2955   35.9217 O   0  0  0  0  0  0  0  0  0  0  0  0
    2.0610    5.8119   34.0836 C   0  0  1  0  0  0  0  0  0  0  0  0
    2.2202    7.1873   33.5201 N   0  3  0  0  0  0  0  0  0  0  0  0
    3.3958    5.0421   33.9499 C   0  0  0  0  0  0  0  0  0  0  0  0
    3.2312    3.5994   34.4098 C   0  0  0  0  0  0  0  0  0  0  0  0
    2.3490    2.8384   33.4226 C   0  0  0  0  0  0  0  0  0  0  0  0
    2.4817    1.3709   33.6824 N   0  0  0  0  0  0  0  0  0  0  0  0
    1.4209    0.6230   33.8290 C   0  0  0  0  0  0  0  0  0  0  0  0
    1.2897   -0.0932   34.8191 O   0  0  0  0  0  0  0  0  0  0  0  0
    0.4979    0.6218   32.9118 N   0  0  0  0  0  0  0  0  0  0  0  0
  1  2  1  0  0  0  0
  1  3  2  0  0  0  0
  4  1  1  1  0  0  0
  4  6  1  0  0  0  0
  4  5  1  0  0  0  0
  6  7  1  0  0  0  0
  7  8  1  0  0  0  0
  8  9  1  0  0  0  0
  9 10  1  0  0  0  0
 10 12  1  0  0  0  0
 10 11  2  0  0  0  0
M  CHG  2   2  -1   5   1
M  END
>  <CHROM.1>
-52.56541361,64.09338627,-158.57255761,69.09873163,165.57497085,-50.63106701
1.94435930,3.75358365,34.36571212,1.36487742,0.95830556,0.36415472

>  <Name>
1kod cryst

>  <RI>
0

>  <Rbt.Current_Directory>
/home/itssahil/PROJECTS/Mol_Feturizer/New_Systems/rnas/1kod

>  <Rbt.Executable>
rbdock ($Id: //depot/dev/client3/rdock/2013.1/src/exe/rbdock.cxx#4 $)

>  <Rbt.Library>
libRbt.so (2013.1, Build901 2013/11/27)

>  <Rbt.Parameter_File>
/export/apps/rDock/src/rDock_2013.1_src/data/scripts/dock_solv.prm

>  <Rbt.Receptor>
prm/pocket_docking_6.prm

>  <SCORE>
-25.7993

>  <SCORE.INTER>
-21.0506

>  <SCORE.INTER.CONST>
1

>  <SCORE.INTER.POLAR>
-3.89087

>  <SCORE.INTER.ROT>
5

>  <SCORE.INTER.SOLV>
17.3258

>  <SCORE.INTER.VDW>
-13.7728

>  <SCORE.INTER.norm>
-1.75422

>  <SCORE.INTRA>
-4.74867

>  <SCORE.INTRA.DIHEDRAL>
-3.37497

>  <SCORE.INTRA.DIHEDRAL.0>
7.7847

>  <SCORE.INTRA.POLAR>
0

>  <SCORE.INTRA.POLAR.0>
0

>  <SCORE.INTRA.REPUL>
0

>  <SCORE.INTRA.REPUL.0>
0

>  <SCORE.INTRA.SOLV>
-2.34587

>  <SCORE.INTRA.SOLV.lig_0>
-57.5465

>  <SCORE.INTRA.VDW>
-1.88825

>  <SCORE.INTRA.VDW.0>
1.39369

>  <SCORE.INTRA.norm>
-0.395723

>  <SCORE.RESTR>
0

>  <SCORE.RESTR.CAVITY>
0

>  <SCORE.RESTR.norm>
0

>  <SCORE.SYSTEM>
0

>  <SCORE.SYSTEM.CONST>
0

>  <SCORE.SYSTEM.DIHEDRAL>
0

>  <SCORE.SYSTEM.SOLV>
0

>  <SCORE.SYSTEM.norm>
0

>  <SCORE.heavy>
12

>  <SCORE.norm>
-2.14994

>  <SYMMETRIC_BONDS>
4 1 2

>  <RMSD>
1.845

$$$$
1kod cryst
 OpenBabel11021811393D
libRbt.so/2013.1/901 2013/11/27
 12 11  0  0  0  0  0  0  0  0999 V2000
    2.8823    5.9748   35.4015 C   0  0  0  0  0  0  0  0  0  0  0  0
    2.4473    6.1244   36.5337 O   0  5  0  0  0  0  0  0  0  0  0  0
    4.0191    5.5929   35.1535 O   0  0  0  0  0  0  0  0  0  0  0  0
    1.9411    6.2835   34.2204 C   0  0  1  0  0  0  0  0  0  0  0  0
    2.4861    7.4373   33.4417 N   0  3  0  0  0  0  0  0  0  0  0  0
    1.8050    5.0535   33.2926 C   0  0  0  0  0  0  0  0  0  0  0  0
    0.7711    4.0792   33.8419 C   0  0  0  0  0  0  0  0  0  0  0  0
    1.4735    2.9259   34.5548 C   0  0  0  0  0  0  0  0  0  0  0  0
    1.9679    1.9509   33.5332 N   0  0  0  0  0  0  0  0  0  0  0  0
    1.1914    0.9967   33.0943 C   0  0  0  0  0  0  0  0  0  0  0  0
    1.5578   -0.1760   33.1271 O   0  0  0  0  0  0  0  0  0  0  0  0
    0.0226    1.2880   32.6021 N   0  0  0  0  0  0  0  0  0  0  0  0
  1  2  1  0  0  0  0
  1  3  2  0  0  0  0
  4  1  1  1  0  0  0
  4  6  1  0  0  0  0
  4  5  1  0  0  0  0
  6  7  1  0  0  0  0
  7  8  1  0  0  0  0
  8  9  1  0  0  0  0
  9 10  1  0  0  0  0
 10 12  1  0  0  0  0
 10 11  2  0  0  0  0
M  CHG  2   2  -1   5   1
M  END
>  <CHROM.1>
115.79761149,82.47312479,71.03841448,-100.51287781,-79.36710716,93.09636767
1.89536188,3.97869108,34.05310786,-1.07890456,0.94704666,3.03744597

>  <Name>
1kod cryst

>  <RI>
0

>  <Rbt.Current_Directory>
/home/itssahil/PROJECTS/Mol_Feturizer/New_Systems/rnas/1kod

>  <Rbt.Executable>
rbdock ($Id: //depot/dev/client3/rdock/2013.1/src/exe/rbdock.cxx#4 $)

>  <Rbt.Library>
libRbt.so (2013.1, Build901 2013/11/27)

>  <Rbt.Parameter_File>
/export/apps/rDock/src/rDock_2013.1_src/data/scripts/dock_solv.prm

>  <Rbt.Receptor>
prm/pocket_docking_3.prm

>  <SCORE>
-23.0742

>  <SCORE.INTER>
-21.4633

>  <SCORE.INTER.CONST>
1

>  <SCORE.INTER.POLAR>
-3.45624

>  <SCORE.INTER.ROT>
5

>  <SCORE.INTER.SOLV>
16.1587

>  <SCORE.INTER.VDW>
-15.1076

>  <SCORE.INTER.norm>
-1.78861

>  <SCORE.INTRA>
-1.93744

>  <SCORE.INTRA.DIHEDRAL>
2.28956

>  <SCORE.INTRA.DIHEDRAL.0>
7.7847

>  <SCORE.INTRA.POLAR>
0

>  <SCORE.INTRA.POLAR.0>
0

>  <SCORE.INTRA.REPUL>
0

>  <SCORE.INTRA.REPUL.0>
0

>  <SCORE.INTRA.SOLV>
-1.61428

>  <SCORE.INTRA.SOLV.lig_0>
-57.5465

>  <SCORE.INTRA.VDW>
-2.27508

>  <SCORE.INTRA.VDW.0>
1.39369

>  <SCORE.INTRA.norm>
-0.161454

>  <SCORE.RESTR>
0.326527

>  <SCORE.RESTR.CAVITY>
0.326527

>  <SCORE.RESTR.norm>
0.0272106

>  <SCORE.SYSTEM>
0

>  <SCORE.SYSTEM.CONST>
0

>  <SCORE.SYSTEM.DIHEDRAL>
0

>  <SCORE.SYSTEM.SOLV>
0

>  <SCORE.SYSTEM.norm>
0

>  <SCORE.heavy>
12

>  <SCORE.norm>
-1.92285

>  <SYMMETRIC_BONDS>
4 1 2

>  <RMSD>
1.854

$$$$
1kod cryst
 OpenBabel11021811393D
libRbt.so/2013.1/901 2013/11/27
 12 11  0  0  0  0  0  0  0  0999 V2000
    1.1087    5.6752   35.1777 C   0  0  0  0  0  0  0  0  0  0  0  0
    1.3615    6.5948   35.9417 O   0  5  0  0  0  0  0  0  0  0  0  0
    0.1788    4.8942   35.3359 O   0  0  0  0  0  0  0  0  0  0  0  0
    2.0140    5.4931   33.9433 C   0  0  1  0  0  0  0  0  0  0  0  0
    2.4412    6.8345   33.4407 N   0  3  0  0  0  0  0  0  0  0  0  0
    3.2635    4.6539   34.2995 C   0  0  0  0  0  0  0  0  0  0  0  0
    2.8626    3.2432   34.7107 C   0  0  0  0  0  0  0  0  0  0  0  0
    2.3344    2.4804   33.4978 C   0  0  0  0  0  0  0  0  0  0  0  0
    2.2939    1.0200   33.8211 N   0  0  0  0  0  0  0  0  0  0  0  0
    1.1732    0.3533   33.7463 C   0  0  0  0  0  0  0  0  0  0  0  0
    0.7713   -0.3082   34.7009 O   0  0  0  0  0  0  0  0  0  0  0  0
    0.4794    0.3747   32.6456 N   0  0  0  0  0  0  0  0  0  0  0  0
  1  2  1  0  0  0  0
  1  3  2  0  0  0  0
  4  1  1  1  0  0  0
  4  6  1  0  0  0  0
  4  5  1  0  0  0  0
  6  7  1  0  0  0  0
  7  8  1  0  0  0  0
  8  9  1  0  0  0  0
  9 10  1  0  0  0  0
 10 12  1  0  0  0  0
 10 11  2  0  0  0  0
M  CHG  2   2  -1   5   1
M  END
>  <CHROM.1>
-35.46278142,63.83441091,51.15534080,69.33444326,164.96140881,-57.98484060
1.67581250,3.46219725,34.26431811,1.44109681,0.61851923,0.24482661

>  <Name>
1kod cryst

>  <RI>
0

>  <Rbt.Current_Directory>
/home/itssahil/PROJECTS/Mol_Feturizer/New_Systems/rnas/1kod

>  <Rbt.Executable>
rbdock ($Id: //depot/dev/client3/rdock/2013.1/src/exe/rbdock.cxx#4 $)

>  <Rbt.Library>
libRbt.so (2013.1, Build901 2013/11/27)

>  <Rbt.Parameter_File>
/export/apps/rDock/src/rDock_2013.1_src/data/scripts/dock_solv.prm

>  <Rbt.Receptor>
prm/pocket_docking_2.prm

>  <SCORE>
-24.4798

>  <SCORE.INTER>
-20.0668

>  <SCORE.INTER.CONST>
1

>  <SCORE.INTER.POLAR>
-3.93993

>  <SCORE.INTER.ROT>
5

>  <SCORE.INTER.SOLV>
20.0387

>  <SCORE.INTER.VDW>
-13.8576

>  <SCORE.INTER.norm>
-1.67223

>  <SCORE.INTRA>
-5.1363

>  <SCORE.INTRA.DIHEDRAL>
-4.12749

>  <SCORE.INTRA.DIHEDRAL.0>
7.7847

>  <SCORE.INTRA.POLAR>
0

>  <SCORE.INTRA.POLAR.0>
0

>  <SCORE.INTRA.REPUL>
0

>  <SCORE.INTRA.REPUL.0>
0

>  <SCORE.INTRA.SOLV>
-2.06107

>  <SCORE.INTRA.SOLV.lig_0>
-57.5465

>  <SCORE.INTRA.VDW>
-2.04202

>  <SCORE.INTRA.VDW.0>
1.39369

>  <SCORE.INTRA.norm>
-0.428025

>  <SCORE.RESTR>
0.723209

>  <SCORE.RESTR.CAVITY>
0.723209

>  <SCORE.RESTR.norm>
0.0602674

>  <SCORE.SYSTEM>
0

>  <SCORE.SYSTEM.CONST>
0

>  <SCORE.SYSTEM.DIHEDRAL>
0

>  <SCORE.SYSTEM.SOLV>
0

>  <SCORE.SYSTEM.norm>
0

>  <SCORE.heavy>
12

>  <SCORE.norm>
-2.03999

>  <SYMMETRIC_BONDS>
4 1 2

>  <RMSD>
1.875

$$$$
1kod cryst
 OpenBabel11021811393D
libRbt.so/2013.1/901 2013/11/27
 12 11  0  0  0  0  0  0  0  0999 V2000
    1.5206    5.9762   36.7535 C   0  0  0  0  0  0  0  0  0  0  0  0
    2.2535    5.3135   37.4725 O   0  5  0  0  0  0  0  0  0  0  0  0
    1.8672    7.0091   36.1943 O   0  0  0  0  0  0  0  0  0  0  0  0
    0.0777    5.4778   36.5388 C   0  0  1  0  0  0  0  0  0  0  0  0
   -0.8761    6.6018   36.7868 N   0  3  0  0  0  0  0  0  0  0  0  0
   -0.1107    4.9501   35.0972 C   0  0  0  0  0  0  0  0  0  0  0  0
    0.8910    3.8429   34.7963 C   0  0  0  0  0  0  0  0  0  0  0  0
    0.8219    3.4696   33.3172 C   0  0  0  0  0  0  0  0  0  0  0  0
    1.6805    2.2679   33.0778 N   0  0  0  0  0  0  0  0  0  0  0  0
    1.1903    1.0641   33.2068 C   0  0  0  0  0  0  0  0  0  0  0  0
    1.7387    0.2373   33.9321 O   0  0  0  0  0  0  0  0  0  0  0  0
    0.1184    0.7278   32.5501 N   0  0  0  0  0  0  0  0  0  0  0  0
  1  2  1  0  0  0  0
  1  3  2  0  0  0  0
  4  1  1  6  0  0  0
  4  6  1  0  0  0  0
  4  5  1  0  0  0  0
  6  7  1  0  0  0  0
  7  8  1  0  0  0  0
  8  9  1  0  0  0  0
  9 10  1  0  0  0  0
 10 12  1  0  0  0  0
 10 11  2  0  0  0  0
M  CHG  2   2  -1   5   1
M  END
>  <CHROM.1>
130.17255821,56.92580852,-176.71159156,-172.17804223,-172.80209847,-91.35116332
0.92180964,3.92492451,34.98712858,-1.61408696,0.39016762,-2.51940639

>  <Name>
1kod cryst

>  <RI>
0

>  <Rbt.Current_Directory>
/home/itssahil/PROJECTS/Mol_Feturizer/New_Systems/rnas/1kod

>  <Rbt.Executable>
rbdock ($Id: //depot/dev/client3/rdock/2013.1/src/exe/rbdock.cxx#4 $)

>  <Rbt.Library>
libRbt.so (2013.1, Build901 2013/11/27)

>  <Rbt.Parameter_File>
/export/apps/rDock/src/rDock_2013.1_src/data/scripts/dock_solv.prm

>  <Rbt.Receptor>
prm/pocket_docking_5.prm

>  <SCORE>
-25.4098

>  <SCORE.INTER>
-19.3579

>  <SCORE.INTER.CONST>
1

>  <SCORE.INTER.POLAR>
-2.73514

>  <SCORE.INTER.ROT>
5

>  <SCORE.INTER.SOLV>
17.6033

>  <SCORE.INTER.VDW>
-16.5892

>  <SCORE.INTER.norm>
-1.61316

>  <SCORE.INTRA>
-6.0519

>  <SCORE.INTRA.DIHEDRAL>
-5.03367

>  <SCORE.INTRA.DIHEDRAL.0>
7.7847

>  <SCORE.INTRA.POLAR>
0

>  <SCORE.INTRA.POLAR.0>
0

>  <SCORE.INTRA.REPUL>
0

>  <SCORE.INTRA.REPUL.0>
0

>  <SCORE.INTRA.SOLV>
-2.44676

>  <SCORE.INTRA.SOLV.lig_0>
-57.5465

>  <SCORE.INTRA.VDW>
-2.31169

>  <SCORE.INTRA.VDW.0>
1.39369

>  <SCORE.INTRA.norm>
-0.504325

>  <SCORE.RESTR>
0

>  <SCORE.RESTR.CAVITY>
0

>  <SCORE.RESTR.norm>
0

>  <SCORE.SYSTEM>
0

>  <SCORE.SYSTEM.CONST>
0

>  <SCORE.SYSTEM.DIHEDRAL>
0

>  <SCORE.SYSTEM.SOLV>
0

>  <SCORE.SYSTEM.norm>
0

>  <SCORE.heavy>
12

>  <SCORE.norm>
-2.11748

>  <SYMMETRIC_BONDS>
4 1 2

>  <RMSD>
1.875

$$$$
1kod cryst
 OpenBabel11021811393D
libRbt.so/2013.1/901 2013/11/27
 12 11  0  0  0  0  0  0  0  0999 V2000
    2.9162    6.0997   35.4849 C   0  0  0  0  0  0  0  0  0  0  0  0
    2.5525    6.4176   36.6074 O   0  5  0  0  0  0  0  0  0  0  0  0
    3.9944    5.5722   35.2420 O   0  0  0  0  0  0  0  0  0  0  0  0
    1.9579    6.3784   34.3100 C   0  0  1  0  0  0  0  0  0  0  0  0
    2.5259    7.4654   33.4554 N   0  3  0  0  0  0  0  0  0  0  0  0
    1.7531    5.1051   33.4563 C   0  0  0  0  0  0  0  0  0  0  0  0
    0.6227    4.2558   34.0228 C   0  0  0  0  0  0  0  0  0  0  0  0
    0.2497    3.1593   33.0277 C   0  0  0  0  0  0  0  0  0  0  0  0
    1.3662    2.1657   32.9572 N   0  0  0  0  0  0  0  0  0  0  0  0
    1.1233    0.8853   33.0449 C   0  0  0  0  0  0  0  0  0  0  0  0
    1.7124    0.1895   33.8691 O   0  0  0  0  0  0  0  0  0  0  0  0
    0.2602    0.3336   32.2424 N   0  0  0  0  0  0  0  0  0  0  0  0
  1  2  1  0  0  0  0
  1  3  2  0  0  0  0
  4  1  1  1  0  0  0
  4  6  1  0  0  0  0
  4  5  1  0  0  0  0
  6  7  1  0  0  0  0
  7  8  1  0  0  0  0
  8  9  1  0  0  0  0
  9 10  1  0  0  0  0
 10 12  1  0  0  0  0
 10 11  2  0  0  0  0
M  CHG  2   2  -1   5   1
M  END
>  <CHROM.1>
110.65200051,86.88424180,-47.58436400,168.83624726,69.50529038,-48.44733540
1.77724248,4.01312858,33.96876846,-1.05769814,0.92136036,3.06283153

>  <Name>
1kod cryst

>  <RI>
0

>  <Rbt.Current_Directory>
/home/itssahil/PROJECTS/Mol_Feturizer/New_Systems/rnas/1kod

>  <Rbt.Executable>
rbdock ($Id: //depot/dev/client3/rdock/2013.1/src/exe/rbdock.cxx#4 $)

>  <Rbt.Library>
libRbt.so (2013.1, Build901 2013/11/27)

>  <Rbt.Parameter_File>
/export/apps/rDock/src/rDock_2013.1_src/data/scripts/dock_solv.prm

>  <Rbt.Receptor>
prm/pocket_docking_3.prm

>  <SCORE>
-27.9974

>  <SCORE.INTER>
-23.5377

>  <SCORE.INTER.CONST>
1

>  <SCORE.INTER.POLAR>
-3.55005

>  <SCORE.INTER.ROT>
5

>  <SCORE.INTER.SOLV>
17.3276

>  <SCORE.INTER.VDW>
-16.5675

>  <SCORE.INTER.norm>
-1.96147

>  <SCORE.INTRA>
-4.82522

>  <SCORE.INTRA.DIHEDRAL>
-2.18655

>  <SCORE.INTRA.DIHEDRAL.0>
7.7847

>  <SCORE.INTRA.POLAR>
0

>  <SCORE.INTRA.POLAR.0>
0

>  <SCORE.INTRA.REPUL>
0

>  <SCORE.INTRA.REPUL.0>
0

>  <SCORE.INTRA.SOLV>
-2.85459

>  <SCORE.INTRA.SOLV.lig_0>
-57.5465

>  <SCORE.INTRA.VDW>
-2.30464

>  <SCORE.INTRA.VDW.0>
1.39369

>  <SCORE.INTRA.norm>
-0.402101

>  <SCORE.RESTR>
0.365446

>  <SCORE.RESTR.CAVITY>
0.365446

>  <SCORE.RESTR.norm>
0.0304538

>  <SCORE.SYSTEM>
0

>  <SCORE.SYSTEM.CONST>
0

>  <SCORE.SYSTEM.DIHEDRAL>
0

>  <SCORE.SYSTEM.SOLV>
0

>  <SCORE.SYSTEM.norm>
0

>  <SCORE.heavy>
12

>  <SCORE.norm>
-2.33312

>  <SYMMETRIC_BONDS>
4 1 2

>  <RMSD>
1.887

$$$$
1kod cryst
 OpenBabel11021811393D
libRbt.so/2013.1/901 2013/11/27
 12 11  0  0  0  0  0  0  0  0999 V2000
    0.9701    5.4799   35.0511 C   0  0  0  0  0  0  0  0  0  0  0  0
    1.2127    6.2235   35.9899 O   0  5  0  0  0  0  0  0  0  0  0  0
   -0.0568    4.8201   34.9523 O   0  0  0  0  0  0  0  0  0  0  0  0
    2.0194    5.3711   33.9270 C   0  0  1  0  0  0  0  0  0  0  0  0
    2.3979    6.7428   33.4689 N   0  3  0  0  0  0  0  0  0  0  0  0
    3.2808    4.6276   34.4253 C   0  0  0  0  0  0  0  0  0  0  0  0
    3.3604    3.2359   33.8114 C   0  0  0  0  0  0  0  0  0  0  0  0
    2.1842    2.3893   34.2926 C   0  0  0  0  0  0  0  0  0  0  0  0
    2.2092    1.0728   33.5822 N   0  0  0  0  0  0  0  0  0  0  0  0
    1.0964    0.4622   33.2741 C   0  0  0  0  0  0  0  0  0  0  0  0
    0.9059   -0.7041   33.6117 O   0  0  0  0  0  0  0  0  0  0  0  0
    0.1833    1.0871   32.5893 N   0  0  0  0  0  0  0  0  0  0  0  0
  1  2  1  0  0  0  0
  1  3  2  0  0  0  0
  4  1  1  1  0  0  0
  4  6  1  0  0  0  0
  4  5  1  0  0  0  0
  6  7  1  0  0  0  0
  7  8  1  0  0  0  0
  8  9  1  0  0  0  0
  9 10  1  0  0  0  0
 10 12  1  0  0  0  0
 10 11  2  0  0  0  0
M  CHG  2   2  -1   5   1
M  END
>  <CHROM.1>
-50.70104900,107.91231869,57.92303401,-64.45931011,174.79095663,33.89531763
1.62835993,3.42428748,34.06978874,1.46457051,0.25771999,0.25987039

>  <Name>
1kod cryst

>  <RI>
0

>  <Rbt.Current_Directory>
/home/itssahil/PROJECTS/Mol_Feturizer/New_Systems/rnas/1kod

>  <Rbt.Executable>
rbdock ($Id: //depot/dev/client3/rdock/2013.1/src/exe/rbdock.cxx#4 $)

>  <Rbt.Library>
libRbt.so (2013.1, Build901 2013/11/27)

>  <Rbt.Parameter_File>
/export/apps/rDock/src/rDock_2013.1_src/data/scripts/dock_solv.prm

>  <Rbt.Receptor>
prm/pocket_docking_2.prm

>  <SCORE>
-29.0554

>  <SCORE.INTER>
-25.9622

>  <SCORE.INTER.CONST>
1

>  <SCORE.INTER.POLAR>
-4.71276

>  <SCORE.INTER.ROT>
5

>  <SCORE.INTER.SOLV>
20.9637

>  <SCORE.INTER.VDW>
-15.5202

>  <SCORE.INTER.norm>
-2.16352

>  <SCORE.INTRA>
-3.70792

>  <SCORE.INTRA.DIHEDRAL>
-0.712316

>  <SCORE.INTRA.DIHEDRAL.0>
7.7847

>  <SCORE.INTRA.POLAR>
0

>  <SCORE.INTRA.POLAR.0>
0

>  <SCORE.INTRA.REPUL>
0

>  <SCORE.INTRA.REPUL.0>
0

>  <SCORE.INTRA.SOLV>
-2.02506

>  <SCORE.INTRA.SOLV.lig_0>
-57.5465

>  <SCORE.INTRA.VDW>
-2.33923

>  <SCORE.INTRA.VDW.0>
1.39369

>  <SCORE.INTRA.norm>
-0.308993

>  <SCORE.RESTR>
0.614741

>  <SCORE.RESTR.CAVITY>
0.614741

>  <SCORE.RESTR.norm>
0.0512284

>  <SCORE.SYSTEM>
0

>  <SCORE.SYSTEM.CONST>
0

>  <SCORE.SYSTEM.DIHEDRAL>
0

>  <SCORE.SYSTEM.SOLV>
0

>  <SCORE.SYSTEM.norm>
0

>  <SCORE.heavy>
12

>  <SCORE.norm>
-2.42129

>  <SYMMETRIC_BONDS>
4 1 2

>  <RMSD>
1.889

$$$$
1kod cryst
 OpenBabel11021811393D
libRbt.so/2013.1/901 2013/11/27
 12 11  0  0  0  0  0  0  0  0999 V2000
    1.2582    5.1374   35.5090 C   0  0  0  0  0  0  0  0  0  0  0  0
    0.0515    5.2445   35.6700 O   0  5  0  0  0  0  0  0  0  0  0  0
    2.0583    5.0012   36.4260 O   0  0  0  0  0  0  0  0  0  0  0  0
    1.7996    5.1739   34.0661 C   0  0  1  0  0  0  0  0  0  0  0  0
    2.9949    6.0697   34.0085 N   0  3  0  0  0  0  0  0  0  0  0  0
    2.1950    3.7553   33.5935 C   0  0  0  0  0  0  0  0  0  0  0  0
    0.9645    2.8645   33.4829 C   0  0  0  0  0  0  0  0  0  0  0  0
    1.3710    1.4787   32.9866 C   0  0  0  0  0  0  0  0  0  0  0  0
    2.1369    0.7805   34.0657 N   0  0  0  0  0  0  0  0  0  0  0  0
    1.5461    0.4193   35.1732 C   0  0  0  0  0  0  0  0  0  0  0  0
    1.9995    0.7553   36.2650 O   0  0  0  0  0  0  0  0  0  0  0  0
    0.4744   -0.3170   35.1249 N   0  0  0  0  0  0  0  0  0  0  0  0
  1  2  1  0  0  0  0
  1  3  2  0  0  0  0
  4  1  1  1  0  0  0
  4  6  1  0  0  0  0
  4  5  1  0  0  0  0
  6  7  1  0  0  0  0
  7  8  1  0  0  0  0
  8  9  1  0  0  0  0
  9 10  1  0  0  0  0
 10 12  1  0  0  0  0
 10 11  2  0  0  0  0
M  CHG  2   2  -1   5   1
M  END
>  <CHROM.1>
134.75907138,66.12470792,75.67044090,178.78201050,70.05886887,-112.44921211
1.58723773,3.04559955,34.72282965,1.23191733,1.27677066,0.33765555

>  <Name>
1kod cryst

>  <RI>
0

>  <Rbt.Current_Directory>
/home/itssahil/PROJECTS/Mol_Feturizer/New_Systems/rnas/1kod

>  <Rbt.Executable>
rbdock ($Id: //depot/dev/client3/rdock/2013.1/src/exe/rbdock.cxx#4 $)

>  <Rbt.Library>
libRbt.so (2013.1, Build901 2013/11/27)

>  <Rbt.Parameter_File>
/export/apps/rDock/src/rDock_2013.1_src/data/scripts/dock_solv.prm

>  <Rbt.Receptor>
prm/pocket_docking_3.prm

>  <SCORE>
-25.3714

>  <SCORE.INTER>
-19.642

>  <SCORE.INTER.CONST>
1

>  <SCORE.INTER.POLAR>
-3.14452

>  <SCORE.INTER.ROT>
5

>  <SCORE.INTER.SOLV>
14.1689

>  <SCORE.INTER.VDW>
-14.2692

>  <SCORE.INTER.norm>
-1.63683

>  <SCORE.INTRA>
-5.72942

>  <SCORE.INTRA.DIHEDRAL>
-4.46079

>  <SCORE.INTRA.DIHEDRAL.0>
7.7847

>  <SCORE.INTRA.POLAR>
0

>  <SCORE.INTRA.POLAR.0>
0

>  <SCORE.INTRA.REPUL>
0

>  <SCORE.INTRA.REPUL.0>
0

>  <SCORE.INTRA.SOLV>
-2.08926

>  <SCORE.INTRA.SOLV.lig_0>
-57.5465

>  <SCORE.INTRA.VDW>
-2.45439

>  <SCORE.INTRA.VDW.0>
1.39369

>  <SCORE.INTRA.norm>
-0.477451

>  <SCORE.RESTR>
0

>  <SCORE.RESTR.CAVITY>
0

>  <SCORE.RESTR.norm>
0

>  <SCORE.SYSTEM>
0

>  <SCORE.SYSTEM.CONST>
0

>  <SCORE.SYSTEM.DIHEDRAL>
0

>  <SCORE.SYSTEM.SOLV>
0

>  <SCORE.SYSTEM.norm>
0

>  <SCORE.heavy>
12

>  <SCORE.norm>
-2.11428

>  <SYMMETRIC_BONDS>
4 1 2

>  <RMSD>
1.894

$$$$
1kod cryst
 OpenBabel11021811393D
libRbt.so/2013.1/901 2013/11/27
 12 11  0  0  0  0  0  0  0  0999 V2000
    1.8606    5.2208   35.4881 C   0  0  0  0  0  0  0  0  0  0  0  0
    0.9306    5.2298   36.2808 O   0  5  0  0  0  0  0  0  0  0  0  0
    3.0376    5.2940   35.8180 O   0  0  0  0  0  0  0  0  0  0  0  0
    1.5280    5.1082   33.9871 C   0  0  1  0  0  0  0  0  0  0  0  0
    2.2352    6.1933   33.2407 N   0  3  0  0  0  0  0  0  0  0  0  0
    1.9633    3.7319   33.4314 C   0  0  0  0  0  0  0  0  0  0  0  0
    0.7687    2.7925   33.3300 C   0  0  0  0  0  0  0  0  0  0  0  0
    1.2263    1.4249   32.8277 C   0  0  0  0  0  0  0  0  0  0  0  0
    2.0834    0.7841   33.8733 N   0  0  0  0  0  0  0  0  0  0  0  0
    1.5838    0.4608   35.0361 C   0  0  0  0  0  0  0  0  0  0  0  0
    2.1115    0.8490   36.0760 O   0  0  0  0  0  0  0  0  0  0  0  0
    0.5250   -0.2928   35.0989 N   0  0  0  0  0  0  0  0  0  0  0  0
  1  2  1  0  0  0  0
  1  3  2  0  0  0  0
  4  1  1  1  0  0  0
  4  6  1  0  0  0  0
  4  5  1  0  0  0  0
  6  7  1  0  0  0  0
  7  8  1  0  0  0  0
  8  9  1  0  0  0  0
  9 10  1  0  0  0  0
 10 12  1  0  0  0  0
 10 11  2  0  0  0  0
M  CHG  2   2  -1   5   1
M  END
>  <CHROM.1>
128.89730128,100.16295617,-64.87088763,-177.97485440,67.38642779,-115.59044459
1.66937191,3.08655092,34.55511430,-0.51302723,1.42142785,2.09250862

>  <Name>
1kod cryst

>  <RI>
0

>  <Rbt.Current_Directory>
/home/itssahil/PROJECTS/Mol_Feturizer/New_Systems/rnas/1kod

>  <Rbt.Executable>
rbdock ($Id: //depot/dev/client3/rdock/2013.1/src/exe/rbdock.cxx#4 $)

>  <Rbt.Library>
libRbt.so (2013.1, Build901 2013/11/27)

>  <Rbt.Parameter_File>
/export/apps/rDock/src/rDock_2013.1_src/data/scripts/dock_solv.prm

>  <Rbt.Receptor>
prm/pocket_docking_6.prm

>  <SCORE>
-25.1597

>  <SCORE.INTER>
-20.648

>  <SCORE.INTER.CONST>
1

>  <SCORE.INTER.POLAR>
-3.87249

>  <SCORE.INTER.ROT>
5

>  <SCORE.INTER.SOLV>
17.9113

>  <SCORE.INTER.VDW>
-13.7608

>  <SCORE.INTER.norm>
-1.72067

>  <SCORE.INTRA>
-4.51166

>  <SCORE.INTRA.DIHEDRAL>
-1.39818

>  <SCORE.INTRA.DIHEDRAL.0>
7.7847

>  <SCORE.INTRA.POLAR>
0

>  <SCORE.INTRA.POLAR.0>
0

>  <SCORE.INTRA.REPUL>
0

>  <SCORE.INTRA.REPUL.0>
0

>  <SCORE.INTRA.SOLV>
-2.33997

>  <SCORE.INTRA.SOLV.lig_0>
-57.5465

>  <SCORE.INTRA.VDW>
-2.64258

>  <SCORE.INTRA.VDW.0>
1.39369

>  <SCORE.INTRA.norm>
-0.375972

>  <SCORE.RESTR>
0

>  <SCORE.RESTR.CAVITY>
0

>  <SCORE.RESTR.norm>
0

>  <SCORE.SYSTEM>
0

>  <SCORE.SYSTEM.CONST>
0

>  <SCORE.SYSTEM.DIHEDRAL>
0

>  <SCORE.SYSTEM.SOLV>
0

>  <SCORE.SYSTEM.norm>
0

>  <SCORE.heavy>
12

>  <SCORE.norm>
-2.09664

>  <SYMMETRIC_BONDS>
4 1 2

>  <RMSD>
1.902

$$$$
1kod cryst
 OpenBabel11021811393D
libRbt.so/2013.1/901 2013/11/27
 12 11  0  0  0  0  0  0  0  0999 V2000
    2.9563    6.1772   35.4678 C   0  0  0  0  0  0  0  0  0  0  0  0
    2.5395    6.2888   36.6111 O   0  5  0  0  0  0  0  0  0  0  0  0
    4.1058    5.8596   35.1897 O   0  0  0  0  0  0  0  0  0  0  0  0
    1.9737    6.4506   34.3118 C   0  0  1  0  0  0  0  0  0  0  0  0
    2.5074    7.5568   33.4597 N   0  3  0  0  0  0  0  0  0  0  0  0
    1.7780    5.1827   33.4479 C   0  0  0  0  0  0  0  0  0  0  0  0
    0.7148    4.2778   34.0568 C   0  0  0  0  0  0  0  0  0  0  0  0
    0.3287    3.1881   33.0592 C   0  0  0  0  0  0  0  0  0  0  0  0
    1.4360    2.1849   32.9814 N   0  0  0  0  0  0  0  0  0  0  0  0
    1.1818    0.9063   33.0629 C   0  0  0  0  0  0  0  0  0  0  0  0
    1.7661    0.2009   33.8824 O   0  0  0  0  0  0  0  0  0  0  0  0
    0.3122    0.3666   32.2593 N   0  0  0  0  0  0  0  0  0  0  0  0
  1  2  1  0  0  0  0
  1  3  2  0  0  0  0
  4  1  1  1  0  0  0
  4  6  1  0  0  0  0
  4  5  1  0  0  0  0
  6  7  1  0  0  0  0
  7  8  1  0  0  0  0
  8  9  1  0  0  0  0
  9 10  1  0  0  0  0
 10 12  1  0  0  0  0
 10 11  2  0  0  0  0
M  CHG  2   2  -1   5   1
M  END
>  <CHROM.1>
121.24578720,84.43587916,70.38467956,168.39250253,73.71531088,-48.31533505
1.82356639,4.06466323,33.97435676,-1.05881147,0.93074530,3.04897831

>  <Name>
1kod cryst

>  <RI>
0

>  <Rbt.Current_Directory>
/home/itssahil/PROJECTS/Mol_Feturizer/New_Systems/rnas/1kod

>  <Rbt.Executable>
rbdock ($Id: //depot/dev/client3/rdock/2013.1/src/exe/rbdock.cxx#4 $)

>  <Rbt.Library>
libRbt.so (2013.1, Build901 2013/11/27)

>  <Rbt.Parameter_File>
/export/apps/rDock/src/rDock_2013.1_src/data/scripts/dock_solv.prm

>  <Rbt.Receptor>
prm/pocket_docking_4.prm

>  <SCORE>
-28.6925

>  <SCORE.INTER>
-23.6859

>  <SCORE.INTER.CONST>
1

>  <SCORE.INTER.POLAR>
-3.53768

>  <SCORE.INTER.ROT>
5

>  <SCORE.INTER.SOLV>
17.2046

>  <SCORE.INTER.VDW>
-16.6665

>  <SCORE.INTER.norm>
-1.97382

>  <SCORE.INTRA>
-5.00707

>  <SCORE.INTRA.DIHEDRAL>
-2.22795

>  <SCORE.INTRA.DIHEDRAL.0>
7.7847

>  <SCORE.INTRA.POLAR>
0

>  <SCORE.INTRA.POLAR.0>
0

>  <SCORE.INTRA.REPUL>
0

>  <SCORE.INTRA.REPUL.0>
0

>  <SCORE.INTRA.SOLV>
-2.78824

>  <SCORE.INTRA.SOLV.lig_0>
-57.5465

>  <SCORE.INTRA.VDW>
-2.49898

>  <SCORE.INTRA.VDW.0>
1.39369

>  <SCORE.INTRA.norm>
-0.417256

>  <SCORE.RESTR>
0.00041767

>  <SCORE.RESTR.CAVITY>
0.00041767

>  <SCORE.RESTR.norm>
3.48058e-05

>  <SCORE.SYSTEM>
0

>  <SCORE.SYSTEM.CONST>
0

>  <SCORE.SYSTEM.DIHEDRAL>
0

>  <SCORE.SYSTEM.SOLV>
0

>  <SCORE.SYSTEM.norm>
0

>  <SCORE.heavy>
12

>  <SCORE.norm>
-2.39105

>  <SYMMETRIC_BONDS>
4 1 2

>  <RMSD>
1.905

$$$$
1kod cryst
 OpenBabel11021811393D
libRbt.so/2013.1/901 2013/11/27
 12 11  0  0  0  0  0  0  0  0999 V2000
    2.3952    6.1241   35.5410 C   0  0  0  0  0  0  0  0  0  0  0  0
    3.0562    7.0671   35.9499 O   0  5  0  0  0  0  0  0  0  0  0  0
    2.1964    5.1015   36.1847 O   0  0  0  0  0  0  0  0  0  0  0  0
    1.7754    6.2339   34.1338 C   0  0  1  0  0  0  0  0  0  0  0  0
    2.3927    7.3869   33.4097 N   0  3  0  0  0  0  0  0  0  0  0  0
    2.0103    4.9342   33.3289 C   0  0  0  0  0  0  0  0  0  0  0  0
    0.9283    3.9082   33.6396 C   0  0  0  0  0  0  0  0  0  0  0  0
    1.5403    2.7146   34.3694 C   0  0  0  0  0  0  0  0  0  0  0  0
    1.9488    1.6858   33.3626 N   0  0  0  0  0  0  0  0  0  0  0  0
    1.1075    0.7658   32.9732 C   0  0  0  0  0  0  0  0  0  0  0  0
    1.4085   -0.4245   33.0294 O   0  0  0  0  0  0  0  0  0  0  0  0
   -0.0572    1.1096   32.5058 N   0  0  0  0  0  0  0  0  0  0  0  0
  1  2  1  0  0  0  0
  1  3  2  0  0  0  0
  4  1  1  1  0  0  0
  4  6  1  0  0  0  0
  4  5  1  0  0  0  0
  6  7  1  0  0  0  0
  7  8  1  0  0  0  0
  8  9  1  0  0  0  0
  9 10  1  0  0  0  0
 10 12  1  0  0  0  0
 10 11  2  0  0  0  0
M  CHG  2   2  -1   5   1
M  END
>  <CHROM.1>
13.34523074,85.20086754,-34.30832527,-113.39471363,-91.38808828,91.08794289
1.73600551,3.90368661,34.02535851,-0.88887244,1.20334615,2.80911696

>  <Name>
1kod cryst

>  <RI>
0

>  <Rbt.Current_Directory>
/home/itssahil/PROJECTS/Mol_Feturizer/New_Systems/rnas/1kod

>  <Rbt.Executable>
rbdock ($Id: //depot/dev/client3/rdock/2013.1/src/exe/rbdock.cxx#4 $)

>  <Rbt.Library>
libRbt.so (2013.1, Build901 2013/11/27)

>  <Rbt.Parameter_File>
/export/apps/rDock/src/rDock_2013.1_src/data/scripts/dock_solv.prm

>  <Rbt.Receptor>
prm/pocket_docking_3.prm

>  <SCORE>
-20.5701

>  <SCORE.INTER>
-21.8338

>  <SCORE.INTER.CONST>
1

>  <SCORE.INTER.POLAR>
-3.36896

>  <SCORE.INTER.ROT>
5

>  <SCORE.INTER.SOLV>
17.0348

>  <SCORE.INTER.VDW>
-15.9376

>  <SCORE.INTER.norm>
-1.81948

>  <SCORE.INTRA>
1.03225

>  <SCORE.INTRA.DIHEDRAL>
6.67442

>  <SCORE.INTRA.DIHEDRAL.0>
7.7847

>  <SCORE.INTRA.POLAR>
0

>  <SCORE.INTRA.POLAR.0>
0

>  <SCORE.INTRA.REPUL>
0

>  <SCORE.INTRA.REPUL.0>
0

>  <SCORE.INTRA.SOLV>
-1.42081

>  <SCORE.INTRA.SOLV.lig_0>
-57.5465

>  <SCORE.INTRA.VDW>
-1.59455

>  <SCORE.INTRA.VDW.0>
1.39369

>  <SCORE.INTRA.norm>
0.0860208

>  <SCORE.RESTR>
0.231432

>  <SCORE.RESTR.CAVITY>
0.231432

>  <SCORE.RESTR.norm>
0.019286

>  <SCORE.SYSTEM>
0

>  <SCORE.SYSTEM.CONST>
0

>  <SCORE.SYSTEM.DIHEDRAL>
0

>  <SCORE.SYSTEM.SOLV>
0

>  <SCORE.SYSTEM.norm>
0

>  <SCORE.heavy>
12

>  <SCORE.norm>
-1.71418

>  <SYMMETRIC_BONDS>
4 1 2

>  <RMSD>
1.909

$$$$
1kod cryst
 OpenBabel11021811393D
libRbt.so/2013.1/901 2013/11/27
 12 11  0  0  0  0  0  0  0  0999 V2000
    1.1617    5.5932   34.9952 C   0  0  0  0  0  0  0  0  0  0  0  0
    1.3507    6.4462   35.8496 O   0  5  0  0  0  0  0  0  0  0  0  0
    0.2631    4.7629   35.0486 O   0  0  0  0  0  0  0  0  0  0  0  0
    2.1102    5.5663   33.7804 C   0  0  1  0  0  0  0  0  0  0  0  0
    2.4347    6.9680   33.3747 N   0  3  0  0  0  0  0  0  0  0  0  0
    3.4170    4.8128   34.1223 C   0  0  0  0  0  0  0  0  0  0  0  0
    3.1131    3.3909   34.5760 C   0  0  0  0  0  0  0  0  0  0  0  0
    2.4653    2.6103   33.4346 C   0  0  0  0  0  0  0  0  0  0  0  0
    2.4435    1.1570   33.7898 N   0  0  0  0  0  0  0  0  0  0  0  0
    1.3198    0.4911   33.7974 C   0  0  0  0  0  0  0  0  0  0  0  0
    0.9765   -0.1498   34.7882 O   0  0  0  0  0  0  0  0  0  0  0  0
    0.5600    0.4913   32.7410 N   0  0  0  0  0  0  0  0  0  0  0  0
  1  2  1  0  0  0  0
  1  3  2  0  0  0  0
  4  1  1  1  0  0  0
  4  6  1  0  0  0  0
  4  5  1  0  0  0  0
  6  7  1  0  0  0  0
  7  8  1  0  0  0  0
  8  9  1  0  0  0  0
  9 10  1  0  0  0  0
 10 12  1  0  0  0  0
 10 11  2  0  0  0  0
M  CHG  2   2  -1   5   1
M  END
>  <CHROM.1>
-38.42765618,57.84452979,173.61483839,63.41197300,167.97078396,-55.97068395
1.78387489,3.53086287,34.18644418,1.44988445,0.55266892,0.19207706

>  <Name>
1kod cryst

>  <RI>
0

>  <Rbt.Current_Directory>
/home/itssahil/PROJECTS/Mol_Feturizer/New_Systems/rnas/1kod

>  <Rbt.Executable>
rbdock ($Id: //depot/dev/client3/rdock/2013.1/src/exe/rbdock.cxx#4 $)

>  <Rbt.Library>
libRbt.so (2013.1, Build901 2013/11/27)

>  <Rbt.Parameter_File>
/export/apps/rDock/src/rDock_2013.1_src/data/scripts/dock_solv.prm

>  <Rbt.Receptor>
prm/pocket_docking_3.prm

>  <SCORE>
-26.0327

>  <SCORE.INTER>
-20.9047

>  <SCORE.INTER.CONST>
1

>  <SCORE.INTER.POLAR>
-3.94059

>  <SCORE.INTER.ROT>
5

>  <SCORE.INTER.SOLV>
20.0782

>  <SCORE.INTER.VDW>
-14.4272

>  <SCORE.INTER.norm>
-1.74205

>  <SCORE.INTRA>
-5.12801

>  <SCORE.INTRA.DIHEDRAL>
-4.84382

>  <SCORE.INTRA.DIHEDRAL.0>
7.7847

>  <SCORE.INTRA.POLAR>
0

>  <SCORE.INTRA.POLAR.0>
0

>  <SCORE.INTRA.REPUL>
0

>  <SCORE.INTRA.REPUL.0>
0

>  <SCORE.INTRA.SOLV>
-1.8058

>  <SCORE.INTRA.SOLV.lig_0>
-57.5465

>  <SCORE.INTRA.VDW>
-1.8032

>  <SCORE.INTRA.VDW.0>
1.39369

>  <SCORE.INTRA.norm>
-0.427334

>  <SCORE.RESTR>
0

>  <SCORE.RESTR.CAVITY>
0

>  <SCORE.RESTR.norm>
0

>  <SCORE.SYSTEM>
0

>  <SCORE.SYSTEM.CONST>
0

>  <SCORE.SYSTEM.DIHEDRAL>
0

>  <SCORE.SYSTEM.SOLV>
0

>  <SCORE.SYSTEM.norm>
0

>  <SCORE.heavy>
12

>  <SCORE.norm>
-2.16939

>  <SYMMETRIC_BONDS>
4 1 2

>  <RMSD>
1.909

$$$$
1kod cryst
 OpenBabel11021811393D
libRbt.so/2013.1/901 2013/11/27
 12 11  0  0  0  0  0  0  0  0999 V2000
    1.9156    5.2600   35.4868 C   0  0  0  0  0  0  0  0  0  0  0  0
    1.0454    4.9767   36.2968 O   0  5  0  0  0  0  0  0  0  0  0  0
    3.0361    5.6444   35.7973 O   0  0  0  0  0  0  0  0  0  0  0  0
    1.5795    5.1215   33.9888 C   0  0  1  0  0  0  0  0  0  0  0  0
    2.2717    6.2035   33.2242 N   0  3  0  0  0  0  0  0  0  0  0  0
    2.0286    3.7423   33.4519 C   0  0  0  0  0  0  0  0  0  0  0  0
    0.8479    2.7825   33.3849 C   0  0  0  0  0  0  0  0  0  0  0  0
    1.3219    1.4102   32.9115 C   0  0  0  0  0  0  0  0  0  0  0  0
    2.1118    0.7640   34.0056 N   0  0  0  0  0  0  0  0  0  0  0  0
    1.5395    0.4311   35.1315 C   0  0  0  0  0  0  0  0  0  0  0  0
    1.9980    0.8130   36.2059 O   0  0  0  0  0  0  0  0  0  0  0  0
    0.4810   -0.3258   35.1207 N   0  0  0  0  0  0  0  0  0  0  0  0
  1  2  1  0  0  0  0
  1  3  2  0  0  0  0
  4  1  1  1  0  0  0
  4  6  1  0  0  0  0
  4  5  1  0  0  0  0
  6  7  1  0  0  0  0
  7  8  1  0  0  0  0
  8  9  1  0  0  0  0
  9 10  1  0  0  0  0
 10 12  1  0  0  0  0
 10 11  2  0  0  0  0
M  CHG  2   2  -1   5   1
M  END
>  <CHROM.1>
144.82354702,99.45093223,57.07453112,-177.52536390,71.67113286,-114.68211283
1.69510727,3.08888886,34.59755945,-0.33223578,1.40945205,1.88477087

>  <Name>
1kod cryst

>  <RI>
0

>  <Rbt.Current_Directory>
/home/itssahil/PROJECTS/Mol_Feturizer/New_Systems/rnas/1kod

>  <Rbt.Executable>
rbdock ($Id: //depot/dev/client3/rdock/2013.1/src/exe/rbdock.cxx#4 $)

>  <Rbt.Library>
libRbt.so (2013.1, Build901 2013/11/27)

>  <Rbt.Parameter_File>
/export/apps/rDock/src/rDock_2013.1_src/data/scripts/dock_solv.prm

>  <Rbt.Receptor>
prm/pocket_docking_5.prm

>  <SCORE>
-25.4198

>  <SCORE.INTER>
-20.9728

>  <SCORE.INTER.CONST>
1

>  <SCORE.INTER.POLAR>
-3.79863

>  <SCORE.INTER.ROT>
5

>  <SCORE.INTER.SOLV>
17.8255

>  <SCORE.INTER.VDW>
-14.195

>  <SCORE.INTER.norm>
-1.74774

>  <SCORE.INTRA>
-4.447

>  <SCORE.INTRA.DIHEDRAL>
-1.21547

>  <SCORE.INTRA.DIHEDRAL.0>
7.7847

>  <SCORE.INTRA.POLAR>
0

>  <SCORE.INTRA.POLAR.0>
0

>  <SCORE.INTRA.REPUL>
0

>  <SCORE.INTRA.REPUL.0>
0

>  <SCORE.INTRA.SOLV>
-2.22121

>  <SCORE.INTRA.SOLV.lig_0>
-57.5465

>  <SCORE.INTRA.VDW>
-2.72866

>  <SCORE.INTRA.VDW.0>
1.39369

>  <SCORE.INTRA.norm>
-0.370583

>  <SCORE.RESTR>
0

>  <SCORE.RESTR.CAVITY>
0

>  <SCORE.RESTR.norm>
0

>  <SCORE.SYSTEM>
0

>  <SCORE.SYSTEM.CONST>
0

>  <SCORE.SYSTEM.DIHEDRAL>
0

>  <SCORE.SYSTEM.SOLV>
0

>  <SCORE.SYSTEM.norm>
0

>  <SCORE.heavy>
12

>  <SCORE.norm>
-2.11832

>  <SYMMETRIC_BONDS>
4 1 2

>  <RMSD>
1.911

$$$$
1kod cryst
 OpenBabel11021811393D
libRbt.so/2013.1/901 2013/11/27
 12 11  0  0  0  0  0  0  0  0999 V2000
    1.3169    6.1807   35.4420 C   0  0  0  0  0  0  0  0  0  0  0  0
    1.8804    7.1139   35.9941 O   0  5  0  0  0  0  0  0  0  0  0  0
    0.5384    5.4238   36.0083 O   0  0  0  0  0  0  0  0  0  0  0  0
    1.6038    5.9481   33.9453 C   0  0  1  0  0  0  0  0  0  0  0  0
    2.3730    7.1093   33.4026 N   0  3  0  0  0  0  0  0  0  0  0  0
    2.4172    4.6489   33.7390 C   0  0  0  0  0  0  0  0  0  0  0  0
    1.4876    3.4676   33.4933 C   0  0  0  0  0  0  0  0  0  0  0  0
    1.8586    2.3143   34.4230 C   0  0  0  0  0  0  0  0  0  0  0  0
    2.0336    1.0706   33.6098 N   0  0  0  0  0  0  0  0  0  0  0  0
    0.9954    0.3894   33.2049 C   0  0  0  0  0  0  0  0  0  0  0  0
    0.9042   -0.8139   33.4381 O   0  0  0  0  0  0  0  0  0  0  0  0
    0.0525    0.9840   32.5338 N   0  0  0  0  0  0  0  0  0  0  0  0
  1  2  1  0  0  0  0
  1  3  2  0  0  0  0
  4  1  1  1  0  0  0
  4  6  1  0  0  0  0
  4  5  1  0  0  0  0
  6  7  1  0  0  0  0
  7  8  1  0  0  0  0
  8  9  1  0  0  0  0
  9 10  1  0  0  0  0
 10 12  1  0  0  0  0
 10 11  2  0  0  0  0
M  CHG  2   2  -1   5   1
M  END
>  <CHROM.1>
-9.90290477,92.31164561,23.91653585,-129.62259861,-128.23853088,100.86113993
1.45654043,3.67655272,34.09479537,1.28935155,1.14275096,0.51696157

>  <Name>
1kod cryst

>  <RI>
0

>  <Rbt.Current_Directory>
/home/itssahil/PROJECTS/Mol_Feturizer/New_Systems/rnas/1kod

>  <Rbt.Executable>
rbdock ($Id: //depot/dev/client3/rdock/2013.1/src/exe/rbdock.cxx#4 $)

>  <Rbt.Library>
libRbt.so (2013.1, Build901 2013/11/27)

>  <Rbt.Parameter_File>
/export/apps/rDock/src/rDock_2013.1_src/data/scripts/dock_solv.prm

>  <Rbt.Receptor>
prm/pocket_docking_2.prm

>  <SCORE>
-21.7435

>  <SCORE.INTER>
-26.4265

>  <SCORE.INTER.CONST>
1

>  <SCORE.INTER.POLAR>
-4.50745

>  <SCORE.INTER.ROT>
5

>  <SCORE.INTER.SOLV>
19.2623

>  <SCORE.INTER.VDW>
-15.947

>  <SCORE.INTER.norm>
-2.20221

>  <SCORE.INTRA>
3.75707

>  <SCORE.INTRA.DIHEDRAL>
10.6984

>  <SCORE.INTRA.DIHEDRAL.0>
7.7847

>  <SCORE.INTRA.POLAR>
0

>  <SCORE.INTRA.POLAR.0>
0

>  <SCORE.INTRA.REPUL>
0

>  <SCORE.INTRA.REPUL.0>
0

>  <SCORE.INTRA.SOLV>
-1.92845

>  <SCORE.INTRA.SOLV.lig_0>
-57.5465

>  <SCORE.INTRA.VDW>
-0.627913

>  <SCORE.INTRA.VDW.0>
1.39369

>  <SCORE.INTRA.norm>
0.313089

>  <SCORE.RESTR>
0.925976

>  <SCORE.RESTR.CAVITY>
0.925976

>  <SCORE.RESTR.norm>
0.0771647

>  <SCORE.SYSTEM>
0

>  <SCORE.SYSTEM.CONST>
0

>  <SCORE.SYSTEM.DIHEDRAL>
0

>  <SCORE.SYSTEM.SOLV>
0

>  <SCORE.SYSTEM.norm>
0

>  <SCORE.heavy>
12

>  <SCORE.norm>
-1.81196

>  <SYMMETRIC_BONDS>
4 1 2

>  <RMSD>
1.918

$$$$
1kod cryst
 OpenBabel11021811393D
libRbt.so/2013.1/901 2013/11/27
 12 11  0  0  0  0  0  0  0  0999 V2000
    1.0515    4.9731   35.4651 C   0  0  0  0  0  0  0  0  0  0  0  0
   -0.0859    5.3397   35.7207 O   0  5  0  0  0  0  0  0  0  0  0  0
    1.8474    4.5828   36.3100 O   0  0  0  0  0  0  0  0  0  0  0  0
    1.5053    5.0031   33.9922 C   0  0  1  0  0  0  0  0  0  0  0  0
    2.6071    6.0009   33.8341 N   0  3  0  0  0  0  0  0  0  0  0  0
    2.0037    3.6091   33.5442 C   0  0  0  0  0  0  0  0  0  0  0  0
    0.8269    2.6852   33.2585 C   0  0  0  0  0  0  0  0  0  0  0  0
    1.3384    1.3017   32.8635 C   0  0  0  0  0  0  0  0  0  0  0  0
    2.0972    0.7168   34.0127 N   0  0  0  0  0  0  0  0  0  0  0  0
    1.4819    0.3868   35.1166 C   0  0  0  0  0  0  0  0  0  0  0  0
    1.8681    0.8141   36.2024 O   0  0  0  0  0  0  0  0  0  0  0  0
    0.4580   -0.4149   35.0723 N   0  0  0  0  0  0  0  0  0  0  0  0
  1  2  1  0  0  0  0
  1  3  2  0  0  0  0
  4  1  1  1  0  0  0
  4  6  1  0  0  0  0
  4  5  1  0  0  0  0
  6  7  1  0  0  0  0
  7  8  1  0  0  0  0
  8  9  1  0  0  0  0
  9 10  1  0  0  0  0
 10 12  1  0  0  0  0
 10 11  2  0  0  0  0
M  CHG  2   2  -1   5   1
M  END
>  <CHROM.1>
115.04277944,77.81627242,-169.41969913,-178.10945231,62.61834311,-112.64165377
1.43136647,2.93435197,34.64061875,1.39744697,1.31350593,0.18269027

>  <Name>
1kod cryst

>  <RI>
0

>  <Rbt.Current_Directory>
/home/itssahil/PROJECTS/Mol_Feturizer/New_Systems/rnas/1kod

>  <Rbt.Executable>
rbdock ($Id: //depot/dev/client3/rdock/2013.1/src/exe/rbdock.cxx#4 $)

>  <Rbt.Library>
libRbt.so (2013.1, Build901 2013/11/27)

>  <Rbt.Parameter_File>
/export/apps/rDock/src/rDock_2013.1_src/data/scripts/dock_solv.prm

>  <Rbt.Receptor>
prm/pocket_docking_2.prm

>  <SCORE>
-23.6032

>  <SCORE.INTER>
-18.9097

>  <SCORE.INTER.CONST>
1

>  <SCORE.INTER.POLAR>
-2.96438

>  <SCORE.INTER.ROT>
5

>  <SCORE.INTER.SOLV>
16.0932

>  <SCORE.INTER.VDW>
-15.0229

>  <SCORE.INTER.norm>
-1.5758

>  <SCORE.INTRA>
-5.56993

>  <SCORE.INTRA.DIHEDRAL>
-4.19642

>  <SCORE.INTRA.DIHEDRAL.0>
7.7847

>  <SCORE.INTRA.POLAR>
0

>  <SCORE.INTRA.POLAR.0>
0

>  <SCORE.INTRA.REPUL>
0

>  <SCORE.INTRA.REPUL.0>
0

>  <SCORE.INTRA.SOLV>
-1.89373

>  <SCORE.INTRA.SOLV.lig_0>
-57.5465

>  <SCORE.INTRA.VDW>
-2.52485

>  <SCORE.INTRA.VDW.0>
1.39369

>  <SCORE.INTRA.norm>
-0.464161

>  <SCORE.RESTR>
0.87635

>  <SCORE.RESTR.CAVITY>
0.87635

>  <SCORE.RESTR.norm>
0.0730292

>  <SCORE.SYSTEM>
0

>  <SCORE.SYSTEM.CONST>
0

>  <SCORE.SYSTEM.DIHEDRAL>
0

>  <SCORE.SYSTEM.SOLV>
0

>  <SCORE.SYSTEM.norm>
0

>  <SCORE.heavy>
12

>  <SCORE.norm>
-1.96694

>  <SYMMETRIC_BONDS>
4 1 2

>  <RMSD>
1.922

$$$$
1kod cryst
 OpenBabel11021811393D
libRbt.so/2013.1/901 2013/11/27
 12 11  0  0  0  0  0  0  0  0999 V2000
    1.3080    5.7878   35.1771 C   0  0  0  0  0  0  0  0  0  0  0  0
    1.5426    6.7455   35.8990 O   0  5  0  0  0  0  0  0  0  0  0  0
    0.4578    4.9414   35.4232 O   0  0  0  0  0  0  0  0  0  0  0  0
    2.1306    5.6421   33.8816 C   0  0  1  0  0  0  0  0  0  0  0  0
    2.4774    6.9996   33.3604 N   0  3  0  0  0  0  0  0  0  0  0  0
    3.4288    4.8433   34.1440 C   0  0  0  0  0  0  0  0  0  0  0  0
    3.1039    3.4275   34.6019 C   0  0  0  0  0  0  0  0  0  0  0  0
    2.5260    2.6262   33.4375 C   0  0  0  0  0  0  0  0  0  0  0  0
    2.5182    1.1750   33.8017 N   0  0  0  0  0  0  0  0  0  0  0  0
    1.3950    0.5113   33.8646 C   0  0  0  0  0  0  0  0  0  0  0  0
    1.0964   -0.1234   34.8739 O   0  0  0  0  0  0  0  0  0  0  0  0
    0.5876    0.5069   32.8441 N   0  0  0  0  0  0  0  0  0  0  0  0
  1  2  1  0  0  0  0
  1  3  2  0  0  0  0
  4  1  1  1  0  0  0
  4  6  1  0  0  0  0
  4  5  1  0  0  0  0
  6  7  1  0  0  0  0
  7  8  1  0  0  0  0
  8  9  1  0  0  0  0
  9 10  1  0  0  0  0
 10 12  1  0  0  0  0
 10 11  2  0  0  0  0
M  CHG  2   2  -1   5   1
M  END
>  <CHROM.1>
-32.25758396,62.56261764,167.40233397,70.39462877,166.66391864,-61.40063876
1.86490876,3.60975378,34.27019299,1.44789438,0.68647944,0.21665170

>  <Name>
1kod cryst

>  <RI>
0

>  <Rbt.Current_Directory>
/home/itssahil/PROJECTS/Mol_Feturizer/New_Systems/rnas/1kod

>  <Rbt.Executable>
rbdock ($Id: //depot/dev/client3/rdock/2013.1/src/exe/rbdock.cxx#4 $)

>  <Rbt.Library>
libRbt.so (2013.1, Build901 2013/11/27)

>  <Rbt.Parameter_File>
/export/apps/rDock/src/rDock_2013.1_src/data/scripts/dock_solv.prm

>  <Rbt.Receptor>
prm/pocket_docking_3.prm

>  <SCORE>
-25.8871

>  <SCORE.INTER>
-20.8437

>  <SCORE.INTER.CONST>
1

>  <SCORE.INTER.POLAR>
-4.03761

>  <SCORE.INTER.ROT>
5

>  <SCORE.INTER.SOLV>
19.1643

>  <SCORE.INTER.VDW>
-13.7585

>  <SCORE.INTER.norm>
-1.73697

>  <SCORE.INTRA>
-5.04346

>  <SCORE.INTRA.DIHEDRAL>
-4.05022

>  <SCORE.INTRA.DIHEDRAL.0>
7.7847

>  <SCORE.INTRA.POLAR>
0

>  <SCORE.INTRA.POLAR.0>
0

>  <SCORE.INTRA.REPUL>
0

>  <SCORE.INTRA.REPUL.0>
0

>  <SCORE.INTRA.SOLV>
-1.99988

>  <SCORE.INTRA.SOLV.lig_0>
-57.5465

>  <SCORE.INTRA.VDW>
-2.01841

>  <SCORE.INTRA.VDW.0>
1.39369

>  <SCORE.INTRA.norm>
-0.420288

>  <SCORE.RESTR>
0

>  <SCORE.RESTR.CAVITY>
0

>  <SCORE.RESTR.norm>
0

>  <SCORE.SYSTEM>
0

>  <SCORE.SYSTEM.CONST>
0

>  <SCORE.SYSTEM.DIHEDRAL>
0

>  <SCORE.SYSTEM.SOLV>
0

>  <SCORE.SYSTEM.norm>
0

>  <SCORE.heavy>
12

>  <SCORE.norm>
-2.15726

>  <SYMMETRIC_BONDS>
4 1 2

>  <RMSD>
1.931

$$$$
1kod cryst
 OpenBabel11021811393D
libRbt.so/2013.1/901 2013/11/27
 12 11  0  0  0  0  0  0  0  0999 V2000
    1.8184    5.3661   35.4551 C   0  0  0  0  0  0  0  0  0  0  0  0
    0.9743    4.9452   36.2321 O   0  5  0  0  0  0  0  0  0  0  0  0
    2.8532    5.9183   35.8071 O   0  0  0  0  0  0  0  0  0  0  0  0
    1.5627    5.1869   33.9455 C   0  0  1  0  0  0  0  0  0  0  0  0
    2.3060    6.2406   33.1892 N   0  3  0  0  0  0  0  0  0  0  0  0
    2.0268    3.7891   33.4735 C   0  0  0  0  0  0  0  0  0  0  0  0
    0.8565    2.8146   33.4515 C   0  0  0  0  0  0  0  0  0  0  0  0
    1.3247    1.4540   32.9402 C   0  0  0  0  0  0  0  0  0  0  0  0
    2.1163    0.7766   34.0140 N   0  0  0  0  0  0  0  0  0  0  0  0
    1.5501    0.4287   35.1384 C   0  0  0  0  0  0  0  0  0  0  0  0
    2.0231    0.7837   36.2158 O   0  0  0  0  0  0  0  0  0  0  0  0
    0.4821   -0.3146   35.1226 N   0  0  0  0  0  0  0  0  0  0  0  0
  1  2  1  0  0  0  0
  1  3  2  0  0  0  0
  4  1  1  1  0  0  0
  4  6  1  0  0  0  0
  4  5  1  0  0  0  0
  6  7  1  0  0  0  0
  7  8  1  0  0  0  0
  8  9  1  0  0  0  0
  9 10  1  0  0  0  0
 10 12  1  0  0  0  0
 10 11  2  0  0  0  0
M  CHG  2   2  -1   5   1
M  END
>  <CHROM.1>
154.54666321,95.98381235,60.89952094,178.16988403,74.50429169,-115.43574490
1.67173864,3.13575231,34.59531456,-0.14614626,1.43024792,1.68749651

>  <Name>
1kod cryst

>  <RI>
0

>  <Rbt.Current_Directory>
/home/itssahil/PROJECTS/Mol_Feturizer/New_Systems/rnas/1kod

>  <Rbt.Executable>
rbdock ($Id: //depot/dev/client3/rdock/2013.1/src/exe/rbdock.cxx#4 $)

>  <Rbt.Library>
libRbt.so (2013.1, Build901 2013/11/27)

>  <Rbt.Parameter_File>
/export/apps/rDock/src/rDock_2013.1_src/data/scripts/dock_solv.prm

>  <Rbt.Receptor>
prm/pocket_docking_3.prm

>  <SCORE>
-25.5165

>  <SCORE.INTER>
-21.049

>  <SCORE.INTER.CONST>
1

>  <SCORE.INTER.POLAR>
-3.85316

>  <SCORE.INTER.ROT>
5

>  <SCORE.INTER.SOLV>
18.0769

>  <SCORE.INTER.VDW>
-14.1478

>  <SCORE.INTER.norm>
-1.75409

>  <SCORE.INTRA>
-4.46749

>  <SCORE.INTRA.DIHEDRAL>
-1.4154

>  <SCORE.INTRA.DIHEDRAL.0>
7.7847

>  <SCORE.INTRA.POLAR>
0

>  <SCORE.INTRA.POLAR.0>
0

>  <SCORE.INTRA.REPUL>
0

>  <SCORE.INTRA.REPUL.0>
0

>  <SCORE.INTRA.SOLV>
-2.18031

>  <SCORE.INTRA.SOLV.lig_0>
-57.5465

>  <SCORE.INTRA.VDW>
-2.66963

>  <SCORE.INTRA.VDW.0>
1.39369

>  <SCORE.INTRA.norm>
-0.372291

>  <SCORE.RESTR>
0

>  <SCORE.RESTR.CAVITY>
0

>  <SCORE.RESTR.norm>
0

>  <SCORE.SYSTEM>
0

>  <SCORE.SYSTEM.CONST>
0

>  <SCORE.SYSTEM.DIHEDRAL>
0

>  <SCORE.SYSTEM.SOLV>
0

>  <SCORE.SYSTEM.norm>
0

>  <SCORE.heavy>
12

>  <SCORE.norm>
-2.12638

>  <SYMMETRIC_BONDS>
4 1 2

>  <RMSD>
1.933

$$$$
1kod cryst
 OpenBabel11021811393D
libRbt.so/2013.1/901 2013/11/27
 12 11  0  0  0  0  0  0  0  0999 V2000
    1.4967    5.2761   35.4049 C   0  0  0  0  0  0  0  0  0  0  0  0
    0.5180    4.9600   36.0650 O   0  5  0  0  0  0  0  0  0  0  0  0
    2.5301    5.7204   35.8889 O   0  0  0  0  0  0  0  0  0  0  0  0
    1.4223    5.1013   33.8752 C   0  0  1  0  0  0  0  0  0  0  0  0
    2.2081    6.1876   33.2142 N   0  3  0  0  0  0  0  0  0  0  0  0
    1.9884    3.7252   33.4530 C   0  0  0  0  0  0  0  0  0  0  0  0
    0.8724    2.6934   33.3549 C   0  0  0  0  0  0  0  0  0  0  0  0
    1.4496    1.3444   32.9322 C   0  0  0  0  0  0  0  0  0  0  0  0
    2.1446    0.7239   34.1030 N   0  0  0  0  0  0  0  0  0  0  0  0
    1.4758    0.3964   35.1761 C   0  0  0  0  0  0  0  0  0  0  0  0
    1.8283    0.7987   36.2827 O   0  0  0  0  0  0  0  0  0  0  0  0
    0.4335   -0.3764   35.0787 N   0  0  0  0  0  0  0  0  0  0  0  0
  1  2  1  0  0  0  0
  1  3  2  0  0  0  0
  4  1  1  1  0  0  0
  4  6  1  0  0  0  0
  4  5  1  0  0  0  0
  6  7  1  0  0  0  0
  7  8  1  0  0  0  0
  8  9  1  0  0  0  0
  9 10  1  0  0  0  0
 10 12  1  0  0  0  0
 10 11  2  0  0  0  0
M  CHG  2   2  -1   5   1
M  END
>  <CHROM.1>
146.19040286,93.36523382,-60.57717355,179.78440391,75.66794281,-116.66232080
1.54219925,3.06687295,34.58420356,0.74638469,1.43572153,0.77983308

>  <Name>
1kod cryst

>  <RI>
0

>  <Rbt.Current_Directory>
/home/itssahil/PROJECTS/Mol_Feturizer/New_Systems/rnas/1kod

>  <Rbt.Executable>
rbdock ($Id: //depot/dev/client3/rdock/2013.1/src/exe/rbdock.cxx#4 $)

>  <Rbt.Library>
libRbt.so (2013.1, Build901 2013/11/27)

>  <Rbt.Parameter_File>
/export/apps/rDock/src/rDock_2013.1_src/data/scripts/dock_solv.prm

>  <Rbt.Receptor>
prm/pocket_docking_6.prm

>  <SCORE>
-25.8343

>  <SCORE.INTER>
-21.1864

>  <SCORE.INTER.CONST>
1

>  <SCORE.INTER.POLAR>
-3.69622

>  <SCORE.INTER.ROT>
5

>  <SCORE.INTER.SOLV>
19.0247

>  <SCORE.INTER.VDW>
-15.0784

>  <SCORE.INTER.norm>
-1.76553

>  <SCORE.INTRA>
-4.64796

>  <SCORE.INTRA.DIHEDRAL>
-1.65198

>  <SCORE.INTRA.DIHEDRAL.0>
7.7847

>  <SCORE.INTRA.POLAR>
0

>  <SCORE.INTRA.POLAR.0>
0

>  <SCORE.INTRA.REPUL>
0

>  <SCORE.INTRA.REPUL.0>
0

>  <SCORE.INTRA.SOLV>
-2.24996

>  <SCORE.INTRA.SOLV.lig_0>
-57.5465

>  <SCORE.INTRA.VDW>
-2.69699

>  <SCORE.INTRA.VDW.0>
1.39369

>  <SCORE.INTRA.norm>
-0.38733

>  <SCORE.RESTR>
0

>  <SCORE.RESTR.CAVITY>
0

>  <SCORE.RESTR.norm>
0

>  <SCORE.SYSTEM>
0

>  <SCORE.SYSTEM.CONST>
0

>  <SCORE.SYSTEM.DIHEDRAL>
0

>  <SCORE.SYSTEM.SOLV>
0

>  <SCORE.SYSTEM.norm>
0

>  <SCORE.heavy>
12

>  <SCORE.norm>
-2.15286

>  <SYMMETRIC_BONDS>
4 1 2

>  <RMSD>
1.939

$$$$
1kod cryst
 OpenBabel11021811393D
libRbt.so/2013.1/901 2013/11/27
 12 11  0  0  0  0  0  0  0  0999 V2000
    2.0360    6.7270   36.2520 C   0  0  0  0  0  0  0  0  0  0  0  0
    1.1573    7.3657   36.8117 O   0  5  0  0  0  0  0  0  0  0  0  0
    3.0640    6.3547   36.8036 O   0  0  0  0  0  0  0  0  0  0  0  0
    1.8331    6.3693   34.7664 C   0  0  1  0  0  0  0  0  0  0  0  0
    3.0827    6.6805   34.0073 N   0  3  0  0  0  0  0  0  0  0  0  0
    1.4921    4.8693   34.6057 C   0  0  0  0  0  0  0  0  0  0  0  0
    0.9857    4.5822   33.1983 C   0  0  0  0  0  0  0  0  0  0  0  0
    0.3534    3.1931   33.1484 C   0  0  0  0  0  0  0  0  0  0  0  0
    1.4374    2.1689   33.0282 N   0  0  0  0  0  0  0  0  0  0  0  0
    1.1573    0.8944   33.0853 C   0  0  0  0  0  0  0  0  0  0  0  0
    1.7404    0.1583   33.8781 O   0  0  0  0  0  0  0  0  0  0  0  0
    0.2626    0.3918   32.2852 N   0  0  0  0  0  0  0  0  0  0  0  0
  1  2  1  0  0  0  0
  1  3  2  0  0  0  0
  4  1  1  1  0  0  0
  4  6  1  0  0  0  0
  4  5  1  0  0  0  0
  6  7  1  0  0  0  0
  7  8  1  0  0  0  0
  8  9  1  0  0  0  0
  9 10  1  0  0  0  0
 10 12  1  0  0  0  0
 10 11  2  0  0  0  0
M  CHG  2   2  -1   5   1
M  END
>  <CHROM.1>
133.11684925,167.15447114,-53.07879041,-166.87501018,-80.41941427,-6.06410378
1.57958413,4.14757862,34.31980612,-0.96152737,1.24218761,3.02320500

>  <Name>
1kod cryst

>  <RI>
0

>  <Rbt.Current_Directory>
/home/itssahil/PROJECTS/Mol_Feturizer/New_Systems/rnas/1kod

>  <Rbt.Executable>
rbdock ($Id: //depot/dev/client3/rdock/2013.1/src/exe/rbdock.cxx#4 $)

>  <Rbt.Library>
libRbt.so (2013.1, Build901 2013/11/27)

>  <Rbt.Parameter_File>
/export/apps/rDock/src/rDock_2013.1_src/data/scripts/dock_solv.prm

>  <Rbt.Receptor>
prm/pocket_docking_3.prm

>  <SCORE>
-22.3365

>  <SCORE.INTER>
-17.3814

>  <SCORE.INTER.CONST>
1

>  <SCORE.INTER.POLAR>
-2.85519

>  <SCORE.INTER.ROT>
5

>  <SCORE.INTER.SOLV>
14.0081

>  <SCORE.INTER.VDW>
-13.673

>  <SCORE.INTER.norm>
-1.44845

>  <SCORE.INTRA>
-4.95505

>  <SCORE.INTRA.DIHEDRAL>
-2.73658

>  <SCORE.INTRA.DIHEDRAL.0>
7.7847

>  <SCORE.INTRA.POLAR>
0

>  <SCORE.INTRA.POLAR.0>
0

>  <SCORE.INTRA.REPUL>
0

>  <SCORE.INTRA.REPUL.0>
0

>  <SCORE.INTRA.SOLV>
-2.47582

>  <SCORE.INTRA.SOLV.lig_0>
-57.5465

>  <SCORE.INTRA.VDW>
-2.34885

>  <SCORE.INTRA.VDW.0>
1.39369

>  <SCORE.INTRA.norm>
-0.412921

>  <SCORE.RESTR>
0

>  <SCORE.RESTR.CAVITY>
0

>  <SCORE.RESTR.norm>
0

>  <SCORE.SYSTEM>
0

>  <SCORE.SYSTEM.CONST>
0

>  <SCORE.SYSTEM.DIHEDRAL>
0

>  <SCORE.SYSTEM.SOLV>
0

>  <SCORE.SYSTEM.norm>
0

>  <SCORE.heavy>
12

>  <SCORE.norm>
-1.86137

>  <SYMMETRIC_BONDS>
4 1 2

>  <RMSD>
1.946

$$$$
1kod cryst
 OpenBabel11021811393D
libRbt.so/2013.1/901 2013/11/27
 12 11  0  0  0  0  0  0  0  0999 V2000
    2.1073    6.0313   36.1773 C   0  0  0  0  0  0  0  0  0  0  0  0
    1.5154    6.9816   36.6671 O   0  5  0  0  0  0  0  0  0  0  0  0
    2.8775    5.3130   36.8023 O   0  0  0  0  0  0  0  0  0  0  0  0
    1.8655    5.7211   34.6868 C   0  0  1  0  0  0  0  0  0  0  0  0
    3.1187    5.9867   33.9164 N   0  3  0  0  0  0  0  0  0  0  0  0
    1.4457    4.2448   34.4957 C   0  0  0  0  0  0  0  0  0  0  0  0
    0.9446    4.0092   33.0768 C   0  0  0  0  0  0  0  0  0  0  0  0
    0.5102    2.5542   32.9157 C   0  0  0  0  0  0  0  0  0  0  0  0
    1.7007    1.6673   33.1025 N   0  0  0  0  0  0  0  0  0  0  0  0
    1.7940    0.8913   34.1491 C   0  0  0  0  0  0  0  0  0  0  0  0
    2.7901    0.9243   34.8682 O   0  0  0  0  0  0  0  0  0  0  0  0
    0.8309    0.0621   34.4281 N   0  0  0  0  0  0  0  0  0  0  0  0
  1  2  1  0  0  0  0
  1  3  2  0  0  0  0
  4  1  1  1  0  0  0
  4  6  1  0  0  0  0
  4  5  1  0  0  0  0
  6  7  1  0  0  0  0
  7  8  1  0  0  0  0
  8  9  1  0  0  0  0
  9 10  1  0  0  0  0
 10 12  1  0  0  0  0
 10 11  2  0  0  0  0
M  CHG  2   2  -1   5   1
M  END
>  <CHROM.1>
112.53673578,168.85261791,-38.74260451,-178.92060673,-63.51009222,-68.72002028
1.82412402,3.70030395,34.61672070,-1.13595854,1.24317536,3.07471587

>  <Name>
1kod cryst

>  <RI>
0

>  <Rbt.Current_Directory>
/home/itssahil/PROJECTS/Mol_Feturizer/New_Systems/rnas/1kod

>  <Rbt.Executable>
rbdock ($Id: //depot/dev/client3/rdock/2013.1/src/exe/rbdock.cxx#4 $)

>  <Rbt.Library>
libRbt.so (2013.1, Build901 2013/11/27)

>  <Rbt.Parameter_File>
/export/apps/rDock/src/rDock_2013.1_src/data/scripts/dock_solv.prm

>  <Rbt.Receptor>
prm/pocket_docking_2.prm

>  <SCORE>
-13.7459

>  <SCORE.INTER>
-9.23537

>  <SCORE.INTER.CONST>
1

>  <SCORE.INTER.POLAR>
-2.48732

>  <SCORE.INTER.ROT>
5

>  <SCORE.INTER.SOLV>
12.2107

>  <SCORE.INTER.VDW>
-8.86942

>  <SCORE.INTER.norm>
-0.769614

>  <SCORE.INTRA>
-5.49779

>  <SCORE.INTRA.DIHEDRAL>
-4.05986

>  <SCORE.INTRA.DIHEDRAL.0>
7.7847

>  <SCORE.INTRA.POLAR>
0

>  <SCORE.INTRA.POLAR.0>
0

>  <SCORE.INTRA.REPUL>
0

>  <SCORE.INTRA.REPUL.0>
0

>  <SCORE.INTRA.SOLV>
-2.16054

>  <SCORE.INTRA.SOLV.lig_0>
-57.5465

>  <SCORE.INTRA.VDW>
-2.38759

>  <SCORE.INTRA.VDW.0>
1.39369

>  <SCORE.INTRA.norm>
-0.458149

>  <SCORE.RESTR>
0.987251

>  <SCORE.RESTR.CAVITY>
0.987251

>  <SCORE.RESTR.norm>
0.0822709

>  <SCORE.SYSTEM>
0

>  <SCORE.SYSTEM.CONST>
0

>  <SCORE.SYSTEM.DIHEDRAL>
0

>  <SCORE.SYSTEM.SOLV>
0

>  <SCORE.SYSTEM.norm>
0

>  <SCORE.heavy>
12

>  <SCORE.norm>
-1.14549

>  <SYMMETRIC_BONDS>
4 1 2

>  <RMSD>
1.947

$$$$
1kod cryst
 OpenBabel11021811393D
libRbt.so/2013.1/901 2013/11/27
 12 11  0  0  0  0  0  0  0  0999 V2000
    1.6567    6.1393   35.5322 C   0  0  0  0  0  0  0  0  0  0  0  0
    2.1678    7.0593   36.1534 O   0  5  0  0  0  0  0  0  0  0  0  0
    0.7503    5.4421   35.9704 O   0  0  0  0  0  0  0  0  0  0  0  0
    2.1851    5.8448   34.1143 C   0  0  1  0  0  0  0  0  0  0  0  0
    2.5138    7.1331   33.4312 N   0  3  0  0  0  0  0  0  0  0  0  0
    3.4493    4.9558   34.1746 C   0  0  0  0  0  0  0  0  0  0  0  0
    3.0933    3.5475   34.6327 C   0  0  0  0  0  0  0  0  0  0  0  0
    2.3324    2.8198   33.5266 C   0  0  0  0  0  0  0  0  0  0  0  0
    2.4335    1.3447   33.7556 N   0  0  0  0  0  0  0  0  0  0  0  0
    1.3586    0.6042   33.8044 C   0  0  0  0  0  0  0  0  0  0  0  0
    1.1493   -0.1364   34.7626 O   0  0  0  0  0  0  0  0  0  0  0  0
    0.5050    0.6367   32.8228 N   0  0  0  0  0  0  0  0  0  0  0  0
  1  2  1  0  0  0  0
  1  3  2  0  0  0  0
  4  1  1  1  0  0  0
  4  6  1  0  0  0  0
  4  5  1  0  0  0  0
  6  7  1  0  0  0  0
  7  8  1  0  0  0  0
  8  9  1  0  0  0  0
  9 10  1  0  0  0  0
 10 12  1  0  0  0  0
 10 11  2  0  0  0  0
M  CHG  2   2  -1   5   1
M  END
>  <CHROM.1>
-37.29002818,69.62417754,36.38133106,71.38653025,159.18397159,-53.21336668
1.95299371,3.80213973,34.38288550,1.34643712,0.92926252,0.37784128

>  <Name>
1kod cryst

>  <RI>
0

>  <Rbt.Current_Directory>
/home/itssahil/PROJECTS/Mol_Feturizer/New_Systems/rnas/1kod

>  <Rbt.Executable>
rbdock ($Id: //depot/dev/client3/rdock/2013.1/src/exe/rbdock.cxx#4 $)

>  <Rbt.Library>
libRbt.so (2013.1, Build901 2013/11/27)

>  <Rbt.Parameter_File>
/export/apps/rDock/src/rDock_2013.1_src/data/scripts/dock_solv.prm

>  <Rbt.Receptor>
prm/pocket_docking_4.prm

>  <SCORE>
-25.2894

>  <SCORE.INTER>
-21.236

>  <SCORE.INTER.CONST>
1

>  <SCORE.INTER.POLAR>
-4.07816

>  <SCORE.INTER.ROT>
5

>  <SCORE.INTER.SOLV>
17.0817

>  <SCORE.INTER.VDW>
-13.1907

>  <SCORE.INTER.norm>
-1.76967

>  <SCORE.INTRA>
-4.05338

>  <SCORE.INTRA.DIHEDRAL>
-2.002

>  <SCORE.INTRA.DIHEDRAL.0>
7.7847

>  <SCORE.INTRA.POLAR>
0

>  <SCORE.INTRA.POLAR.0>
0

>  <SCORE.INTRA.REPUL>
0

>  <SCORE.INTRA.REPUL.0>
0

>  <SCORE.INTRA.SOLV>
-2.22814

>  <SCORE.INTRA.SOLV.lig_0>
-57.5465

>  <SCORE.INTRA.VDW>
-1.93831

>  <SCORE.INTRA.VDW.0>
1.39369

>  <SCORE.INTRA.norm>
-0.337782

>  <SCORE.RESTR>
0

>  <SCORE.RESTR.CAVITY>
0

>  <SCORE.RESTR.norm>
0

>  <SCORE.SYSTEM>
0

>  <SCORE.SYSTEM.CONST>
0

>  <SCORE.SYSTEM.DIHEDRAL>
0

>  <SCORE.SYSTEM.SOLV>
0

>  <SCORE.SYSTEM.norm>
0

>  <SCORE.heavy>
12

>  <SCORE.norm>
-2.10745

>  <SYMMETRIC_BONDS>
4 1 2

>  <RMSD>
1.953

$$$$
1kod cryst
 OpenBabel11021811393D
libRbt.so/2013.1/901 2013/11/27
 12 11  0  0  0  0  0  0  0  0999 V2000
    1.6160    5.3744   35.4027 C   0  0  0  0  0  0  0  0  0  0  0  0
    0.6111    5.2774   36.0913 O   0  5  0  0  0  0  0  0  0  0  0  0
    2.7311    5.6045   35.8535 O   0  0  0  0  0  0  0  0  0  0  0  0
    1.4668    5.1932   33.8791 C   0  0  1  0  0  0  0  0  0  0  0  0
    2.2308    6.2685   33.1758 N   0  3  0  0  0  0  0  0  0  0  0  0
    1.9986    3.8096   33.4374 C   0  0  0  0  0  0  0  0  0  0  0  0
    0.8929    2.7642   33.5036 C   0  0  0  0  0  0  0  0  0  0  0  0
    1.4153    1.4243   32.9900 C   0  0  0  0  0  0  0  0  0  0  0  0
    2.1574    0.7364   34.0921 N   0  0  0  0  0  0  0  0  0  0  0  0
    1.5424    0.3849   35.1894 C   0  0  0  0  0  0  0  0  0  0  0  0
    1.9712    0.7310   36.2880 O   0  0  0  0  0  0  0  0  0  0  0  0
    0.4723   -0.3526   35.1240 N   0  0  0  0  0  0  0  0  0  0  0  0
  1  2  1  0  0  0  0
  1  3  2  0  0  0  0
  4  1  1  1  0  0  0
  4  6  1  0  0  0  0
  4  5  1  0  0  0  0
  6  7  1  0  0  0  0
  7  8  1  0  0  0  0
  8  9  1  0  0  0  0
  9 10  1  0  0  0  0
 10 12  1  0  0  0  0
 10 11  2  0  0  0  0
M  CHG  2   2  -1   5   1
M  END
>  <CHROM.1>
134.79051072,88.90495182,179.76391729,176.83469467,82.06050510,-117.29510204
1.60445505,3.12176450,34.59926420,0.45763274,1.46344734,1.05951277

>  <Name>
1kod cryst

>  <RI>
0

>  <Rbt.Current_Directory>
/home/itssahil/PROJECTS/Mol_Feturizer/New_Systems/rnas/1kod

>  <Rbt.Executable>
rbdock ($Id: //depot/dev/client3/rdock/2013.1/src/exe/rbdock.cxx#4 $)

>  <Rbt.Library>
libRbt.so (2013.1, Build901 2013/11/27)

>  <Rbt.Parameter_File>
/export/apps/rDock/src/rDock_2013.1_src/data/scripts/dock_solv.prm

>  <Rbt.Receptor>
prm/pocket_docking_8.prm

>  <SCORE>
-25.5701

>  <SCORE.INTER>
-21.0319

>  <SCORE.INTER.CONST>
1

>  <SCORE.INTER.POLAR>
-3.85248

>  <SCORE.INTER.ROT>
5

>  <SCORE.INTER.SOLV>
18.9171

>  <SCORE.INTER.VDW>
-14.4187

>  <SCORE.INTER.norm>
-1.75266

>  <SCORE.INTRA>
-4.5382

>  <SCORE.INTRA.DIHEDRAL>
-1.43959

>  <SCORE.INTRA.DIHEDRAL.0>
7.7847

>  <SCORE.INTRA.POLAR>
0

>  <SCORE.INTRA.POLAR.0>
0

>  <SCORE.INTRA.REPUL>
0

>  <SCORE.INTRA.REPUL.0>
0

>  <SCORE.INTRA.SOLV>
-2.37146

>  <SCORE.INTRA.SOLV.lig_0>
-57.5465

>  <SCORE.INTRA.VDW>
-2.63268

>  <SCORE.INTRA.VDW.0>
1.39369

>  <SCORE.INTRA.norm>
-0.378184

>  <SCORE.RESTR>
0

>  <SCORE.RESTR.CAVITY>
0

>  <SCORE.RESTR.norm>
0

>  <SCORE.SYSTEM>
0

>  <SCORE.SYSTEM.CONST>
0

>  <SCORE.SYSTEM.DIHEDRAL>
0

>  <SCORE.SYSTEM.SOLV>
0

>  <SCORE.SYSTEM.norm>
0

>  <SCORE.heavy>
12

>  <SCORE.norm>
-2.13084

>  <SYMMETRIC_BONDS>
4 1 2

>  <RMSD>
1.959

$$$$
1kod cryst
 OpenBabel11021811393D
libRbt.so/2013.1/901 2013/11/27
 12 11  0  0  0  0  0  0  0  0999 V2000
    1.7040    6.1540   35.6641 C   0  0  0  0  0  0  0  0  0  0  0  0
    2.2352    7.1305   36.1717 O   0  5  0  0  0  0  0  0  0  0  0  0
    1.1197    5.2876   36.3024 O   0  0  0  0  0  0  0  0  0  0  0  0
    1.7739    6.0101   34.1309 C   0  0  1  0  0  0  0  0  0  0  0  0
    2.1812    7.3165   33.5292 N   0  3  0  0  0  0  0  0  0  0  0  0
    2.7922    4.9175   33.7291 C   0  0  0  0  0  0  0  0  0  0  0  0
    2.2773    3.5368   34.1146 C   0  0  0  0  0  0  0  0  0  0  0  0
    3.1687    2.4608   33.4987 C   0  0  0  0  0  0  0  0  0  0  0  0
    2.8135    1.1349   34.0941 N   0  0  0  0  0  0  0  0  0  0  0  0
    1.5672    0.7510   34.1665 C   0  0  0  0  0  0  0  0  0  0  0  0
    1.0834    0.3874   35.2362 O   0  0  0  0  0  0  0  0  0  0  0  0
    0.8306    0.7374   33.0939 N   0  0  0  0  0  0  0  0  0  0  0  0
  1  2  1  0  0  0  0
  1  3  2  0  0  0  0
  4  1  1  1  0  0  0
  4  6  1  0  0  0  0
  4  5  1  0  0  0  0
  6  7  1  0  0  0  0
  7  8  1  0  0  0  0
  8  9  1  0  0  0  0
  9 10  1  0  0  0  0
 10 12  1  0  0  0  0
 10 11  2  0  0  0  0
M  CHG  2   2  -1   5   1
M  END
>  <CHROM.1>
-15.23858200,69.46130267,63.71621861,170.14109080,169.23601638,-131.38163856
1.95267734,3.84098520,34.47841202,1.43671545,1.13911325,0.28144231

>  <Name>
1kod cryst

>  <RI>
0

>  <Rbt.Current_Directory>
/home/itssahil/PROJECTS/Mol_Feturizer/New_Systems/rnas/1kod

>  <Rbt.Executable>
rbdock ($Id: //depot/dev/client3/rdock/2013.1/src/exe/rbdock.cxx#4 $)

>  <Rbt.Library>
libRbt.so (2013.1, Build901 2013/11/27)

>  <Rbt.Parameter_File>
/export/apps/rDock/src/rDock_2013.1_src/data/scripts/dock_solv.prm

>  <Rbt.Receptor>
prm/pocket_docking_7.prm

>  <SCORE>
-22.3576

>  <SCORE.INTER>
-17.5167

>  <SCORE.INTER.CONST>
1

>  <SCORE.INTER.POLAR>
-3.4476

>  <SCORE.INTER.ROT>
5

>  <SCORE.INTER.SOLV>
16.0738

>  <SCORE.INTER.VDW>
-12.477

>  <SCORE.INTER.norm>
-1.45972

>  <SCORE.INTRA>
-4.84088

>  <SCORE.INTRA.DIHEDRAL>
-4.37344

>  <SCORE.INTRA.DIHEDRAL.0>
7.7847

>  <SCORE.INTRA.POLAR>
0

>  <SCORE.INTRA.POLAR.0>
0

>  <SCORE.INTRA.REPUL>
0

>  <SCORE.INTRA.REPUL.0>
0

>  <SCORE.INTRA.SOLV>
-2.07513

>  <SCORE.INTRA.SOLV.lig_0>
-57.5465

>  <SCORE.INTRA.VDW>
-1.61659

>  <SCORE.INTRA.VDW.0>
1.39369

>  <SCORE.INTRA.norm>
-0.403407

>  <SCORE.RESTR>
0

>  <SCORE.RESTR.CAVITY>
0

>  <SCORE.RESTR.norm>
0

>  <SCORE.SYSTEM>
0

>  <SCORE.SYSTEM.CONST>
0

>  <SCORE.SYSTEM.DIHEDRAL>
0

>  <SCORE.SYSTEM.SOLV>
0

>  <SCORE.SYSTEM.norm>
0

>  <SCORE.heavy>
12

>  <SCORE.norm>
-1.86313

>  <SYMMETRIC_BONDS>
4 1 2

>  <RMSD>
1.961

$$$$
1kod cryst
 OpenBabel11021811393D
libRbt.so/2013.1/901 2013/11/27
 12 11  0  0  0  0  0  0  0  0999 V2000
    0.8739    5.6605   35.4402 C   0  0  0  0  0  0  0  0  0  0  0  0
   -0.0933    4.9384   35.6314 O   0  5  0  0  0  0  0  0  0  0  0  0
    1.0760    6.7038   36.0488 O   0  0  0  0  0  0  0  0  0  0  0  0
    1.8974    5.2277   34.3718 C   0  0  1  0  0  0  0  0  0  0  0  0
    2.3205    6.4223   33.5791 N   0  3  0  0  0  0  0  0  0  0  0  0
    3.1377    4.5810   35.0318 C   0  0  0  0  0  0  0  0  0  0  0  0
    3.6035    3.3731   34.2295 C   0  0  0  0  0  0  0  0  0  0  0  0
    2.6619    2.1956   34.4719 C   0  0  0  0  0  0  0  0  0  0  0  0
    1.7580    2.0436   33.2893 N   0  0  0  0  0  0  0  0  0  0  0  0
    1.3045    0.8679   32.9458 C   0  0  0  0  0  0  0  0  0  0  0  0
    1.4474    0.4505   31.7987 O   0  0  0  0  0  0  0  0  0  0  0  0
    0.6806    0.1338   33.8205 N   0  0  0  0  0  0  0  0  0  0  0  0
  1  2  1  0  0  0  0
  1  3  2  0  0  0  0
  4  1  1  1  0  0  0
  4  6  1  0  0  0  0
  4  5  1  0  0  0  0
  6  7  1  0  0  0  0
  7  8  1  0  0  0  0
  8  9  1  0  0  0  0
  9 10  1  0  0  0  0
 10 12  1  0  0  0  0
 10 11  2  0  0  0  0
M  CHG  2   2  -1   5   1
M  END
>  <CHROM.1>
138.47236112,139.55524390,-179.75839968,-75.27276946,103.11089235,-30.57702244
1.70102713,3.57089217,34.20740978,1.56035855,0.43439972,0.39286526

>  <Name>
1kod cryst

>  <RI>
0

>  <Rbt.Current_Directory>
/home/itssahil/PROJECTS/Mol_Feturizer/New_Systems/rnas/1kod

>  <Rbt.Executable>
rbdock ($Id: //depot/dev/client3/rdock/2013.1/src/exe/rbdock.cxx#4 $)

>  <Rbt.Library>
libRbt.so (2013.1, Build901 2013/11/27)

>  <Rbt.Parameter_File>
/export/apps/rDock/src/rDock_2013.1_src/data/scripts/dock_solv.prm

>  <Rbt.Receptor>
prm/pocket_docking_2.prm

>  <SCORE>
-11.9826

>  <SCORE.INTER>
-10.5228

>  <SCORE.INTER.CONST>
1

>  <SCORE.INTER.POLAR>
-2.3251

>  <SCORE.INTER.ROT>
5

>  <SCORE.INTER.SOLV>
19.8983

>  <SCORE.INTER.VDW>
-12.831

>  <SCORE.INTER.norm>
-0.876896

>  <SCORE.INTRA>
-1.78572

>  <SCORE.INTRA.DIHEDRAL>
3.79731

>  <SCORE.INTRA.DIHEDRAL.0>
7.7847

>  <SCORE.INTRA.POLAR>
0

>  <SCORE.INTRA.POLAR.0>
0

>  <SCORE.INTRA.REPUL>
0

>  <SCORE.INTRA.REPUL.0>
0

>  <SCORE.INTRA.SOLV>
-1.87935

>  <SCORE.INTRA.SOLV.lig_0>
-57.5465

>  <SCORE.INTRA.VDW>
-2.74469

>  <SCORE.INTRA.VDW.0>
1.39369

>  <SCORE.INTRA.norm>
-0.14881

>  <SCORE.RESTR>
0.325837

>  <SCORE.RESTR.CAVITY>
0.325837

>  <SCORE.RESTR.norm>
0.0271531

>  <SCORE.SYSTEM>
0

>  <SCORE.SYSTEM.CONST>
0

>  <SCORE.SYSTEM.DIHEDRAL>
0

>  <SCORE.SYSTEM.SOLV>
0

>  <SCORE.SYSTEM.norm>
0

>  <SCORE.heavy>
12

>  <SCORE.norm>
-0.998553

>  <SYMMETRIC_BONDS>
4 1 2

>  <RMSD>
1.972

$$$$
1kod cryst
 OpenBabel11021811393D
libRbt.so/2013.1/901 2013/11/27
 12 11  0  0  0  0  0  0  0  0999 V2000
    1.4505    5.2673   35.3775 C   0  0  0  0  0  0  0  0  0  0  0  0
    0.3977    5.4717   35.9633 O   0  5  0  0  0  0  0  0  0  0  0  0
    2.5368    5.1864   35.9371 O   0  0  0  0  0  0  0  0  0  0  0  0
    1.4033    5.0997   33.8459 C   0  0  1  0  0  0  0  0  0  0  0  0
    2.2214    6.1741   33.2050 N   0  3  0  0  0  0  0  0  0  0  0  0
    1.9527    3.7152   33.4292 C   0  0  0  0  0  0  0  0  0  0  0  0
    0.8287    2.6894   33.3649 C   0  0  0  0  0  0  0  0  0  0  0  0
    1.3838    1.3403   32.9137 C   0  0  0  0  0  0  0  0  0  0  0  0
    2.1308    0.7166   34.0502 N   0  0  0  0  0  0  0  0  0  0  0  0
    1.5125    0.3923   35.1541 C   0  0  0  0  0  0  0  0  0  0  0  0
    1.9193    0.7929   36.2424 O   0  0  0  0  0  0  0  0  0  0  0  0
    0.4631   -0.3756   35.1067 N   0  0  0  0  0  0  0  0  0  0  0  0
  1  2  1  0  0  0  0
  1  3  2  0  0  0  0
  4  1  1  1  0  0  0
  4  6  1  0  0  0  0
  4  5  1  0  0  0  0
  6  7  1  0  0  0  0
  7  8  1  0  0  0  0
  8  9  1  0  0  0  0
  9 10  1  0  0  0  0
 10 12  1  0  0  0  0
 10 11  2  0  0  0  0
M  CHG  2   2  -1   5   1
M  END
>  <CHROM.1>
118.81274357,90.85775076,-58.44355688,178.38801974,75.00478122,-116.89777896
1.52934876,3.05993882,34.56466809,0.86892527,1.46226972,0.65935616

>  <Name>
1kod cryst

>  <RI>
0

>  <Rbt.Current_Directory>
/home/itssahil/PROJECTS/Mol_Feturizer/New_Systems/rnas/1kod

>  <Rbt.Executable>
rbdock ($Id: //depot/dev/client3/rdock/2013.1/src/exe/rbdock.cxx#4 $)

>  <Rbt.Library>
libRbt.so (2013.1, Build901 2013/11/27)

>  <Rbt.Parameter_File>
/export/apps/rDock/src/rDock_2013.1_src/data/scripts/dock_solv.prm

>  <Rbt.Receptor>
prm/pocket_docking_3.prm

>  <SCORE>
-25.8227

>  <SCORE.INTER>
-20.9866

>  <SCORE.INTER.CONST>
1

>  <SCORE.INTER.POLAR>
-3.80185

>  <SCORE.INTER.ROT>
5

>  <SCORE.INTER.SOLV>
19.2187

>  <SCORE.INTER.VDW>
-14.6578

>  <SCORE.INTER.norm>
-1.74889

>  <SCORE.INTRA>
-4.8361

>  <SCORE.INTRA.DIHEDRAL>
-2.03806

>  <SCORE.INTRA.DIHEDRAL.0>
7.7847

>  <SCORE.INTRA.POLAR>
0

>  <SCORE.INTRA.POLAR.0>
0

>  <SCORE.INTRA.REPUL>
0

>  <SCORE.INTRA.REPUL.0>
0

>  <SCORE.INTRA.SOLV>
-2.43808

>  <SCORE.INTRA.SOLV.lig_0>
-57.5465

>  <SCORE.INTRA.VDW>
-2.59803

>  <SCORE.INTRA.VDW.0>
1.39369

>  <SCORE.INTRA.norm>
-0.403008

>  <SCORE.RESTR>
0

>  <SCORE.RESTR.CAVITY>
0

>  <SCORE.RESTR.norm>
0

>  <SCORE.SYSTEM>
0

>  <SCORE.SYSTEM.CONST>
0

>  <SCORE.SYSTEM.DIHEDRAL>
0

>  <SCORE.SYSTEM.SOLV>
0

>  <SCORE.SYSTEM.norm>
0

>  <SCORE.heavy>
12

>  <SCORE.norm>
-2.15189

>  <SYMMETRIC_BONDS>
4 1 2

>  <RMSD>
1.972

$$$$
1kod cryst
 OpenBabel11021811393D
libRbt.so/2013.1/901 2013/11/27
 12 11  0  0  0  0  0  0  0  0999 V2000
    1.2070    5.1326   35.3695 C   0  0  0  0  0  0  0  0  0  0  0  0
    0.1159    4.9664   35.8941 O   0  5  0  0  0  0  0  0  0  0  0  0
    2.2207    5.4343   35.9868 O   0  0  0  0  0  0  0  0  0  0  0  0
    1.3090    4.9483   33.8424 C   0  0  1  0  0  0  0  0  0  0  0  0
    2.1670    6.0300   33.2695 N   0  3  0  0  0  0  0  0  0  0  0  0
    1.9182    3.5693   33.4967 C   0  0  0  0  0  0  0  0  0  0  0  0
    0.8215    2.5687   33.1562 C   0  0  0  0  0  0  0  0  0  0  0  0
    1.4410    1.2108   32.8336 C   0  0  0  0  0  0  0  0  0  0  0  0
    2.1377    0.6919   34.0518 N   0  0  0  0  0  0  0  0  0  0  0  0
    1.4655    0.4263   35.1398 C   0  0  0  0  0  0  0  0  0  0  0  0
    1.7973    0.9147   36.2177 O   0  0  0  0  0  0  0  0  0  0  0  0
    0.4421   -0.3757   35.0889 N   0  0  0  0  0  0  0  0  0  0  0  0
  1  2  1  0  0  0  0
  1  3  2  0  0  0  0
  4  1  1  1  0  0  0
  4  6  1  0  0  0  0
  4  5  1  0  0  0  0
  6  7  1  0  0  0  0
  7  8  1  0  0  0  0
  8  9  1  0  0  0  0
  9 10  1  0  0  0  0
 10 12  1  0  0  0  0
 10 11  2  0  0  0  0
M  CHG  2   2  -1   5   1
M  END
>  <CHROM.1>
138.08201236,98.39116478,-172.18926453,-179.35557425,63.28315498,-117.01054265
1.43161269,2.98157038,34.54654371,1.24111265,1.39818830,0.30836344

>  <Name>
1kod cryst

>  <RI>
0

>  <Rbt.Current_Directory>
/home/itssahil/PROJECTS/Mol_Feturizer/New_Systems/rnas/1kod

>  <Rbt.Executable>
rbdock ($Id: //depot/dev/client3/rdock/2013.1/src/exe/rbdock.cxx#4 $)

>  <Rbt.Library>
libRbt.so (2013.1, Build901 2013/11/27)

>  <Rbt.Parameter_File>
/export/apps/rDock/src/rDock_2013.1_src/data/scripts/dock_solv.prm

>  <Rbt.Receptor>
prm/pocket_docking_4.prm

>  <SCORE>
-26.0969

>  <SCORE.INTER>
-21.5161

>  <SCORE.INTER.CONST>
1

>  <SCORE.INTER.POLAR>
-3.63469

>  <SCORE.INTER.ROT>
5

>  <SCORE.INTER.SOLV>
19.6763

>  <SCORE.INTER.VDW>
-15.7206

>  <SCORE.INTER.norm>
-1.79301

>  <SCORE.INTRA>
-4.58071

>  <SCORE.INTRA.DIHEDRAL>
-1.6988

>  <SCORE.INTRA.DIHEDRAL.0>
7.7847

>  <SCORE.INTRA.POLAR>
0

>  <SCORE.INTRA.POLAR.0>
0

>  <SCORE.INTRA.REPUL>
0

>  <SCORE.INTRA.REPUL.0>
0

>  <SCORE.INTRA.SOLV>
-2.21735

>  <SCORE.INTRA.SOLV.lig_0>
-57.5465

>  <SCORE.INTRA.VDW>
-2.62264

>  <SCORE.INTRA.VDW.0>
1.39369

>  <SCORE.INTRA.norm>
-0.381726

>  <SCORE.RESTR>
0

>  <SCORE.RESTR.CAVITY>
0

>  <SCORE.RESTR.norm>
0

>  <SCORE.SYSTEM>
0

>  <SCORE.SYSTEM.CONST>
0

>  <SCORE.SYSTEM.DIHEDRAL>
0

>  <SCORE.SYSTEM.SOLV>
0

>  <SCORE.SYSTEM.norm>
0

>  <SCORE.heavy>
12

>  <SCORE.norm>
-2.17474

>  <SYMMETRIC_BONDS>
4 1 2

>  <RMSD>
1.972

$$$$
1kod cryst
 OpenBabel11021811393D
libRbt.so/2013.1/901 2013/11/27
 12 11  0  0  0  0  0  0  0  0999 V2000
    1.1235    6.1690   35.4576 C   0  0  0  0  0  0  0  0  0  0  0  0
    1.4495    7.2353   35.9577 O   0  5  0  0  0  0  0  0  0  0  0  0
    0.2445    5.4455   35.9088 O   0  0  0  0  0  0  0  0  0  0  0  0
    1.8624    5.7137   34.1836 C   0  0  1  0  0  0  0  0  0  0  0  0
    2.3918    6.9120   33.4636 N   0  3  0  0  0  0  0  0  0  0  0  0
    3.0325    4.7664   34.5381 C   0  0  0  0  0  0  0  0  0  0  0  0
    2.9653    3.4950   33.7021 C   0  0  0  0  0  0  0  0  0  0  0  0
    2.1011    2.4543   34.4105 C   0  0  0  0  0  0  0  0  0  0  0  0
    2.1856    1.1610   33.6628 N   0  0  0  0  0  0  0  0  0  0  0  0
    1.1007    0.5262   33.3076 C   0  0  0  0  0  0  0  0  0  0  0  0
    0.9384   -0.6550   33.6058 O   0  0  0  0  0  0  0  0  0  0  0  0
    0.1863    1.1431   32.6174 N   0  0  0  0  0  0  0  0  0  0  0  0
  1  2  1  0  0  0  0
  1  3  2  0  0  0  0
  4  1  1  1  0  0  0
  4  6  1  0  0  0  0
  4  5  1  0  0  0  0
  6  7  1  0  0  0  0
  7  8  1  0  0  0  0
  8  9  1  0  0  0  0
  9 10  1  0  0  0  0
 10 12  1  0  0  0  0
 10 11  2  0  0  0  0
M  CHG  2   2  -1   5   1
M  END
>  <CHROM.1>
-25.64195664,129.29271100,48.58664098,-88.44546312,-173.01851160,51.22532224
1.61980152,3.72107213,34.22060288,1.47736254,0.56248725,0.31631166

>  <Name>
1kod cryst

>  <RI>
0

>  <Rbt.Current_Directory>
/home/itssahil/PROJECTS/Mol_Feturizer/New_Systems/rnas/1kod

>  <Rbt.Executable>
rbdock ($Id: //depot/dev/client3/rdock/2013.1/src/exe/rbdock.cxx#4 $)

>  <Rbt.Library>
libRbt.so (2013.1, Build901 2013/11/27)

>  <Rbt.Parameter_File>
/export/apps/rDock/src/rDock_2013.1_src/data/scripts/dock_solv.prm

>  <Rbt.Receptor>
prm/pocket_docking_5.prm

>  <SCORE>
-28.2823

>  <SCORE.INTER>
-25.7489

>  <SCORE.INTER.CONST>
1

>  <SCORE.INTER.POLAR>
-4.75927

>  <SCORE.INTER.ROT>
5

>  <SCORE.INTER.SOLV>
19.5319

>  <SCORE.INTER.VDW>
-14.7457

>  <SCORE.INTER.norm>
-2.14574

>  <SCORE.INTRA>
-2.53346

>  <SCORE.INTRA.DIHEDRAL>
2.60149

>  <SCORE.INTRA.DIHEDRAL.0>
7.7847

>  <SCORE.INTRA.POLAR>
0

>  <SCORE.INTRA.POLAR.0>
0

>  <SCORE.INTRA.REPUL>
0

>  <SCORE.INTRA.REPUL.0>
0

>  <SCORE.INTRA.SOLV>
-2.33442

>  <SCORE.INTRA.SOLV.lig_0>
-57.5465

>  <SCORE.INTRA.VDW>
-2.66699

>  <SCORE.INTRA.VDW.0>
1.39369

>  <SCORE.INTRA.norm>
-0.211121

>  <SCORE.RESTR>
0

>  <SCORE.RESTR.CAVITY>
0

>  <SCORE.RESTR.norm>
0

>  <SCORE.SYSTEM>
0

>  <SCORE.SYSTEM.CONST>
0

>  <SCORE.SYSTEM.DIHEDRAL>
0

>  <SCORE.SYSTEM.SOLV>
0

>  <SCORE.SYSTEM.norm>
0

>  <SCORE.heavy>
12

>  <SCORE.norm>
-2.35686

>  <SYMMETRIC_BONDS>
4 1 2

>  <RMSD>
1.975

$$$$
1kod cryst
 OpenBabel11021811393D
libRbt.so/2013.1/901 2013/11/27
 12 11  0  0  0  0  0  0  0  0999 V2000
    1.1485    5.3081   35.4356 C   0  0  0  0  0  0  0  0  0  0  0  0
   -0.0332    5.2059   35.7297 O   0  5  0  0  0  0  0  0  0  0  0  0
    2.0465    5.4382   36.2580 O   0  0  0  0  0  0  0  0  0  0  0  0
    1.5262    5.2677   33.9416 C   0  0  1  0  0  0  0  0  0  0  0  0
    2.4795    6.3794   33.6419 N   0  3  0  0  0  0  0  0  0  0  0  0
    2.1815    3.9145   33.5787 C   0  0  0  0  0  0  0  0  0  0  0  0
    1.1339    2.8106   33.5179 C   0  0  0  0  0  0  0  0  0  0  0  0
    1.8161    1.4454   33.5713 C   0  0  0  0  0  0  0  0  0  0  0  0
    0.8026    0.4090   33.9419 N   0  0  0  0  0  0  0  0  0  0  0  0
    0.9281   -0.2790   35.0451 C   0  0  0  0  0  0  0  0  0  0  0  0
    0.9034   -1.5077   35.0250 O   0  0  0  0  0  0  0  0  0  0  0  0
    1.0655    0.3394   36.1817 N   0  0  0  0  0  0  0  0  0  0  0  0
  1  2  1  0  0  0  0
  1  3  2  0  0  0  0
  4  1  1  1  0  0  0
  4  6  1  0  0  0  0
  4  5  1  0  0  0  0
  6  7  1  0  0  0  0
  7  8  1  0  0  0  0
  8  9  1  0  0  0  0
  9 10  1  0  0  0  0
 10 12  1  0  0  0  0
 10 11  2  0  0  0  0
M  CHG  2   2  -1   5   1
M  END
>  <CHROM.1>
133.32565289,74.39243297,70.02799059,-163.39977788,162.35826425,62.33523069
1.34010142,2.91720019,34.67704705,1.22416770,1.22657222,0.29801108

>  <Name>
1kod cryst

>  <RI>
0

>  <Rbt.Current_Directory>
/home/itssahil/PROJECTS/Mol_Feturizer/New_Systems/rnas/1kod

>  <Rbt.Executable>
rbdock ($Id: //depot/dev/client3/rdock/2013.1/src/exe/rbdock.cxx#4 $)

>  <Rbt.Library>
libRbt.so (2013.1, Build901 2013/11/27)

>  <Rbt.Parameter_File>
/export/apps/rDock/src/rDock_2013.1_src/data/scripts/dock_solv.prm

>  <Rbt.Receptor>
prm/pocket_docking_3.prm

>  <SCORE>
-19.1996

>  <SCORE.INTER>
-13.8915

>  <SCORE.INTER.CONST>
1

>  <SCORE.INTER.POLAR>
-2.86395

>  <SCORE.INTER.ROT>
5

>  <SCORE.INTER.SOLV>
18.8267

>  <SCORE.INTER.VDW>
-12.9234

>  <SCORE.INTER.norm>
-1.15762

>  <SCORE.INTRA>
-5.30811

>  <SCORE.INTRA.DIHEDRAL>
-2.42703

>  <SCORE.INTRA.DIHEDRAL.0>
7.7847

>  <SCORE.INTRA.POLAR>
0

>  <SCORE.INTRA.POLAR.0>
0

>  <SCORE.INTRA.REPUL>
0

>  <SCORE.INTRA.REPUL.0>
0

>  <SCORE.INTRA.SOLV>
-2.68044

>  <SCORE.INTRA.SOLV.lig_0>
-57.5465

>  <SCORE.INTRA.VDW>
-2.75438

>  <SCORE.INTRA.VDW.0>
1.39369

>  <SCORE.INTRA.norm>
-0.442343

>  <SCORE.RESTR>
0

>  <SCORE.RESTR.CAVITY>
0

>  <SCORE.RESTR.norm>
0

>  <SCORE.SYSTEM>
0

>  <SCORE.SYSTEM.CONST>
0

>  <SCORE.SYSTEM.DIHEDRAL>
0

>  <SCORE.SYSTEM.SOLV>
0

>  <SCORE.SYSTEM.norm>
0

>  <SCORE.heavy>
12

>  <SCORE.norm>
-1.59996

>  <SYMMETRIC_BONDS>
4 1 2

>  <RMSD>
1.977

$$$$
1kod cryst
 OpenBabel11021811393D
libRbt.so/2013.1/901 2013/11/27
 12 11  0  0  0  0  0  0  0  0999 V2000
    2.4961    6.6581   35.6684 C   0  0  0  0  0  0  0  0  0  0  0  0
    2.2336    5.7826   36.4795 O   0  5  0  0  0  0  0  0  0  0  0  0
    3.1283    7.6711   35.9401 O   0  0  0  0  0  0  0  0  0  0  0  0
    2.0030    6.4710   34.2199 C   0  0  1  0  0  0  0  0  0  0  0  0
    2.5272    7.5841   33.3709 N   0  3  0  0  0  0  0  0  0  0  0  0
    2.4833    5.1164   33.6485 C   0  0  0  0  0  0  0  0  0  0  0  0
    1.3197    4.1404   33.5324 C   0  0  0  0  0  0  0  0  0  0  0  0
    1.6507    2.8487   34.2765 C   0  0  0  0  0  0  0  0  0  0  0  0
    2.0020    1.7893   33.2801 N   0  0  0  0  0  0  0  0  0  0  0  0
    1.1292    0.8780   32.9428 C   0  0  0  0  0  0  0  0  0  0  0  0
    1.4086   -0.3166   33.0160 O   0  0  0  0  0  0  0  0  0  0  0  0
   -0.0448    1.2348   32.5097 N   0  0  0  0  0  0  0  0  0  0  0  0
  1  2  1  0  0  0  0
  1  3  2  0  0  0  0
  4  1  1  1  0  0  0
  4  6  1  0  0  0  0
  4  5  1  0  0  0  0
  6  7  1  0  0  0  0
  7  8  1  0  0  0  0
  8  9  1  0  0  0  0
  9 10  1  0  0  0  0
 10 12  1  0  0  0  0
 10 11  2  0  0  0  0
M  CHG  2   2  -1   5   1
M  END
>  <CHROM.1>
-175.09429850,107.90401080,60.02521714,-125.29181850,-103.96539499,79.08649034
1.86764654,4.17599527,34.06176860,-0.59899695,1.28949440,2.51912515

>  <Name>
1kod cryst

>  <RI>
0

>  <Rbt.Current_Directory>
/home/itssahil/PROJECTS/Mol_Feturizer/New_Systems/rnas/1kod

>  <Rbt.Executable>
rbdock ($Id: //depot/dev/client3/rdock/2013.1/src/exe/rbdock.cxx#4 $)

>  <Rbt.Library>
libRbt.so (2013.1, Build901 2013/11/27)

>  <Rbt.Parameter_File>
/export/apps/rDock/src/rDock_2013.1_src/data/scripts/dock_solv.prm

>  <Rbt.Receptor>
prm/pocket_docking_7.prm

>  <SCORE>
-21.0022

>  <SCORE.INTER>
-22.2859

>  <SCORE.INTER.CONST>
1

>  <SCORE.INTER.POLAR>
-3.17356

>  <SCORE.INTER.ROT>
5

>  <SCORE.INTER.SOLV>
16.7827

>  <SCORE.INTER.VDW>
-16.8063

>  <SCORE.INTER.norm>
-1.85716

>  <SCORE.INTRA>
1.28365

>  <SCORE.INTRA.DIHEDRAL>
9.69655

>  <SCORE.INTRA.DIHEDRAL.0>
7.7847

>  <SCORE.INTRA.POLAR>
0

>  <SCORE.INTRA.POLAR.0>
0

>  <SCORE.INTRA.REPUL>
0

>  <SCORE.INTRA.REPUL.0>
0

>  <SCORE.INTRA.SOLV>
-2.01451

>  <SCORE.INTRA.SOLV.lig_0>
-57.5465

>  <SCORE.INTRA.VDW>
-2.55737

>  <SCORE.INTRA.VDW.0>
1.39369

>  <SCORE.INTRA.norm>
0.106971

>  <SCORE.RESTR>
0

>  <SCORE.RESTR.CAVITY>
0

>  <SCORE.RESTR.norm>
0

>  <SCORE.SYSTEM>
0

>  <SCORE.SYSTEM.CONST>
0

>  <SCORE.SYSTEM.DIHEDRAL>
0

>  <SCORE.SYSTEM.SOLV>
0

>  <SCORE.SYSTEM.norm>
0

>  <SCORE.heavy>
12

>  <SCORE.norm>
-1.75019

>  <SYMMETRIC_BONDS>
4 1 2

>  <RMSD>
1.977

$$$$
1kod cryst
 OpenBabel11021811393D
libRbt.so/2013.1/901 2013/11/27
 12 11  0  0  0  0  0  0  0  0999 V2000
    1.8998    6.4320   35.6664 C   0  0  0  0  0  0  0  0  0  0  0  0
    2.0097    6.0021   36.8050 O   0  5  0  0  0  0  0  0  0  0  0  0
    1.6774    7.6065   35.4003 O   0  0  0  0  0  0  0  0  0  0  0  0
    2.0534    5.4350   34.5008 C   0  0  1  0  0  0  0  0  0  0  0  0
    2.2007    6.1907   33.2194 N   0  3  0  0  0  0  0  0  0  0  0  0
    3.2911    4.5319   34.7120 C   0  0  0  0  0  0  0  0  0  0  0  0
    3.3034    3.3937   33.7000 C   0  0  0  0  0  0  0  0  0  0  0  0
    1.9330    2.7212   33.6599 C   0  0  0  0  0  0  0  0  0  0  0  0
    2.0269    1.4736   32.8393 N   0  0  0  0  0  0  0  0  0  0  0  0
    1.0428    0.6150   32.8198 C   0  0  0  0  0  0  0  0  0  0  0  0
    1.2397   -0.5715   33.0730 O   0  0  0  0  0  0  0  0  0  0  0  0
   -0.1578    1.0131   32.5146 N   0  0  0  0  0  0  0  0  0  0  0  0
  1  2  1  0  0  0  0
  1  3  2  0  0  0  0
  4  1  1  1  0  0  0
  4  6  1  0  0  0  0
  4  5  1  0  0  0  0
  6  7  1  0  0  0  0
  7  8  1  0  0  0  0
  8  9  1  0  0  0  0
  9 10  1  0  0  0  0
 10 12  1  0  0  0  0
 10 11  2  0  0  0  0
M  CHG  2   2  -1   5   1
M  END
>  <CHROM.1>
-167.06397540,169.94292340,-34.05807611,-48.44793790,-170.63463851,-10.45934321
1.86027241,3.75457174,34.05499912,1.40806024,0.35549522,0.45241801

>  <Name>
1kod cryst

>  <RI>
0

>  <Rbt.Current_Directory>
/home/itssahil/PROJECTS/Mol_Feturizer/New_Systems/rnas/1kod

>  <Rbt.Executable>
rbdock ($Id: //depot/dev/client3/rdock/2013.1/src/exe/rbdock.cxx#4 $)

>  <Rbt.Library>
libRbt.so (2013.1, Build901 2013/11/27)

>  <Rbt.Parameter_File>
/export/apps/rDock/src/rDock_2013.1_src/data/scripts/dock_solv.prm

>  <Rbt.Receptor>
prm/pocket_docking_2.prm

>  <SCORE>
-23.0935

>  <SCORE.INTER>
-20.7425

>  <SCORE.INTER.CONST>
1

>  <SCORE.INTER.POLAR>
-3.76876

>  <SCORE.INTER.ROT>
5

>  <SCORE.INTER.SOLV>
20.8861

>  <SCORE.INTER.VDW>
-15.1612

>  <SCORE.INTER.norm>
-1.72854

>  <SCORE.INTRA>
-2.4791

>  <SCORE.INTRA.DIHEDRAL>
-2.9055

>  <SCORE.INTRA.DIHEDRAL.0>
7.7847

>  <SCORE.INTRA.POLAR>
0

>  <SCORE.INTRA.POLAR.0>
0

>  <SCORE.INTRA.REPUL>
0

>  <SCORE.INTRA.REPUL.0>
0

>  <SCORE.INTRA.SOLV>
-1.5886

>  <SCORE.INTRA.SOLV.lig_0>
-57.5465

>  <SCORE.INTRA.VDW>
-0.232055

>  <SCORE.INTRA.VDW.0>
1.39369

>  <SCORE.INTRA.norm>
-0.206592

>  <SCORE.RESTR>
0.128106

>  <SCORE.RESTR.CAVITY>
0.128106

>  <SCORE.RESTR.norm>
0.0106755

>  <SCORE.SYSTEM>
0

>  <SCORE.SYSTEM.CONST>
0

>  <SCORE.SYSTEM.DIHEDRAL>
0

>  <SCORE.SYSTEM.SOLV>
0

>  <SCORE.SYSTEM.norm>
0

>  <SCORE.heavy>
12

>  <SCORE.norm>
-1.92445

>  <SYMMETRIC_BONDS>
4 1 2

>  <RMSD>
1.980

$$$$
1kod cryst
 OpenBabel11021811393D
libRbt.so/2013.1/901 2013/11/27
 12 11  0  0  0  0  0  0  0  0999 V2000
    1.5769    5.4823   35.3744 C   0  0  0  0  0  0  0  0  0  0  0  0
    0.5590    5.3860   36.0438 O   0  5  0  0  0  0  0  0  0  0  0  0
    2.6793    5.7354   35.8436 O   0  0  0  0  0  0  0  0  0  0  0  0
    1.4620    5.2695   33.8520 C   0  0  1  0  0  0  0  0  0  0  0  0
    2.2308    6.3379   33.1435 N   0  3  0  0  0  0  0  0  0  0  0  0
    2.0157    3.8826   33.4494 C   0  0  0  0  0  0  0  0  0  0  0  0
    0.9588    2.8044   33.6502 C   0  0  0  0  0  0  0  0  0  0  0  0
    1.4586    1.4772   33.0839 C   0  0  0  0  0  0  0  0  0  0  0  0
    2.1771    0.7280   34.1614 N   0  0  0  0  0  0  0  0  0  0  0  0
    1.5411    0.3250   35.2287 C   0  0  0  0  0  0  0  0  0  0  0  0
    1.9533    0.6110   36.3506 O   0  0  0  0  0  0  0  0  0  0  0  0
    0.4674   -0.4001   35.1073 N   0  0  0  0  0  0  0  0  0  0  0  0
  1  2  1  0  0  0  0
  1  3  2  0  0  0  0
  4  1  1  1  0  0  0
  4  6  1  0  0  0  0
  4  5  1  0  0  0  0
  6  7  1  0  0  0  0
  7  8  1  0  0  0  0
  8  9  1  0  0  0  0
  9 10  1  0  0  0  0
 10 12  1  0  0  0  0
 10 11  2  0  0  0  0
M  CHG  2   2  -1   5   1
M  END
>  <CHROM.1>
134.97284352,83.08521013,-60.00925051,172.83618043,90.37065309,-116.25344310
1.60157218,3.15662837,34.61975483,0.72441767,1.45539083,0.77444344

>  <Name>
1kod cryst

>  <RI>
0

>  <Rbt.Current_Directory>
/home/itssahil/PROJECTS/Mol_Feturizer/New_Systems/rnas/1kod

>  <Rbt.Executable>
rbdock ($Id: //depot/dev/client3/rdock/2013.1/src/exe/rbdock.cxx#4 $)

>  <Rbt.Library>
libRbt.so (2013.1, Build901 2013/11/27)

>  <Rbt.Parameter_File>
/export/apps/rDock/src/rDock_2013.1_src/data/scripts/dock_solv.prm

>  <Rbt.Receptor>
prm/pocket_docking_4.prm

>  <SCORE>
-25.0956

>  <SCORE.INTER>
-20.8991

>  <SCORE.INTER.CONST>
1

>  <SCORE.INTER.POLAR>
-3.83355

>  <SCORE.INTER.ROT>
5

>  <SCORE.INTER.SOLV>
19.3498

>  <SCORE.INTER.VDW>
-14.5375

>  <SCORE.INTER.norm>
-1.74159

>  <SCORE.INTRA>
-4.19644

>  <SCORE.INTRA.DIHEDRAL>
-0.862041

>  <SCORE.INTRA.DIHEDRAL.0>
7.7847

>  <SCORE.INTRA.POLAR>
0

>  <SCORE.INTRA.POLAR.0>
0

>  <SCORE.INTRA.REPUL>
0

>  <SCORE.INTRA.REPUL.0>
0

>  <SCORE.INTRA.SOLV>
-2.39693

>  <SCORE.INTRA.SOLV.lig_0>
-57.5465

>  <SCORE.INTRA.VDW>
-2.56695

>  <SCORE.INTRA.VDW.0>
1.39369

>  <SCORE.INTRA.norm>
-0.349703

>  <SCORE.RESTR>
0

>  <SCORE.RESTR.CAVITY>
0

>  <SCORE.RESTR.norm>
0

>  <SCORE.SYSTEM>
0

>  <SCORE.SYSTEM.CONST>
0

>  <SCORE.SYSTEM.DIHEDRAL>
0

>  <SCORE.SYSTEM.SOLV>
0

>  <SCORE.SYSTEM.norm>
0

>  <SCORE.heavy>
12

>  <SCORE.norm>
-2.0913

>  <SYMMETRIC_BONDS>
4 1 2

>  <RMSD>
1.980

$$$$
1kod cryst
 OpenBabel11021811393D
libRbt.so/2013.1/901 2013/11/27
 12 11  0  0  0  0  0  0  0  0999 V2000
    1.8407    6.1927   35.6607 C   0  0  0  0  0  0  0  0  0  0  0  0
    2.8242    6.7102   36.1691 O   0  5  0  0  0  0  0  0  0  0  0  0
    0.8783    5.7858   36.2993 O   0  0  0  0  0  0  0  0  0  0  0  0
    1.8134    6.0483   34.1262 C   0  0  1  0  0  0  0  0  0  0  0  0
    2.2048    7.3479   33.4998 N   0  3  0  0  0  0  0  0  0  0  0  0
    2.7864    4.9389   33.6631 C   0  0  0  0  0  0  0  0  0  0  0  0
    2.3097    3.5736   34.1412 C   0  0  0  0  0  0  0  0  0  0  0  0
    3.1178    2.4736   33.4566 C   0  0  0  0  0  0  0  0  0  0  0  0
    2.7995    1.1620   34.1024 N   0  0  0  0  0  0  0  0  0  0  0  0
    1.5655    0.7409   34.1795 C   0  0  0  0  0  0  0  0  0  0  0  0
    1.0828    0.4053   35.2588 O   0  0  0  0  0  0  0  0  0  0  0  0
    0.8406    0.6598   33.1019 N   0  0  0  0  0  0  0  0  0  0  0  0
  1  2  1  0  0  0  0
  1  3  2  0  0  0  0
  4  1  1  1  0  0  0
  4  6  1  0  0  0  0
  4  5  1  0  0  0  0
  6  7  1  0  0  0  0
  7  8  1  0  0  0  0
  8  9  1  0  0  0  0
  9 10  1  0  0  0  0
 10 12  1  0  0  0  0
 10 11  2  0  0  0  0
M  CHG  2   2  -1   5   1
M  END
>  <CHROM.1>
-47.86053466,66.59741942,61.23120557,169.06541101,170.56098303,-124.40805630
1.99669416,3.85841305,34.47237909,1.38722208,1.13833927,0.32608120

>  <Name>
1kod cryst

>  <RI>
0

>  <Rbt.Current_Directory>
/home/itssahil/PROJECTS/Mol_Feturizer/New_Systems/rnas/1kod

>  <Rbt.Executable>
rbdock ($Id: //depot/dev/client3/rdock/2013.1/src/exe/rbdock.cxx#4 $)

>  <Rbt.Library>
libRbt.so (2013.1, Build901 2013/11/27)

>  <Rbt.Parameter_File>
/export/apps/rDock/src/rDock_2013.1_src/data/scripts/dock_solv.prm

>  <Rbt.Receptor>
prm/pocket_docking_6.prm

>  <SCORE>
-22.7224

>  <SCORE.INTER>
-17.118

>  <SCORE.INTER.CONST>
1

>  <SCORE.INTER.POLAR>
-3.37144

>  <SCORE.INTER.ROT>
5

>  <SCORE.INTER.SOLV>
16.1917

>  <SCORE.INTER.VDW>
-12.5044

>  <SCORE.INTER.norm>
-1.4265

>  <SCORE.INTRA>
-5.60448

>  <SCORE.INTRA.DIHEDRAL>
-4.56722

>  <SCORE.INTRA.DIHEDRAL.0>
7.7847

>  <SCORE.INTRA.POLAR>
0

>  <SCORE.INTRA.POLAR.0>
0

>  <SCORE.INTRA.REPUL>
0

>  <SCORE.INTRA.REPUL.0>
0

>  <SCORE.INTRA.SOLV>
-2.42682

>  <SCORE.INTRA.SOLV.lig_0>
-57.5465

>  <SCORE.INTRA.VDW>
-2.10746

>  <SCORE.INTRA.VDW.0>
1.39369

>  <SCORE.INTRA.norm>
-0.46704

>  <SCORE.RESTR>
0

>  <SCORE.RESTR.CAVITY>
0

>  <SCORE.RESTR.norm>
0

>  <SCORE.SYSTEM>
0

>  <SCORE.SYSTEM.CONST>
0

>  <SCORE.SYSTEM.DIHEDRAL>
0

>  <SCORE.SYSTEM.SOLV>
0

>  <SCORE.SYSTEM.norm>
0

>  <SCORE.heavy>
12

>  <SCORE.norm>
-1.89354

>  <SYMMETRIC_BONDS>
4 1 2

>  <RMSD>
1.981

$$$$
1kod cryst
 OpenBabel11021811393D
libRbt.so/2013.1/901 2013/11/27
 12 11  0  0  0  0  0  0  0  0999 V2000
    3.3698    6.0349   35.2419 C   0  0  0  0  0  0  0  0  0  0  0  0
    3.1400    5.9222   36.4368 O   0  5  0  0  0  0  0  0  0  0  0  0
    4.4845    5.9175   34.7485 O   0  0  0  0  0  0  0  0  0  0  0  0
    2.1844    6.3397   34.3048 C   0  0  1  0  0  0  0  0  0  0  0  0
    2.5289    7.5047   33.4338 N   0  3  0  0  0  0  0  0  0  0  0  0
    1.8559    5.1140   33.4204 C   0  0  0  0  0  0  0  0  0  0  0  0
    0.7207    4.3018   34.0300 C   0  0  0  0  0  0  0  0  0  0  0  0
    0.3097    3.1858   33.0721 C   0  0  0  0  0  0  0  0  0  0  0  0
    1.4167    2.1825   32.9901 N   0  0  0  0  0  0  0  0  0  0  0  0
    1.1622    0.9038   33.0685 C   0  0  0  0  0  0  0  0  0  0  0  0
    1.7475    0.1961   33.8854 O   0  0  0  0  0  0  0  0  0  0  0  0
    0.2914    0.3665   32.2647 N   0  0  0  0  0  0  0  0  0  0  0  0
  1  2  1  0  0  0  0
  1  3  2  0  0  0  0
  4  1  1  1  0  0  0
  4  6  1  0  0  0  0
  4  5  1  0  0  0  0
  6  7  1  0  0  0  0
  7  8  1  0  0  0  0
  8  9  1  0  0  0  0
  9 10  1  0  0  0  0
 10 12  1  0  0  0  0
 10 11  2  0  0  0  0
M  CHG  2   2  -1   5   1
M  END
>  <CHROM.1>
129.46005173,96.54140693,66.72637913,173.91400750,68.49385828,-46.08845352
1.95691864,4.00908201,33.89811379,-1.05177086,0.77780030,3.06623684

>  <Name>
1kod cryst

>  <RI>
0

>  <Rbt.Current_Directory>
/home/itssahil/PROJECTS/Mol_Feturizer/New_Systems/rnas/1kod

>  <Rbt.Executable>
rbdock ($Id: //depot/dev/client3/rdock/2013.1/src/exe/rbdock.cxx#4 $)

>  <Rbt.Library>
libRbt.so (2013.1, Build901 2013/11/27)

>  <Rbt.Parameter_File>
/export/apps/rDock/src/rDock_2013.1_src/data/scripts/dock_solv.prm

>  <Rbt.Receptor>
prm/pocket_docking_4.prm

>  <SCORE>
-28.4486

>  <SCORE.INTER>
-23.7813

>  <SCORE.INTER.CONST>
1

>  <SCORE.INTER.POLAR>
-3.6303

>  <SCORE.INTER.ROT>
5

>  <SCORE.INTER.SOLV>
17.6457

>  <SCORE.INTER.VDW>
-16.5684

>  <SCORE.INTER.norm>
-1.98178

>  <SCORE.INTRA>
-4.66725

>  <SCORE.INTRA.DIHEDRAL>
-1.58599

>  <SCORE.INTRA.DIHEDRAL.0>
7.7847

>  <SCORE.INTRA.POLAR>
0

>  <SCORE.INTRA.POLAR.0>
0

>  <SCORE.INTRA.REPUL>
0

>  <SCORE.INTRA.REPUL.0>
0

>  <SCORE.INTRA.SOLV>
-2.7608

>  <SCORE.INTRA.SOLV.lig_0>
-57.5465

>  <SCORE.INTRA.VDW>
-2.49386

>  <SCORE.INTRA.VDW.0>
1.39369

>  <SCORE.INTRA.norm>
-0.388938

>  <SCORE.RESTR>
0

>  <SCORE.RESTR.CAVITY>
0

>  <SCORE.RESTR.norm>
0

>  <SCORE.SYSTEM>
0

>  <SCORE.SYSTEM.CONST>
0

>  <SCORE.SYSTEM.DIHEDRAL>
0

>  <SCORE.SYSTEM.SOLV>
0

>  <SCORE.SYSTEM.norm>
0

>  <SCORE.heavy>
12

>  <SCORE.norm>
-2.37071

>  <SYMMETRIC_BONDS>
4 1 2

>  <RMSD>
1.984

$$$$
1kod cryst
 OpenBabel11021811393D
libRbt.so/2013.1/901 2013/11/27
 12 11  0  0  0  0  0  0  0  0999 V2000
    1.2159    5.2109   35.3778 C   0  0  0  0  0  0  0  0  0  0  0  0
    0.8983    4.2500   36.0629 O   0  5  0  0  0  0  0  0  0  0  0  0
    1.4676    6.3192   35.8339 O   0  0  0  0  0  0  0  0  0  0  0  0
    1.3060    5.0108   33.8520 C   0  0  1  0  0  0  0  0  0  0  0  0
    2.1422    6.0988   33.2588 N   0  3  0  0  0  0  0  0  0  0  0  0
    1.9326    3.6373   33.5157 C   0  0  0  0  0  0  0  0  0  0  0  0
    0.8466    2.6051   33.2420 C   0  0  0  0  0  0  0  0  0  0  0  0
    1.4837    1.2772   32.8388 C   0  0  0  0  0  0  0  0  0  0  0  0
    2.1878    0.6954   34.0239 N   0  0  0  0  0  0  0  0  0  0  0  0
    1.5318    0.4259   35.1208 C   0  0  0  0  0  0  0  0  0  0  0  0
    1.9095    0.8690   36.2032 O   0  0  0  0  0  0  0  0  0  0  0  0
    0.4753   -0.3321   35.0735 N   0  0  0  0  0  0  0  0  0  0  0  0
  1  2  1  0  0  0  0
  1  3  2  0  0  0  0
  4  1  1  1  0  0  0
  4  6  1  0  0  0  0
  4  5  1  0  0  0  0
  6  7  1  0  0  0  0
  7  8  1  0  0  0  0
  8  9  1  0  0  0  0
  9 10  1  0  0  0  0
 10 12  1  0  0  0  0
 10 11  2  0  0  0  0
M  CHG  2   2  -1   5   1
M  END
>  <CHROM.1>
-160.30611242,96.52377657,-172.85619198,176.96131866,68.58674667,-120.86667305
1.46068247,3.02740492,34.55038448,1.30612596,1.42086776,0.24288714

>  <Name>
1kod cryst

>  <RI>
0

>  <Rbt.Current_Directory>
/home/itssahil/PROJECTS/Mol_Feturizer/New_Systems/rnas/1kod

>  <Rbt.Executable>
rbdock ($Id: //depot/dev/client3/rdock/2013.1/src/exe/rbdock.cxx#4 $)

>  <Rbt.Library>
libRbt.so (2013.1, Build901 2013/11/27)

>  <Rbt.Parameter_File>
/export/apps/rDock/src/rDock_2013.1_src/data/scripts/dock_solv.prm

>  <Rbt.Receptor>
prm/pocket_docking_3.prm

>  <SCORE>
-25.0863

>  <SCORE.INTER>
-21.5978

>  <SCORE.INTER.CONST>
1

>  <SCORE.INTER.POLAR>
-3.78276

>  <SCORE.INTER.ROT>
5

>  <SCORE.INTER.SOLV>
19.3942

>  <SCORE.INTER.VDW>
-15.1874

>  <SCORE.INTER.norm>
-1.79982

>  <SCORE.INTRA>
-3.48855

>  <SCORE.INTRA.DIHEDRAL>
-1.68158

>  <SCORE.INTRA.DIHEDRAL.0>
7.7847

>  <SCORE.INTRA.POLAR>
0

>  <SCORE.INTRA.POLAR.0>
0

>  <SCORE.INTRA.REPUL>
0

>  <SCORE.INTRA.REPUL.0>
0

>  <SCORE.INTRA.SOLV>
-1.11482

>  <SCORE.INTRA.SOLV.lig_0>
-57.5465

>  <SCORE.INTRA.VDW>
-2.09035

>  <SCORE.INTRA.VDW.0>
1.39369

>  <SCORE.INTRA.norm>
-0.290713

>  <SCORE.RESTR>
0

>  <SCORE.RESTR.CAVITY>
0

>  <SCORE.RESTR.norm>
0

>  <SCORE.SYSTEM>
0

>  <SCORE.SYSTEM.CONST>
0

>  <SCORE.SYSTEM.DIHEDRAL>
0

>  <SCORE.SYSTEM.SOLV>
0

>  <SCORE.SYSTEM.norm>
0

>  <SCORE.heavy>
12

>  <SCORE.norm>
-2.09053

>  <SYMMETRIC_BONDS>
4 1 2

>  <RMSD>
1.989

$$$$
1kod cryst
 OpenBabel11021811393D
libRbt.so/2013.1/901 2013/11/27
 12 11  0  0  0  0  0  0  0  0999 V2000
    1.6042    5.3799   35.5234 C   0  0  0  0  0  0  0  0  0  0  0  0
    2.7569    5.0491   35.7581 O   0  5  0  0  0  0  0  0  0  0  0  0
    0.7751    5.6229   36.3914 O   0  0  0  0  0  0  0  0  0  0  0  0
    1.1740    5.4995   34.0480 C   0  0  1  0  0  0  0  0  0  0  0  0
    2.3165    6.0259   33.2405 N   0  3  0  0  0  0  0  0  0  0  0  0
    0.7394    4.1236   33.4909 C   0  0  0  0  0  0  0  0  0  0  0  0
    1.9122    3.1518   33.4876 C   0  0  0  0  0  0  0  0  0  0  0  0
    1.4094    1.7339   33.2255 C   0  0  0  0  0  0  0  0  0  0  0  0
    2.2077    0.7741   34.0503 N   0  0  0  0  0  0  0  0  0  0  0  0
    1.7024    0.2483   35.1338 C   0  0  0  0  0  0  0  0  0  0  0  0
    2.3005    0.3213   36.2050 O   0  0  0  0  0  0  0  0  0  0  0  0
    0.5607   -0.3737   35.0799 N   0  0  0  0  0  0  0  0  0  0  0  0
  1  2  1  0  0  0  0
  1  3  2  0  0  0  0
  4  1  1  1  0  0  0
  4  6  1  0  0  0  0
  4  5  1  0  0  0  0
  6  7  1  0  0  0  0
  7  8  1  0  0  0  0
  8  9  1  0  0  0  0
  9 10  1  0  0  0  0
 10 12  1  0  0  0  0
 10 11  2  0  0  0  0
M  CHG  2   2  -1   5   1
M  END
>  <CHROM.1>
-35.73368095,-63.76368101,-63.34493568,167.88482439,-142.80157483,-76.28048973
1.64220301,3.13572044,34.64655472,-0.20483909,1.54587046,1.72216094

>  <Name>
1kod cryst

>  <RI>
0

>  <Rbt.Current_Directory>
/home/itssahil/PROJECTS/Mol_Feturizer/New_Systems/rnas/1kod

>  <Rbt.Executable>
rbdock ($Id: //depot/dev/client3/rdock/2013.1/src/exe/rbdock.cxx#4 $)

>  <Rbt.Library>
libRbt.so (2013.1, Build901 2013/11/27)

>  <Rbt.Parameter_File>
/export/apps/rDock/src/rDock_2013.1_src/data/scripts/dock_solv.prm

>  <Rbt.Receptor>
prm/pocket_docking_2.prm

>  <SCORE>
-25.3259

>  <SCORE.INTER>
-23.1975

>  <SCORE.INTER.CONST>
1

>  <SCORE.INTER.POLAR>
-3.9508

>  <SCORE.INTER.ROT>
5

>  <SCORE.INTER.SOLV>
17.7986

>  <SCORE.INTER.VDW>
-15.1619

>  <SCORE.INTER.norm>
-1.93313

>  <SCORE.INTRA>
-3.12962

>  <SCORE.INTRA.DIHEDRAL>
-1.08909

>  <SCORE.INTRA.DIHEDRAL.0>
7.7847

>  <SCORE.INTRA.POLAR>
0

>  <SCORE.INTRA.POLAR.0>
0

>  <SCORE.INTRA.REPUL>
0

>  <SCORE.INTRA.REPUL.0>
0

>  <SCORE.INTRA.SOLV>
-1.0745

>  <SCORE.INTRA.SOLV.lig_0>
-57.5465

>  <SCORE.INTRA.VDW>
-2.04782

>  <SCORE.INTRA.VDW.0>
1.39369

>  <SCORE.INTRA.norm>
-0.260802

>  <SCORE.RESTR>
1.00129

>  <SCORE.RESTR.CAVITY>
1.00129

>  <SCORE.RESTR.norm>
0.0834406

>  <SCORE.SYSTEM>
0

>  <SCORE.SYSTEM.CONST>
0

>  <SCORE.SYSTEM.DIHEDRAL>
0

>  <SCORE.SYSTEM.SOLV>
0

>  <SCORE.SYSTEM.norm>
0

>  <SCORE.heavy>
12

>  <SCORE.norm>
-2.11049

>  <SYMMETRIC_BONDS>
4 1 2

>  <RMSD>
1.994

$$$$
1kod cryst
 OpenBabel11021811393D
libRbt.so/2013.1/901 2013/11/27
 12 11  0  0  0  0  0  0  0  0999 V2000
    1.5141    4.9959   35.4370 C   0  0  0  0  0  0  0  0  0  0  0  0
    0.4992    4.7351   36.0656 O   0  5  0  0  0  0  0  0  0  0  0  0
    2.5604    5.3653   35.9553 O   0  0  0  0  0  0  0  0  0  0  0  0
    1.4711    4.8474   33.9032 C   0  0  1  0  0  0  0  0  0  0  0  0
    2.2087    5.9857   33.2749 N   0  3  0  0  0  0  0  0  0  0  0  0
    2.1142    3.5110   33.4641 C   0  0  0  0  0  0  0  0  0  0  0  0
    1.0431    2.4581   33.2112 C   0  0  0  0  0  0  0  0  0  0  0  0
    1.6369    1.0623   33.3873 C   0  0  0  0  0  0  0  0  0  0  0  0
    0.5567    0.1260   33.8291 N   0  0  0  0  0  0  0  0  0  0  0  0
    0.6514   -0.5092   34.9665 C   0  0  0  0  0  0  0  0  0  0  0  0
    0.5357   -1.7319   35.0143 O   0  0  0  0  0  0  0  0  0  0  0  0
    0.8553    0.1573   36.0652 N   0  0  0  0  0  0  0  0  0  0  0  0
  1  2  1  0  0  0  0
  1  3  2  0  0  0  0
  4  1  1  1  0  0  0
  4  6  1  0  0  0  0
  4  5  1  0  0  0  0
  6  7  1  0  0  0  0
  7  8  1  0  0  0  0
  8  9  1  0  0  0  0
  9 10  1  0  0  0  0
 10 12  1  0  0  0  0
 10 11  2  0  0  0  0
M  CHG  2   2  -1   5   1
M  END
>  <CHROM.1>
139.45003102,98.32784630,58.19314013,-155.19424365,151.39017294,59.93751020
1.30975077,2.60873246,34.56517132,0.65932309,1.32432649,0.86809757

>  <Name>
1kod cryst

>  <RI>
0

>  <Rbt.Current_Directory>
/home/itssahil/PROJECTS/Mol_Feturizer/New_Systems/rnas/1kod

>  <Rbt.Executable>
rbdock ($Id: //depot/dev/client3/rdock/2013.1/src/exe/rbdock.cxx#4 $)

>  <Rbt.Library>
libRbt.so (2013.1, Build901 2013/11/27)

>  <Rbt.Parameter_File>
/export/apps/rDock/src/rDock_2013.1_src/data/scripts/dock_solv.prm

>  <Rbt.Receptor>
prm/pocket_docking_7.prm

>  <SCORE>
-20.9868

>  <SCORE.INTER>
-18.201

>  <SCORE.INTER.CONST>
1

>  <SCORE.INTER.POLAR>
-3.8485

>  <SCORE.INTER.ROT>
5

>  <SCORE.INTER.SOLV>
21.0062

>  <SCORE.INTER.VDW>
-13.2411

>  <SCORE.INTER.norm>
-1.51675

>  <SCORE.INTRA>
-2.7858

>  <SCORE.INTRA.DIHEDRAL>
2.90877

>  <SCORE.INTRA.DIHEDRAL.0>
7.7847

>  <SCORE.INTRA.POLAR>
0

>  <SCORE.INTRA.POLAR.0>
0

>  <SCORE.INTRA.REPUL>
0

>  <SCORE.INTRA.REPUL.0>
0

>  <SCORE.INTRA.SOLV>
-2.59465

>  <SCORE.INTRA.SOLV.lig_0>
-57.5465

>  <SCORE.INTRA.VDW>
-2.94286

>  <SCORE.INTRA.VDW.0>
1.39369

>  <SCORE.INTRA.norm>
-0.23215

>  <SCORE.RESTR>
0

>  <SCORE.RESTR.CAVITY>
0

>  <SCORE.RESTR.norm>
0

>  <SCORE.SYSTEM>
0

>  <SCORE.SYSTEM.CONST>
0

>  <SCORE.SYSTEM.DIHEDRAL>
0

>  <SCORE.SYSTEM.SOLV>
0

>  <SCORE.SYSTEM.norm>
0

>  <SCORE.heavy>
12

>  <SCORE.norm>
-1.7489

>  <SYMMETRIC_BONDS>
4 1 2

>  <RMSD>
1.999

$$$$
1kod cryst
 OpenBabel11021811393D
libRbt.so/2013.1/901 2013/11/27
 12 11  0  0  0  0  0  0  0  0999 V2000
    1.9881    6.7954   35.5608 C   0  0  0  0  0  0  0  0  0  0  0  0
    1.0513    6.4251   36.2527 O   0  5  0  0  0  0  0  0  0  0  0  0
    2.8950    7.5105   35.9681 O   0  0  0  0  0  0  0  0  0  0  0  0
    2.0276    6.3308   34.0914 C   0  0  1  0  0  0  0  0  0  0  0  0
    2.4440    7.4734   33.2222 N   0  3  0  0  0  0  0  0  0  0  0  0
    3.0213    5.1590   33.9140 C   0  0  0  0  0  0  0  0  0  0  0  0
    2.4707    3.8883   34.5481 C   0  0  0  0  0  0  0  0  0  0  0  0
    1.3845    3.2925   33.6554 C   0  0  0  0  0  0  0  0  0  0  0  0
    1.8743    1.9958   33.0922 N   0  0  0  0  0  0  0  0  0  0  0  0
    1.0933    0.9495   33.0554 C   0  0  0  0  0  0  0  0  0  0  0  0
    1.4538   -0.1206   33.5406 O   0  0  0  0  0  0  0  0  0  0  0  0
   -0.0739    1.0327   32.4861 N   0  0  0  0  0  0  0  0  0  0  0  0
  1  2  1  0  0  0  0
  1  3  2  0  0  0  0
  4  1  1  1  0  0  0
  4  6  1  0  0  0  0
  4  5  1  0  0  0  0
  6  7  1  0  0  0  0
  7  8  1  0  0  0  0
  8  9  1  0  0  0  0
  9 10  1  0  0  0  0
 10 12  1  0  0  0  0
 10 11  2  0  0  0  0
M  CHG  2   2  -1   5   1
M  END
>  <CHROM.1>
137.97541414,71.39002090,-108.16471654,75.94594874,112.30470141,-43.67254140
1.79900298,4.24759042,34.10212592,0.93723494,1.24319670,0.91908300

>  <Name>
1kod cryst

>  <RI>
0

>  <Rbt.Current_Directory>
/home/itssahil/PROJECTS/Mol_Feturizer/New_Systems/rnas/1kod

>  <Rbt.Executable>
rbdock ($Id: //depot/dev/client3/rdock/2013.1/src/exe/rbdock.cxx#4 $)

>  <Rbt.Library>
libRbt.so (2013.1, Build901 2013/11/27)

>  <Rbt.Parameter_File>
/export/apps/rDock/src/rDock_2013.1_src/data/scripts/dock_solv.prm

>  <Rbt.Receptor>
prm/pocket_docking_5.prm

>  <SCORE>
-25.5272

>  <SCORE.INTER>
-25.0142

>  <SCORE.INTER.CONST>
1

>  <SCORE.INTER.POLAR>
-4.42028

>  <SCORE.INTER.ROT>
5

>  <SCORE.INTER.SOLV>
18.8568

>  <SCORE.INTER.VDW>
-15.1608

>  <SCORE.INTER.norm>
-2.08451

>  <SCORE.INTRA>
-0.513069

>  <SCORE.INTRA.DIHEDRAL>
4.46346

>  <SCORE.INTRA.DIHEDRAL.0>
7.7847

>  <SCORE.INTRA.POLAR>
0

>  <SCORE.INTRA.POLAR.0>
0

>  <SCORE.INTRA.REPUL>
0

>  <SCORE.INTRA.REPUL.0>
0

>  <SCORE.INTRA.SOLV>
-2.30204

>  <SCORE.INTRA.SOLV.lig_0>
-57.5465

>  <SCORE.INTRA.VDW>
-1.59378

>  <SCORE.INTRA.VDW.0>
1.39369

>  <SCORE.INTRA.norm>
-0.0427558

>  <SCORE.RESTR>
0

>  <SCORE.RESTR.CAVITY>
0

>  <SCORE.RESTR.norm>
0

>  <SCORE.SYSTEM>
0

>  <SCORE.SYSTEM.CONST>
0

>  <SCORE.SYSTEM.DIHEDRAL>
0

>  <SCORE.SYSTEM.SOLV>
0

>  <SCORE.SYSTEM.norm>
0

>  <SCORE.heavy>
12

>  <SCORE.norm>
-2.12727

>  <SYMMETRIC_BONDS>
4 1 2

>  <RMSD>
2.004

$$$$
1kod cryst
 OpenBabel11021811393D
libRbt.so/2013.1/901 2013/11/27
 12 11  0  0  0  0  0  0  0  0999 V2000
    1.3709    5.0932   35.6188 C   0  0  0  0  0  0  0  0  0  0  0  0
    2.2444    4.9410   36.4597 O   0  5  0  0  0  0  0  0  0  0  0  0
    0.1788    5.1855   35.8838 O   0  0  0  0  0  0  0  0  0  0  0  0
    1.7993    5.1758   34.1403 C   0  0  1  0  0  0  0  0  0  0  0  0
    2.9776    6.0873   34.0167 N   0  3  0  0  0  0  0  0  0  0  0  0
    2.1713    3.7757   33.5988 C   0  0  0  0  0  0  0  0  0  0  0  0
    0.9421    2.8780   33.5435 C   0  0  0  0  0  0  0  0  0  0  0  0
    1.3325    1.4962   33.0240 C   0  0  0  0  0  0  0  0  0  0  0  0
    2.1139    0.7816   34.0811 N   0  0  0  0  0  0  0  0  0  0  0  0
    1.5376    0.3975   35.1885 C   0  0  0  0  0  0  0  0  0  0  0  0
    2.0022    0.7153   36.2811 O   0  0  0  0  0  0  0  0  0  0  0  0
    0.4685   -0.3426   35.1390 N   0  0  0  0  0  0  0  0  0  0  0  0
  1  2  1  0  0  0  0
  1  3  2  0  0  0  0
  4  1  1  1  0  0  0
  4  6  1  0  0  0  0
  4  5  1  0  0  0  0
  6  7  1  0  0  0  0
  7  8  1  0  0  0  0
  8  9  1  0  0  0  0
  9 10  1  0  0  0  0
 10 12  1  0  0  0  0
 10 11  2  0  0  0  0
M  CHG  2   2  -1   5   1
M  END
>  <CHROM.1>
-45.39645421,66.73487199,68.46940079,-179.27266327,71.91718271,-111.69323590
1.61218546,3.03035798,34.77234431,1.08676599,1.32031749,0.49064738

>  <Name>
1kod cryst

>  <RI>
0

>  <Rbt.Current_Directory>
/home/itssahil/PROJECTS/Mol_Feturizer/New_Systems/rnas/1kod

>  <Rbt.Executable>
rbdock ($Id: //depot/dev/client3/rdock/2013.1/src/exe/rbdock.cxx#4 $)

>  <Rbt.Library>
libRbt.so (2013.1, Build901 2013/11/27)

>  <Rbt.Parameter_File>
/export/apps/rDock/src/rDock_2013.1_src/data/scripts/dock_solv.prm

>  <Rbt.Receptor>
prm/pocket_docking_3.prm

>  <SCORE>
-25.2026

>  <SCORE.INTER>
-19.2586

>  <SCORE.INTER.CONST>
1

>  <SCORE.INTER.POLAR>
-3.18009

>  <SCORE.INTER.ROT>
5

>  <SCORE.INTER.SOLV>
13.7575

>  <SCORE.INTER.VDW>
-13.758

>  <SCORE.INTER.norm>
-1.60489

>  <SCORE.INTRA>
-5.9439

>  <SCORE.INTRA.DIHEDRAL>
-4.68692

>  <SCORE.INTRA.DIHEDRAL.0>
7.7847

>  <SCORE.INTRA.POLAR>
0

>  <SCORE.INTRA.POLAR.0>
0

>  <SCORE.INTRA.REPUL>
0

>  <SCORE.INTRA.REPUL.0>
0

>  <SCORE.INTRA.SOLV>
-2.07379

>  <SCORE.INTRA.SOLV.lig_0>
-57.5465

>  <SCORE.INTRA.VDW>
-2.56355

>  <SCORE.INTRA.VDW.0>
1.39369

>  <SCORE.INTRA.norm>
-0.495325

>  <SCORE.RESTR>
0

>  <SCORE.RESTR.CAVITY>
0

>  <SCORE.RESTR.norm>
0

>  <SCORE.SYSTEM>
0

>  <SCORE.SYSTEM.CONST>
0

>  <SCORE.SYSTEM.DIHEDRAL>
0

>  <SCORE.SYSTEM.SOLV>
0

>  <SCORE.SYSTEM.norm>
0

>  <SCORE.heavy>
12

>  <SCORE.norm>
-2.10021

>  <SYMMETRIC_BONDS>
4 1 2

>  <RMSD>
2.008

$$$$
1kod cryst
 OpenBabel11021811393D
libRbt.so/2013.1/901 2013/11/27
 12 11  0  0  0  0  0  0  0  0999 V2000
    0.9387    5.9813   36.5818 C   0  0  0  0  0  0  0  0  0  0  0  0
    1.9768    6.3736   37.0935 O   0  5  0  0  0  0  0  0  0  0  0  0
   -0.0957    6.6361   36.5516 O   0  0  0  0  0  0  0  0  0  0  0  0
    0.9366    4.5816   35.9360 C   0  0  1  0  0  0  0  0  0  0  0  0
   -0.0063    4.5731   34.7761 N   0  3  0  0  0  0  0  0  0  0  0  0
    2.3548    4.2002   35.4506 C   0  0  0  0  0  0  0  0  0  0  0  0
    2.3550    2.8055   34.8384 C   0  0  0  0  0  0  0  0  0  0  0  0
    1.9382    2.8835   33.3715 C   0  0  0  0  0  0  0  0  0  0  0  0
    1.9819    1.5101   32.7793 N   0  0  0  0  0  0  0  0  0  0  0  0
    0.9549    0.7095   32.8804 C   0  0  0  0  0  0  0  0  0  0  0  0
    1.0849   -0.4237   33.3382 O   0  0  0  0  0  0  0  0  0  0  0  0
   -0.2175    1.1065   32.4791 N   0  0  0  0  0  0  0  0  0  0  0  0
  1  2  1  0  0  0  0
  1  3  2  0  0  0  0
  4  1  1  6  0  0  0
  4  6  1  0  0  0  0
  4  5  1  0  0  0  0
  6  7  1  0  0  0  0
  7  8  1  0  0  0  0
  8  9  1  0  0  0  0
  9 10  1  0  0  0  0
 10 12  1  0  0  0  0
 10 11  2  0  0  0  0
M  CHG  2   2  -1   5   1
M  END
>  <CHROM.1>
-148.05220873,178.86025820,72.18015991,84.73432959,178.42903269,-94.00266915
1.14783721,3.41558115,34.65483517,1.58055600,-0.23559160,0.60001953

>  <Name>
1kod cryst

>  <RI>
0

>  <Rbt.Current_Directory>
/home/itssahil/PROJECTS/Mol_Feturizer/New_Systems/rnas/1kod

>  <Rbt.Executable>
rbdock ($Id: //depot/dev/client3/rdock/2013.1/src/exe/rbdock.cxx#4 $)

>  <Rbt.Library>
libRbt.so (2013.1, Build901 2013/11/27)

>  <Rbt.Parameter_File>
/export/apps/rDock/src/rDock_2013.1_src/data/scripts/dock_solv.prm

>  <Rbt.Receptor>
prm/pocket_docking_2.prm

>  <SCORE>
-16.2681

>  <SCORE.INTER>
-14.0265

>  <SCORE.INTER.CONST>
1

>  <SCORE.INTER.POLAR>
-2.40443

>  <SCORE.INTER.ROT>
5

>  <SCORE.INTER.SOLV>
17.843

>  <SCORE.INTER.VDW>
-14.2173

>  <SCORE.INTER.norm>
-1.16888

>  <SCORE.INTRA>
-2.27318

>  <SCORE.INTRA.DIHEDRAL>
-2.94477

>  <SCORE.INTRA.DIHEDRAL.0>
7.7847

>  <SCORE.INTRA.POLAR>
0

>  <SCORE.INTRA.POLAR.0>
0

>  <SCORE.INTRA.REPUL>
0

>  <SCORE.INTRA.REPUL.0>
0

>  <SCORE.INTRA.SOLV>
0.464785

>  <SCORE.INTRA.SOLV.lig_0>
-57.5465

>  <SCORE.INTRA.VDW>
-1.03319

>  <SCORE.INTRA.VDW.0>
1.39369

>  <SCORE.INTRA.norm>
-0.189432

>  <SCORE.RESTR>
0.0316329

>  <SCORE.RESTR.CAVITY>
0.0316329

>  <SCORE.RESTR.norm>
0.00263607

>  <SCORE.SYSTEM>
0

>  <SCORE.SYSTEM.CONST>
0

>  <SCORE.SYSTEM.DIHEDRAL>
0

>  <SCORE.SYSTEM.SOLV>
0

>  <SCORE.SYSTEM.norm>
0

>  <SCORE.heavy>
12

>  <SCORE.norm>
-1.35567

>  <SYMMETRIC_BONDS>
4 1 2

>  <RMSD>
2.016

$$$$
1kod cryst
 OpenBabel11021811393D
libRbt.so/2013.1/901 2013/11/27
 12 11  0  0  0  0  0  0  0  0999 V2000
    3.2017    4.9330   35.8822 C   0  0  0  0  0  0  0  0  0  0  0  0
    3.5468    6.0458   35.5136 O   0  5  0  0  0  0  0  0  0  0  0  0
    3.8036    4.2767   36.7229 O   0  0  0  0  0  0  0  0  0  0  0  0
    1.9331    4.3253   35.2516 C   0  0  1  0  0  0  0  0  0  0  0  0
    0.9853    5.4233   34.8903 N   0  3  0  0  0  0  0  0  0  0  0  0
    2.2870    3.5119   33.9845 C   0  0  0  0  0  0  0  0  0  0  0  0
    1.0494    2.8200   33.4284 C   0  0  0  0  0  0  0  0  0  0  0  0
    1.4040    1.4032   32.9827 C   0  0  0  0  0  0  0  0  0  0  0  0
    2.1490    0.7184   34.0848 N   0  0  0  0  0  0  0  0  0  0  0  0
    1.5312    0.3462   35.1738 C   0  0  0  0  0  0  0  0  0  0  0  0
    1.9449    0.6898   36.2789 O   0  0  0  0  0  0  0  0  0  0  0  0
    0.4748   -0.4091   35.0929 N   0  0  0  0  0  0  0  0  0  0  0  0
  1  2  1  0  0  0  0
  1  3  2  0  0  0  0
  4  1  1  6  0  0  0
  4  6  1  0  0  0  0
  4  5  1  0  0  0  0
  6  7  1  0  0  0  0
  7  8  1  0  0  0  0
  8  9  1  0  0  0  0
  9 10  1  0  0  0  0
 10 12  1  0  0  0  0
 10 11  2  0  0  0  0
M  CHG  2   2  -1   5   1
M  END
>  <CHROM.1>
-30.61155227,175.40143648,66.04821823,-138.62807574,49.63940757,-108.23094388
2.01731284,2.85966530,34.96057405,-1.01008026,0.97131091,2.84494643

>  <Name>
1kod cryst

>  <RI>
0

>  <Rbt.Current_Directory>
/home/itssahil/PROJECTS/Mol_Feturizer/New_Systems/rnas/1kod

>  <Rbt.Executable>
rbdock ($Id: //depot/dev/client3/rdock/2013.1/src/exe/rbdock.cxx#4 $)

>  <Rbt.Library>
libRbt.so (2013.1, Build901 2013/11/27)

>  <Rbt.Parameter_File>
/export/apps/rDock/src/rDock_2013.1_src/data/scripts/dock_solv.prm

>  <Rbt.Receptor>
prm/pocket_docking_3.prm

>  <SCORE>
-14.8189

>  <SCORE.INTER>
-11.931

>  <SCORE.INTER.CONST>
1

>  <SCORE.INTER.POLAR>
-1.82422

>  <SCORE.INTER.ROT>
5

>  <SCORE.INTER.SOLV>
11.4906

>  <SCORE.INTER.VDW>
-12.6368

>  <SCORE.INTER.norm>
-0.994253

>  <SCORE.INTRA>
-2.88918

>  <SCORE.INTRA.DIHEDRAL>
-0.201983

>  <SCORE.INTRA.DIHEDRAL.0>
7.7847

>  <SCORE.INTRA.POLAR>
0

>  <SCORE.INTRA.POLAR.0>
0

>  <SCORE.INTRA.REPUL>
0

>  <SCORE.INTRA.REPUL.0>
0

>  <SCORE.INTRA.SOLV>
-1.15982

>  <SCORE.INTRA.SOLV.lig_0>
-57.5465

>  <SCORE.INTRA.VDW>
-2.20828

>  <SCORE.INTRA.VDW.0>
1.39369

>  <SCORE.INTRA.norm>
-0.240765

>  <SCORE.RESTR>
0.00134635

>  <SCORE.RESTR.CAVITY>
0.00134635

>  <SCORE.RESTR.norm>
0.000112196

>  <SCORE.SYSTEM>
0

>  <SCORE.SYSTEM.CONST>
0

>  <SCORE.SYSTEM.DIHEDRAL>
0

>  <SCORE.SYSTEM.SOLV>
0

>  <SCORE.SYSTEM.norm>
0

>  <SCORE.heavy>
12

>  <SCORE.norm>
-1.2349

>  <SYMMETRIC_BONDS>
4 1 2

>  <RMSD>
2.020

$$$$
1kod cryst
 OpenBabel11021811393D
libRbt.so/2013.1/901 2013/11/27
 12 11  0  0  0  0  0  0  0  0999 V2000
    3.1975    6.2575   35.2716 C   0  0  0  0  0  0  0  0  0  0  0  0
    2.8568    6.0730   36.4306 O   0  5  0  0  0  0  0  0  0  0  0  0
    4.3614    6.2328   34.8916 O   0  0  0  0  0  0  0  0  0  0  0  0
    2.0947    6.5344   34.2308 C   0  0  1  0  0  0  0  0  0  0  0  0
    2.5302    7.6470   33.3324 N   0  3  0  0  0  0  0  0  0  0  0  0
    1.8093    5.2708   33.3857 C   0  0  0  0  0  0  0  0  0  0  0  0
    0.7639    4.3961   34.0652 C   0  0  0  0  0  0  0  0  0  0  0  0
    0.3292    3.2787   33.1195 C   0  0  0  0  0  0  0  0  0  0  0  0
    1.4285    2.2684   33.0219 N   0  0  0  0  0  0  0  0  0  0  0  0
    1.1679    0.9916   33.1104 C   0  0  0  0  0  0  0  0  0  0  0  0
    1.7636    0.2838   33.9196 O   0  0  0  0  0  0  0  0  0  0  0  0
    0.2796    0.4562   32.3246 N   0  0  0  0  0  0  0  0  0  0  0  0
  1  2  1  0  0  0  0
  1  3  2  0  0  0  0
  4  1  1  1  0  0  0
  4  6  1  0  0  0  0
  4  5  1  0  0  0  0
  6  7  1  0  0  0  0
  7  8  1  0  0  0  0
  8  9  1  0  0  0  0
  9 10  1  0  0  0  0
 10 12  1  0  0  0  0
 10 11  2  0  0  0  0
M  CHG  2   2  -1   5   1
M  END
>  <CHROM.1>
136.87619085,87.50588495,66.75859694,170.84435457,73.27628594,-46.09693501
1.90483294,4.15210183,33.91519208,-1.04617593,0.85151157,3.01892739

>  <Name>
1kod cryst

>  <RI>
0

>  <Rbt.Current_Directory>
/home/itssahil/PROJECTS/Mol_Feturizer/New_Systems/rnas/1kod

>  <Rbt.Executable>
rbdock ($Id: //depot/dev/client3/rdock/2013.1/src/exe/rbdock.cxx#4 $)

>  <Rbt.Library>
libRbt.so (2013.1, Build901 2013/11/27)

>  <Rbt.Parameter_File>
/export/apps/rDock/src/rDock_2013.1_src/data/scripts/dock_solv.prm

>  <Rbt.Receptor>
prm/pocket_docking_6.prm

>  <SCORE>
-29.0124

>  <SCORE.INTER>
-23.9838

>  <SCORE.INTER.CONST>
1

>  <SCORE.INTER.POLAR>
-3.62715

>  <SCORE.INTER.ROT>
5

>  <SCORE.INTER.SOLV>
17.6853

>  <SCORE.INTER.VDW>
-16.7271

>  <SCORE.INTER.norm>
-1.99865

>  <SCORE.INTRA>
-5.02866

>  <SCORE.INTRA.DIHEDRAL>
-2.2183

>  <SCORE.INTRA.DIHEDRAL.0>
7.7847

>  <SCORE.INTRA.POLAR>
0

>  <SCORE.INTRA.POLAR.0>
0

>  <SCORE.INTRA.REPUL>
0

>  <SCORE.INTRA.REPUL.0>
0

>  <SCORE.INTRA.SOLV>
-2.68569

>  <SCORE.INTRA.SOLV.lig_0>
-57.5465

>  <SCORE.INTRA.VDW>
-2.57666

>  <SCORE.INTRA.VDW.0>
1.39369

>  <SCORE.INTRA.norm>
-0.419055

>  <SCORE.RESTR>
0

>  <SCORE.RESTR.CAVITY>
0

>  <SCORE.RESTR.norm>
0

>  <SCORE.SYSTEM>
0

>  <SCORE.SYSTEM.CONST>
0

>  <SCORE.SYSTEM.DIHEDRAL>
0

>  <SCORE.SYSTEM.SOLV>
0

>  <SCORE.SYSTEM.norm>
0

>  <SCORE.heavy>
12

>  <SCORE.norm>
-2.4177

>  <SYMMETRIC_BONDS>
4 1 2

>  <RMSD>
2.028

$$$$
1kod cryst
 OpenBabel11021811393D
libRbt.so/2013.1/901 2013/11/27
 12 11  0  0  0  0  0  0  0  0999 V2000
    1.6109    6.4510   35.5529 C   0  0  0  0  0  0  0  0  0  0  0  0
    2.1202    7.4409   36.0570 O   0  5  0  0  0  0  0  0  0  0  0  0
    0.7999    5.7351   36.1268 O   0  0  0  0  0  0  0  0  0  0  0  0
    2.0139    6.0878   34.1100 C   0  0  1  0  0  0  0  0  0  0  0  0
    2.4789    7.3191   33.4013 N   0  3  0  0  0  0  0  0  0  0  0  0
    3.1446    5.0325   34.1063 C   0  0  0  0  0  0  0  0  0  0  0  0
    2.6115    3.6738   34.5416 C   0  0  0  0  0  0  0  0  0  0  0  0
    1.5348    3.2030   33.5664 C   0  0  0  0  0  0  0  0  0  0  0  0
    1.9359    1.8769   33.0016 N   0  0  0  0  0  0  0  0  0  0  0  0
    1.1024    0.8713   33.0093 C   0  0  0  0  0  0  0  0  0  0  0  0
    1.4278   -0.2102   33.4941 O   0  0  0  0  0  0  0  0  0  0  0  0
   -0.0809    1.0072   32.4853 N   0  0  0  0  0  0  0  0  0  0  0  0
  1  2  1  0  0  0  0
  1  3  2  0  0  0  0
  4  1  1  1  0  0  0
  4  6  1  0  0  0  0
  4  5  1  0  0  0  0
  6  7  1  0  0  0  0
  7  8  1  0  0  0  0
  8  9  1  0  0  0  0
  9 10  1  0  0  0  0
 10 12  1  0  0  0  0
 10 11  2  0  0  0  0
M  CHG  2   2  -1   5   1
M  END
>  <CHROM.1>
-24.92715872,71.78977874,150.18342162,61.28627863,122.54666223,-50.49233870
1.71785521,4.06128106,34.11013519,1.30133240,0.96117525,0.54782345

>  <Name>
1kod cryst

>  <RI>
0

>  <Rbt.Current_Directory>
/home/itssahil/PROJECTS/Mol_Feturizer/New_Systems/rnas/1kod

>  <Rbt.Executable>
rbdock ($Id: //depot/dev/client3/rdock/2013.1/src/exe/rbdock.cxx#4 $)

>  <Rbt.Library>
libRbt.so (2013.1, Build901 2013/11/27)

>  <Rbt.Parameter_File>
/export/apps/rDock/src/rDock_2013.1_src/data/scripts/dock_solv.prm

>  <Rbt.Receptor>
prm/pocket_docking_4.prm

>  <SCORE>
-25.8346

>  <SCORE.INTER>
-24.5159

>  <SCORE.INTER.CONST>
1

>  <SCORE.INTER.POLAR>
-4.23174

>  <SCORE.INTER.ROT>
5

>  <SCORE.INTER.SOLV>
18.6039

>  <SCORE.INTER.VDW>
-15.3727

>  <SCORE.INTER.norm>
-2.04299

>  <SCORE.INTRA>
-1.31878

>  <SCORE.INTRA.DIHEDRAL>
2.21533

>  <SCORE.INTRA.DIHEDRAL.0>
7.7847

>  <SCORE.INTRA.POLAR>
0

>  <SCORE.INTRA.POLAR.0>
0

>  <SCORE.INTRA.REPUL>
0

>  <SCORE.INTRA.REPUL.0>
0

>  <SCORE.INTRA.SOLV>
-1.96953

>  <SCORE.INTRA.SOLV.lig_0>
-57.5465

>  <SCORE.INTRA.VDW>
-1.44168

>  <SCORE.INTRA.VDW.0>
1.39369

>  <SCORE.INTRA.norm>
-0.109899

>  <SCORE.RESTR>
0

>  <SCORE.RESTR.CAVITY>
0

>  <SCORE.RESTR.norm>
0

>  <SCORE.SYSTEM>
0

>  <SCORE.SYSTEM.CONST>
0

>  <SCORE.SYSTEM.DIHEDRAL>
0

>  <SCORE.SYSTEM.SOLV>
0

>  <SCORE.SYSTEM.norm>
0

>  <SCORE.heavy>
12

>  <SCORE.norm>
-2.15289

>  <SYMMETRIC_BONDS>
4 1 2

>  <RMSD>
2.037

$$$$
1kod cryst
 OpenBabel11021811393D
libRbt.so/2013.1/901 2013/11/27
 12 11  0  0  0  0  0  0  0  0999 V2000
    1.2853    6.4470   35.4682 C   0  0  0  0  0  0  0  0  0  0  0  0
    1.8278    7.5403   35.5297 O   0  5  0  0  0  0  0  0  0  0  0  0
    0.4435    6.0583   36.2681 O   0  0  0  0  0  0  0  0  0  0  0  0
    1.6851    5.5072   34.3136 C   0  0  1  0  0  0  0  0  0  0  0  0
    2.2088    6.3194   33.1731 N   0  3  0  0  0  0  0  0  0  0  0  0
    2.7696    4.5050   34.7736 C   0  0  0  0  0  0  0  0  0  0  0  0
    3.1302    3.5491   33.6439 C   0  0  0  0  0  0  0  0  0  0  0  0
    1.9125    2.7073   33.2690 C   0  0  0  0  0  0  0  0  0  0  0  0
    2.1778    1.2798   33.6302 N   0  0  0  0  0  0  0  0  0  0  0  0
    1.2022    0.4123   33.6723 C   0  0  0  0  0  0  0  0  0  0  0  0
    1.0145   -0.2732   34.6750 O   0  0  0  0  0  0  0  0  0  0  0  0
    0.4278    0.2581   32.6381 N   0  0  0  0  0  0  0  0  0  0  0  0
  1  2  1  0  0  0  0
  1  3  2  0  0  0  0
  4  1  1  1  0  0  0
  4  6  1  0  0  0  0
  4  5  1  0  0  0  0
  6  7  1  0  0  0  0
  7  8  1  0  0  0  0
  8  9  1  0  0  0  0
  9 10  1  0  0  0  0
 10 12  1  0  0  0  0
 10 11  2  0  0  0  0
M  CHG  2   2  -1   5   1
M  END
>  <CHROM.1>
-24.61354862,178.18095088,-160.36911676,-63.39186726,-113.26415671,-14.46530291
1.66584495,3.70652269,34.24042653,1.46182066,0.90295135,0.32415076

>  <Name>
1kod cryst

>  <RI>
0

>  <Rbt.Current_Directory>
/home/itssahil/PROJECTS/Mol_Feturizer/New_Systems/rnas/1kod

>  <Rbt.Executable>
rbdock ($Id: //depot/dev/client3/rdock/2013.1/src/exe/rbdock.cxx#4 $)

>  <Rbt.Library>
libRbt.so (2013.1, Build901 2013/11/27)

>  <Rbt.Parameter_File>
/export/apps/rDock/src/rDock_2013.1_src/data/scripts/dock_solv.prm

>  <Rbt.Receptor>
prm/pocket_docking_2.prm

>  <SCORE>
-20.7958

>  <SCORE.INTER>
-19.0058

>  <SCORE.INTER.CONST>
1

>  <SCORE.INTER.POLAR>
-3.7725

>  <SCORE.INTER.ROT>
5

>  <SCORE.INTER.SOLV>
20.7662

>  <SCORE.INTER.VDW>
-13.9509

>  <SCORE.INTER.norm>
-1.58382

>  <SCORE.INTRA>
-2.0094

>  <SCORE.INTRA.DIHEDRAL>
0.738541

>  <SCORE.INTRA.DIHEDRAL.0>
7.7847

>  <SCORE.INTRA.POLAR>
0

>  <SCORE.INTRA.POLAR.0>
0

>  <SCORE.INTRA.REPUL>
0

>  <SCORE.INTRA.REPUL.0>
0

>  <SCORE.INTRA.SOLV>
-1.66696

>  <SCORE.INTRA.SOLV.lig_0>
-57.5465

>  <SCORE.INTRA.VDW>
-1.54519

>  <SCORE.INTRA.VDW.0>
1.39369

>  <SCORE.INTRA.norm>
-0.16745

>  <SCORE.RESTR>
0.219438

>  <SCORE.RESTR.CAVITY>
0.219438

>  <SCORE.RESTR.norm>
0.0182865

>  <SCORE.SYSTEM>
0

>  <SCORE.SYSTEM.CONST>
0

>  <SCORE.SYSTEM.DIHEDRAL>
0

>  <SCORE.SYSTEM.SOLV>
0

>  <SCORE.SYSTEM.norm>
0

>  <SCORE.heavy>
12

>  <SCORE.norm>
-1.73298

>  <SYMMETRIC_BONDS>
4 1 2

>  <RMSD>
2.038

$$$$
1kod cryst
 OpenBabel11021811393D
libRbt.so/2013.1/901 2013/11/27
 12 11  0  0  0  0  0  0  0  0999 V2000
    2.0282    5.6222   35.7348 C   0  0  0  0  0  0  0  0  0  0  0  0
    1.2586    6.1628   36.5150 O   0  5  0  0  0  0  0  0  0  0  0  0
    3.0782    5.0899   36.0724 O   0  0  0  0  0  0  0  0  0  0  0  0
    1.6502    5.6097   34.2404 C   0  0  1  0  0  0  0  0  0  0  0  0
    2.3757    6.7114   33.5372 N   0  3  0  0  0  0  0  0  0  0  0  0
    2.0190    4.2542   33.5934 C   0  0  0  0  0  0  0  0  0  0  0  0
    1.0564    3.1642   34.0465 C   0  0  0  0  0  0  0  0  0  0  0  0
    1.2761    1.9012   33.2167 C   0  0  0  0  0  0  0  0  0  0  0  0
    2.3999    1.1152   33.8149 N   0  0  0  0  0  0  0  0  0  0  0  0
    2.3065    0.6390   35.0276 C   0  0  0  0  0  0  0  0  0  0  0  0
    3.1757    0.8757   35.8637 O   0  0  0  0  0  0  0  0  0  0  0  0
    1.2916   -0.1071   35.3538 N   0  0  0  0  0  0  0  0  0  0  0  0
  1  2  1  0  0  0  0
  1  3  2  0  0  0  0
  4  1  1  1  0  0  0
  4  6  1  0  0  0  0
  4  5  1  0  0  0  0
  6  7  1  0  0  0  0
  7  8  1  0  0  0  0
  8  9  1  0  0  0  0
  9 10  1  0  0  0  0
 10 12  1  0  0  0  0
 10 11  2  0  0  0  0
M  CHG  2   2  -1   5   1
M  END
>  <CHROM.1>
98.62126340,73.25059185,-10.82542723,169.98341705,84.18191184,-117.75385401
2.01222540,3.43822507,34.76348226,-1.57800611,1.36563652,-3.10960320

>  <Name>
1kod cryst

>  <RI>
0

>  <Rbt.Current_Directory>
/home/itssahil/PROJECTS/Mol_Feturizer/New_Systems/rnas/1kod

>  <Rbt.Executable>
rbdock ($Id: //depot/dev/client3/rdock/2013.1/src/exe/rbdock.cxx#4 $)

>  <Rbt.Library>
libRbt.so (2013.1, Build901 2013/11/27)

>  <Rbt.Parameter_File>
/export/apps/rDock/src/rDock_2013.1_src/data/scripts/dock_solv.prm

>  <Rbt.Receptor>
prm/pocket_docking_2.prm

>  <SCORE>
-16.4966

>  <SCORE.INTER>
-16.0612

>  <SCORE.INTER.CONST>
1

>  <SCORE.INTER.POLAR>
-2.79025

>  <SCORE.INTER.ROT>
5

>  <SCORE.INTER.SOLV>
15.7228

>  <SCORE.INTER.VDW>
-13.5809

>  <SCORE.INTER.norm>
-1.33843

>  <SCORE.INTRA>
-2.22321

>  <SCORE.INTRA.DIHEDRAL>
0.706436

>  <SCORE.INTRA.DIHEDRAL.0>
7.7847

>  <SCORE.INTRA.POLAR>
0

>  <SCORE.INTRA.POLAR.0>
0

>  <SCORE.INTRA.REPUL>
0

>  <SCORE.INTRA.REPUL.0>
0

>  <SCORE.INTRA.SOLV>
-2.34347

>  <SCORE.INTRA.SOLV.lig_0>
-57.5465

>  <SCORE.INTRA.VDW>
-1.40469

>  <SCORE.INTRA.VDW.0>
1.39369

>  <SCORE.INTRA.norm>
-0.185267

>  <SCORE.RESTR>
1.78776

>  <SCORE.RESTR.CAVITY>
1.78776

>  <SCORE.RESTR.norm>
0.14898

>  <SCORE.SYSTEM>
0

>  <SCORE.SYSTEM.CONST>
0

>  <SCORE.SYSTEM.DIHEDRAL>
0

>  <SCORE.SYSTEM.SOLV>
0

>  <SCORE.SYSTEM.norm>
0

>  <SCORE.heavy>
12

>  <SCORE.norm>
-1.37472

>  <SYMMETRIC_BONDS>
4 1 2

>  <RMSD>
2.039

$$$$
1kod cryst
 OpenBabel11021811393D
libRbt.so/2013.1/901 2013/11/27
 12 11  0  0  0  0  0  0  0  0999 V2000
    3.2541    5.4875   35.3623 C   0  0  0  0  0  0  0  0  0  0  0  0
    3.0083    5.4349   36.5582 O   0  5  0  0  0  0  0  0  0  0  0  0
    4.3749    5.3440   34.8903 O   0  0  0  0  0  0  0  0  0  0  0  0
    2.0819    5.7472   34.3955 C   0  0  1  0  0  0  0  0  0  0  0  0
    2.4182    6.9028   33.5090 N   0  3  0  0  0  0  0  0  0  0  0  0
    1.7994    4.4976   33.5290 C   0  0  0  0  0  0  0  0  0  0  0  0
    1.5887    3.2718   34.4082 C   0  0  0  0  0  0  0  0  0  0  0  0
    1.5116    2.0183   33.5396 C   0  0  0  0  0  0  0  0  0  0  0  0
    2.2365    0.9044   34.2269 N   0  0  0  0  0  0  0  0  0  0  0  0
    1.6779    0.2569   35.2141 C   0  0  0  0  0  0  0  0  0  0  0  0
    2.2539    0.1389   36.2934 O   0  0  0  0  0  0  0  0  0  0  0  0
    0.5053   -0.2837   35.0526 N   0  0  0  0  0  0  0  0  0  0  0  0
  1  2  1  0  0  0  0
  1  3  2  0  0  0  0
  4  1  1  1  0  0  0
  4  6  1  0  0  0  0
  4  5  1  0  0  0  0
  6  7  1  0  0  0  0
  7  8  1  0  0  0  0
  8  9  1  0  0  0  0
  9 10  1  0  0  0  0
 10 12  1  0  0  0  0
 10 11  2  0  0  0  0
M  CHG  2   2  -1   5   1
M  END
>  <CHROM.1>
127.18286192,53.78995034,-44.39255246,-171.91577113,140.55264557,-101.84831015
2.23970875,3.32493108,34.75062041,-1.14001538,0.95679737,2.69458727

>  <Name>
1kod cryst

>  <RI>
0

>  <Rbt.Current_Directory>
/home/itssahil/PROJECTS/Mol_Feturizer/New_Systems/rnas/1kod

>  <Rbt.Executable>
rbdock ($Id: //depot/dev/client3/rdock/2013.1/src/exe/rbdock.cxx#4 $)

>  <Rbt.Library>
libRbt.so (2013.1, Build901 2013/11/27)

>  <Rbt.Parameter_File>
/export/apps/rDock/src/rDock_2013.1_src/data/scripts/dock_solv.prm

>  <Rbt.Receptor>
prm/pocket_docking_8.prm

>  <SCORE>
-23.0628

>  <SCORE.INTER>
-19.5529

>  <SCORE.INTER.CONST>
1

>  <SCORE.INTER.POLAR>
-3.60525

>  <SCORE.INTER.ROT>
5

>  <SCORE.INTER.SOLV>
16.3625

>  <SCORE.INTER.VDW>
-13.4053

>  <SCORE.INTER.norm>
-1.62941

>  <SCORE.INTRA>
-3.50984

>  <SCORE.INTRA.DIHEDRAL>
-0.498205

>  <SCORE.INTRA.DIHEDRAL.0>
7.7847

>  <SCORE.INTRA.POLAR>
0

>  <SCORE.INTRA.POLAR.0>
0

>  <SCORE.INTRA.REPUL>
0

>  <SCORE.INTRA.REPUL.0>
0

>  <SCORE.INTRA.SOLV>
-2.3939

>  <SCORE.INTRA.SOLV.lig_0>
-57.5465

>  <SCORE.INTRA.VDW>
-2.06379

>  <SCORE.INTRA.VDW.0>
1.39369

>  <SCORE.INTRA.norm>
-0.292487

>  <SCORE.RESTR>
0

>  <SCORE.RESTR.CAVITY>
0

>  <SCORE.RESTR.norm>
0

>  <SCORE.SYSTEM>
0

>  <SCORE.SYSTEM.CONST>
0

>  <SCORE.SYSTEM.DIHEDRAL>
0

>  <SCORE.SYSTEM.SOLV>
0

>  <SCORE.SYSTEM.norm>
0

>  <SCORE.heavy>
12

>  <SCORE.norm>
-1.9219

>  <SYMMETRIC_BONDS>
4 1 2

>  <RMSD>
2.043

$$$$
1kod cryst
 OpenBabel11021811393D
libRbt.so/2013.1/901 2013/11/27
 12 11  0  0  0  0  0  0  0  0999 V2000
    3.2473    5.4562   35.3509 C   0  0  0  0  0  0  0  0  0  0  0  0
    2.9971    5.4229   36.5466 O   0  5  0  0  0  0  0  0  0  0  0  0
    4.3686    5.2976   34.8849 O   0  0  0  0  0  0  0  0  0  0  0  0
    2.0802    5.7104   34.3765 C   0  0  1  0  0  0  0  0  0  0  0  0
    2.4101    6.8777   33.5029 N   0  3  0  0  0  0  0  0  0  0  0  0
    1.8201    4.4652   33.4967 C   0  0  0  0  0  0  0  0  0  0  0  0
    1.4853    3.2575   34.3623 C   0  0  0  0  0  0  0  0  0  0  0  0
    1.4454    1.9974   33.5006 C   0  0  0  0  0  0  0  0  0  0  0  0
    2.1962    0.9070   34.1977 N   0  0  0  0  0  0  0  0  0  0  0  0
    1.6664    0.2790   35.2131 C   0  0  0  0  0  0  0  0  0  0  0  0
    2.2683    0.1924   36.2812 O   0  0  0  0  0  0  0  0  0  0  0  0
    0.4955   -0.2755   35.0920 N   0  0  0  0  0  0  0  0  0  0  0  0
  1  2  1  0  0  0  0
  1  3  2  0  0  0  0
  4  1  1  1  0  0  0
  4  6  1  0  0  0  0
  4  5  1  0  0  0  0
  6  7  1  0  0  0  0
  7  8  1  0  0  0  0
  8  9  1  0  0  0  0
  9 10  1  0  0  0  0
 10 12  1  0  0  0  0
 10 11  2  0  0  0  0
M  CHG  2   2  -1   5   1
M  END
>  <CHROM.1>
125.42071064,59.19594496,-44.63313695,-171.26735563,134.36355733,-104.01438160
2.22094690,3.31422448,34.73698623,-1.13279891,0.95425472,2.68788009

>  <Name>
1kod cryst

>  <RI>
0

>  <Rbt.Current_Directory>
/home/itssahil/PROJECTS/Mol_Feturizer/New_Systems/rnas/1kod

>  <Rbt.Executable>
rbdock ($Id: //depot/dev/client3/rdock/2013.1/src/exe/rbdock.cxx#4 $)

>  <Rbt.Library>
libRbt.so (2013.1, Build901 2013/11/27)

>  <Rbt.Parameter_File>
/export/apps/rDock/src/rDock_2013.1_src/data/scripts/dock_solv.prm

>  <Rbt.Receptor>
prm/pocket_docking_3.prm

>  <SCORE>
-23.1196

>  <SCORE.INTER>
-19.6983

>  <SCORE.INTER.CONST>
1

>  <SCORE.INTER.POLAR>
-3.6797

>  <SCORE.INTER.ROT>
5

>  <SCORE.INTER.SOLV>
16.4029

>  <SCORE.INTER.VDW>
-13.2675

>  <SCORE.INTER.norm>
-1.64153

>  <SCORE.INTRA>
-3.42128

>  <SCORE.INTRA.DIHEDRAL>
0.101856

>  <SCORE.INTRA.DIHEDRAL.0>
7.7847

>  <SCORE.INTRA.POLAR>
0

>  <SCORE.INTRA.POLAR.0>
0

>  <SCORE.INTRA.REPUL>
0

>  <SCORE.INTRA.REPUL.0>
0

>  <SCORE.INTRA.SOLV>
-2.44991

>  <SCORE.INTRA.SOLV.lig_0>
-57.5465

>  <SCORE.INTRA.VDW>
-2.24725

>  <SCORE.INTRA.VDW.0>
1.39369

>  <SCORE.INTRA.norm>
-0.285106

>  <SCORE.RESTR>
0

>  <SCORE.RESTR.CAVITY>
0

>  <SCORE.RESTR.norm>
0

>  <SCORE.SYSTEM>
0

>  <SCORE.SYSTEM.CONST>
0

>  <SCORE.SYSTEM.DIHEDRAL>
0

>  <SCORE.SYSTEM.SOLV>
0

>  <SCORE.SYSTEM.norm>
0

>  <SCORE.heavy>
12

>  <SCORE.norm>
-1.92664

>  <SYMMETRIC_BONDS>
4 1 2

>  <RMSD>
2.044

$$$$
1kod cryst
 OpenBabel11021811393D
libRbt.so/2013.1/901 2013/11/27
 12 11  0  0  0  0  0  0  0  0999 V2000
    1.2885    6.4342   35.4639 C   0  0  0  0  0  0  0  0  0  0  0  0
    1.9589    7.4320   35.6836 O   0  5  0  0  0  0  0  0  0  0  0  0
    0.2847    6.1347   36.0983 O   0  0  0  0  0  0  0  0  0  0  0  0
    1.7345    5.5029   34.3194 C   0  0  1  0  0  0  0  0  0  0  0  0
    2.2059    6.3278   33.1653 N   0  3  0  0  0  0  0  0  0  0  0  0
    2.8758    4.5692   34.7861 C   0  0  0  0  0  0  0  0  0  0  0  0
    3.1688    3.5112   33.7303 C   0  0  0  0  0  0  0  0  0  0  0  0
    1.9008    2.7157   33.4282 C   0  0  0  0  0  0  0  0  0  0  0  0
    2.1771    1.2606   33.6401 N   0  0  0  0  0  0  0  0  0  0  0  0
    1.2006    0.3932   33.6514 C   0  0  0  0  0  0  0  0  0  0  0  0
    1.0613   -0.3831   34.5940 O   0  0  0  0  0  0  0  0  0  0  0  0
    0.3732    0.3367   32.6488 N   0  0  0  0  0  0  0  0  0  0  0  0
  1  2  1  0  0  0  0
  1  3  2  0  0  0  0
  4  1  1  1  0  0  0
  4  6  1  0  0  0  0
  4  5  1  0  0  0  0
  6  7  1  0  0  0  0
  7  8  1  0  0  0  0
  8  9  1  0  0  0  0
  9 10  1  0  0  0  0
 10 12  1  0  0  0  0
 10 11  2  0  0  0  0
M  CHG  2   2  -1   5   1
M  END
>  <CHROM.1>
-39.89356439,171.32710336,80.74122052,-57.16662381,-124.39572385,-10.84727599
1.67631276,3.70057074,34.25167349,1.46930212,0.79235625,0.31102956

>  <Name>
1kod cryst

>  <RI>
0

>  <Rbt.Current_Directory>
/home/itssahil/PROJECTS/Mol_Feturizer/New_Systems/rnas/1kod

>  <Rbt.Executable>
rbdock ($Id: //depot/dev/client3/rdock/2013.1/src/exe/rbdock.cxx#4 $)

>  <Rbt.Library>
libRbt.so (2013.1, Build901 2013/11/27)

>  <Rbt.Parameter_File>
/export/apps/rDock/src/rDock_2013.1_src/data/scripts/dock_solv.prm

>  <Rbt.Receptor>
prm/pocket_docking_2.prm

>  <SCORE>
-20.9241

>  <SCORE.INTER>
-19.405

>  <SCORE.INTER.CONST>
1

>  <SCORE.INTER.POLAR>
-3.86852

>  <SCORE.INTER.ROT>
5

>  <SCORE.INTER.SOLV>
21.1015

>  <SCORE.INTER.VDW>
-14.0088

>  <SCORE.INTER.norm>
-1.61708

>  <SCORE.INTRA>
-1.74696

>  <SCORE.INTRA.DIHEDRAL>
1.16159

>  <SCORE.INTRA.DIHEDRAL.0>
7.7847

>  <SCORE.INTRA.POLAR>
0

>  <SCORE.INTRA.POLAR.0>
0

>  <SCORE.INTRA.REPUL>
0

>  <SCORE.INTRA.REPUL.0>
0

>  <SCORE.INTRA.SOLV>
-1.88219

>  <SCORE.INTRA.SOLV.lig_0>
-57.5465

>  <SCORE.INTRA.VDW>
-1.38666

>  <SCORE.INTRA.VDW.0>
1.39369

>  <SCORE.INTRA.norm>
-0.14558

>  <SCORE.RESTR>
0.227828

>  <SCORE.RESTR.CAVITY>
0.227828

>  <SCORE.RESTR.norm>
0.0189857

>  <SCORE.SYSTEM>
0

>  <SCORE.SYSTEM.CONST>
0

>  <SCORE.SYSTEM.DIHEDRAL>
0

>  <SCORE.SYSTEM.SOLV>
0

>  <SCORE.SYSTEM.norm>
0

>  <SCORE.heavy>
12

>  <SCORE.norm>
-1.74367

>  <SYMMETRIC_BONDS>
4 1 2

>  <RMSD>
2.046

$$$$
1kod cryst
 OpenBabel11021811393D
libRbt.so/2013.1/901 2013/11/27
 12 11  0  0  0  0  0  0  0  0999 V2000
    1.6340    6.3953   36.2681 C   0  0  0  0  0  0  0  0  0  0  0  0
    1.6513    7.3950   35.5655 O   0  5  0  0  0  0  0  0  0  0  0  0
    2.6276    5.9244   36.8073 O   0  0  0  0  0  0  0  0  0  0  0  0
    0.2805    5.6910   36.4876 C   0  0  1  0  0  0  0  0  0  0  0  0
   -0.7558    6.7092   36.8399 N   0  3  0  0  0  0  0  0  0  0  0  0
   -0.1551    4.9318   35.2125 C   0  0  0  0  0  0  0  0  0  0  0  0
    0.9299    3.9581   34.7712 C   0  0  0  0  0  0  0  0  0  0  0  0
    0.6919    3.5391   33.3222 C   0  0  0  0  0  0  0  0  0  0  0  0
    1.5547    2.3575   33.0092 N   0  0  0  0  0  0  0  0  0  0  0  0
    1.0806    1.1442   33.1040 C   0  0  0  0  0  0  0  0  0  0  0  0
    1.6588    0.2951   33.7788 O   0  0  0  0  0  0  0  0  0  0  0  0
   -0.0071    0.8225   32.4664 N   0  0  0  0  0  0  0  0  0  0  0  0
  1  2  1  0  0  0  0
  1  3  2  0  0  0  0
  4  1  1  6  0  0  0
  4  6  1  0  0  0  0
  4  5  1  0  0  0  0
  6  7  1  0  0  0  0
  7  8  1  0  0  0  0
  8  9  1  0  0  0  0
  9 10  1  0  0  0  0
 10 12  1  0  0  0  0
 10 11  2  0  0  0  0
M  CHG  2   2  -1   5   1
M  END
>  <CHROM.1>
-47.17152583,55.21605831,174.33646331,-162.88676693,-166.75814738,-84.58229008
0.92242372,4.11117769,34.81042352,-1.57624616,0.09226146,-2.58905035

>  <Name>
1kod cryst

>  <RI>
0

>  <Rbt.Current_Directory>
/home/itssahil/PROJECTS/Mol_Feturizer/New_Systems/rnas/1kod

>  <Rbt.Executable>
rbdock ($Id: //depot/dev/client3/rdock/2013.1/src/exe/rbdock.cxx#4 $)

>  <Rbt.Library>
libRbt.so (2013.1, Build901 2013/11/27)

>  <Rbt.Parameter_File>
/export/apps/rDock/src/rDock_2013.1_src/data/scripts/dock_solv.prm

>  <Rbt.Receptor>
prm/pocket_docking_4.prm

>  <SCORE>
-25.8158

>  <SCORE.INTER>
-20.6007

>  <SCORE.INTER.CONST>
1

>  <SCORE.INTER.POLAR>
-2.91741

>  <SCORE.INTER.ROT>
5

>  <SCORE.INTER.SOLV>
18.2649

>  <SCORE.INTER.VDW>
-17.0307

>  <SCORE.INTER.norm>
-1.71672

>  <SCORE.INTRA>
-5.21511

>  <SCORE.INTRA.DIHEDRAL>
-3.59333

>  <SCORE.INTRA.DIHEDRAL.0>
7.7847

>  <SCORE.INTRA.POLAR>
0

>  <SCORE.INTRA.POLAR.0>
0

>  <SCORE.INTRA.REPUL>
0

>  <SCORE.INTRA.REPUL.0>
0

>  <SCORE.INTRA.SOLV>
-2.30187

>  <SCORE.INTRA.SOLV.lig_0>
-57.5465

>  <SCORE.INTRA.VDW>
-2.26751

>  <SCORE.INTRA.VDW.0>
1.39369

>  <SCORE.INTRA.norm>
-0.434592

>  <SCORE.RESTR>
0

>  <SCORE.RESTR.CAVITY>
0

>  <SCORE.RESTR.norm>
0

>  <SCORE.SYSTEM>
0

>  <SCORE.SYSTEM.CONST>
0

>  <SCORE.SYSTEM.DIHEDRAL>
0

>  <SCORE.SYSTEM.SOLV>
0

>  <SCORE.SYSTEM.norm>
0

>  <SCORE.heavy>
12

>  <SCORE.norm>
-2.15132

>  <SYMMETRIC_BONDS>
4 1 2

>  <RMSD>
2.047

$$$$
1kod cryst
 OpenBabel11021811393D
libRbt.so/2013.1/901 2013/11/27
 12 11  0  0  0  0  0  0  0  0999 V2000
    3.2397    6.2873   35.2714 C   0  0  0  0  0  0  0  0  0  0  0  0
    2.8957    6.1143   36.4312 O   0  5  0  0  0  0  0  0  0  0  0  0
    4.4055    6.2710   34.8970 O   0  0  0  0  0  0  0  0  0  0  0  0
    2.1386    6.5378   34.2220 C   0  0  1  0  0  0  0  0  0  0  0  0
    2.5727    7.6320   33.3007 N   0  3  0  0  0  0  0  0  0  0  0  0
    1.8598    5.2551   33.4039 C   0  0  0  0  0  0  0  0  0  0  0  0
    0.7807    4.4152   34.0748 C   0  0  0  0  0  0  0  0  0  0  0  0
    0.3330    3.2991   33.1337 C   0  0  0  0  0  0  0  0  0  0  0  0
    1.4280    2.2853   33.0252 N   0  0  0  0  0  0  0  0  0  0  0  0
    1.1656    1.0098   33.1264 C   0  0  0  0  0  0  0  0  0  0  0  0
    1.7723    0.3058   33.9306 O   0  0  0  0  0  0  0  0  0  0  0  0
    0.2634    0.4715   32.3585 N   0  0  0  0  0  0  0  0  0  0  0  0
  1  2  1  0  0  0  0
  1  3  2  0  0  0  0
  4  1  1  1  0  0  0
  4  6  1  0  0  0  0
  4  5  1  0  0  0  0
  6  7  1  0  0  0  0
  7  8  1  0  0  0  0
  8  9  1  0  0  0  0
  9 10  1  0  0  0  0
 10 12  1  0  0  0  0
 10 11  2  0  0  0  0
M  CHG  2   2  -1   5   1
M  END
>  <CHROM.1>
137.55756378,89.46683972,68.51026022,169.42996552,71.17094834,-46.60473469
1.92741801,4.16811367,33.92076049,-1.03259564,0.84917989,3.00602680

>  <Name>
1kod cryst

>  <RI>
0

>  <Rbt.Current_Directory>
/home/itssahil/PROJECTS/Mol_Feturizer/New_Systems/rnas/1kod

>  <Rbt.Executable>
rbdock ($Id: //depot/dev/client3/rdock/2013.1/src/exe/rbdock.cxx#4 $)

>  <Rbt.Library>
libRbt.so (2013.1, Build901 2013/11/27)

>  <Rbt.Parameter_File>
/export/apps/rDock/src/rDock_2013.1_src/data/scripts/dock_solv.prm

>  <Rbt.Receptor>
prm/pocket_docking_5.prm

>  <SCORE>
-28.915

>  <SCORE.INTER>
-24.0521

>  <SCORE.INTER.CONST>
1

>  <SCORE.INTER.POLAR>
-3.6231

>  <SCORE.INTER.ROT>
5

>  <SCORE.INTER.SOLV>
17.6842

>  <SCORE.INTER.VDW>
-16.7858

>  <SCORE.INTER.norm>
-2.00434

>  <SCORE.INTRA>
-4.8629

>  <SCORE.INTRA.DIHEDRAL>
-1.96169

>  <SCORE.INTRA.DIHEDRAL.0>
7.7847

>  <SCORE.INTRA.POLAR>
0

>  <SCORE.INTRA.POLAR.0>
0

>  <SCORE.INTRA.REPUL>
0

>  <SCORE.INTRA.REPUL.0>
0

>  <SCORE.INTRA.SOLV>
-2.68592

>  <SCORE.INTRA.SOLV.lig_0>
-57.5465

>  <SCORE.INTRA.VDW>
-2.5391

>  <SCORE.INTRA.VDW.0>
1.39369

>  <SCORE.INTRA.norm>
-0.405242

>  <SCORE.RESTR>
0

>  <SCORE.RESTR.CAVITY>
0

>  <SCORE.RESTR.norm>
0

>  <SCORE.SYSTEM>
0

>  <SCORE.SYSTEM.CONST>
0

>  <SCORE.SYSTEM.DIHEDRAL>
0

>  <SCORE.SYSTEM.SOLV>
0

>  <SCORE.SYSTEM.norm>
0

>  <SCORE.heavy>
12

>  <SCORE.norm>
-2.40959

>  <SYMMETRIC_BONDS>
4 1 2

>  <RMSD>
2.054

$$$$
1kod cryst
 OpenBabel11021811393D
libRbt.so/2013.1/901 2013/11/27
 12 11  0  0  0  0  0  0  0  0999 V2000
    1.4749    5.5529   35.3777 C   0  0  0  0  0  0  0  0  0  0  0  0
    0.4024    5.5081   35.9618 O   0  5  0  0  0  0  0  0  0  0  0  0
    2.5369    5.8252   35.9234 O   0  0  0  0  0  0  0  0  0  0  0  0
    1.4872    5.2456   33.8672 C   0  0  1  0  0  0  0  0  0  0  0  0
    2.2281    6.3267   33.1482 N   0  3  0  0  0  0  0  0  0  0  0  0
    2.1659    3.8836   33.5908 C   0  0  0  0  0  0  0  0  0  0  0  0
    1.1282    2.7705   33.5268 C   0  0  0  0  0  0  0  0  0  0  0  0
    1.8225    1.4114   33.5778 C   0  0  0  0  0  0  0  0  0  0  0  0
    0.8228    0.3685   33.9675 N   0  0  0  0  0  0  0  0  0  0  0  0
    0.9566   -0.2967   35.0836 C   0  0  0  0  0  0  0  0  0  0  0  0
    0.9487   -1.5257   35.0868 O   0  0  0  0  0  0  0  0  0  0  0  0
    1.0847    0.3450   36.2083 N   0  0  0  0  0  0  0  0  0  0  0  0
  1  2  1  0  0  0  0
  1  3  2  0  0  0  0
  4  1  1  1  0  0  0
  4  6  1  0  0  0  0
  4  5  1  0  0  0  0
  6  7  1  0  0  0  0
  7  8  1  0  0  0  0
  8  9  1  0  0  0  0
  9 10  1  0  0  0  0
 10 12  1  0  0  0  0
 10 11  2  0  0  0  0
M  CHG  2   2  -1   5   1
M  END
>  <CHROM.1>
130.03608581,93.71687328,-56.53039197,-166.99820151,161.43532335,63.51609688
1.42721450,2.97579148,34.62365982,0.98865517,1.34039162,0.51811422

>  <Name>
1kod cryst

>  <RI>
0

>  <Rbt.Current_Directory>
/home/itssahil/PROJECTS/Mol_Feturizer/New_Systems/rnas/1kod

>  <Rbt.Executable>
rbdock ($Id: //depot/dev/client3/rdock/2013.1/src/exe/rbdock.cxx#4 $)

>  <Rbt.Library>
libRbt.so (2013.1, Build901 2013/11/27)

>  <Rbt.Parameter_File>
/export/apps/rDock/src/rDock_2013.1_src/data/scripts/dock_solv.prm

>  <Rbt.Receptor>
prm/pocket_docking_3.prm

>  <SCORE>
-20.7307

>  <SCORE.INTER>
-16.1446

>  <SCORE.INTER.CONST>
1

>  <SCORE.INTER.POLAR>
-3.60509

>  <SCORE.INTER.ROT>
5

>  <SCORE.INTER.SOLV>
21.0373

>  <SCORE.INTER.VDW>
-12.6919

>  <SCORE.INTER.norm>
-1.34538

>  <SCORE.INTRA>
-4.58611

>  <SCORE.INTRA.DIHEDRAL>
-0.567899

>  <SCORE.INTRA.DIHEDRAL.0>
7.7847

>  <SCORE.INTRA.POLAR>
0

>  <SCORE.INTRA.POLAR.0>
0

>  <SCORE.INTRA.REPUL>
0

>  <SCORE.INTRA.REPUL.0>
0

>  <SCORE.INTRA.SOLV>
-2.85608

>  <SCORE.INTRA.SOLV.lig_0>
-57.5465

>  <SCORE.INTRA.VDW>
-2.87412

>  <SCORE.INTRA.VDW.0>
1.39369

>  <SCORE.INTRA.norm>
-0.382176

>  <SCORE.RESTR>
0

>  <SCORE.RESTR.CAVITY>
0

>  <SCORE.RESTR.norm>
0

>  <SCORE.SYSTEM>
0

>  <SCORE.SYSTEM.CONST>
0

>  <SCORE.SYSTEM.DIHEDRAL>
0

>  <SCORE.SYSTEM.SOLV>
0

>  <SCORE.SYSTEM.norm>
0

>  <SCORE.heavy>
12

>  <SCORE.norm>
-1.72756

>  <SYMMETRIC_BONDS>
4 1 2

>  <RMSD>
2.070

$$$$
1kod cryst
 OpenBabel11021811393D
libRbt.so/2013.1/901 2013/11/27
 12 11  0  0  0  0  0  0  0  0999 V2000
    1.1732    5.0861   35.3484 C   0  0  0  0  0  0  0  0  0  0  0  0
    0.8824    4.1073   36.0198 O   0  5  0  0  0  0  0  0  0  0  0  0
    1.3359    6.2072   35.8135 O   0  0  0  0  0  0  0  0  0  0  0  0
    1.3469    4.8930   33.8290 C   0  0  1  0  0  0  0  0  0  0  0  0
    2.1513    6.0246   33.2750 N   0  3  0  0  0  0  0  0  0  0  0  0
    2.0612    3.5552   33.5249 C   0  0  0  0  0  0  0  0  0  0  0  0
    1.0464    2.4682   33.1959 C   0  0  0  0  0  0  0  0  0  0  0  0
    1.6670    1.0924   33.4283 C   0  0  0  0  0  0  0  0  0  0  0  0
    0.5930    0.1381   33.8457 N   0  0  0  0  0  0  0  0  0  0  0  0
    0.6759   -0.5007   34.9820 C   0  0  0  0  0  0  0  0  0  0  0  0
    0.5778   -1.7251   35.0225 O   0  0  0  0  0  0  0  0  0  0  0  0
    0.8491    0.1640   36.0872 N   0  0  0  0  0  0  0  0  0  0  0  0
  1  2  1  0  0  0  0
  1  3  2  0  0  0  0
  4  1  1  1  0  0  0
  4  6  1  0  0  0  0
  4  5  1  0  0  0  0
  6  7  1  0  0  0  0
  7  8  1  0  0  0  0
  8  9  1  0  0  0  0
  9 10  1  0  0  0  0
 10 12  1  0  0  0  0
 10 11  2  0  0  0  0
M  CHG  2   2  -1   5   1
M  END
>  <CHROM.1>
-159.89203011,96.73162609,-169.32351916,-158.21121073,149.05287726,57.83103216
1.20143996,2.65117395,34.54887794,1.02973914,1.30387829,0.48384056

>  <Name>
1kod cryst

>  <RI>
0

>  <Rbt.Current_Directory>
/home/itssahil/PROJECTS/Mol_Feturizer/New_Systems/rnas/1kod

>  <Rbt.Executable>
rbdock ($Id: //depot/dev/client3/rdock/2013.1/src/exe/rbdock.cxx#4 $)

>  <Rbt.Library>
libRbt.so (2013.1, Build901 2013/11/27)

>  <Rbt.Parameter_File>
/export/apps/rDock/src/rDock_2013.1_src/data/scripts/dock_solv.prm

>  <Rbt.Receptor>
prm/pocket_docking_4.prm

>  <SCORE>
-20.8143

>  <SCORE.INTER>
-19.0429

>  <SCORE.INTER.CONST>
1

>  <SCORE.INTER.POLAR>
-3.82927

>  <SCORE.INTER.ROT>
5

>  <SCORE.INTER.SOLV>
21.8906

>  <SCORE.INTER.VDW>
-14.1612

>  <SCORE.INTER.norm>
-1.58691

>  <SCORE.INTRA>
-1.77146

>  <SCORE.INTRA.DIHEDRAL>
2.86222

>  <SCORE.INTRA.DIHEDRAL.0>
7.7847

>  <SCORE.INTRA.POLAR>
0

>  <SCORE.INTRA.POLAR.0>
0

>  <SCORE.INTRA.REPUL>
0

>  <SCORE.INTRA.REPUL.0>
0

>  <SCORE.INTRA.SOLV>
-1.71444

>  <SCORE.INTRA.SOLV.lig_0>
-57.5465

>  <SCORE.INTRA.VDW>
-2.34535

>  <SCORE.INTRA.VDW.0>
1.39369

>  <SCORE.INTRA.norm>
-0.147622

>  <SCORE.RESTR>
0

>  <SCORE.RESTR.CAVITY>
0

>  <SCORE.RESTR.norm>
0

>  <SCORE.SYSTEM>
0

>  <SCORE.SYSTEM.CONST>
0

>  <SCORE.SYSTEM.DIHEDRAL>
0

>  <SCORE.SYSTEM.SOLV>
0

>  <SCORE.SYSTEM.norm>
0

>  <SCORE.heavy>
12

>  <SCORE.norm>
-1.73453

>  <SYMMETRIC_BONDS>
4 1 2

>  <RMSD>
2.072

$$$$
1kod cryst
 OpenBabel11021811393D
libRbt.so/2013.1/901 2013/11/27
 12 11  0  0  0  0  0  0  0  0999 V2000
    2.8382    6.3841   35.6573 C   0  0  0  0  0  0  0  0  0  0  0  0
    4.0031    6.7528   35.6360 O   0  5  0  0  0  0  0  0  0  0  0  0
    2.2295    6.1084   36.6835 O   0  0  0  0  0  0  0  0  0  0  0  0
    2.0951    6.2631   34.3121 C   0  0  1  0  0  0  0  0  0  0  0  0
    2.2975    7.5149   33.5205 N   0  3  0  0  0  0  0  0  0  0  0  0
    2.6180    5.0521   33.5045 C   0  0  0  0  0  0  0  0  0  0  0  0
    2.3240    3.7505   34.2389 C   0  0  0  0  0  0  0  0  0  0  0  0
    2.6050    2.5629   33.3211 C   0  0  0  0  0  0  0  0  0  0  0  0
    2.6063    1.3079   34.1357 N   0  0  0  0  0  0  0  0  0  0  0  0
    1.5014    0.6380   34.3267 C   0  0  0  0  0  0  0  0  0  0  0  0
    1.1325    0.3460   35.4621 O   0  0  0  0  0  0  0  0  0  0  0  0
    0.7885    0.2605   33.3057 N   0  0  0  0  0  0  0  0  0  0  0  0
  1  2  1  0  0  0  0
  1  3  2  0  0  0  0
  4  1  1  1  0  0  0
  4  6  1  0  0  0  0
  4  5  1  0  0  0  0
  6  7  1  0  0  0  0
  7  8  1  0  0  0  0
  8  9  1  0  0  0  0
  9 10  1  0  0  0  0
 10 12  1  0  0  0  0
 10 11  2  0  0  0  0
M  CHG  2   2  -1   5   1
M  END
>  <CHROM.1>
-49.11103203,63.88395696,38.37576810,169.44437499,167.60043449,-90.73509246
2.25150589,3.93079246,34.50857801,-0.22568099,1.35436088,1.93068075

>  <Name>
1kod cryst

>  <RI>
0

>  <Rbt.Current_Directory>
/home/itssahil/PROJECTS/Mol_Feturizer/New_Systems/rnas/1kod

>  <Rbt.Executable>
rbdock ($Id: //depot/dev/client3/rdock/2013.1/src/exe/rbdock.cxx#4 $)

>  <Rbt.Library>
libRbt.so (2013.1, Build901 2013/11/27)

>  <Rbt.Parameter_File>
/export/apps/rDock/src/rDock_2013.1_src/data/scripts/dock_solv.prm

>  <Rbt.Receptor>
prm/pocket_docking_8.prm

>  <SCORE>
-20.8804

>  <SCORE.INTER>
-15.6705

>  <SCORE.INTER.CONST>
1

>  <SCORE.INTER.POLAR>
-3.0682

>  <SCORE.INTER.ROT>
5

>  <SCORE.INTER.SOLV>
15.2459

>  <SCORE.INTER.VDW>
-12.235

>  <SCORE.INTER.norm>
-1.30587

>  <SCORE.INTRA>
-5.2099

>  <SCORE.INTRA.DIHEDRAL>
-3.43491

>  <SCORE.INTRA.DIHEDRAL.0>
7.7847

>  <SCORE.INTRA.POLAR>
0

>  <SCORE.INTRA.POLAR.0>
0

>  <SCORE.INTRA.REPUL>
0

>  <SCORE.INTRA.REPUL.0>
0

>  <SCORE.INTRA.SOLV>
-2.54472

>  <SCORE.INTRA.SOLV.lig_0>
-57.5465

>  <SCORE.INTRA.VDW>
-2.22009

>  <SCORE.INTRA.VDW.0>
1.39369

>  <SCORE.INTRA.norm>
-0.434159

>  <SCORE.RESTR>
0

>  <SCORE.RESTR.CAVITY>
0

>  <SCORE.RESTR.norm>
0

>  <SCORE.SYSTEM>
0

>  <SCORE.SYSTEM.CONST>
0

>  <SCORE.SYSTEM.DIHEDRAL>
0

>  <SCORE.SYSTEM.SOLV>
0

>  <SCORE.SYSTEM.norm>
0

>  <SCORE.heavy>
12

>  <SCORE.norm>
-1.74003

>  <SYMMETRIC_BONDS>
4 1 2

>  <RMSD>
2.076

$$$$
1kod cryst
 OpenBabel11021811393D
libRbt.so/2013.1/901 2013/11/27
 12 11  0  0  0  0  0  0  0  0999 V2000
    2.1988    5.5370   35.4524 C   0  0  0  0  0  0  0  0  0  0  0  0
    1.4633    6.1792   36.1873 O   0  5  0  0  0  0  0  0  0  0  0  0
    3.2677    5.0572   35.8087 O   0  0  0  0  0  0  0  0  0  0  0  0
    1.7497    5.3187   33.9940 C   0  0  1  0  0  0  0  0  0  0  0  0
    2.3312    6.3920   33.1312 N   0  3  0  0  0  0  0  0  0  0  0  0
    2.2132    3.9357   33.4794 C   0  0  0  0  0  0  0  0  0  0  0  0
    1.2402    2.8479   33.9150 C   0  0  0  0  0  0  0  0  0  0  0  0
    1.7881    1.4766   33.5258 C   0  0  0  0  0  0  0  0  0  0  0  0
    0.8118    0.4246   33.9484 N   0  0  0  0  0  0  0  0  0  0  0  0
    0.9988   -0.2521   35.0499 C   0  0  0  0  0  0  0  0  0  0  0  0
    0.9965   -1.4811   35.0397 O   0  0  0  0  0  0  0  0  0  0  0  0
    1.1745    0.3778   36.1748 N   0  0  0  0  0  0  0  0  0  0  0  0
  1  2  1  0  0  0  0
  1  3  2  0  0  0  0
  4  1  1  1  0  0  0
  4  6  1  0  0  0  0
  4  5  1  0  0  0  0
  6  7  1  0  0  0  0
  7  8  1  0  0  0  0
  8  9  1  0  0  0  0
  9 10  1  0  0  0  0
 10 12  1  0  0  0  0
 10 11  2  0  0  0  0
M  CHG  2   2  -1   5   1
M  END
>  <CHROM.1>
93.36343649,82.91471454,-65.89190316,-174.08299218,-179.38035684,80.36462163
1.69399575,3.00810378,34.65300638,-0.13713746,1.38045525,1.67386371

>  <Name>
1kod cryst

>  <RI>
0

>  <Rbt.Current_Directory>
/home/itssahil/PROJECTS/Mol_Feturizer/New_Systems/rnas/1kod

>  <Rbt.Executable>
rbdock ($Id: //depot/dev/client3/rdock/2013.1/src/exe/rbdock.cxx#4 $)

>  <Rbt.Library>
libRbt.so (2013.1, Build901 2013/11/27)

>  <Rbt.Parameter_File>
/export/apps/rDock/src/rDock_2013.1_src/data/scripts/dock_solv.prm

>  <Rbt.Receptor>
prm/pocket_docking_2.prm

>  <SCORE>
-16.6596

>  <SCORE.INTER>
-12.6647

>  <SCORE.INTER.CONST>
1

>  <SCORE.INTER.POLAR>
-3.57828

>  <SCORE.INTER.ROT>
5

>  <SCORE.INTER.SOLV>
19.9848

>  <SCORE.INTER.VDW>
-10.1104

>  <SCORE.INTER.norm>
-1.05539

>  <SCORE.INTRA>
-5.45319

>  <SCORE.INTRA.DIHEDRAL>
-3.67506

>  <SCORE.INTRA.DIHEDRAL.0>
7.7847

>  <SCORE.INTRA.POLAR>
0

>  <SCORE.INTRA.POLAR.0>
0

>  <SCORE.INTRA.REPUL>
0

>  <SCORE.INTRA.REPUL.0>
0

>  <SCORE.INTRA.SOLV>
-2.78636

>  <SCORE.INTRA.SOLV.lig_0>
-57.5465

>  <SCORE.INTRA.VDW>
-2.22248

>  <SCORE.INTRA.VDW.0>
1.39369

>  <SCORE.INTRA.norm>
-0.454432

>  <SCORE.RESTR>
1.45827

>  <SCORE.RESTR.CAVITY>
1.45827

>  <SCORE.RESTR.norm>
0.121522

>  <SCORE.SYSTEM>
0

>  <SCORE.SYSTEM.CONST>
0

>  <SCORE.SYSTEM.DIHEDRAL>
0

>  <SCORE.SYSTEM.SOLV>
0

>  <SCORE.SYSTEM.norm>
0

>  <SCORE.heavy>
12

>  <SCORE.norm>
-1.3883

>  <SYMMETRIC_BONDS>
4 1 2

>  <RMSD>
2.080

$$$$
1kod cryst
 OpenBabel11021811393D
libRbt.so/2013.1/901 2013/11/27
 12 11  0  0  0  0  0  0  0  0999 V2000
    2.9554    5.2512   36.1052 C   0  0  0  0  0  0  0  0  0  0  0  0
    2.0718    5.2630   36.9493 O   0  5  0  0  0  0  0  0  0  0  0  0
    4.1380    5.0606   36.3596 O   0  0  0  0  0  0  0  0  0  0  0  0
    2.5529    5.4878   34.6361 C   0  0  1  0  0  0  0  0  0  0  0  0
    3.5114    6.4483   34.0089 N   0  3  0  0  0  0  0  0  0  0  0  0
    2.5626    4.1589   33.8447 C   0  0  0  0  0  0  0  0  0  0  0  0
    1.3838    3.2842   34.2512 C   0  0  0  0  0  0  0  0  0  0  0  0
    1.4119    1.9773   33.4618 C   0  0  0  0  0  0  0  0  0  0  0  0
    2.4519    1.0761   34.0491 N   0  0  0  0  0  0  0  0  0  0  0  0
    2.3092    0.5930   35.2542 C   0  0  0  0  0  0  0  0  0  0  0  0
    3.1952    0.7308   36.0948 O   0  0  0  0  0  0  0  0  0  0  0  0
    1.2254   -0.0552   35.5677 N   0  0  0  0  0  0  0  0  0  0  0  0
  1  2  1  0  0  0  0
  1  3  2  0  0  0  0
  4  1  1  1  0  0  0
  4  6  1  0  0  0  0
  4  5  1  0  0  0  0
  6  7  1  0  0  0  0
  7  8  1  0  0  0  0
  8  9  1  0  0  0  0
  9 10  1  0  0  0  0
 10 12  1  0  0  0  0
 10 11  2  0  0  0  0
M  CHG  2   2  -1   5   1
M  END
>  <CHROM.1>
135.25149443,72.37015469,-176.24293004,-179.90213109,77.16311762,-113.78020649
2.50579420,3.28583817,35.06266720,-0.86207257,1.23035468,2.50936455

>  <Name>
1kod cryst

>  <RI>
0

>  <Rbt.Current_Directory>
/home/itssahil/PROJECTS/Mol_Feturizer/New_Systems/rnas/1kod

>  <Rbt.Executable>
rbdock ($Id: //depot/dev/client3/rdock/2013.1/src/exe/rbdock.cxx#4 $)

>  <Rbt.Library>
libRbt.so (2013.1, Build901 2013/11/27)

>  <Rbt.Parameter_File>
/export/apps/rDock/src/rDock_2013.1_src/data/scripts/dock_solv.prm

>  <Rbt.Receptor>
prm/pocket_docking_8.prm

>  <SCORE>
-22.3426

>  <SCORE.INTER>
-16.6341

>  <SCORE.INTER.CONST>
1

>  <SCORE.INTER.POLAR>
-2.79196

>  <SCORE.INTER.ROT>
5

>  <SCORE.INTER.SOLV>
10.545

>  <SCORE.INTER.VDW>
-12.2312

>  <SCORE.INTER.norm>
-1.38618

>  <SCORE.INTRA>
-5.70842

>  <SCORE.INTRA.DIHEDRAL>
-3.94816

>  <SCORE.INTRA.DIHEDRAL.0>
7.7847

>  <SCORE.INTRA.POLAR>
0

>  <SCORE.INTRA.POLAR.0>
0

>  <SCORE.INTRA.REPUL>
0

>  <SCORE.INTRA.REPUL.0>
0

>  <SCORE.INTRA.SOLV>
-2.22175

>  <SCORE.INTRA.SOLV.lig_0>
-57.5465

>  <SCORE.INTRA.VDW>
-2.62346

>  <SCORE.INTRA.VDW.0>
1.39369

>  <SCORE.INTRA.norm>
-0.475701

>  <SCORE.RESTR>
0

>  <SCORE.RESTR.CAVITY>
0

>  <SCORE.RESTR.norm>
0

>  <SCORE.SYSTEM>
0

>  <SCORE.SYSTEM.CONST>
0

>  <SCORE.SYSTEM.DIHEDRAL>
0

>  <SCORE.SYSTEM.SOLV>
0

>  <SCORE.SYSTEM.norm>
0

>  <SCORE.heavy>
12

>  <SCORE.norm>
-1.86188

>  <SYMMETRIC_BONDS>
4 1 2

>  <RMSD>
2.090

$$$$
1kod cryst
 OpenBabel11021811393D
libRbt.so/2013.1/901 2013/11/27
 12 11  0  0  0  0  0  0  0  0999 V2000
    0.9555    4.9721   35.3761 C   0  0  0  0  0  0  0  0  0  0  0  0
    1.7404    5.2205   36.2792 O   0  5  0  0  0  0  0  0  0  0  0  0
   -0.2244    4.6976   35.5552 O   0  0  0  0  0  0  0  0  0  0  0  0
    1.4853    5.0103   33.9289 C   0  0  1  0  0  0  0  0  0  0  0  0
    2.5987    6.0034   33.8355 N   0  3  0  0  0  0  0  0  0  0  0  0
    1.9994    3.6170   33.4969 C   0  0  0  0  0  0  0  0  0  0  0  0
    0.8332    2.6770   33.2209 C   0  0  0  0  0  0  0  0  0  0  0  0
    1.3602    1.2927   32.8496 C   0  0  0  0  0  0  0  0  0  0  0  0
    2.0986    0.7230   34.0196 N   0  0  0  0  0  0  0  0  0  0  0  0
    1.4626    0.3991   35.1135 C   0  0  0  0  0  0  0  0  0  0  0  0
    1.8234    0.8386   36.2031 O   0  0  0  0  0  0  0  0  0  0  0  0
    0.4448   -0.4096   35.0553 N   0  0  0  0  0  0  0  0  0  0  0  0
  1  2  1  0  0  0  0
  1  3  2  0  0  0  0
  4  1  1  1  0  0  0
  4  6  1  0  0  0  0
  4  5  1  0  0  0  0
  6  7  1  0  0  0  0
  7  8  1  0  0  0  0
  8  9  1  0  0  0  0
  9 10  1  0  0  0  0
 10 12  1  0  0  0  0
 10 11  2  0  0  0  0
M  CHG  2   2  -1   5   1
M  END
>  <CHROM.1>
-29.99698442,74.56718846,-46.40550661,-177.78346737,63.63510784,-112.58485834
1.39555466,2.93798052,34.60332399,1.36400465,1.27606278,0.20880803

>  <Name>
1kod cryst

>  <RI>
0

>  <Rbt.Current_Directory>
/home/itssahil/PROJECTS/Mol_Feturizer/New_Systems/rnas/1kod

>  <Rbt.Executable>
rbdock ($Id: //depot/dev/client3/rdock/2013.1/src/exe/rbdock.cxx#4 $)

>  <Rbt.Library>
libRbt.so (2013.1, Build901 2013/11/27)

>  <Rbt.Parameter_File>
/export/apps/rDock/src/rDock_2013.1_src/data/scripts/dock_solv.prm

>  <Rbt.Receptor>
prm/pocket_docking_2.prm

>  <SCORE>
-23.4218

>  <SCORE.INTER>
-18.6666

>  <SCORE.INTER.CONST>
1

>  <SCORE.INTER.POLAR>
-2.91015

>  <SCORE.INTER.ROT>
5

>  <SCORE.INTER.SOLV>
16.8339

>  <SCORE.INTER.VDW>
-15.2886

>  <SCORE.INTER.norm>
-1.55555

>  <SCORE.INTRA>
-5.60795

>  <SCORE.INTRA.DIHEDRAL>
-4.32472

>  <SCORE.INTRA.DIHEDRAL.0>
7.7847

>  <SCORE.INTRA.POLAR>
0

>  <SCORE.INTRA.POLAR.0>
0

>  <SCORE.INTRA.REPUL>
0

>  <SCORE.INTRA.REPUL.0>
0

>  <SCORE.INTRA.SOLV>
-1.92399

>  <SCORE.INTRA.SOLV.lig_0>
-57.5465

>  <SCORE.INTRA.VDW>
-2.48359

>  <SCORE.INTRA.VDW.0>
1.39369

>  <SCORE.INTRA.norm>
-0.467329

>  <SCORE.RESTR>
0.852791

>  <SCORE.RESTR.CAVITY>
0.852791

>  <SCORE.RESTR.norm>
0.0710659

>  <SCORE.SYSTEM>
0

>  <SCORE.SYSTEM.CONST>
0

>  <SCORE.SYSTEM.DIHEDRAL>
0

>  <SCORE.SYSTEM.SOLV>
0

>  <SCORE.SYSTEM.norm>
0

>  <SCORE.heavy>
12

>  <SCORE.norm>
-1.95181

>  <SYMMETRIC_BONDS>
4 1 2

>  <RMSD>
2.092

$$$$
1kod cryst
 OpenBabel11021811393D
libRbt.so/2013.1/901 2013/11/27
 12 11  0  0  0  0  0  0  0  0999 V2000
    1.8805    5.9400   35.8965 C   0  0  0  0  0  0  0  0  0  0  0  0
    0.7907    5.7490   36.4153 O   0  5  0  0  0  0  0  0  0  0  0  0
    2.9411    5.9069   36.5078 O   0  0  0  0  0  0  0  0  0  0  0  0
    1.9176    6.2369   34.3843 C   0  0  1  0  0  0  0  0  0  0  0  0
    3.1982    6.9305   34.0474 N   0  3  0  0  0  0  0  0  0  0  0  0
    1.8091    4.9286   33.5664 C   0  0  0  0  0  0  0  0  0  0  0  0
    3.0263    4.0447   33.8048 C   0  0  0  0  0  0  0  0  0  0  0  0
    2.7768    3.1316   35.0031 C   0  0  0  0  0  0  0  0  0  0  0  0
    1.6740    2.1779   34.6671 N   0  0  0  0  0  0  0  0  0  0  0  0
    1.7801    0.9092   34.9592 C   0  0  0  0  0  0  0  0  0  0  0  0
    1.6154    0.0503   34.0957 O   0  0  0  0  0  0  0  0  0  0  0  0
    2.0477    0.5461   36.1797 N   0  0  0  0  0  0  0  0  0  0  0  0
  1  2  1  0  0  0  0
  1  3  2  0  0  0  0
  4  1  1  1  0  0  0
  4  6  1  0  0  0  0
  4  5  1  0  0  0  0
  6  7  1  0  0  0  0
  7  8  1  0  0  0  0
  8  9  1  0  0  0  0
  9 10  1  0  0  0  0
 10 12  1  0  0  0  0
 10 11  2  0  0  0  0
M  CHG  2   2  -1   5   1
M  END
>  <CHROM.1>
158.76505802,-64.93680358,176.97354538,88.88126308,65.80076693,-44.82892099
2.13433432,3.88471366,34.97531672,1.24048699,1.29052945,0.33933562

>  <Name>
1kod cryst

>  <RI>
0

>  <Rbt.Current_Directory>
/home/itssahil/PROJECTS/Mol_Feturizer/New_Systems/rnas/1kod

>  <Rbt.Executable>
rbdock ($Id: //depot/dev/client3/rdock/2013.1/src/exe/rbdock.cxx#4 $)

>  <Rbt.Library>
libRbt.so (2013.1, Build901 2013/11/27)

>  <Rbt.Parameter_File>
/export/apps/rDock/src/rDock_2013.1_src/data/scripts/dock_solv.prm

>  <Rbt.Receptor>
prm/pocket_docking_7.prm

>  <SCORE>
-22.3715

>  <SCORE.INTER>
-19.937

>  <SCORE.INTER.CONST>
1

>  <SCORE.INTER.POLAR>
-3.49632

>  <SCORE.INTER.ROT>
5

>  <SCORE.INTER.SOLV>
9.10613

>  <SCORE.INTER.VDW>
-11.6057

>  <SCORE.INTER.norm>
-1.66142

>  <SCORE.INTRA>
-2.43448

>  <SCORE.INTRA.DIHEDRAL>
-2.42575

>  <SCORE.INTRA.DIHEDRAL.0>
7.7847

>  <SCORE.INTRA.POLAR>
0

>  <SCORE.INTRA.POLAR.0>
0

>  <SCORE.INTRA.REPUL>
0

>  <SCORE.INTRA.REPUL.0>
0

>  <SCORE.INTRA.SOLV>
0.846478

>  <SCORE.INTRA.SOLV.lig_0>
-57.5465

>  <SCORE.INTRA.VDW>
-1.64484

>  <SCORE.INTRA.VDW.0>
1.39369

>  <SCORE.INTRA.norm>
-0.202873

>  <SCORE.RESTR>
0

>  <SCORE.RESTR.CAVITY>
0

>  <SCORE.RESTR.norm>
0

>  <SCORE.SYSTEM>
0

>  <SCORE.SYSTEM.CONST>
0

>  <SCORE.SYSTEM.DIHEDRAL>
0

>  <SCORE.SYSTEM.SOLV>
0

>  <SCORE.SYSTEM.norm>
0

>  <SCORE.heavy>
12

>  <SCORE.norm>
-1.86429

>  <SYMMETRIC_BONDS>
4 1 2

>  <RMSD>
2.092

$$$$
1kod cryst
 OpenBabel11021811393D
libRbt.so/2013.1/901 2013/11/27
 12 11  0  0  0  0  0  0  0  0999 V2000
    2.0950    5.4445   35.8973 C   0  0  0  0  0  0  0  0  0  0  0  0
    1.3915    6.2498   36.4888 O   0  5  0  0  0  0  0  0  0  0  0  0
    3.2035    5.0955   36.2834 O   0  0  0  0  0  0  0  0  0  0  0  0
    1.5503    4.8334   34.5911 C   0  0  1  0  0  0  0  0  0  0  0  0
    2.0930    5.5944   33.4246 N   0  3  0  0  0  0  0  0  0  0  0  0
    1.9573    3.3460   34.4709 C   0  0  0  0  0  0  0  0  0  0  0  0
    1.5028    2.5649   35.6969 C   0  0  0  0  0  0  0  0  0  0  0  0
    1.9713    1.1154   35.5908 C   0  0  0  0  0  0  0  0  0  0  0  0
    1.1913    0.4294   34.5140 N   0  0  0  0  0  0  0  0  0  0  0  0
    1.3460    0.7684   33.2621 C   0  0  0  0  0  0  0  0  0  0  0  0
    0.3774    1.0741   32.5701 O   0  0  0  0  0  0  0  0  0  0  0  0
    2.5351    0.7689   32.7338 N   0  0  0  0  0  0  0  0  0  0  0  0
  1  2  1  0  0  0  0
  1  3  2  0  0  0  0
  4  1  1  1  0  0  0
  4  6  1  0  0  0  0
  4  5  1  0  0  0  0
  6  7  1  0  0  0  0
  7  8  1  0  0  0  0
  8  9  1  0  0  0  0
  9 10  1  0  0  0  0
 10 12  1  0  0  0  0
 10 11  2  0  0  0  0
M  CHG  2   2  -1   5   1
M  END
>  <CHROM.1>
96.63049329,55.32517686,-168.69742196,-177.30735918,-70.35646561,-112.32572237
1.78120680,3.13169392,34.59639525,-0.53107658,1.42788231,2.52215644

>  <Name>
1kod cryst

>  <RI>
0

>  <Rbt.Current_Directory>
/home/itssahil/PROJECTS/Mol_Feturizer/New_Systems/rnas/1kod

>  <Rbt.Executable>
rbdock ($Id: //depot/dev/client3/rdock/2013.1/src/exe/rbdock.cxx#4 $)

>  <Rbt.Library>
libRbt.so (2013.1, Build901 2013/11/27)

>  <Rbt.Parameter_File>
/export/apps/rDock/src/rDock_2013.1_src/data/scripts/dock_solv.prm

>  <Rbt.Receptor>
prm/pocket_docking_2.prm

>  <SCORE>
-18.6505

>  <SCORE.INTER>
-14.9483

>  <SCORE.INTER.CONST>
1

>  <SCORE.INTER.POLAR>
-2.86122

>  <SCORE.INTER.ROT>
5

>  <SCORE.INTER.SOLV>
17.6938

>  <SCORE.INTER.VDW>
-13.2594

>  <SCORE.INTER.norm>
-1.24569

>  <SCORE.INTRA>
-4.26099

>  <SCORE.INTRA.DIHEDRAL>
-4.73002

>  <SCORE.INTRA.DIHEDRAL.0>
7.7847

>  <SCORE.INTRA.POLAR>
0

>  <SCORE.INTRA.POLAR.0>
0

>  <SCORE.INTRA.REPUL>
0

>  <SCORE.INTRA.REPUL.0>
0

>  <SCORE.INTRA.SOLV>
-1.52124

>  <SCORE.INTRA.SOLV.lig_0>
-57.5465

>  <SCORE.INTRA.VDW>
-1.13536

>  <SCORE.INTRA.VDW.0>
1.39369

>  <SCORE.INTRA.norm>
-0.355083

>  <SCORE.RESTR>
0.558796

>  <SCORE.RESTR.CAVITY>
0.558796

>  <SCORE.RESTR.norm>
0.0465663

>  <SCORE.SYSTEM>
0

>  <SCORE.SYSTEM.CONST>
0

>  <SCORE.SYSTEM.DIHEDRAL>
0

>  <SCORE.SYSTEM.SOLV>
0

>  <SCORE.SYSTEM.norm>
0

>  <SCORE.heavy>
12

>  <SCORE.norm>
-1.55421

>  <SYMMETRIC_BONDS>
4 1 2

>  <RMSD>
2.093

$$$$
1kod cryst
 OpenBabel11021811393D
libRbt.so/2013.1/901 2013/11/27
 12 11  0  0  0  0  0  0  0  0999 V2000
    2.8548    6.3557   35.6688 C   0  0  0  0  0  0  0  0  0  0  0  0
    4.0577    6.5668   35.7116 O   0  5  0  0  0  0  0  0  0  0  0  0
    2.1542    6.2034   36.6616 O   0  0  0  0  0  0  0  0  0  0  0  0
    2.1844    6.2801   34.2827 C   0  0  1  0  0  0  0  0  0  0  0  0
    2.5180    7.5116   33.5038 N   0  3  0  0  0  0  0  0  0  0  0  0
    2.6688    5.0326   33.5073 C   0  0  0  0  0  0  0  0  0  0  0  0
    2.3058    3.7591   34.2599 C   0  0  0  0  0  0  0  0  0  0  0  0
    2.5149    2.5459   33.3564 C   0  0  0  0  0  0  0  0  0  0  0  0
    2.5863    1.3147   34.2036 N   0  0  0  0  0  0  0  0  0  0  0  0
    1.5107    0.6179   34.4559 C   0  0  0  0  0  0  0  0  0  0  0  0
    1.1952    0.3468   35.6124 O   0  0  0  0  0  0  0  0  0  0  0  0
    0.7708    0.1911   33.4743 N   0  0  0  0  0  0  0  0  0  0  0  0
  1  2  1  0  0  0  0
  1  3  2  0  0  0  0
  4  1  1  1  0  0  0
  4  6  1  0  0  0  0
  4  5  1  0  0  0  0
  6  7  1  0  0  0  0
  7  8  1  0  0  0  0
  8  9  1  0  0  0  0
  9 10  1  0  0  0  0
 10 12  1  0  0  0  0
 10 11  2  0  0  0  0
M  CHG  2   2  -1   5   1
M  END
>  <CHROM.1>
-53.27108650,61.00327812,58.52440280,167.89381272,162.01022120,-87.81709779
2.27779584,3.91208308,34.55909033,-0.06859945,1.34909499,1.74731210

>  <Name>
1kod cryst

>  <RI>
0

>  <Rbt.Current_Directory>
/home/itssahil/PROJECTS/Mol_Feturizer/New_Systems/rnas/1kod

>  <Rbt.Executable>
rbdock ($Id: //depot/dev/client3/rdock/2013.1/src/exe/rbdock.cxx#4 $)

>  <Rbt.Library>
libRbt.so (2013.1, Build901 2013/11/27)

>  <Rbt.Parameter_File>
/export/apps/rDock/src/rDock_2013.1_src/data/scripts/dock_solv.prm

>  <Rbt.Receptor>
prm/pocket_docking_8.prm

>  <SCORE>
-20.8812

>  <SCORE.INTER>
-15.3175

>  <SCORE.INTER.CONST>
1

>  <SCORE.INTER.POLAR>
-2.96166

>  <SCORE.INTER.ROT>
5

>  <SCORE.INTER.SOLV>
14.474

>  <SCORE.INTER.VDW>
-12.0975

>  <SCORE.INTER.norm>
-1.27646

>  <SCORE.INTRA>
-5.56367

>  <SCORE.INTRA.DIHEDRAL>
-3.7995

>  <SCORE.INTRA.DIHEDRAL.0>
7.7847

>  <SCORE.INTRA.POLAR>
0

>  <SCORE.INTRA.POLAR.0>
0

>  <SCORE.INTRA.REPUL>
0

>  <SCORE.INTRA.REPUL.0>
0

>  <SCORE.INTRA.SOLV>
-2.58466

>  <SCORE.INTRA.SOLV.lig_0>
-57.5465

>  <SCORE.INTRA.VDW>
-2.37159

>  <SCORE.INTRA.VDW.0>
1.39369

>  <SCORE.INTRA.norm>
-0.463639

>  <SCORE.RESTR>
0

>  <SCORE.RESTR.CAVITY>
0

>  <SCORE.RESTR.norm>
0

>  <SCORE.SYSTEM>
0

>  <SCORE.SYSTEM.CONST>
0

>  <SCORE.SYSTEM.DIHEDRAL>
0

>  <SCORE.SYSTEM.SOLV>
0

>  <SCORE.SYSTEM.norm>
0

>  <SCORE.heavy>
12

>  <SCORE.norm>
-1.7401

>  <SYMMETRIC_BONDS>
4 1 2

>  <RMSD>
2.095

$$$$
1kod cryst
 OpenBabel11021811393D
libRbt.so/2013.1/901 2013/11/27
 12 11  0  0  0  0  0  0  0  0999 V2000
    1.3066    5.1644   35.3893 C   0  0  0  0  0  0  0  0  0  0  0  0
    1.2936    6.3022   35.8351 O   0  5  0  0  0  0  0  0  0  0  0  0
    1.2876    4.1589   36.0880 O   0  0  0  0  0  0  0  0  0  0  0  0
    1.3465    4.9898   33.8583 C   0  0  1  0  0  0  0  0  0  0  0  0
    2.1714    6.0819   33.2570 N   0  3  0  0  0  0  0  0  0  0  0  0
    1.9518    3.6179   33.4791 C   0  0  0  0  0  0  0  0  0  0  0  0
    0.8500    2.5975   33.2247 C   0  0  0  0  0  0  0  0  0  0  0  0
    1.4666    1.2522   32.8482 C   0  0  0  0  0  0  0  0  0  0  0  0
    2.1766    0.6916   34.0399 N   0  0  0  0  0  0  0  0  0  0  0  0
    1.5232    0.4275   35.1397 C   0  0  0  0  0  0  0  0  0  0  0  0
    1.8958    0.8870   36.2170 O   0  0  0  0  0  0  0  0  0  0  0  0
    0.4748   -0.3422   35.1010 N   0  0  0  0  0  0  0  0  0  0  0  0
  1  2  1  0  0  0  0
  1  3  2  0  0  0  0
  4  1  1  1  0  0  0
  4  6  1  0  0  0  0
  4  5  1  0  0  0  0
  6  7  1  0  0  0  0
  7  8  1  0  0  0  0
  8  9  1  0  0  0  0
  9 10  1  0  0  0  0
 10 12  1  0  0  0  0
 10 11  2  0  0  0  0
M  CHG  2   2  -1   5   1
M  END
>  <CHROM.1>
35.06327594,96.45062105,-174.07876336,179.83661219,67.83304411,-119.21419577
1.49002082,3.00751011,34.55674797,1.18812809,1.44833562,0.35545433

>  <Name>
1kod cryst

>  <RI>
0

>  <Rbt.Current_Directory>
/home/itssahil/PROJECTS/Mol_Feturizer/New_Systems/rnas/1kod

>  <Rbt.Executable>
rbdock ($Id: //depot/dev/client3/rdock/2013.1/src/exe/rbdock.cxx#4 $)

>  <Rbt.Library>
libRbt.so (2013.1, Build901 2013/11/27)

>  <Rbt.Parameter_File>
/export/apps/rDock/src/rDock_2013.1_src/data/scripts/dock_solv.prm

>  <Rbt.Receptor>
prm/pocket_docking_4.prm

>  <SCORE>
-24.9083

>  <SCORE.INTER>
-21.5833

>  <SCORE.INTER.CONST>
1

>  <SCORE.INTER.POLAR>
-3.71838

>  <SCORE.INTER.ROT>
5

>  <SCORE.INTER.SOLV>
19.0117

>  <SCORE.INTER.VDW>
-15.2649

>  <SCORE.INTER.norm>
-1.79861

>  <SCORE.INTRA>
-3.32495

>  <SCORE.INTRA.DIHEDRAL>
-1.81615

>  <SCORE.INTRA.DIHEDRAL.0>
7.7847

>  <SCORE.INTRA.POLAR>
0

>  <SCORE.INTRA.POLAR.0>
0

>  <SCORE.INTRA.REPUL>
0

>  <SCORE.INTRA.REPUL.0>
0

>  <SCORE.INTRA.SOLV>
-0.914605

>  <SCORE.INTRA.SOLV.lig_0>
-57.5465

>  <SCORE.INTRA.VDW>
-1.95957

>  <SCORE.INTRA.VDW.0>
1.39369

>  <SCORE.INTRA.norm>
-0.277079

>  <SCORE.RESTR>
0

>  <SCORE.RESTR.CAVITY>
0

>  <SCORE.RESTR.norm>
0

>  <SCORE.SYSTEM>
0

>  <SCORE.SYSTEM.CONST>
0

>  <SCORE.SYSTEM.DIHEDRAL>
0

>  <SCORE.SYSTEM.SOLV>
0

>  <SCORE.SYSTEM.norm>
0

>  <SCORE.heavy>
12

>  <SCORE.norm>
-2.07569

>  <SYMMETRIC_BONDS>
4 1 2

>  <RMSD>
2.100

$$$$
1kod cryst
 OpenBabel11021811393D
libRbt.so/2013.1/901 2013/11/27
 12 11  0  0  0  0  0  0  0  0999 V2000
    1.2298    5.1338   35.3835 C   0  0  0  0  0  0  0  0  0  0  0  0
    2.2671    5.0080   36.0172 O   0  5  0  0  0  0  0  0  0  0  0  0
    0.1451    5.3821   35.8948 O   0  0  0  0  0  0  0  0  0  0  0  0
    1.2959    4.9723   33.8519 C   0  0  1  0  0  0  0  0  0  0  0  0
    2.1350    6.0665   33.2746 N   0  3  0  0  0  0  0  0  0  0  0  0
    1.9029    3.6015   33.4714 C   0  0  0  0  0  0  0  0  0  0  0  0
    0.8022    2.5895   33.1815 C   0  0  0  0  0  0  0  0  0  0  0  0
    1.4204    1.2389   32.8272 C   0  0  0  0  0  0  0  0  0  0  0  0
    2.1187    0.6920   34.0322 N   0  0  0  0  0  0  0  0  0  0  0  0
    1.4459    0.3880   35.1096 C   0  0  0  0  0  0  0  0  0  0  0  0
    1.7692    0.8482   36.2024 O   0  0  0  0  0  0  0  0  0  0  0  0
    0.4311   -0.4228   35.0320 N   0  0  0  0  0  0  0  0  0  0  0  0
  1  2  1  0  0  0  0
  1  3  2  0  0  0  0
  4  1  1  1  0  0  0
  4  6  1  0  0  0  0
  4  5  1  0  0  0  0
  6  7  1  0  0  0  0
  7  8  1  0  0  0  0
  8  9  1  0  0  0  0
  9 10  1  0  0  0  0
 10 12  1  0  0  0  0
 10 11  2  0  0  0  0
M  CHG  2   2  -1   5   1
M  END
>  <CHROM.1>
-64.74439949,96.76402730,64.84451670,-179.21301697,66.25705729,-116.23163395
1.42497910,2.97957779,34.54054177,1.27551066,1.41992206,0.27814411

>  <Name>
1kod cryst

>  <RI>
0

>  <Rbt.Current_Directory>
/home/itssahil/PROJECTS/Mol_Feturizer/New_Systems/rnas/1kod

>  <Rbt.Executable>
rbdock ($Id: //depot/dev/client3/rdock/2013.1/src/exe/rbdock.cxx#4 $)

>  <Rbt.Library>
libRbt.so (2013.1, Build901 2013/11/27)

>  <Rbt.Parameter_File>
/export/apps/rDock/src/rDock_2013.1_src/data/scripts/dock_solv.prm

>  <Rbt.Receptor>
prm/pocket_docking_2.prm

>  <SCORE>
-25.2194

>  <SCORE.INTER>
-21.4024

>  <SCORE.INTER.CONST>
1

>  <SCORE.INTER.POLAR>
-3.64562

>  <SCORE.INTER.ROT>
5

>  <SCORE.INTER.SOLV>
19.6143

>  <SCORE.INTER.VDW>
-15.5876

>  <SCORE.INTER.norm>
-1.78353

>  <SCORE.INTRA>
-4.63743

>  <SCORE.INTRA.DIHEDRAL>
-1.88304

>  <SCORE.INTRA.DIHEDRAL.0>
7.7847

>  <SCORE.INTRA.POLAR>
0

>  <SCORE.INTRA.POLAR.0>
0

>  <SCORE.INTRA.REPUL>
0

>  <SCORE.INTRA.REPUL.0>
0

>  <SCORE.INTRA.SOLV>
-2.30985

>  <SCORE.INTRA.SOLV.lig_0>
-57.5465

>  <SCORE.INTRA.VDW>
-2.54099

>  <SCORE.INTRA.VDW.0>
1.39369

>  <SCORE.INTRA.norm>
-0.386452

>  <SCORE.RESTR>
0.820353

>  <SCORE.RESTR.CAVITY>
0.820353

>  <SCORE.RESTR.norm>
0.0683627

>  <SCORE.SYSTEM>
0

>  <SCORE.SYSTEM.CONST>
0

>  <SCORE.SYSTEM.DIHEDRAL>
0

>  <SCORE.SYSTEM.SOLV>
0

>  <SCORE.SYSTEM.norm>
0

>  <SCORE.heavy>
12

>  <SCORE.norm>
-2.10162

>  <SYMMETRIC_BONDS>
4 1 2

>  <RMSD>
2.105

$$$$
1kod cryst
 OpenBabel11021811393D
libRbt.so/2013.1/901 2013/11/27
 12 11  0  0  0  0  0  0  0  0999 V2000
    2.8510    6.3728   35.5063 C   0  0  0  0  0  0  0  0  0  0  0  0
    2.5212    7.0047   36.4990 O   0  5  0  0  0  0  0  0  0  0  0  0
    3.8288    5.6368   35.4611 O   0  0  0  0  0  0  0  0  0  0  0  0
    1.9814    6.5111   34.2411 C   0  0  1  0  0  0  0  0  0  0  0  0
    2.5557    7.5731   33.3596 N   0  3  0  0  0  0  0  0  0  0  0  0
    1.9243    5.1735   33.4667 C   0  0  0  0  0  0  0  0  0  0  0  0
    0.6482    4.4131   33.8034 C   0  0  0  0  0  0  0  0  0  0  0  0
    0.7125    3.0061   33.2133 C   0  0  0  0  0  0  0  0  0  0  0  0
    1.4511    2.1142   34.1607 N   0  0  0  0  0  0  0  0  0  0  0  0
    1.8635    0.9351   33.7791 C   0  0  0  0  0  0  0  0  0  0  0  0
    1.5716   -0.0707   34.4224 O   0  0  0  0  0  0  0  0  0  0  0  0
    2.6043    0.8212   32.7154 N   0  0  0  0  0  0  0  0  0  0  0  0
  1  2  1  0  0  0  0
  1  3  2  0  0  0  0
  4  1  1  1  0  0  0
  4  6  1  0  0  0  0
  4  5  1  0  0  0  0
  6  7  1  0  0  0  0
  7  8  1  0  0  0  0
  8  9  1  0  0  0  0
  9 10  1  0  0  0  0
 10 12  1  0  0  0  0
 10 11  2  0  0  0  0
M  CHG  2   2  -1   5   1
M  END
>  <CHROM.1>
94.14860989,97.99159471,-163.58399853,-170.87368440,84.42451315,13.21093853
2.07455369,4.13912932,34.21615852,-1.25057289,1.08740172,3.06110521

>  <Name>
1kod cryst

>  <RI>
0

>  <Rbt.Current_Directory>
/home/itssahil/PROJECTS/Mol_Feturizer/New_Systems/rnas/1kod

>  <Rbt.Executable>
rbdock ($Id: //depot/dev/client3/rdock/2013.1/src/exe/rbdock.cxx#4 $)

>  <Rbt.Library>
libRbt.so (2013.1, Build901 2013/11/27)

>  <Rbt.Parameter_File>
/export/apps/rDock/src/rDock_2013.1_src/data/scripts/dock_solv.prm

>  <Rbt.Receptor>
prm/pocket_docking_3.prm

>  <SCORE>
-23.0501

>  <SCORE.INTER>
-20.4836

>  <SCORE.INTER.CONST>
1

>  <SCORE.INTER.POLAR>
-3.48109

>  <SCORE.INTER.ROT>
5

>  <SCORE.INTER.SOLV>
15.9718

>  <SCORE.INTER.VDW>
-14.3094

>  <SCORE.INTER.norm>
-1.70697

>  <SCORE.INTRA>
-3.02364

>  <SCORE.INTRA.DIHEDRAL>
0.996526

>  <SCORE.INTRA.DIHEDRAL.0>
7.7847

>  <SCORE.INTRA.POLAR>
0

>  <SCORE.INTRA.POLAR.0>
0

>  <SCORE.INTRA.REPUL>
0

>  <SCORE.INTRA.REPUL.0>
0

>  <SCORE.INTRA.SOLV>
-2.86207

>  <SCORE.INTRA.SOLV.lig_0>
-57.5465

>  <SCORE.INTRA.VDW>
-2.09087

>  <SCORE.INTRA.VDW.0>
1.39369

>  <SCORE.INTRA.norm>
-0.25197

>  <SCORE.RESTR>
0.457118

>  <SCORE.RESTR.CAVITY>
0.457118

>  <SCORE.RESTR.norm>
0.0380932

>  <SCORE.SYSTEM>
0

>  <SCORE.SYSTEM.CONST>
0

>  <SCORE.SYSTEM.DIHEDRAL>
0

>  <SCORE.SYSTEM.SOLV>
0

>  <SCORE.SYSTEM.norm>
0

>  <SCORE.heavy>
12

>  <SCORE.norm>
-1.92084

>  <SYMMETRIC_BONDS>
4 1 2

>  <RMSD>
2.106

$$$$
1kod cryst
 OpenBabel11021811393D
libRbt.so/2013.1/901 2013/11/27
 12 11  0  0  0  0  0  0  0  0999 V2000
    1.7094    5.5812   35.5435 C   0  0  0  0  0  0  0  0  0  0  0  0
    0.8622    5.6809   36.4185 O   0  5  0  0  0  0  0  0  0  0  0  0
    2.9062    5.4479   35.7661 O   0  0  0  0  0  0  0  0  0  0  0  0
    1.2394    5.6235   34.0760 C   0  0  1  0  0  0  0  0  0  0  0  0
    2.3494    6.1354   33.2154 N   0  3  0  0  0  0  0  0  0  0  0  0
    0.8209    4.2147   33.5940 C   0  0  0  0  0  0  0  0  0  0  0  0
    1.9681    3.2272   33.7637 C   0  0  0  0  0  0  0  0  0  0  0  0
    1.4717    1.8067   33.5036 C   0  0  0  0  0  0  0  0  0  0  0  0
    2.4237    0.8363   34.1286 N   0  0  0  0  0  0  0  0  0  0  0  0
    2.2509    0.4340   35.3591 C   0  0  0  0  0  0  0  0  0  0  0  0
    3.1587    0.5247   36.1827 O   0  0  0  0  0  0  0  0  0  0  0  0
    1.1118   -0.0831   35.7172 N   0  0  0  0  0  0  0  0  0  0  0  0
  1  2  1  0  0  0  0
  1  3  2  0  0  0  0
  4  1  1  1  0  0  0
  4  6  1  0  0  0  0
  4  5  1  0  0  0  0
  6  7  1  0  0  0  0
  7  8  1  0  0  0  0
  8  9  1  0  0  0  0
  9 10  1  0  0  0  0
 10 12  1  0  0  0  0
 10 11  2  0  0  0  0
M  CHG  2   2  -1   5   1
M  END
>  <CHROM.1>
153.16716577,-56.88486222,-63.45963100,170.70155284,-160.00827687,-89.76739242
1.87895440,3.29331136,34.78200992,-2.19514128,1.46186334,-2.62339562

>  <Name>
1kod cryst

>  <RI>
0

>  <Rbt.Current_Directory>
/home/itssahil/PROJECTS/Mol_Feturizer/New_Systems/rnas/1kod

>  <Rbt.Executable>
rbdock ($Id: //depot/dev/client3/rdock/2013.1/src/exe/rbdock.cxx#4 $)

>  <Rbt.Library>
libRbt.so (2013.1, Build901 2013/11/27)

>  <Rbt.Parameter_File>
/export/apps/rDock/src/rDock_2013.1_src/data/scripts/dock_solv.prm

>  <Rbt.Receptor>
prm/pocket_docking_5.prm

>  <SCORE>
-24.9353

>  <SCORE.INTER>
-20.4456

>  <SCORE.INTER.CONST>
1

>  <SCORE.INTER.POLAR>
-3.53921

>  <SCORE.INTER.ROT>
5

>  <SCORE.INTER.SOLV>
17.4998

>  <SCORE.INTER.VDW>
-14.5996

>  <SCORE.INTER.norm>
-1.7038

>  <SCORE.INTRA>
-4.48973

>  <SCORE.INTRA.DIHEDRAL>
-3.7438

>  <SCORE.INTRA.DIHEDRAL.0>
7.7847

>  <SCORE.INTRA.POLAR>
0

>  <SCORE.INTRA.POLAR.0>
0

>  <SCORE.INTRA.REPUL>
0

>  <SCORE.INTRA.REPUL.0>
0

>  <SCORE.INTRA.SOLV>
-1.12084

>  <SCORE.INTRA.SOLV.lig_0>
-57.5465

>  <SCORE.INTRA.VDW>
-2.05741

>  <SCORE.INTRA.VDW.0>
1.39369

>  <SCORE.INTRA.norm>
-0.374144

>  <SCORE.RESTR>
0

>  <SCORE.RESTR.CAVITY>
0

>  <SCORE.RESTR.norm>
0

>  <SCORE.SYSTEM>
0

>  <SCORE.SYSTEM.CONST>
0

>  <SCORE.SYSTEM.DIHEDRAL>
0

>  <SCORE.SYSTEM.SOLV>
0

>  <SCORE.SYSTEM.norm>
0

>  <SCORE.heavy>
12

>  <SCORE.norm>
-2.07794

>  <SYMMETRIC_BONDS>
4 1 2

>  <RMSD>
2.106

$$$$
1kod cryst
 OpenBabel11021811393D
libRbt.so/2013.1/901 2013/11/27
 12 11  0  0  0  0  0  0  0  0999 V2000
    3.1441    6.4835   35.4487 C   0  0  0  0  0  0  0  0  0  0  0  0
    2.6602    6.4221   36.5691 O   0  5  0  0  0  0  0  0  0  0  0  0
    4.0419    7.2554   35.1358 O   0  0  0  0  0  0  0  0  0  0  0  0
    2.5910    5.5305   34.3707 C   0  0  1  0  0  0  0  0  0  0  0  0
    2.2094    6.3204   33.1604 N   0  3  0  0  0  0  0  0  0  0  0  0
    3.6481    4.4703   33.9823 C   0  0  0  0  0  0  0  0  0  0  0  0
    3.1139    3.0653   34.2280 C   0  0  0  0  0  0  0  0  0  0  0  0
    1.8457    2.8423   33.4072 C   0  0  0  0  0  0  0  0  0  0  0  0
    1.9065    1.4870   32.7760 N   0  0  0  0  0  0  0  0  0  0  0  0
    0.8925    0.6680   32.8608 C   0  0  0  0  0  0  0  0  0  0  0  0
    1.0429   -0.4755   33.2853 O   0  0  0  0  0  0  0  0  0  0  0  0
   -0.2885    1.0581   32.4783 N   0  0  0  0  0  0  0  0  0  0  0  0
  1  2  1  0  0  0  0
  1  3  2  0  0  0  0
  4  1  1  1  0  0  0
  4  6  1  0  0  0  0
  4  5  1  0  0  0  0
  6  7  1  0  0  0  0
  7  8  1  0  0  0  0
  8  9  1  0  0  0  0
  9 10  1  0  0  0  0
 10 12  1  0  0  0  0
 10 11  2  0  0  0  0
M  CHG  2   2  -1   5   1
M  END
>  <CHROM.1>
127.95459974,121.60157272,-53.81217390,59.11271356,136.27987571,-48.84161459
2.21564189,3.77975029,33.95626262,-0.97299705,0.91023063,3.00853517

>  <Name>
1kod cryst

>  <RI>
0

>  <Rbt.Current_Directory>
/home/itssahil/PROJECTS/Mol_Feturizer/New_Systems/rnas/1kod

>  <Rbt.Executable>
rbdock ($Id: //depot/dev/client3/rdock/2013.1/src/exe/rbdock.cxx#4 $)

>  <Rbt.Library>
libRbt.so (2013.1, Build901 2013/11/27)

>  <Rbt.Parameter_File>
/export/apps/rDock/src/rDock_2013.1_src/data/scripts/dock_solv.prm

>  <Rbt.Receptor>
prm/pocket_docking_7.prm

>  <SCORE>
-23.8016

>  <SCORE.INTER>
-22.7943

>  <SCORE.INTER.CONST>
1

>  <SCORE.INTER.POLAR>
-4.41145

>  <SCORE.INTER.ROT>
5

>  <SCORE.INTER.SOLV>
19.7202

>  <SCORE.INTER.VDW>
-13.9981

>  <SCORE.INTER.norm>
-1.89953

>  <SCORE.INTRA>
-1.00724

>  <SCORE.INTRA.DIHEDRAL>
4.25329

>  <SCORE.INTRA.DIHEDRAL.0>
7.7847

>  <SCORE.INTRA.POLAR>
0

>  <SCORE.INTRA.POLAR.0>
0

>  <SCORE.INTRA.REPUL>
0

>  <SCORE.INTRA.REPUL.0>
0

>  <SCORE.INTRA.SOLV>
-2.29267

>  <SCORE.INTRA.SOLV.lig_0>
-57.5465

>  <SCORE.INTRA.VDW>
-1.98754

>  <SCORE.INTRA.VDW.0>
1.39369

>  <SCORE.INTRA.norm>
-0.0839363

>  <SCORE.RESTR>
0

>  <SCORE.RESTR.CAVITY>
0

>  <SCORE.RESTR.norm>
0

>  <SCORE.SYSTEM>
0

>  <SCORE.SYSTEM.CONST>
0

>  <SCORE.SYSTEM.DIHEDRAL>
0

>  <SCORE.SYSTEM.SOLV>
0

>  <SCORE.SYSTEM.norm>
0

>  <SCORE.heavy>
12

>  <SCORE.norm>
-1.98346

>  <SYMMETRIC_BONDS>
4 1 2

>  <RMSD>
2.119

$$$$
1kod cryst
 OpenBabel11021811393D
libRbt.so/2013.1/901 2013/11/27
 12 11  0  0  0  0  0  0  0  0999 V2000
    3.5005    5.4013   35.2060 C   0  0  0  0  0  0  0  0  0  0  0  0
    3.3783    5.2390   36.4110 O   0  5  0  0  0  0  0  0  0  0  0  0
    4.5734    5.3533   34.6175 O   0  0  0  0  0  0  0  0  0  0  0  0
    2.2273    5.6797   34.3827 C   0  0  1  0  0  0  0  0  0  0  0  0
    2.4541    6.8707   33.5082 N   0  3  0  0  0  0  0  0  0  0  0  0
    1.8636    4.4582   33.5064 C   0  0  0  0  0  0  0  0  0  0  0  0
    1.5038    3.2616   34.3773 C   0  0  0  0  0  0  0  0  0  0  0  0
    1.4502    1.9968   33.5234 C   0  0  0  0  0  0  0  0  0  0  0  0
    2.1959    0.9049   34.2236 N   0  0  0  0  0  0  0  0  0  0  0  0
    1.6547    0.2677   35.2272 C   0  0  0  0  0  0  0  0  0  0  0  0
    2.2419    0.1764   36.3030 O   0  0  0  0  0  0  0  0  0  0  0  0
    0.4880   -0.2910   35.0859 N   0  0  0  0  0  0  0  0  0  0  0  0
  1  2  1  0  0  0  0
  1  3  2  0  0  0  0
  4  1  1  6  0  0  0
  4  6  1  0  0  0  0
  4  5  1  0  0  0  0
  6  7  1  0  0  0  0
  7  8  1  0  0  0  0
  8  9  1  0  0  0  0
  9 10  1  0  0  0  0
 10 12  1  0  0  0  0
 10 11  2  0  0  0  0
M  CHG  2   2  -1   5   1
M  END
>  <CHROM.1>
130.61976412,64.50162368,70.12695285,-167.55340873,133.54454084,-102.54676118
2.30808933,3.29177650,34.69961982,-1.13390082,0.84891116,2.69456158

>  <Name>
1kod cryst

>  <RI>
0

>  <Rbt.Current_Directory>
/home/itssahil/PROJECTS/Mol_Feturizer/New_Systems/rnas/1kod

>  <Rbt.Executable>
rbdock ($Id: //depot/dev/client3/rdock/2013.1/src/exe/rbdock.cxx#4 $)

>  <Rbt.Library>
libRbt.so (2013.1, Build901 2013/11/27)

>  <Rbt.Parameter_File>
/export/apps/rDock/src/rDock_2013.1_src/data/scripts/dock_solv.prm

>  <Rbt.Receptor>
prm/pocket_docking_6.prm

>  <SCORE>
-23.2987

>  <SCORE.INTER>
-19.7512

>  <SCORE.INTER.CONST>
1

>  <SCORE.INTER.POLAR>
-3.6951

>  <SCORE.INTER.ROT>
5

>  <SCORE.INTER.SOLV>
16.5385

>  <SCORE.INTER.VDW>
-13.2967

>  <SCORE.INTER.norm>
-1.64594

>  <SCORE.INTRA>
-3.54746

>  <SCORE.INTRA.DIHEDRAL>
0.256998

>  <SCORE.INTRA.DIHEDRAL.0>
7.7847

>  <SCORE.INTRA.POLAR>
0

>  <SCORE.INTRA.POLAR.0>
0

>  <SCORE.INTRA.REPUL>
0

>  <SCORE.INTRA.REPUL.0>
0

>  <SCORE.INTRA.SOLV>
-2.46244

>  <SCORE.INTRA.SOLV.lig_0>
-57.5465

>  <SCORE.INTRA.VDW>
-2.44474

>  <SCORE.INTRA.VDW.0>
1.39369

>  <SCORE.INTRA.norm>
-0.295622

>  <SCORE.RESTR>
0

>  <SCORE.RESTR.CAVITY>
0

>  <SCORE.RESTR.norm>
0

>  <SCORE.SYSTEM>
0

>  <SCORE.SYSTEM.CONST>
0

>  <SCORE.SYSTEM.DIHEDRAL>
0

>  <SCORE.SYSTEM.SOLV>
0

>  <SCORE.SYSTEM.norm>
0

>  <SCORE.heavy>
12

>  <SCORE.norm>
-1.94156

>  <SYMMETRIC_BONDS>
4 1 2

>  <RMSD>
2.120

$$$$
1kod cryst
 OpenBabel11021811393D
libRbt.so/2013.1/901 2013/11/27
 12 11  0  0  0  0  0  0  0  0999 V2000
    2.4088    6.7187   35.7595 C   0  0  0  0  0  0  0  0  0  0  0  0
    3.4770    7.2552   36.0135 O   0  5  0  0  0  0  0  0  0  0  0  0
    1.5679    6.4410   36.6053 O   0  0  0  0  0  0  0  0  0  0  0  0
    2.1055    6.3759   34.2875 C   0  0  1  0  0  0  0  0  0  0  0  0
    2.3653    7.5767   33.4360 N   0  3  0  0  0  0  0  0  0  0  0  0
    2.9887    5.2012   33.8055 C   0  0  0  0  0  0  0  0  0  0  0  0
    2.5691    3.9023   34.4815 C   0  0  0  0  0  0  0  0  0  0  0  0
    1.4144    3.2665   33.7105 C   0  0  0  0  0  0  0  0  0  0  0  0
    1.8838    1.9827   33.1021 N   0  0  0  0  0  0  0  0  0  0  0  0
    1.0940    0.9437   33.0501 C   0  0  0  0  0  0  0  0  0  0  0  0
    1.4549   -0.1423   33.4984 O   0  0  0  0  0  0  0  0  0  0  0  0
   -0.0825    1.0515   32.5048 N   0  0  0  0  0  0  0  0  0  0  0  0
  1  2  1  0  0  0  0
  1  3  2  0  0  0  0
  4  1  1  1  0  0  0
  4  6  1  0  0  0  0
  4  5  1  0  0  0  0
  6  7  1  0  0  0  0
  7  8  1  0  0  0  0
  8  9  1  0  0  0  0
  9 10  1  0  0  0  0
 10 12  1  0  0  0  0
 10 11  2  0  0  0  0
M  CHG  2   2  -1   5   1
M  END
>  <CHROM.1>
-49.53628294,69.63504148,-60.57079666,84.93916889,113.48195879,-37.83302196
1.93346675,4.23485863,34.17626132,-0.15914470,1.33297406,2.07605448

>  <Name>
1kod cryst

>  <RI>
0

>  <Rbt.Current_Directory>
/home/itssahil/PROJECTS/Mol_Feturizer/New_Systems/rnas/1kod

>  <Rbt.Executable>
rbdock ($Id: //depot/dev/client3/rdock/2013.1/src/exe/rbdock.cxx#4 $)

>  <Rbt.Library>
libRbt.so (2013.1, Build901 2013/11/27)

>  <Rbt.Parameter_File>
/export/apps/rDock/src/rDock_2013.1_src/data/scripts/dock_solv.prm

>  <Rbt.Receptor>
prm/pocket_docking_5.prm

>  <SCORE>
-24.9618

>  <SCORE.INTER>
-22.5208

>  <SCORE.INTER.CONST>
1

>  <SCORE.INTER.POLAR>
-3.79961

>  <SCORE.INTER.ROT>
5

>  <SCORE.INTER.SOLV>
17.4015

>  <SCORE.INTER.VDW>
-15.0823

>  <SCORE.INTER.norm>
-1.87673

>  <SCORE.INTRA>
-2.44103

>  <SCORE.INTRA.DIHEDRAL>
2.39823

>  <SCORE.INTRA.DIHEDRAL.0>
7.7847

>  <SCORE.INTRA.POLAR>
0

>  <SCORE.INTRA.POLAR.0>
0

>  <SCORE.INTRA.REPUL>
0

>  <SCORE.INTRA.REPUL.0>
0

>  <SCORE.INTRA.SOLV>
-2.47389

>  <SCORE.INTRA.SOLV.lig_0>
-57.5465

>  <SCORE.INTRA.VDW>
-2.4032

>  <SCORE.INTRA.VDW.0>
1.39369

>  <SCORE.INTRA.norm>
-0.203419

>  <SCORE.RESTR>
0

>  <SCORE.RESTR.CAVITY>
0

>  <SCORE.RESTR.norm>
0

>  <SCORE.SYSTEM>
0

>  <SCORE.SYSTEM.CONST>
0

>  <SCORE.SYSTEM.DIHEDRAL>
0

>  <SCORE.SYSTEM.SOLV>
0

>  <SCORE.SYSTEM.norm>
0

>  <SCORE.heavy>
12

>  <SCORE.norm>
-2.08015

>  <SYMMETRIC_BONDS>
4 1 2

>  <RMSD>
2.124

$$$$
1kod cryst
 OpenBabel11021811393D
libRbt.so/2013.1/901 2013/11/27
 12 11  0  0  0  0  0  0  0  0999 V2000
    1.5017    5.2842   35.4230 C   0  0  0  0  0  0  0  0  0  0  0  0
    2.5542    5.6868   35.8960 O   0  5  0  0  0  0  0  0  0  0  0  0
    0.5125    5.0153   36.0929 O   0  0  0  0  0  0  0  0  0  0  0  0
    1.4184    5.1088   33.8937 C   0  0  1  0  0  0  0  0  0  0  0  0
    2.1966    6.1975   33.2276 N   0  3  0  0  0  0  0  0  0  0  0  0
    1.9862    3.7345   33.4683 C   0  0  0  0  0  0  0  0  0  0  0  0
    0.8719    2.7007   33.3712 C   0  0  0  0  0  0  0  0  0  0  0  0
    1.4466    1.3605   32.9181 C   0  0  0  0  0  0  0  0  0  0  0  0
    2.1734    0.7301   34.0640 N   0  0  0  0  0  0  0  0  0  0  0  0
    1.5425    0.4317   35.1681 C   0  0  0  0  0  0  0  0  0  0  0  0
    1.9540    0.8331   36.2545 O   0  0  0  0  0  0  0  0  0  0  0  0
    0.4750   -0.3110   35.1233 N   0  0  0  0  0  0  0  0  0  0  0  0
  1  2  1  0  0  0  0
  1  3  2  0  0  0  0
  4  1  1  1  0  0  0
  4  6  1  0  0  0  0
  4  5  1  0  0  0  0
  6  7  1  0  0  0  0
  7  8  1  0  0  0  0
  8  9  1  0  0  0  0
  9 10  1  0  0  0  0
 10 12  1  0  0  0  0
 10 11  2  0  0  0  0
M  CHG  2   2  -1   5   1
M  END
>  <CHROM.1>
-36.45658355,93.62744459,-59.98970614,178.65366948,75.10736382,-119.26094265
1.56451052,3.08559676,34.59031117,0.75177843,1.45219066,0.78235008

>  <Name>
1kod cryst

>  <RI>
0

>  <Rbt.Current_Directory>
/home/itssahil/PROJECTS/Mol_Feturizer/New_Systems/rnas/1kod

>  <Rbt.Executable>
rbdock ($Id: //depot/dev/client3/rdock/2013.1/src/exe/rbdock.cxx#4 $)

>  <Rbt.Library>
libRbt.so (2013.1, Build901 2013/11/27)

>  <Rbt.Parameter_File>
/export/apps/rDock/src/rDock_2013.1_src/data/scripts/dock_solv.prm

>  <Rbt.Receptor>
prm/pocket_docking_3.prm

>  <SCORE>
-25.8824

>  <SCORE.INTER>
-21.2809

>  <SCORE.INTER.CONST>
1

>  <SCORE.INTER.POLAR>
-3.77103

>  <SCORE.INTER.ROT>
5

>  <SCORE.INTER.SOLV>
18.8166

>  <SCORE.INTER.VDW>
-14.8227

>  <SCORE.INTER.norm>
-1.77341

>  <SCORE.INTRA>
-4.60149

>  <SCORE.INTRA.DIHEDRAL>
-1.6662

>  <SCORE.INTRA.DIHEDRAL.0>
7.7847

>  <SCORE.INTRA.POLAR>
0

>  <SCORE.INTRA.POLAR.0>
0

>  <SCORE.INTRA.REPUL>
0

>  <SCORE.INTRA.REPUL.0>
0

>  <SCORE.INTRA.SOLV>
-2.24918

>  <SCORE.INTRA.SOLV.lig_0>
-57.5465

>  <SCORE.INTRA.VDW>
-2.6438

>  <SCORE.INTRA.VDW.0>
1.39369

>  <SCORE.INTRA.norm>
-0.383458

>  <SCORE.RESTR>
0

>  <SCORE.RESTR.CAVITY>
0

>  <SCORE.RESTR.norm>
0

>  <SCORE.SYSTEM>
0

>  <SCORE.SYSTEM.CONST>
0

>  <SCORE.SYSTEM.DIHEDRAL>
0

>  <SCORE.SYSTEM.SOLV>
0

>  <SCORE.SYSTEM.norm>
0

>  <SCORE.heavy>
12

>  <SCORE.norm>
-2.15687

>  <SYMMETRIC_BONDS>
4 1 2

>  <RMSD>
2.127

$$$$
1kod cryst
 OpenBabel11021811393D
libRbt.so/2013.1/901 2013/11/27
 12 11  0  0  0  0  0  0  0  0999 V2000
    3.1886    6.6100   36.4398 C   0  0  0  0  0  0  0  0  0  0  0  0
    2.5326    7.2489   37.2490 O   0  5  0  0  0  0  0  0  0  0  0  0
    4.2638    6.0837   36.6982 O   0  0  0  0  0  0  0  0  0  0  0  0
    2.6249    6.4581   35.0131 C   0  0  1  0  0  0  0  0  0  0  0  0
    3.6873    6.8077   34.0213 N   0  3  0  0  0  0  0  0  0  0  0  0
    2.1448    5.0089   34.7652 C   0  0  0  0  0  0  0  0  0  0  0  0
    1.3463    4.9225   33.4711 C   0  0  0  0  0  0  0  0  0  0  0  0
    0.5623    3.6127   33.4325 C   0  0  0  0  0  0  0  0  0  0  0  0
    1.5036    2.4908   33.1261 N   0  0  0  0  0  0  0  0  0  0  0  0
    1.1006    1.2497   33.1852 C   0  0  0  0  0  0  0  0  0  0  0  0
    1.7084    0.4239   33.8629 O   0  0  0  0  0  0  0  0  0  0  0  0
    0.0537    0.8760   32.5088 N   0  0  0  0  0  0  0  0  0  0  0  0
  1  2  1  0  0  0  0
  1  3  2  0  0  0  0
  4  1  1  1  0  0  0
  4  6  1  0  0  0  0
  4  5  1  0  0  0  0
  6  7  1  0  0  0  0
  7  8  1  0  0  0  0
  8  9  1  0  0  0  0
  9 10  1  0  0  0  0
 10 12  1  0  0  0  0
 10 11  2  0  0  0  0
M  CHG  2   2  -1   5   1
M  END
>  <CHROM.1>
130.68593243,168.92148803,64.33006229,-164.31965033,-75.43886814,-7.67737983
2.08759891,4.31581468,34.47325834,-0.73425381,1.06287108,2.87479072

>  <Name>
1kod cryst

>  <RI>
0

>  <Rbt.Current_Directory>
/home/itssahil/PROJECTS/Mol_Feturizer/New_Systems/rnas/1kod

>  <Rbt.Executable>
rbdock ($Id: //depot/dev/client3/rdock/2013.1/src/exe/rbdock.cxx#4 $)

>  <Rbt.Library>
libRbt.so (2013.1, Build901 2013/11/27)

>  <Rbt.Parameter_File>
/export/apps/rDock/src/rDock_2013.1_src/data/scripts/dock_solv.prm

>  <Rbt.Receptor>
prm/pocket_docking_4.prm

>  <SCORE>
-23.7784

>  <SCORE.INTER>
-18.6544

>  <SCORE.INTER.CONST>
1

>  <SCORE.INTER.POLAR>
-2.92823

>  <SCORE.INTER.ROT>
5

>  <SCORE.INTER.SOLV>
11.6712

>  <SCORE.INTER.VDW>
-13.4992

>  <SCORE.INTER.norm>
-1.55454

>  <SCORE.INTRA>
-5.124

>  <SCORE.INTRA.DIHEDRAL>
-3.24529

>  <SCORE.INTRA.DIHEDRAL.0>
7.7847

>  <SCORE.INTRA.POLAR>
0

>  <SCORE.INTRA.POLAR.0>
0

>  <SCORE.INTRA.REPUL>
0

>  <SCORE.INTRA.REPUL.0>
0

>  <SCORE.INTRA.SOLV>
-2.42334

>  <SCORE.INTRA.SOLV.lig_0>
-57.5465

>  <SCORE.INTRA.VDW>
-2.28968

>  <SCORE.INTRA.VDW.0>
1.39369

>  <SCORE.INTRA.norm>
-0.427

>  <SCORE.RESTR>
0

>  <SCORE.RESTR.CAVITY>
0

>  <SCORE.RESTR.norm>
0

>  <SCORE.SYSTEM>
0

>  <SCORE.SYSTEM.CONST>
0

>  <SCORE.SYSTEM.DIHEDRAL>
0

>  <SCORE.SYSTEM.SOLV>
0

>  <SCORE.SYSTEM.norm>
0

>  <SCORE.heavy>
12

>  <SCORE.norm>
-1.98154

>  <SYMMETRIC_BONDS>
4 1 2

>  <RMSD>
2.143

$$$$
1kod cryst
 OpenBabel11021811393D
libRbt.so/2013.1/901 2013/11/27
 12 11  0  0  0  0  0  0  0  0999 V2000
    3.1725    6.3005   35.2855 C   0  0  0  0  0  0  0  0  0  0  0  0
    4.3392    6.2601   34.9245 O   0  5  0  0  0  0  0  0  0  0  0  0
    2.8125    6.1430   36.4454 O   0  0  0  0  0  0  0  0  0  0  0  0
    2.0951    6.5679   34.2159 C   0  0  1  0  0  0  0  0  0  0  0  0
    2.5617    7.6575   33.3051 N   0  3  0  0  0  0  0  0  0  0  0  0
    1.8140    5.2906   33.3903 C   0  0  0  0  0  0  0  0  0  0  0  0
    0.7853    4.4138   34.0923 C   0  0  0  0  0  0  0  0  0  0  0  0
    0.3360    3.2927   33.1580 C   0  0  0  0  0  0  0  0  0  0  0  0
    1.4336    2.2818   33.0477 N   0  0  0  0  0  0  0  0  0  0  0  0
    1.1719    1.0047   33.1287 C   0  0  0  0  0  0  0  0  0  0  0  0
    1.7709    0.2906   33.9298 O   0  0  0  0  0  0  0  0  0  0  0  0
    0.2789    0.4758   32.3438 N   0  0  0  0  0  0  0  0  0  0  0  0
  1  2  1  0  0  0  0
  1  3  2  0  0  0  0
  4  1  1  1  0  0  0
  4  6  1  0  0  0  0
  4  5  1  0  0  0  0
  6  7  1  0  0  0  0
  7  8  1  0  0  0  0
  8  9  1  0  0  0  0
  9 10  1  0  0  0  0
 10 12  1  0  0  0  0
 10 11  2  0  0  0  0
M  CHG  2   2  -1   5   1
M  END
>  <CHROM.1>
-43.09171792,85.26236398,-52.49846996,169.96218336,73.61598855,-45.23529160
1.90417181,4.17597454,33.92848533,-1.03933359,0.86977396,3.00392885

>  <Name>
1kod cryst

>  <RI>
0

>  <Rbt.Current_Directory>
/home/itssahil/PROJECTS/Mol_Feturizer/New_Systems/rnas/1kod

>  <Rbt.Executable>
rbdock ($Id: //depot/dev/client3/rdock/2013.1/src/exe/rbdock.cxx#4 $)

>  <Rbt.Library>
libRbt.so (2013.1, Build901 2013/11/27)

>  <Rbt.Parameter_File>
/export/apps/rDock/src/rDock_2013.1_src/data/scripts/dock_solv.prm

>  <Rbt.Receptor>
prm/pocket_docking_6.prm

>  <SCORE>
-29.0343

>  <SCORE.INTER>
-23.9552

>  <SCORE.INTER.CONST>
1

>  <SCORE.INTER.POLAR>
-3.62348

>  <SCORE.INTER.ROT>
5

>  <SCORE.INTER.SOLV>
17.6181

>  <SCORE.INTER.VDW>
-16.6979

>  <SCORE.INTER.norm>
-1.99627

>  <SCORE.INTRA>
-5.07912

>  <SCORE.INTRA.DIHEDRAL>
-2.38626

>  <SCORE.INTRA.DIHEDRAL.0>
7.7847

>  <SCORE.INTRA.POLAR>
0

>  <SCORE.INTRA.POLAR.0>
0

>  <SCORE.INTRA.REPUL>
0

>  <SCORE.INTRA.REPUL.0>
0

>  <SCORE.INTRA.SOLV>
-2.66629

>  <SCORE.INTRA.SOLV.lig_0>
-57.5465

>  <SCORE.INTRA.VDW>
-2.55284

>  <SCORE.INTRA.VDW.0>
1.39369

>  <SCORE.INTRA.norm>
-0.42326

>  <SCORE.RESTR>
0

>  <SCORE.RESTR.CAVITY>
0

>  <SCORE.RESTR.norm>
0

>  <SCORE.SYSTEM>
0

>  <SCORE.SYSTEM.CONST>
0

>  <SCORE.SYSTEM.DIHEDRAL>
0

>  <SCORE.SYSTEM.SOLV>
0

>  <SCORE.SYSTEM.norm>
0

>  <SCORE.heavy>
12

>  <SCORE.norm>
-2.41953

>  <SYMMETRIC_BONDS>
4 1 2

>  <RMSD>
2.144

$$$$
1kod cryst
 OpenBabel11021811393D
libRbt.so/2013.1/901 2013/11/27
 12 11  0  0  0  0  0  0  0  0999 V2000
    1.9476    7.0685   35.4923 C   0  0  0  0  0  0  0  0  0  0  0  0
    1.0126    7.2368   36.2609 O   0  5  0  0  0  0  0  0  0  0  0  0
    2.9690    7.7439   35.5038 O   0  0  0  0  0  0  0  0  0  0  0  0
    1.8311    5.9375   34.4513 C   0  0  1  0  0  0  0  0  0  0  0  0
    2.1569    6.4770   33.0958 N   0  3  0  0  0  0  0  0  0  0  0  0
    2.7975    4.7787   34.7911 C   0  0  0  0  0  0  0  0  0  0  0  0
    2.0465    3.4551   34.8540 C   0  0  0  0  0  0  0  0  0  0  0  0
    1.3798    3.1733   33.5094 C   0  0  0  0  0  0  0  0  0  0  0  0
    1.8634    1.8549   32.9931 N   0  0  0  0  0  0  0  0  0  0  0  0
    1.0862    0.8055   33.0179 C   0  0  0  0  0  0  0  0  0  0  0  0
    1.4611   -0.2413   33.5417 O   0  0  0  0  0  0  0  0  0  0  0  0
   -0.0927    0.8599   32.4698 N   0  0  0  0  0  0  0  0  0  0  0  0
  1  2  1  0  0  0  0
  1  3  2  0  0  0  0
  4  1  1  1  0  0  0
  4  6  1  0  0  0  0
  4  5  1  0  0  0  0
  6  7  1  0  0  0  0
  7  8  1  0  0  0  0
  8  9  1  0  0  0  0
  9 10  1  0  0  0  0
 10 12  1  0  0  0  0
 10 11  2  0  0  0  0
M  CHG  2   2  -1   5   1
M  END
>  <CHROM.1>
129.67879806,126.62848868,-53.53996511,59.45937118,122.78820758,-73.90756873
1.70174058,4.10966903,34.13893760,-0.09930448,1.40919124,2.00369417

>  <Name>
1kod cryst

>  <RI>
0

>  <Rbt.Current_Directory>
/home/itssahil/PROJECTS/Mol_Feturizer/New_Systems/rnas/1kod

>  <Rbt.Executable>
rbdock ($Id: //depot/dev/client3/rdock/2013.1/src/exe/rbdock.cxx#4 $)

>  <Rbt.Library>
libRbt.so (2013.1, Build901 2013/11/27)

>  <Rbt.Parameter_File>
/export/apps/rDock/src/rDock_2013.1_src/data/scripts/dock_solv.prm

>  <Rbt.Receptor>
prm/pocket_docking_2.prm

>  <SCORE>
-19.8927

>  <SCORE.INTER>
-20.5773

>  <SCORE.INTER.CONST>
1

>  <SCORE.INTER.POLAR>
-4.00442

>  <SCORE.INTER.ROT>
5

>  <SCORE.INTER.SOLV>
21.1067

>  <SCORE.INTER.VDW>
-14.339

>  <SCORE.INTER.norm>
-1.71478

>  <SCORE.INTRA>
-0.62169

>  <SCORE.INTRA.DIHEDRAL>
5.03102

>  <SCORE.INTRA.DIHEDRAL.0>
7.7847

>  <SCORE.INTRA.POLAR>
0

>  <SCORE.INTRA.POLAR.0>
0

>  <SCORE.INTRA.REPUL>
0

>  <SCORE.INTRA.REPUL.0>
0

>  <SCORE.INTRA.SOLV>
-2.0221

>  <SCORE.INTRA.SOLV.lig_0>
-57.5465

>  <SCORE.INTRA.VDW>
-2.12615

>  <SCORE.INTRA.VDW.0>
1.39369

>  <SCORE.INTRA.norm>
-0.0518075

>  <SCORE.RESTR>
1.30631

>  <SCORE.RESTR.CAVITY>
1.30631

>  <SCORE.RESTR.norm>
0.10886

>  <SCORE.SYSTEM>
0

>  <SCORE.SYSTEM.CONST>
0

>  <SCORE.SYSTEM.DIHEDRAL>
0

>  <SCORE.SYSTEM.SOLV>
0

>  <SCORE.SYSTEM.norm>
0

>  <SCORE.heavy>
12

>  <SCORE.norm>
-1.65772

>  <SYMMETRIC_BONDS>
4 1 2

>  <RMSD>
2.167

$$$$
1kod cryst
 OpenBabel11021811393D
libRbt.so/2013.1/901 2013/11/27
 12 11  0  0  0  0  0  0  0  0999 V2000
    3.8229    6.1224   35.0717 C   0  0  0  0  0  0  0  0  0  0  0  0
    3.7910    6.0476   36.2910 O   0  5  0  0  0  0  0  0  0  0  0  0
    4.8535    6.0672   34.4125 O   0  0  0  0  0  0  0  0  0  0  0  0
    2.4856    6.2936   34.3242 C   0  0  1  0  0  0  0  0  0  0  0  0
    2.5499    7.5180   33.4690 N   0  3  0  0  0  0  0  0  0  0  0  0
    2.1917    5.0605   33.4381 C   0  0  0  0  0  0  0  0  0  0  0  0
    2.3617    3.7742   34.2358 C   0  0  0  0  0  0  0  0  0  0  0  0
    2.3281    2.5724   33.2943 C   0  0  0  0  0  0  0  0  0  0  0  0
    2.4721    1.3193   34.0992 N   0  0  0  0  0  0  0  0  0  0  0  0
    1.4384    0.5551   34.3303 C   0  0  0  0  0  0  0  0  0  0  0  0
    1.1435    0.2280   35.4777 O   0  0  0  0  0  0  0  0  0  0  0  0
    0.7194    0.1206   33.3366 N   0  0  0  0  0  0  0  0  0  0  0  0
  1  2  1  0  0  0  0
  1  3  2  0  0  0  0
  4  1  1  6  0  0  0
  4  6  1  0  0  0  0
  4  5  1  0  0  0  0
  6  7  1  0  0  0  0
  7  8  1  0  0  0  0
  8  9  1  0  0  0  0
  9 10  1  0  0  0  0
 10 12  1  0  0  0  0
 10 11  2  0  0  0  0
M  CHG  2   2  -1   5   1
M  END
>  <CHROM.1>
124.07226549,49.43325947,63.33040520,-169.39691121,-179.00510795,-75.55724731
2.51811359,3.82237583,34.31003889,-0.98080774,0.93819972,2.70000730

>  <Name>
1kod cryst

>  <RI>
0

>  <Rbt.Current_Directory>
/home/itssahil/PROJECTS/Mol_Feturizer/New_Systems/rnas/1kod

>  <Rbt.Executable>
rbdock ($Id: //depot/dev/client3/rdock/2013.1/src/exe/rbdock.cxx#4 $)

>  <Rbt.Library>
libRbt.so (2013.1, Build901 2013/11/27)

>  <Rbt.Parameter_File>
/export/apps/rDock/src/rDock_2013.1_src/data/scripts/dock_solv.prm

>  <Rbt.Receptor>
prm/pocket_docking_7.prm

>  <SCORE>
-23.8038

>  <SCORE.INTER>
-18.2192

>  <SCORE.INTER.CONST>
1

>  <SCORE.INTER.POLAR>
-3.45193

>  <SCORE.INTER.ROT>
5

>  <SCORE.INTER.SOLV>
15.6478

>  <SCORE.INTER.VDW>
-12.789

>  <SCORE.INTER.norm>
-1.51826

>  <SCORE.INTRA>
-5.58458

>  <SCORE.INTRA.DIHEDRAL>
-4.6651

>  <SCORE.INTRA.DIHEDRAL.0>
7.7847

>  <SCORE.INTRA.POLAR>
0

>  <SCORE.INTRA.POLAR.0>
0

>  <SCORE.INTRA.REPUL>
0

>  <SCORE.INTRA.REPUL.0>
0

>  <SCORE.INTRA.SOLV>
-2.41426

>  <SCORE.INTRA.SOLV.lig_0>
-57.5465

>  <SCORE.INTRA.VDW>
-2.0449

>  <SCORE.INTRA.VDW.0>
1.39369

>  <SCORE.INTRA.norm>
-0.465382

>  <SCORE.RESTR>
0

>  <SCORE.RESTR.CAVITY>
0

>  <SCORE.RESTR.norm>
0

>  <SCORE.SYSTEM>
0

>  <SCORE.SYSTEM.CONST>
0

>  <SCORE.SYSTEM.DIHEDRAL>
0

>  <SCORE.SYSTEM.SOLV>
0

>  <SCORE.SYSTEM.norm>
0

>  <SCORE.heavy>
12

>  <SCORE.norm>
-1.98365

>  <SYMMETRIC_BONDS>
4 1 2

>  <RMSD>
2.167

$$$$
1kod cryst
 OpenBabel11021811393D
libRbt.so/2013.1/901 2013/11/27
 12 11  0  0  0  0  0  0  0  0999 V2000
    3.0626    6.7570   36.4184 C   0  0  0  0  0  0  0  0  0  0  0  0
    2.3931    7.4372   37.1816 O   0  5  0  0  0  0  0  0  0  0  0  0
    4.1220    6.2272   36.7292 O   0  0  0  0  0  0  0  0  0  0  0  0
    2.5379    6.5548   34.9831 C   0  0  1  0  0  0  0  0  0  0  0  0
    3.5959    6.9596   34.0077 N   0  3  0  0  0  0  0  0  0  0  0  0
    2.1543    5.0757   34.7435 C   0  0  0  0  0  0  0  0  0  0  0  0
    1.4038    4.9229   33.4269 C   0  0  0  0  0  0  0  0  0  0  0  0
    0.5996    3.6248   33.4366 C   0  0  0  0  0  0  0  0  0  0  0  0
    1.5138    2.4835   33.1197 N   0  0  0  0  0  0  0  0  0  0  0  0
    1.0857    1.2512   33.1838 C   0  0  0  0  0  0  0  0  0  0  0  0
    1.6839    0.4129   33.8547 O   0  0  0  0  0  0  0  0  0  0  0  0
    0.0236    0.8993   32.5196 N   0  0  0  0  0  0  0  0  0  0  0  0
  1  2  1  0  0  0  0
  1  3  2  0  0  0  0
  4  1  1  1  0  0  0
  4  6  1  0  0  0  0
  4  5  1  0  0  0  0
  6  7  1  0  0  0  0
  7  8  1  0  0  0  0
  8  9  1  0  0  0  0
  9 10  1  0  0  0  0
 10 12  1  0  0  0  0
 10 11  2  0  0  0  0
M  CHG  2   2  -1   5   1
M  END
>  <CHROM.1>
125.95216278,169.62658828,-58.03891777,-159.20487917,-80.17082728,-6.09695762
2.04104606,4.38530672,34.45960612,-0.69826603,1.11142924,2.80911295

>  <Name>
1kod cryst

>  <RI>
0

>  <Rbt.Current_Directory>
/home/itssahil/PROJECTS/Mol_Feturizer/New_Systems/rnas/1kod

>  <Rbt.Executable>
rbdock ($Id: //depot/dev/client3/rdock/2013.1/src/exe/rbdock.cxx#4 $)

>  <Rbt.Library>
libRbt.so (2013.1, Build901 2013/11/27)

>  <Rbt.Parameter_File>
/export/apps/rDock/src/rDock_2013.1_src/data/scripts/dock_solv.prm

>  <Rbt.Receptor>
prm/pocket_docking_7.prm

>  <SCORE>
-23.7003

>  <SCORE.INTER>
-19.1592

>  <SCORE.INTER.CONST>
1

>  <SCORE.INTER.POLAR>
-3.02235

>  <SCORE.INTER.ROT>
5

>  <SCORE.INTER.SOLV>
11.728

>  <SCORE.INTER.VDW>
-13.541

>  <SCORE.INTER.norm>
-1.5966

>  <SCORE.INTRA>
-4.54107

>  <SCORE.INTRA.DIHEDRAL>
-2.11717

>  <SCORE.INTRA.DIHEDRAL.0>
7.7847

>  <SCORE.INTRA.POLAR>
0

>  <SCORE.INTRA.POLAR.0>
0

>  <SCORE.INTRA.REPUL>
0

>  <SCORE.INTRA.REPUL.0>
0

>  <SCORE.INTRA.SOLV>
-2.45648

>  <SCORE.INTRA.SOLV.lig_0>
-57.5465

>  <SCORE.INTRA.VDW>
-2.25424

>  <SCORE.INTRA.VDW.0>
1.39369

>  <SCORE.INTRA.norm>
-0.378422

>  <SCORE.RESTR>
0

>  <SCORE.RESTR.CAVITY>
0

>  <SCORE.RESTR.norm>
0

>  <SCORE.SYSTEM>
0

>  <SCORE.SYSTEM.CONST>
0

>  <SCORE.SYSTEM.DIHEDRAL>
0

>  <SCORE.SYSTEM.SOLV>
0

>  <SCORE.SYSTEM.norm>
0

>  <SCORE.heavy>
12

>  <SCORE.norm>
-1.97502

>  <SYMMETRIC_BONDS>
4 1 2

>  <RMSD>
2.168

$$$$
1kod cryst
 OpenBabel11021811393D
libRbt.so/2013.1/901 2013/11/27
 12 11  0  0  0  0  0  0  0  0999 V2000
    1.8512    6.7739   35.6777 C   0  0  0  0  0  0  0  0  0  0  0  0
    1.9828    7.8410   36.2585 O   0  5  0  0  0  0  0  0  0  0  0  0
    1.5576    5.7252   36.2378 O   0  0  0  0  0  0  0  0  0  0  0  0
    2.0657    6.7519   34.1513 C   0  0  1  0  0  0  0  0  0  0  0  0
    3.1723    7.6910   33.7935 N   0  3  0  0  0  0  0  0  0  0  0  0
    2.4227    5.3265   33.6688 C   0  0  0  0  0  0  0  0  0  0  0  0
    1.1683    4.4707   33.5499 C   0  0  0  0  0  0  0  0  0  0  0  0
    1.3710    3.1491   34.2875 C   0  0  0  0  0  0  0  0  0  0  0  0
    1.8894    2.1285   33.3240 N   0  0  0  0  0  0  0  0  0  0  0  0
    1.1564    1.1020   32.9844 C   0  0  0  0  0  0  0  0  0  0  0  0
    1.5912   -0.0426   33.0910 O   0  0  0  0  0  0  0  0  0  0  0  0
   -0.0419    1.2897   32.5134 N   0  0  0  0  0  0  0  0  0  0  0  0
  1  2  1  0  0  0  0
  1  3  2  0  0  0  0
  4  1  1  1  0  0  0
  4  6  1  0  0  0  0
  4  5  1  0  0  0  0
  6  7  1  0  0  0  0
  7  8  1  0  0  0  0
  8  9  1  0  0  0  0
  9 10  1  0  0  0  0
 10 12  1  0  0  0  0
 10 11  2  0  0  0  0
M  CHG  2   2  -1   5   1
M  END
>  <CHROM.1>
36.59777595,79.86657532,-58.35737801,-129.34207459,-92.43577898,67.25636842
1.69642409,4.36651904,34.12498815,1.16197242,1.10574419,0.70907482

>  <Name>
1kod cryst

>  <RI>
0

>  <Rbt.Current_Directory>
/home/itssahil/PROJECTS/Mol_Feturizer/New_Systems/rnas/1kod

>  <Rbt.Executable>
rbdock ($Id: //depot/dev/client3/rdock/2013.1/src/exe/rbdock.cxx#4 $)

>  <Rbt.Library>
libRbt.so (2013.1, Build901 2013/11/27)

>  <Rbt.Parameter_File>
/export/apps/rDock/src/rDock_2013.1_src/data/scripts/dock_solv.prm

>  <Rbt.Receptor>
prm/pocket_docking_7.prm

>  <SCORE>
-20.8731

>  <SCORE.INTER>
-20.3718

>  <SCORE.INTER.CONST>
1

>  <SCORE.INTER.POLAR>
-2.84129

>  <SCORE.INTER.ROT>
5

>  <SCORE.INTER.SOLV>
13.7516

>  <SCORE.INTER.VDW>
-15.6275

>  <SCORE.INTER.norm>
-1.69765

>  <SCORE.INTRA>
-0.501242

>  <SCORE.INTRA.DIHEDRAL>
4.60056

>  <SCORE.INTRA.DIHEDRAL.0>
7.7847

>  <SCORE.INTRA.POLAR>
0

>  <SCORE.INTRA.POLAR.0>
0

>  <SCORE.INTRA.REPUL>
0

>  <SCORE.INTRA.REPUL.0>
0

>  <SCORE.INTRA.SOLV>
-1.74926

>  <SCORE.INTRA.SOLV.lig_0>
-57.5465

>  <SCORE.INTRA.VDW>
-1.92689

>  <SCORE.INTRA.VDW.0>
1.39369

>  <SCORE.INTRA.norm>
-0.0417701

>  <SCORE.RESTR>
0

>  <SCORE.RESTR.CAVITY>
0

>  <SCORE.RESTR.norm>
0

>  <SCORE.SYSTEM>
0

>  <SCORE.SYSTEM.CONST>
0

>  <SCORE.SYSTEM.DIHEDRAL>
0

>  <SCORE.SYSTEM.SOLV>
0

>  <SCORE.SYSTEM.norm>
0

>  <SCORE.heavy>
12

>  <SCORE.norm>
-1.73942

>  <SYMMETRIC_BONDS>
4 1 2

>  <RMSD>
2.172

$$$$
1kod cryst
 OpenBabel11021811393D
libRbt.so/2013.1/901 2013/11/27
 12 11  0  0  0  0  0  0  0  0999 V2000
    1.9878    6.8101   35.5955 C   0  0  0  0  0  0  0  0  0  0  0  0
    2.3024    7.9464   35.2743 O   0  5  0  0  0  0  0  0  0  0  0  0
    1.6684    6.4874   36.7329 O   0  0  0  0  0  0  0  0  0  0  0  0
    1.9921    5.7238   34.5017 C   0  0  1  0  0  0  0  0  0  0  0  0
    2.1635    6.3690   33.1642 N   0  3  0  0  0  0  0  0  0  0  0  0
    3.1391    4.7134   34.7377 C   0  0  0  0  0  0  0  0  0  0  0  0
    2.9932    3.5112   33.8140 C   0  0  0  0  0  0  0  0  0  0  0  0
    2.0444    2.4903   34.4382 C   0  0  0  0  0  0  0  0  0  0  0  0
    2.1529    1.2015   33.6860 N   0  0  0  0  0  0  0  0  0  0  0  0
    1.0799    0.5535   33.3189 C   0  0  0  0  0  0  0  0  0  0  0  0
    0.9311   -0.6310   33.6110 O   0  0  0  0  0  0  0  0  0  0  0  0
    0.1631    1.1607   32.6233 N   0  0  0  0  0  0  0  0  0  0  0  0
  1  2  1  0  0  0  0
  1  3  2  0  0  0  0
  4  1  1  1  0  0  0
  4  6  1  0  0  0  0
  4  5  1  0  0  0  0
  6  7  1  0  0  0  0
  7  8  1  0  0  0  0
  8  9  1  0  0  0  0
  9 10  1  0  0  0  0
 10 12  1  0  0  0  0
 10 11  2  0  0  0  0
M  CHG  2   2  -1   5   1
M  END
>  <CHROM.1>
-10.10382781,169.83005853,-164.53272319,-84.71324943,-167.21946615,46.35780555
1.87229244,3.88002733,34.26599902,0.04521155,1.41513096,1.80928391

>  <Name>
1kod cryst

>  <RI>
0

>  <Rbt.Current_Directory>
/home/itssahil/PROJECTS/Mol_Feturizer/New_Systems/rnas/1kod

>  <Rbt.Executable>
rbdock ($Id: //depot/dev/client3/rdock/2013.1/src/exe/rbdock.cxx#4 $)

>  <Rbt.Library>
libRbt.so (2013.1, Build901 2013/11/27)

>  <Rbt.Parameter_File>
/export/apps/rDock/src/rDock_2013.1_src/data/scripts/dock_solv.prm

>  <Rbt.Receptor>
prm/pocket_docking_8.prm

>  <SCORE>
-27.6965

>  <SCORE.INTER>
-23.5488

>  <SCORE.INTER.CONST>
1

>  <SCORE.INTER.POLAR>
-4.62059

>  <SCORE.INTER.ROT>
5

>  <SCORE.INTER.SOLV>
19.7482

>  <SCORE.INTER.VDW>
-13.8133

>  <SCORE.INTER.norm>
-1.9624

>  <SCORE.INTRA>
-4.1477

>  <SCORE.INTRA.DIHEDRAL>
-1.8063

>  <SCORE.INTRA.DIHEDRAL.0>
7.7847

>  <SCORE.INTRA.POLAR>
0

>  <SCORE.INTRA.POLAR.0>
0

>  <SCORE.INTRA.REPUL>
0

>  <SCORE.INTRA.REPUL.0>
0

>  <SCORE.INTRA.SOLV>
-2.07114

>  <SCORE.INTRA.SOLV.lig_0>
-57.5465

>  <SCORE.INTRA.VDW>
-2.20898

>  <SCORE.INTRA.VDW.0>
1.39369

>  <SCORE.INTRA.norm>
-0.345641

>  <SCORE.RESTR>
0

>  <SCORE.RESTR.CAVITY>
0

>  <SCORE.RESTR.norm>
0

>  <SCORE.SYSTEM>
0

>  <SCORE.SYSTEM.CONST>
0

>  <SCORE.SYSTEM.DIHEDRAL>
0

>  <SCORE.SYSTEM.SOLV>
0

>  <SCORE.SYSTEM.norm>
0

>  <SCORE.heavy>
12

>  <SCORE.norm>
-2.30804

>  <SYMMETRIC_BONDS>
4 1 2

>  <RMSD>
2.174

$$$$
1kod cryst
 OpenBabel11021811393D
libRbt.so/2013.1/901 2013/11/27
 12 11  0  0  0  0  0  0  0  0999 V2000
    2.3203    6.7116   35.5625 C   0  0  0  0  0  0  0  0  0  0  0  0
    3.4253    7.1926   35.7650 O   0  5  0  0  0  0  0  0  0  0  0  0
    1.5589    6.3552   36.4529 O   0  0  0  0  0  0  0  0  0  0  0  0
    1.8616    6.5484   34.0999 C   0  0  1  0  0  0  0  0  0  0  0  0
    2.4918    7.6137   33.2617 N   0  3  0  0  0  0  0  0  0  0  0  0
    2.2608    5.1580   33.5525 C   0  0  0  0  0  0  0  0  0  0  0  0
    1.1045    4.1760   33.6882 C   0  0  0  0  0  0  0  0  0  0  0  0
    1.5765    2.9162   34.4106 C   0  0  0  0  0  0  0  0  0  0  0  0
    1.9938    1.9001   33.3948 N   0  0  0  0  0  0  0  0  0  0  0  0
    1.1656    0.9667   33.0089 C   0  0  0  0  0  0  0  0  0  0  0  0
    1.4888   -0.2182   33.0561 O   0  0  0  0  0  0  0  0  0  0  0  0
   -0.0097    1.2915   32.5546 N   0  0  0  0  0  0  0  0  0  0  0  0
  1  2  1  0  0  0  0
  1  3  2  0  0  0  0
  4  1  1  1  0  0  0
  4  6  1  0  0  0  0
  4  5  1  0  0  0  0
  6  7  1  0  0  0  0
  7  8  1  0  0  0  0
  8  9  1  0  0  0  0
  9 10  1  0  0  0  0
 10 12  1  0  0  0  0
 10 11  2  0  0  0  0
M  CHG  2   2  -1   5   1
M  END
>  <CHROM.1>
-29.78872833,95.57496376,-28.83883896,-127.38344074,-93.56220693,83.77185902
1.77896822,4.23817330,34.05431801,-0.29510915,1.34979658,2.18330843

>  <Name>
1kod cryst

>  <RI>
0

>  <Rbt.Current_Directory>
/home/itssahil/PROJECTS/Mol_Feturizer/New_Systems/rnas/1kod

>  <Rbt.Executable>
rbdock ($Id: //depot/dev/client3/rdock/2013.1/src/exe/rbdock.cxx#4 $)

>  <Rbt.Library>
libRbt.so (2013.1, Build901 2013/11/27)

>  <Rbt.Parameter_File>
/export/apps/rDock/src/rDock_2013.1_src/data/scripts/dock_solv.prm

>  <Rbt.Receptor>
prm/pocket_docking_7.prm

>  <SCORE>
-22.1604

>  <SCORE.INTER>
-23.0951

>  <SCORE.INTER.CONST>
1

>  <SCORE.INTER.POLAR>
-3.53625

>  <SCORE.INTER.ROT>
5

>  <SCORE.INTER.SOLV>
17.4389

>  <SCORE.INTER.VDW>
-16.3556

>  <SCORE.INTER.norm>
-1.92459

>  <SCORE.INTRA>
0.934674

>  <SCORE.INTRA.DIHEDRAL>
8.83072

>  <SCORE.INTRA.DIHEDRAL.0>
7.7847

>  <SCORE.INTRA.POLAR>
0

>  <SCORE.INTRA.POLAR.0>
0

>  <SCORE.INTRA.REPUL>
0

>  <SCORE.INTRA.REPUL.0>
0

>  <SCORE.INTRA.SOLV>
-2.17073

>  <SCORE.INTRA.SOLV.lig_0>
-57.5465

>  <SCORE.INTRA.VDW>
-2.39532

>  <SCORE.INTRA.VDW.0>
1.39369

>  <SCORE.INTRA.norm>
0.0778895

>  <SCORE.RESTR>
0

>  <SCORE.RESTR.CAVITY>
0

>  <SCORE.RESTR.norm>
0

>  <SCORE.SYSTEM>
0

>  <SCORE.SYSTEM.CONST>
0

>  <SCORE.SYSTEM.DIHEDRAL>
0

>  <SCORE.SYSTEM.SOLV>
0

>  <SCORE.SYSTEM.norm>
0

>  <SCORE.heavy>
12

>  <SCORE.norm>
-1.8467

>  <SYMMETRIC_BONDS>
4 1 2

>  <RMSD>
2.178

$$$$
1kod cryst
 OpenBabel11021811393D
libRbt.so/2013.1/901 2013/11/27
 12 11  0  0  0  0  0  0  0  0999 V2000
    0.9926    4.9300   35.2996 C   0  0  0  0  0  0  0  0  0  0  0  0
    1.6810    5.0920   36.2963 O   0  5  0  0  0  0  0  0  0  0  0  0
   -0.2208    4.7672   35.3290 O   0  0  0  0  0  0  0  0  0  0  0  0
    1.6964    4.9342   33.9282 C   0  0  1  0  0  0  0  0  0  0  0  0
    2.7919    5.9512   33.9372 N   0  3  0  0  0  0  0  0  0  0  0  0
    2.2889    3.5408   33.6123 C   0  0  0  0  0  0  0  0  0  0  0  0
    1.1777    2.5316   33.3543 C   0  0  0  0  0  0  0  0  0  0  0  0
    1.7317    1.1126   33.4601 C   0  0  0  0  0  0  0  0  0  0  0  0
    0.6244    0.1856   33.8512 N   0  0  0  0  0  0  0  0  0  0  0  0
    0.6743   -0.4712   34.9792 C   0  0  0  0  0  0  0  0  0  0  0  0
    0.5387   -1.6926   35.0010 O   0  0  0  0  0  0  0  0  0  0  0  0
    0.8540    0.1724   36.0957 N   0  0  0  0  0  0  0  0  0  0  0  0
  1  2  1  0  0  0  0
  1  3  2  0  0  0  0
  4  1  1  1  0  0  0
  4  6  1  0  0  0  0
  4  5  1  0  0  0  0
  6  7  1  0  0  0  0
  7  8  1  0  0  0  0
  8  9  1  0  0  0  0
  9 10  1  0  0  0  0
 10 12  1  0  0  0  0
 10 11  2  0  0  0  0
M  CHG  2   2  -1   5   1
M  END
>  <CHROM.1>
-37.35141527,69.34038876,76.40065157,-163.12555219,153.46515852,62.52596557
1.24263897,2.60983132,34.62175721,1.20121702,1.08719785,0.31320911

>  <Name>
1kod cryst

>  <RI>
0

>  <Rbt.Current_Directory>
/home/itssahil/PROJECTS/Mol_Feturizer/New_Systems/rnas/1kod

>  <Rbt.Executable>
rbdock ($Id: //depot/dev/client3/rdock/2013.1/src/exe/rbdock.cxx#4 $)

>  <Rbt.Library>
libRbt.so (2013.1, Build901 2013/11/27)

>  <Rbt.Parameter_File>
/export/apps/rDock/src/rDock_2013.1_src/data/scripts/dock_solv.prm

>  <Rbt.Receptor>
prm/pocket_docking_3.prm

>  <SCORE>
-19.8829

>  <SCORE.INTER>
-15.4183

>  <SCORE.INTER.CONST>
1

>  <SCORE.INTER.POLAR>
-2.98611

>  <SCORE.INTER.ROT>
5

>  <SCORE.INTER.SOLV>
18.2731

>  <SCORE.INTER.VDW>
-13.3496

>  <SCORE.INTER.norm>
-1.28486

>  <SCORE.INTRA>
-4.46455

>  <SCORE.INTRA.DIHEDRAL>
-1.23759

>  <SCORE.INTRA.DIHEDRAL.0>
7.7847

>  <SCORE.INTRA.POLAR>
0

>  <SCORE.INTRA.POLAR.0>
0

>  <SCORE.INTRA.REPUL>
0

>  <SCORE.INTRA.REPUL.0>
0

>  <SCORE.INTRA.SOLV>
-2.40199

>  <SCORE.INTRA.SOLV.lig_0>
-57.5465

>  <SCORE.INTRA.VDW>
-2.64476

>  <SCORE.INTRA.VDW.0>
1.39369

>  <SCORE.INTRA.norm>
-0.372045

>  <SCORE.RESTR>
0

>  <SCORE.RESTR.CAVITY>
0

>  <SCORE.RESTR.norm>
0

>  <SCORE.SYSTEM>
0

>  <SCORE.SYSTEM.CONST>
0

>  <SCORE.SYSTEM.DIHEDRAL>
0

>  <SCORE.SYSTEM.SOLV>
0

>  <SCORE.SYSTEM.norm>
0

>  <SCORE.heavy>
12

>  <SCORE.norm>
-1.65691

>  <SYMMETRIC_BONDS>
4 1 2

>  <RMSD>
2.182

$$$$
1kod cryst
 OpenBabel11021811393D
libRbt.so/2013.1/901 2013/11/27
 12 11  0  0  0  0  0  0  0  0999 V2000
    3.6471    5.4586   35.0931 C   0  0  0  0  0  0  0  0  0  0  0  0
    3.6623    5.3638   36.3113 O   0  5  0  0  0  0  0  0  0  0  0  0
    4.6394    5.3289   34.3873 O   0  0  0  0  0  0  0  0  0  0  0  0
    2.2979    5.7563   34.4093 C   0  0  1  0  0  0  0  0  0  0  0  0
    2.4501    6.9396   33.5086 N   0  3  0  0  0  0  0  0  0  0  0  0
    1.8214    4.5380   33.5842 C   0  0  0  0  0  0  0  0  0  0  0  0
    1.6909    3.3072   34.4719 C   0  0  0  0  0  0  0  0  0  0  0  0
    1.4839    2.0650   33.6081 C   0  0  0  0  0  0  0  0  0  0  0  0
    2.2090    0.9134   34.2299 N   0  0  0  0  0  0  0  0  0  0  0  0
    1.6654    0.2328   35.2032 C   0  0  0  0  0  0  0  0  0  0  0  0
    2.2662    0.0617   36.2617 O   0  0  0  0  0  0  0  0  0  0  0  0
    0.4813   -0.2843   35.0490 N   0  0  0  0  0  0  0  0  0  0  0  0
  1  2  1  0  0  0  0
  1  3  2  0  0  0  0
  4  1  1  6  0  0  0
  4  6  1  0  0  0  0
  4  5  1  0  0  0  0
  6  7  1  0  0  0  0
  7  8  1  0  0  0  0
  8  9  1  0  0  0  0
  9 10  1  0  0  0  0
 10 12  1  0  0  0  0
 10 11  2  0  0  0  0
M  CHG  2   2  -1   5   1
M  END
>  <CHROM.1>
127.35194163,57.97371194,-177.98905195,-169.18211627,143.19994589,-97.55414885
2.37228283,3.32134888,34.67575891,-1.16307235,0.76835047,2.73405109

>  <Name>
1kod cryst

>  <RI>
0

>  <Rbt.Current_Directory>
/home/itssahil/PROJECTS/Mol_Feturizer/New_Systems/rnas/1kod

>  <Rbt.Executable>
rbdock ($Id: //depot/dev/client3/rdock/2013.1/src/exe/rbdock.cxx#4 $)

>  <Rbt.Library>
libRbt.so (2013.1, Build901 2013/11/27)

>  <Rbt.Parameter_File>
/export/apps/rDock/src/rDock_2013.1_src/data/scripts/dock_solv.prm

>  <Rbt.Receptor>
prm/pocket_docking_7.prm

>  <SCORE>
-23.3262

>  <SCORE.INTER>
-19.1312

>  <SCORE.INTER.CONST>
1

>  <SCORE.INTER.POLAR>
-3.64156

>  <SCORE.INTER.ROT>
5

>  <SCORE.INTER.SOLV>
16.9172

>  <SCORE.INTER.VDW>
-13.188

>  <SCORE.INTER.norm>
-1.59427

>  <SCORE.INTRA>
-4.19494

>  <SCORE.INTRA.DIHEDRAL>
-1.31577

>  <SCORE.INTRA.DIHEDRAL.0>
7.7847

>  <SCORE.INTRA.POLAR>
0

>  <SCORE.INTRA.POLAR.0>
0

>  <SCORE.INTRA.REPUL>
0

>  <SCORE.INTRA.REPUL.0>
0

>  <SCORE.INTRA.SOLV>
-2.41542

>  <SCORE.INTRA.SOLV.lig_0>
-57.5465

>  <SCORE.INTRA.VDW>
-2.32934

>  <SCORE.INTRA.VDW.0>
1.39369

>  <SCORE.INTRA.norm>
-0.349578

>  <SCORE.RESTR>
0

>  <SCORE.RESTR.CAVITY>
0

>  <SCORE.RESTR.norm>
0

>  <SCORE.SYSTEM>
0

>  <SCORE.SYSTEM.CONST>
0

>  <SCORE.SYSTEM.DIHEDRAL>
0

>  <SCORE.SYSTEM.SOLV>
0

>  <SCORE.SYSTEM.norm>
0

>  <SCORE.heavy>
12

>  <SCORE.norm>
-1.94385

>  <SYMMETRIC_BONDS>
4 1 2

>  <RMSD>
2.184

$$$$
1kod cryst
 OpenBabel11021811393D
libRbt.so/2013.1/901 2013/11/27
 12 11  0  0  0  0  0  0  0  0999 V2000
    3.0074    6.6388   36.4484 C   0  0  0  0  0  0  0  0  0  0  0  0
    4.1483    6.2777   36.6960 O   0  5  0  0  0  0  0  0  0  0  0  0
    2.2558    7.1372   37.2768 O   0  0  0  0  0  0  0  0  0  0  0  0
    2.4896    6.4568   35.0079 C   0  0  1  0  0  0  0  0  0  0  0  0
    3.5984    6.7345   34.0446 N   0  3  0  0  0  0  0  0  0  0  0  0
    1.9670    5.0172   34.7915 C   0  0  0  0  0  0  0  0  0  0  0  0
    1.2469    4.9035   33.4542 C   0  0  0  0  0  0  0  0  0  0  0  0
    0.5045    3.5713   33.3771 C   0  0  0  0  0  0  0  0  0  0  0  0
    1.4923    2.4780   33.1172 N   0  0  0  0  0  0  0  0  0  0  0  0
    1.1310    1.2248   33.1883 C   0  0  0  0  0  0  0  0  0  0  0  0
    1.7478    0.4328   33.8974 O   0  0  0  0  0  0  0  0  0  0  0  0
    0.1169    0.8028   32.4906 N   0  0  0  0  0  0  0  0  0  0  0  0
  1  2  1  0  0  0  0
  1  3  2  0  0  0  0
  4  1  1  1  0  0  0
  4  6  1  0  0  0  0
  4  5  1  0  0  0  0
  6  7  1  0  0  0  0
  7  8  1  0  0  0  0
  8  9  1  0  0  0  0
  9 10  1  0  0  0  0
 10 12  1  0  0  0  0
 10 11  2  0  0  0  0
M  CHG  2   2  -1   5   1
M  END
>  <CHROM.1>
-37.44587200,170.54355147,-175.74285327,-168.85674400,-75.98672886,-9.34313067
2.00464053,4.30492102,34.47545685,-0.75296335,1.09448686,2.88700365

>  <Name>
1kod cryst

>  <RI>
0

>  <Rbt.Current_Directory>
/home/itssahil/PROJECTS/Mol_Feturizer/New_Systems/rnas/1kod

>  <Rbt.Executable>
rbdock ($Id: //depot/dev/client3/rdock/2013.1/src/exe/rbdock.cxx#4 $)

>  <Rbt.Library>
libRbt.so (2013.1, Build901 2013/11/27)

>  <Rbt.Parameter_File>
/export/apps/rDock/src/rDock_2013.1_src/data/scripts/dock_solv.prm

>  <Rbt.Receptor>
prm/pocket_docking_7.prm

>  <SCORE>
-23.5981

>  <SCORE.INTER>
-18.2969

>  <SCORE.INTER.CONST>
1

>  <SCORE.INTER.POLAR>
-2.84048

>  <SCORE.INTER.ROT>
5

>  <SCORE.INTER.SOLV>
11.7615

>  <SCORE.INTER.VDW>
-13.5835

>  <SCORE.INTER.norm>
-1.52474

>  <SCORE.INTRA>
-5.30115

>  <SCORE.INTRA.DIHEDRAL>
-3.76677

>  <SCORE.INTRA.DIHEDRAL.0>
7.7847

>  <SCORE.INTRA.POLAR>
0

>  <SCORE.INTRA.POLAR.0>
0

>  <SCORE.INTRA.REPUL>
0

>  <SCORE.INTRA.REPUL.0>
0

>  <SCORE.INTRA.SOLV>
-2.29614

>  <SCORE.INTRA.SOLV.lig_0>
-57.5465

>  <SCORE.INTRA.VDW>
-2.26969

>  <SCORE.INTRA.VDW.0>
1.39369

>  <SCORE.INTRA.norm>
-0.441762

>  <SCORE.RESTR>
0

>  <SCORE.RESTR.CAVITY>
0

>  <SCORE.RESTR.norm>
0

>  <SCORE.SYSTEM>
0

>  <SCORE.SYSTEM.CONST>
0

>  <SCORE.SYSTEM.DIHEDRAL>
0

>  <SCORE.SYSTEM.SOLV>
0

>  <SCORE.SYSTEM.norm>
0

>  <SCORE.heavy>
12

>  <SCORE.norm>
-1.96651

>  <SYMMETRIC_BONDS>
4 1 2

>  <RMSD>
2.186

$$$$
1kod cryst
 OpenBabel11021811393D
libRbt.so/2013.1/901 2013/11/27
 12 11  0  0  0  0  0  0  0  0999 V2000
    1.6921    5.4987   35.7816 C   0  0  0  0  0  0  0  0  0  0  0  0
    2.6340    5.3580   36.5474 O   0  5  0  0  0  0  0  0  0  0  0  0
    0.5272    5.5986   36.1458 O   0  0  0  0  0  0  0  0  0  0  0  0
    1.9929    5.5559   34.2708 C   0  0  1  0  0  0  0  0  0  0  0  0
    3.1572    6.4625   34.0319 N   0  3  0  0  0  0  0  0  0  0  0  0
    2.3162    4.1461   33.7230 C   0  0  0  0  0  0  0  0  0  0  0  0
    1.1451    3.1998   33.9532 C   0  0  0  0  0  0  0  0  0  0  0  0
    1.4400    1.8451   33.3130 C   0  0  0  0  0  0  0  0  0  0  0  0
    2.5307    1.1699   34.0832 N   0  0  0  0  0  0  0  0  0  0  0  0
    2.3123    0.7204   35.2900 C   0  0  0  0  0  0  0  0  0  0  0  0
    3.0403    1.0496   36.2239 O   0  0  0  0  0  0  0  0  0  0  0  0
    1.3237   -0.0973   35.5072 N   0  0  0  0  0  0  0  0  0  0  0  0
  1  2  1  0  0  0  0
  1  3  2  0  0  0  0
  4  1  1  1  0  0  0
  4  6  1  0  0  0  0
  4  5  1  0  0  0  0
  6  7  1  0  0  0  0
  7  8  1  0  0  0  0
  8  9  1  0  0  0  0
  9 10  1  0  0  0  0
 10 12  1  0  0  0  0
 10 11  2  0  0  0  0
M  CHG  2   2  -1   5   1
M  END
>  <CHROM.1>
-45.42185243,59.37943526,69.87487874,175.72947399,69.42021947,-110.12397017
2.03171342,3.39051431,34.92726483,1.33559795,1.49991030,0.24844524

>  <Name>
1kod cryst

>  <RI>
0

>  <Rbt.Current_Directory>
/home/itssahil/PROJECTS/Mol_Feturizer/New_Systems/rnas/1kod

>  <Rbt.Executable>
rbdock ($Id: //depot/dev/client3/rdock/2013.1/src/exe/rbdock.cxx#4 $)

>  <Rbt.Library>
libRbt.so (2013.1, Build901 2013/11/27)

>  <Rbt.Parameter_File>
/export/apps/rDock/src/rDock_2013.1_src/data/scripts/dock_solv.prm

>  <Rbt.Receptor>
prm/pocket_docking_6.prm

>  <SCORE>
-22.3769

>  <SCORE.INTER>
-16.5566

>  <SCORE.INTER.CONST>
1

>  <SCORE.INTER.POLAR>
-2.51854

>  <SCORE.INTER.ROT>
5

>  <SCORE.INTER.SOLV>
11.5359

>  <SCORE.INTER.VDW>
-13.4212

>  <SCORE.INTER.norm>
-1.37972

>  <SCORE.INTRA>
-5.82025

>  <SCORE.INTRA.DIHEDRAL>
-4.89808

>  <SCORE.INTRA.DIHEDRAL.0>
7.7847

>  <SCORE.INTRA.POLAR>
0

>  <SCORE.INTRA.POLAR.0>
0

>  <SCORE.INTRA.REPUL>
0

>  <SCORE.INTRA.REPUL.0>
0

>  <SCORE.INTRA.SOLV>
-2.04601

>  <SCORE.INTRA.SOLV.lig_0>
-57.5465

>  <SCORE.INTRA.VDW>
-2.34821

>  <SCORE.INTRA.VDW.0>
1.39369

>  <SCORE.INTRA.norm>
-0.485021

>  <SCORE.RESTR>
0

>  <SCORE.RESTR.CAVITY>
0

>  <SCORE.RESTR.norm>
0

>  <SCORE.SYSTEM>
0

>  <SCORE.SYSTEM.CONST>
0

>  <SCORE.SYSTEM.DIHEDRAL>
0

>  <SCORE.SYSTEM.SOLV>
0

>  <SCORE.SYSTEM.norm>
0

>  <SCORE.heavy>
12

>  <SCORE.norm>
-1.86474

>  <SYMMETRIC_BONDS>
4 1 2

>  <RMSD>
2.200

$$$$
1kod cryst
 OpenBabel11021811393D
libRbt.so/2013.1/901 2013/11/27
 12 11  0  0  0  0  0  0  0  0999 V2000
    1.6555    5.5905   35.4040 C   0  0  0  0  0  0  0  0  0  0  0  0
    0.6529    5.5505   36.1015 O   0  5  0  0  0  0  0  0  0  0  0  0
    2.7780    5.8188   35.8370 O   0  0  0  0  0  0  0  0  0  0  0  0
    1.4933    5.3357   33.8923 C   0  0  1  0  0  0  0  0  0  0  0  0
    2.2260    6.3930   33.1308 N   0  3  0  0  0  0  0  0  0  0  0  0
    2.0497    3.9446   33.5085 C   0  0  0  0  0  0  0  0  0  0  0  0
    1.0446    2.8522   33.8499 C   0  0  0  0  0  0  0  0  0  0  0  0
    1.5079    1.5204   33.2639 C   0  0  0  0  0  0  0  0  0  0  0  0
    2.5439    0.9262   34.1651 N   0  0  0  0  0  0  0  0  0  0  0  0
    2.2529    0.6184   35.4007 C   0  0  0  0  0  0  0  0  0  0  0  0
    2.9341    1.0443   36.3309 O   0  0  0  0  0  0  0  0  0  0  0  0
    1.2409   -0.1595   35.6530 N   0  0  0  0  0  0  0  0  0  0  0  0
  1  2  1  0  0  0  0
  1  3  2  0  0  0  0
  4  1  1  1  0  0  0
  4  6  1  0  0  0  0
  4  5  1  0  0  0  0
  6  7  1  0  0  0  0
  7  8  1  0  0  0  0
  8  9  1  0  0  0  0
  9 10  1  0  0  0  0
 10 12  1  0  0  0  0
 10 11  2  0  0  0  0
M  CHG  2   2  -1   5   1
M  END
>  <CHROM.1>
132.29174042,79.69994164,-61.38047537,170.90750371,80.45718590,-118.70265913
1.88034017,3.30780653,34.72358329,-2.13762213,1.51426799,-2.67813452

>  <Name>
1kod cryst

>  <RI>
0

>  <Rbt.Current_Directory>
/home/itssahil/PROJECTS/Mol_Feturizer/New_Systems/rnas/1kod

>  <Rbt.Executable>
rbdock ($Id: //depot/dev/client3/rdock/2013.1/src/exe/rbdock.cxx#4 $)

>  <Rbt.Library>
libRbt.so (2013.1, Build901 2013/11/27)

>  <Rbt.Parameter_File>
/export/apps/rDock/src/rDock_2013.1_src/data/scripts/dock_solv.prm

>  <Rbt.Receptor>
prm/pocket_docking_6.prm

>  <SCORE>
-22.0977

>  <SCORE.INTER>
-17.1608

>  <SCORE.INTER.CONST>
1

>  <SCORE.INTER.POLAR>
-3.18244

>  <SCORE.INTER.ROT>
5

>  <SCORE.INTER.SOLV>
18.4765

>  <SCORE.INTER.VDW>
-13.9246

>  <SCORE.INTER.norm>
-1.43007

>  <SCORE.INTRA>
-4.93687

>  <SCORE.INTRA.DIHEDRAL>
-2.51398

>  <SCORE.INTRA.DIHEDRAL.0>
7.7847

>  <SCORE.INTRA.POLAR>
0

>  <SCORE.INTRA.POLAR.0>
0

>  <SCORE.INTRA.REPUL>
0

>  <SCORE.INTRA.REPUL.0>
0

>  <SCORE.INTRA.SOLV>
-2.30524

>  <SCORE.INTRA.SOLV.lig_0>
-57.5465

>  <SCORE.INTRA.VDW>
-2.52727

>  <SCORE.INTRA.VDW.0>
1.39369

>  <SCORE.INTRA.norm>
-0.411406

>  <SCORE.RESTR>
0

>  <SCORE.RESTR.CAVITY>
0

>  <SCORE.RESTR.norm>
0

>  <SCORE.SYSTEM>
0

>  <SCORE.SYSTEM.CONST>
0

>  <SCORE.SYSTEM.DIHEDRAL>
0

>  <SCORE.SYSTEM.SOLV>
0

>  <SCORE.SYSTEM.norm>
0

>  <SCORE.heavy>
12

>  <SCORE.norm>
-1.84147

>  <SYMMETRIC_BONDS>
4 1 2

>  <RMSD>
2.201

$$$$
1kod cryst
 OpenBabel11021811393D
libRbt.so/2013.1/901 2013/11/27
 12 11  0  0  0  0  0  0  0  0999 V2000
    3.1428    6.4676   35.2753 C   0  0  0  0  0  0  0  0  0  0  0  0
    4.3007    6.3151   34.9157 O   0  5  0  0  0  0  0  0  0  0  0  0
    2.7870    6.4617   36.4470 O   0  0  0  0  0  0  0  0  0  0  0  0
    2.0718    6.6822   34.1875 C   0  0  1  0  0  0  0  0  0  0  0  0
    2.5238    7.7581   33.2534 N   0  3  0  0  0  0  0  0  0  0  0  0
    1.8293    5.3776   33.3927 C   0  0  0  0  0  0  0  0  0  0  0  0
    0.8340    4.4835   34.1206 C   0  0  0  0  0  0  0  0  0  0  0  0
    0.3724    3.3607   33.1942 C   0  0  0  0  0  0  0  0  0  0  0  0
    1.4666    2.3472   33.0750 N   0  0  0  0  0  0  0  0  0  0  0  0
    1.2056    1.0716   33.1791 C   0  0  0  0  0  0  0  0  0  0  0  0
    1.8206    0.3680   33.9773 O   0  0  0  0  0  0  0  0  0  0  0  0
    0.2960    0.5329   32.4204 N   0  0  0  0  0  0  0  0  0  0  0  0
  1  2  1  0  0  0  0
  1  3  2  0  0  0  0
  4  1  1  1  0  0  0
  4  6  1  0  0  0  0
  4  5  1  0  0  0  0
  6  7  1  0  0  0  0
  7  8  1  0  0  0  0
  8  9  1  0  0  0  0
  9 10  1  0  0  0  0
 10 12  1  0  0  0  0
 10 11  2  0  0  0  0
M  CHG  2   2  -1   5   1
M  END
>  <CHROM.1>
-50.04664549,84.12569044,67.14226581,167.56884527,75.10202147,-46.09476774
1.91002011,4.28019740,33.94236814,-1.05879928,0.87823864,3.00528163

>  <Name>
1kod cryst

>  <RI>
0

>  <Rbt.Current_Directory>
/home/itssahil/PROJECTS/Mol_Feturizer/New_Systems/rnas/1kod

>  <Rbt.Executable>
rbdock ($Id: //depot/dev/client3/rdock/2013.1/src/exe/rbdock.cxx#4 $)

>  <Rbt.Library>
libRbt.so (2013.1, Build901 2013/11/27)

>  <Rbt.Parameter_File>
/export/apps/rDock/src/rDock_2013.1_src/data/scripts/dock_solv.prm

>  <Rbt.Receptor>
prm/pocket_docking_6.prm

>  <SCORE>
-29.0929

>  <SCORE.INTER>
-24.0769

>  <SCORE.INTER.CONST>
1

>  <SCORE.INTER.POLAR>
-3.56725

>  <SCORE.INTER.ROT>
5

>  <SCORE.INTER.SOLV>
17.6746

>  <SCORE.INTER.VDW>
-16.9853

>  <SCORE.INTER.norm>
-2.00641

>  <SCORE.INTRA>
-5.01601

>  <SCORE.INTRA.DIHEDRAL>
-2.18676

>  <SCORE.INTRA.DIHEDRAL.0>
7.7847

>  <SCORE.INTRA.POLAR>
0

>  <SCORE.INTRA.POLAR.0>
0

>  <SCORE.INTRA.REPUL>
0

>  <SCORE.INTRA.REPUL.0>
0

>  <SCORE.INTRA.SOLV>
-2.71868

>  <SCORE.INTRA.SOLV.lig_0>
-57.5465

>  <SCORE.INTRA.VDW>
-2.56329

>  <SCORE.INTRA.VDW.0>
1.39369

>  <SCORE.INTRA.norm>
-0.418

>  <SCORE.RESTR>
0

>  <SCORE.RESTR.CAVITY>
0

>  <SCORE.RESTR.norm>
0

>  <SCORE.SYSTEM>
0

>  <SCORE.SYSTEM.CONST>
0

>  <SCORE.SYSTEM.DIHEDRAL>
0

>  <SCORE.SYSTEM.SOLV>
0

>  <SCORE.SYSTEM.norm>
0

>  <SCORE.heavy>
12

>  <SCORE.norm>
-2.42441

>  <SYMMETRIC_BONDS>
4 1 2

>  <RMSD>
2.207

$$$$
1kod cryst
 OpenBabel11021811393D
libRbt.so/2013.1/901 2013/11/27
 12 11  0  0  0  0  0  0  0  0999 V2000
    1.9894    6.8487   35.5923 C   0  0  0  0  0  0  0  0  0  0  0  0
    2.8644    7.6207   35.9553 O   0  5  0  0  0  0  0  0  0  0  0  0
    1.0887    6.4493   36.3195 O   0  0  0  0  0  0  0  0  0  0  0  0
    2.0240    6.3538   34.1327 C   0  0  1  0  0  0  0  0  0  0  0  0
    2.4573    7.4726   33.2410 N   0  3  0  0  0  0  0  0  0  0  0  0
    3.0015    5.1649   33.9806 C   0  0  0  0  0  0  0  0  0  0  0  0
    2.4192    3.9076   34.6129 C   0  0  0  0  0  0  0  0  0  0  0  0
    1.3448    3.3190   33.7012 C   0  0  0  0  0  0  0  0  0  0  0  0
    1.8495    2.0363   33.1193 N   0  0  0  0  0  0  0  0  0  0  0  0
    1.0822    0.9804   33.0716 C   0  0  0  0  0  0  0  0  0  0  0  0
    1.4585   -0.0910   33.5415 O   0  0  0  0  0  0  0  0  0  0  0  0
   -0.0881    1.0556   32.5076 N   0  0  0  0  0  0  0  0  0  0  0  0
  1  2  1  0  0  0  0
  1  3  2  0  0  0  0
  4  1  1  1  0  0  0
  4  6  1  0  0  0  0
  4  5  1  0  0  0  0
  6  7  1  0  0  0  0
  7  8  1  0  0  0  0
  8  9  1  0  0  0  0
  9 10  1  0  0  0  0
 10 12  1  0  0  0  0
 10 11  2  0  0  0  0
M  CHG  2   2  -1   5   1
M  END
>  <CHROM.1>
-37.89896415,72.62808032,11.29152211,76.26602419,110.18005495,-44.44587696
1.78814439,4.27964498,34.13369613,0.93350126,1.24287443,0.92505304

>  <Name>
1kod cryst

>  <RI>
0

>  <Rbt.Current_Directory>
/home/itssahil/PROJECTS/Mol_Feturizer/New_Systems/rnas/1kod

>  <Rbt.Executable>
rbdock ($Id: //depot/dev/client3/rdock/2013.1/src/exe/rbdock.cxx#4 $)

>  <Rbt.Library>
libRbt.so (2013.1, Build901 2013/11/27)

>  <Rbt.Parameter_File>
/export/apps/rDock/src/rDock_2013.1_src/data/scripts/dock_solv.prm

>  <Rbt.Receptor>
prm/pocket_docking_7.prm

>  <SCORE>
-25.4395

>  <SCORE.INTER>
-24.9589

>  <SCORE.INTER.CONST>
1

>  <SCORE.INTER.POLAR>
-4.40382

>  <SCORE.INTER.ROT>
5

>  <SCORE.INTER.SOLV>
18.5788

>  <SCORE.INTER.VDW>
-15.0861

>  <SCORE.INTER.norm>
-2.0799

>  <SCORE.INTRA>
-0.480687

>  <SCORE.INTRA.DIHEDRAL>
4.49533

>  <SCORE.INTRA.DIHEDRAL.0>
7.7847

>  <SCORE.INTRA.POLAR>
0

>  <SCORE.INTRA.POLAR.0>
0

>  <SCORE.INTRA.REPUL>
0

>  <SCORE.INTRA.REPUL.0>
0

>  <SCORE.INTRA.SOLV>
-2.26945

>  <SCORE.INTRA.SOLV.lig_0>
-57.5465

>  <SCORE.INTRA.VDW>
-1.59363

>  <SCORE.INTRA.VDW.0>
1.39369

>  <SCORE.INTRA.norm>
-0.0400572

>  <SCORE.RESTR>
0

>  <SCORE.RESTR.CAVITY>
0

>  <SCORE.RESTR.norm>
0

>  <SCORE.SYSTEM>
0

>  <SCORE.SYSTEM.CONST>
0

>  <SCORE.SYSTEM.DIHEDRAL>
0

>  <SCORE.SYSTEM.SOLV>
0

>  <SCORE.SYSTEM.norm>
0

>  <SCORE.heavy>
12

>  <SCORE.norm>
-2.11996

>  <SYMMETRIC_BONDS>
4 1 2

>  <RMSD>
2.207

$$$$
1kod cryst
 OpenBabel11021811393D
libRbt.so/2013.1/901 2013/11/27
 12 11  0  0  0  0  0  0  0  0999 V2000
    1.4330    6.3040   35.6104 C   0  0  0  0  0  0  0  0  0  0  0  0
    0.4425    6.6022   36.2609 O   0  5  0  0  0  0  0  0  0  0  0  0
    2.5810    6.5009   35.9885 O   0  0  0  0  0  0  0  0  0  0  0  0
    1.2202    5.6392   34.2359 C   0  0  1  0  0  0  0  0  0  0  0  0
    2.3138    6.0604   33.3079 N   0  3  0  0  0  0  0  0  0  0  0  0
    1.2201    4.0981   34.3670 C   0  0  0  0  0  0  0  0  0  0  0  0
    2.5770    3.6008   34.8483 C   0  0  0  0  0  0  0  0  0  0  0  0
    2.4361    2.1984   35.4359 C   0  0  0  0  0  0  0  0  0  0  0  0
    1.4576    1.4216   34.6127 N   0  0  0  0  0  0  0  0  0  0  0  0
    1.5702    1.3775   33.3121 C   0  0  0  0  0  0  0  0  0  0  0  0
    0.6220    1.6761   32.5894 O   0  0  0  0  0  0  0  0  0  0  0  0
    2.6919    0.9992   32.7719 N   0  0  0  0  0  0  0  0  0  0  0  0
  1  2  1  0  0  0  0
  1  3  2  0  0  0  0
  4  1  1  1  0  0  0
  4  6  1  0  0  0  0
  4  5  1  0  0  0  0
  6  7  1  0  0  0  0
  7  8  1  0  0  0  0
  8  9  1  0  0  0  0
  9 10  1  0  0  0  0
 10 12  1  0  0  0  0
 10 11  2  0  0  0  0
M  CHG  2   2  -1   5   1
M  END
>  <CHROM.1>
147.05020208,-63.64763177,-45.95702484,160.16523385,38.37858168,-130.24789339
1.72955326,3.88739185,34.42179158,-2.24078865,1.51089980,-2.09260535

>  <Name>
1kod cryst

>  <RI>
0

>  <Rbt.Current_Directory>
/home/itssahil/PROJECTS/Mol_Feturizer/New_Systems/rnas/1kod

>  <Rbt.Executable>
rbdock ($Id: //depot/dev/client3/rdock/2013.1/src/exe/rbdock.cxx#4 $)

>  <Rbt.Library>
libRbt.so (2013.1, Build901 2013/11/27)

>  <Rbt.Parameter_File>
/export/apps/rDock/src/rDock_2013.1_src/data/scripts/dock_solv.prm

>  <Rbt.Receptor>
prm/pocket_docking_2.prm

>  <SCORE>
-16.8315

>  <SCORE.INTER>
-16.7011

>  <SCORE.INTER.CONST>
1

>  <SCORE.INTER.POLAR>
-3.52617

>  <SCORE.INTER.ROT>
5

>  <SCORE.INTER.SOLV>
17.3034

>  <SCORE.INTER.VDW>
-12.0813

>  <SCORE.INTER.norm>
-1.39176

>  <SCORE.INTRA>
-0.449598

>  <SCORE.INTRA.DIHEDRAL>
-1.93655

>  <SCORE.INTRA.DIHEDRAL.0>
7.7847

>  <SCORE.INTRA.POLAR>
0

>  <SCORE.INTRA.POLAR.0>
0

>  <SCORE.INTRA.REPUL>
0

>  <SCORE.INTRA.REPUL.0>
0

>  <SCORE.INTRA.SOLV>
0.000894339

>  <SCORE.INTRA.SOLV.lig_0>
-57.5465

>  <SCORE.INTRA.VDW>
0.518229

>  <SCORE.INTRA.VDW.0>
1.39369

>  <SCORE.INTRA.norm>
-0.0374665

>  <SCORE.RESTR>
0.319195

>  <SCORE.RESTR.CAVITY>
0.319195

>  <SCORE.RESTR.norm>
0.0265996

>  <SCORE.SYSTEM>
0

>  <SCORE.SYSTEM.CONST>
0

>  <SCORE.SYSTEM.DIHEDRAL>
0

>  <SCORE.SYSTEM.SOLV>
0

>  <SCORE.SYSTEM.norm>
0

>  <SCORE.heavy>
12

>  <SCORE.norm>
-1.40262

>  <SYMMETRIC_BONDS>
4 1 2

>  <RMSD>
2.212

$$$$
1kod cryst
 OpenBabel11021811393D
libRbt.so/2013.1/901 2013/11/27
 12 11  0  0  0  0  0  0  0  0999 V2000
    1.2261    6.0297   35.7044 C   0  0  0  0  0  0  0  0  0  0  0  0
    2.0935    6.7611   36.1583 O   0  5  0  0  0  0  0  0  0  0  0  0
    0.1542    5.8193   36.2580 O   0  0  0  0  0  0  0  0  0  0  0  0
    1.5004    5.3361   34.3554 C   0  0  1  0  0  0  0  0  0  0  0  0
    2.8163    5.8000   33.8189 N   0  3  0  0  0  0  0  0  0  0  0  0
    1.5257    3.7990   34.5250 C   0  0  0  0  0  0  0  0  0  0  0  0
    1.8244    3.1176   33.1959 C   0  0  0  0  0  0  0  0  0  0  0  0
    1.2322    1.7101   33.1906 C   0  0  0  0  0  0  0  0  0  0  0  0
    2.0741    0.8246   34.0543 N   0  0  0  0  0  0  0  0  0  0  0  0
    1.5825    0.2951   35.1424 C   0  0  0  0  0  0  0  0  0  0  0  0
    2.1542    0.4333   36.2215 O   0  0  0  0  0  0  0  0  0  0  0  0
    0.4840   -0.4000   35.0850 N   0  0  0  0  0  0  0  0  0  0  0  0
  1  2  1  0  0  0  0
  1  3  2  0  0  0  0
  4  1  1  1  0  0  0
  4  6  1  0  0  0  0
  4  5  1  0  0  0  0
  6  7  1  0  0  0  0
  7  8  1  0  0  0  0
  8  9  1  0  0  0  0
  9 10  1  0  0  0  0
 10 12  1  0  0  0  0
 10 11  2  0  0  0  0
M  CHG  2   2  -1   5   1
M  END
>  <CHROM.1>
-3.59193603,-178.87548437,-18.82988199,-153.78474522,-74.41183794,-64.45397112
1.57450362,3.30494092,34.82311296,1.47219999,1.20730172,0.17666849

>  <Name>
1kod cryst

>  <RI>
0

>  <Rbt.Current_Directory>
/home/itssahil/PROJECTS/Mol_Feturizer/New_Systems/rnas/1kod

>  <Rbt.Executable>
rbdock ($Id: //depot/dev/client3/rdock/2013.1/src/exe/rbdock.cxx#4 $)

>  <Rbt.Library>
libRbt.so (2013.1, Build901 2013/11/27)

>  <Rbt.Parameter_File>
/export/apps/rDock/src/rDock_2013.1_src/data/scripts/dock_solv.prm

>  <Rbt.Receptor>
prm/pocket_docking_2.prm

>  <SCORE>
-19.1638

>  <SCORE.INTER>
-18.0603

>  <SCORE.INTER.CONST>
1

>  <SCORE.INTER.POLAR>
-3.22178

>  <SCORE.INTER.ROT>
5

>  <SCORE.INTER.SOLV>
15.1443

>  <SCORE.INTER.VDW>
-13.2824

>  <SCORE.INTER.norm>
-1.50502

>  <SCORE.INTRA>
-2.29133

>  <SCORE.INTRA.DIHEDRAL>
0.458326

>  <SCORE.INTRA.DIHEDRAL.0>
7.7847

>  <SCORE.INTRA.POLAR>
0

>  <SCORE.INTRA.POLAR.0>
0

>  <SCORE.INTRA.REPUL>
0

>  <SCORE.INTRA.REPUL.0>
0

>  <SCORE.INTRA.SOLV>
-1.73262

>  <SCORE.INTRA.SOLV.lig_0>
-57.5465

>  <SCORE.INTRA.VDW>
-1.65419

>  <SCORE.INTRA.VDW.0>
1.39369

>  <SCORE.INTRA.norm>
-0.190944

>  <SCORE.RESTR>
1.18778

>  <SCORE.RESTR.CAVITY>
1.18778

>  <SCORE.RESTR.norm>
0.0989814

>  <SCORE.SYSTEM>
0

>  <SCORE.SYSTEM.CONST>
0

>  <SCORE.SYSTEM.DIHEDRAL>
0

>  <SCORE.SYSTEM.SOLV>
0

>  <SCORE.SYSTEM.norm>
0

>  <SCORE.heavy>
12

>  <SCORE.norm>
-1.59699

>  <SYMMETRIC_BONDS>
4 1 2

>  <RMSD>
2.215

$$$$
1kod cryst
 OpenBabel11021811393D
libRbt.so/2013.1/901 2013/11/27
 12 11  0  0  0  0  0  0  0  0999 V2000
    1.6386    5.6950   35.5779 C   0  0  0  0  0  0  0  0  0  0  0  0
    2.5055    6.4904   35.9084 O   0  5  0  0  0  0  0  0  0  0  0  0
    1.0926    4.9209   36.3541 O   0  0  0  0  0  0  0  0  0  0  0  0
    1.2087    5.6701   34.0978 C   0  0  1  0  0  0  0  0  0  0  0  0
    2.3560    6.1012   33.2419 N   0  3  0  0  0  0  0  0  0  0  0  0
    0.7600    4.2497   33.6816 C   0  0  0  0  0  0  0  0  0  0  0  0
    1.8981    3.2535   33.8616 C   0  0  0  0  0  0  0  0  0  0  0  0
    1.4638    1.8757   33.3669 C   0  0  0  0  0  0  0  0  0  0  0  0
    2.4260    0.8498   33.8770 N   0  0  0  0  0  0  0  0  0  0  0  0
    2.3382    0.4072   35.1027 C   0  0  0  0  0  0  0  0  0  0  0  0
    3.3124    0.4350   35.8515 O   0  0  0  0  0  0  0  0  0  0  0  0
    1.2132   -0.0832   35.5350 N   0  0  0  0  0  0  0  0  0  0  0  0
  1  2  1  0  0  0  0
  1  3  2  0  0  0  0
  4  1  1  1  0  0  0
  4  6  1  0  0  0  0
  4  5  1  0  0  0  0
  6  7  1  0  0  0  0
  7  8  1  0  0  0  0
  8  9  1  0  0  0  0
  9 10  1  0  0  0  0
 10 12  1  0  0  0  0
 10 11  2  0  0  0  0
M  CHG  2   2  -1   5   1
M  END
>  <CHROM.1>
28.58199398,-60.12732661,57.85652769,-176.58847788,-164.92454745,-100.26477900
1.87514707,3.32835130,34.71344795,-2.11921681,1.44245994,-2.63237130

>  <Name>
1kod cryst

>  <RI>
0

>  <Rbt.Current_Directory>
/home/itssahil/PROJECTS/Mol_Feturizer/New_Systems/rnas/1kod

>  <Rbt.Executable>
rbdock ($Id: //depot/dev/client3/rdock/2013.1/src/exe/rbdock.cxx#4 $)

>  <Rbt.Library>
libRbt.so (2013.1, Build901 2013/11/27)

>  <Rbt.Parameter_File>
/export/apps/rDock/src/rDock_2013.1_src/data/scripts/dock_solv.prm

>  <Rbt.Receptor>
prm/pocket_docking_2.prm

>  <SCORE>
-21.4792

>  <SCORE.INTER>
-18.7778

>  <SCORE.INTER.CONST>
1

>  <SCORE.INTER.POLAR>
-3.40561

>  <SCORE.INTER.ROT>
5

>  <SCORE.INTER.SOLV>
17.4629

>  <SCORE.INTER.VDW>
-13.9208

>  <SCORE.INTER.norm>
-1.56482

>  <SCORE.INTRA>
-4.05716

>  <SCORE.INTRA.DIHEDRAL>
-4.6651

>  <SCORE.INTRA.DIHEDRAL.0>
7.7847

>  <SCORE.INTRA.POLAR>
0

>  <SCORE.INTRA.POLAR.0>
0

>  <SCORE.INTRA.REPUL>
0

>  <SCORE.INTRA.REPUL.0>
0

>  <SCORE.INTRA.SOLV>
-0.850111

>  <SCORE.INTRA.SOLV.lig_0>
-57.5465

>  <SCORE.INTRA.VDW>
-1.29955

>  <SCORE.INTRA.VDW.0>
1.39369

>  <SCORE.INTRA.norm>
-0.338096

>  <SCORE.RESTR>
1.35572

>  <SCORE.RESTR.CAVITY>
1.35572

>  <SCORE.RESTR.norm>
0.112976

>  <SCORE.SYSTEM>
0

>  <SCORE.SYSTEM.CONST>
0

>  <SCORE.SYSTEM.DIHEDRAL>
0

>  <SCORE.SYSTEM.SOLV>
0

>  <SCORE.SYSTEM.norm>
0

>  <SCORE.heavy>
12

>  <SCORE.norm>
-1.78994

>  <SYMMETRIC_BONDS>
4 1 2

>  <RMSD>
2.227

$$$$
1kod cryst
 OpenBabel11021811393D
libRbt.so/2013.1/901 2013/11/27
 12 11  0  0  0  0  0  0  0  0999 V2000
    3.1997    6.7027   35.3485 C   0  0  0  0  0  0  0  0  0  0  0  0
    2.8332    6.7260   36.5140 O   0  5  0  0  0  0  0  0  0  0  0  0
    4.3682    6.5777   35.0042 O   0  0  0  0  0  0  0  0  0  0  0  0
    2.1249    6.8360   34.2514 C   0  0  1  0  0  0  0  0  0  0  0  0
    2.5377    7.8950   33.2804 N   0  3  0  0  0  0  0  0  0  0  0  0
    1.9366    5.4955   33.5033 C   0  0  0  0  0  0  0  0  0  0  0  0
    0.9947    4.5793   34.2736 C   0  0  0  0  0  0  0  0  0  0  0  0
    0.4177    3.5220   33.3349 C   0  0  0  0  0  0  0  0  0  0  0  0
    1.4464    2.4596   33.1074 N   0  0  0  0  0  0  0  0  0  0  0  0
    1.1271    1.1959   33.1923 C   0  0  0  0  0  0  0  0  0  0  0  0
    1.7591    0.4363   33.9231 O   0  0  0  0  0  0  0  0  0  0  0  0
    0.1395    0.7288   32.4855 N   0  0  0  0  0  0  0  0  0  0  0  0
  1  2  1  0  0  0  0
  1  3  2  0  0  0  0
  4  1  1  1  0  0  0
  4  6  1  0  0  0  0
  4  5  1  0  0  0  0
  6  7  1  0  0  0  0
  7  8  1  0  0  0  0
  8  9  1  0  0  0  0
  9 10  1  0  0  0  0
 10 12  1  0  0  0  0
 10 11  2  0  0  0  0
M  CHG  2   2  -1   5   1
M  END
>  <CHROM.1>
129.80905157,83.07969916,-52.34601521,159.36629645,77.97684502,-46.85791096
1.92714030,4.44152839,34.00577748,-1.02261054,0.88870081,2.97730692

>  <Name>
1kod cryst

>  <RI>
0

>  <Rbt.Current_Directory>
/home/itssahil/PROJECTS/Mol_Feturizer/New_Systems/rnas/1kod

>  <Rbt.Executable>
rbdock ($Id: //depot/dev/client3/rdock/2013.1/src/exe/rbdock.cxx#4 $)

>  <Rbt.Library>
libRbt.so (2013.1, Build901 2013/11/27)

>  <Rbt.Parameter_File>
/export/apps/rDock/src/rDock_2013.1_src/data/scripts/dock_solv.prm

>  <Rbt.Receptor>
prm/pocket_docking_6.prm

>  <SCORE>
-29.2234

>  <SCORE.INTER>
-24.772

>  <SCORE.INTER.CONST>
1

>  <SCORE.INTER.POLAR>
-3.6362

>  <SCORE.INTER.ROT>
5

>  <SCORE.INTER.SOLV>
16.9394

>  <SCORE.INTER.VDW>
-16.9738

>  <SCORE.INTER.norm>
-2.06433

>  <SCORE.INTRA>
-4.45138

>  <SCORE.INTRA.DIHEDRAL>
-0.993435

>  <SCORE.INTRA.DIHEDRAL.0>
7.7847

>  <SCORE.INTRA.POLAR>
0

>  <SCORE.INTRA.POLAR.0>
0

>  <SCORE.INTRA.REPUL>
0

>  <SCORE.INTRA.REPUL.0>
0

>  <SCORE.INTRA.SOLV>
-2.74352

>  <SCORE.INTRA.SOLV.lig_0>
-57.5465

>  <SCORE.INTRA.VDW>
-2.5829

>  <SCORE.INTRA.VDW.0>
1.39369

>  <SCORE.INTRA.norm>
-0.370948

>  <SCORE.RESTR>
0

>  <SCORE.RESTR.CAVITY>
0

>  <SCORE.RESTR.norm>
0

>  <SCORE.SYSTEM>
0

>  <SCORE.SYSTEM.CONST>
0

>  <SCORE.SYSTEM.DIHEDRAL>
0

>  <SCORE.SYSTEM.SOLV>
0

>  <SCORE.SYSTEM.norm>
0

>  <SCORE.heavy>
12

>  <SCORE.norm>
-2.43528

>  <SYMMETRIC_BONDS>
4 1 2

>  <RMSD>
2.227

$$$$
1kod cryst
 OpenBabel11021811393D
libRbt.so/2013.1/901 2013/11/27
 12 11  0  0  0  0  0  0  0  0999 V2000
    3.1588    6.7895   35.3618 C   0  0  0  0  0  0  0  0  0  0  0  0
    2.7794    6.4269   36.4654 O   0  5  0  0  0  0  0  0  0  0  0  0
    4.3169    7.0944   35.1058 O   0  0  0  0  0  0  0  0  0  0  0  0
    2.1162    6.8635   34.2287 C   0  0  1  0  0  0  0  0  0  0  0  0
    2.5334    7.9037   33.2395 N   0  3  0  0  0  0  0  0  0  0  0  0
    1.9842    5.4973   33.5158 C   0  0  0  0  0  0  0  0  0  0  0  0
    1.0529    4.5752   34.2920 C   0  0  0  0  0  0  0  0  0  0  0  0
    0.4543    3.5320   33.3511 C   0  0  0  0  0  0  0  0  0  0  0  0
    1.4648    2.4546   33.1129 N   0  0  0  0  0  0  0  0  0  0  0  0
    1.1254    1.1957   33.1911 C   0  0  0  0  0  0  0  0  0  0  0  0
    1.7480    0.4215   33.9146 O   0  0  0  0  0  0  0  0  0  0  0  0
    0.1276    0.7491   32.4854 N   0  0  0  0  0  0  0  0  0  0  0  0
  1  2  1  0  0  0  0
  1  3  2  0  0  0  0
  4  1  1  1  0  0  0
  4  6  1  0  0  0  0
  4  5  1  0  0  0  0
  6  7  1  0  0  0  0
  7  8  1  0  0  0  0
  8  9  1  0  0  0  0
  9 10  1  0  0  0  0
 10 12  1  0  0  0  0
 10 11  2  0  0  0  0
M  CHG  2   2  -1   5   1
M  END
>  <CHROM.1>
151.93339315,82.46665747,-169.39587331,155.54479865,79.08048232,-46.75483153
1.92442326,4.47085097,34.00914535,-0.97415891,0.94829520,2.90743305

>  <Name>
1kod cryst

>  <RI>
0

>  <Rbt.Current_Directory>
/home/itssahil/PROJECTS/Mol_Feturizer/New_Systems/rnas/1kod

>  <Rbt.Executable>
rbdock ($Id: //depot/dev/client3/rdock/2013.1/src/exe/rbdock.cxx#4 $)

>  <Rbt.Library>
libRbt.so (2013.1, Build901 2013/11/27)

>  <Rbt.Parameter_File>
/export/apps/rDock/src/rDock_2013.1_src/data/scripts/dock_solv.prm

>  <Rbt.Receptor>
prm/pocket_docking_8.prm

>  <SCORE>
-29.0055

>  <SCORE.INTER>
-25.0743

>  <SCORE.INTER.CONST>
1

>  <SCORE.INTER.POLAR>
-3.72776

>  <SCORE.INTER.ROT>
5

>  <SCORE.INTER.SOLV>
16.9525

>  <SCORE.INTER.VDW>
-16.8745

>  <SCORE.INTER.norm>
-2.08952

>  <SCORE.INTRA>
-3.93121

>  <SCORE.INTRA.DIHEDRAL>
-0.246577

>  <SCORE.INTRA.DIHEDRAL.0>
7.7847

>  <SCORE.INTRA.POLAR>
0

>  <SCORE.INTRA.POLAR.0>
0

>  <SCORE.INTRA.REPUL>
0

>  <SCORE.INTRA.REPUL.0>
0

>  <SCORE.INTRA.SOLV>
-2.5865

>  <SCORE.INTRA.SOLV.lig_0>
-57.5465

>  <SCORE.INTRA.VDW>
-2.51467

>  <SCORE.INTRA.VDW.0>
1.39369

>  <SCORE.INTRA.norm>
-0.327601

>  <SCORE.RESTR>
0

>  <SCORE.RESTR.CAVITY>
0

>  <SCORE.RESTR.norm>
0

>  <SCORE.SYSTEM>
0

>  <SCORE.SYSTEM.CONST>
0

>  <SCORE.SYSTEM.DIHEDRAL>
0

>  <SCORE.SYSTEM.SOLV>
0

>  <SCORE.SYSTEM.norm>
0

>  <SCORE.heavy>
12

>  <SCORE.norm>
-2.41712

>  <SYMMETRIC_BONDS>
4 1 2

>  <RMSD>
2.234

$$$$
1kod cryst
 OpenBabel11021811393D
libRbt.so/2013.1/901 2013/11/27
 12 11  0  0  0  0  0  0  0  0999 V2000
    1.8451    5.6646   35.7857 C   0  0  0  0  0  0  0  0  0  0  0  0
    2.9255    5.6594   36.3568 O   0  5  0  0  0  0  0  0  0  0  0  0
    0.7674    5.6836   36.3670 O   0  0  0  0  0  0  0  0  0  0  0  0
    1.8438    5.6490   34.2443 C   0  0  1  0  0  0  0  0  0  0  0  0
    2.8233    6.6584   33.7383 N   0  3  0  0  0  0  0  0  0  0  0  0
    2.2246    4.2482   33.7104 C   0  0  0  0  0  0  0  0  0  0  0  0
    1.1103    3.2476   33.9877 C   0  0  0  0  0  0  0  0  0  0  0  0
    1.4459    1.9058   33.3405 C   0  0  0  0  0  0  0  0  0  0  0  0
    2.5458    1.2526   34.1167 N   0  0  0  0  0  0  0  0  0  0  0  0
    2.3244    0.7792   35.3137 C   0  0  0  0  0  0  0  0  0  0  0  0
    3.0289    1.1167   36.2625 O   0  0  0  0  0  0  0  0  0  0  0  0
    1.3581   -0.0710   35.5052 N   0  0  0  0  0  0  0  0  0  0  0  0
  1  2  1  0  0  0  0
  1  3  2  0  0  0  0
  4  1  1  1  0  0  0
  4  6  1  0  0  0  0
  4  5  1  0  0  0  0
  6  7  1  0  0  0  0
  7  8  1  0  0  0  0
  8  9  1  0  0  0  0
  9 10  1  0  0  0  0
 10 12  1  0  0  0  0
 10 11  2  0  0  0  0
M  CHG  2   2  -1   5   1
M  END
>  <CHROM.1>
-46.57747469,69.99777670,-55.51263555,174.73915599,72.53648347,-109.59187632
2.04123016,3.50010832,34.91052801,-1.16136690,1.52805025,2.72439494

>  <Name>
1kod cryst

>  <RI>
0

>  <Rbt.Current_Directory>
/home/itssahil/PROJECTS/Mol_Feturizer/New_Systems/rnas/1kod

>  <Rbt.Executable>
rbdock ($Id: //depot/dev/client3/rdock/2013.1/src/exe/rbdock.cxx#4 $)

>  <Rbt.Library>
libRbt.so (2013.1, Build901 2013/11/27)

>  <Rbt.Parameter_File>
/export/apps/rDock/src/rDock_2013.1_src/data/scripts/dock_solv.prm

>  <Rbt.Receptor>
prm/pocket_docking_4.prm

>  <SCORE>
-22.2222

>  <SCORE.INTER>
-16.2968

>  <SCORE.INTER.CONST>
1

>  <SCORE.INTER.POLAR>
-2.48401

>  <SCORE.INTER.ROT>
5

>  <SCORE.INTER.SOLV>
13.0389

>  <SCORE.INTER.VDW>
-13.8641

>  <SCORE.INTER.norm>
-1.35806

>  <SCORE.INTRA>
-5.92543

>  <SCORE.INTRA.DIHEDRAL>
-4.45944

>  <SCORE.INTRA.DIHEDRAL.0>
7.7847

>  <SCORE.INTRA.POLAR>
0

>  <SCORE.INTRA.POLAR.0>
0

>  <SCORE.INTRA.REPUL>
0

>  <SCORE.INTRA.REPUL.0>
0

>  <SCORE.INTRA.SOLV>
-2.20642

>  <SCORE.INTRA.SOLV.lig_0>
-57.5465

>  <SCORE.INTRA.VDW>
-2.5925

>  <SCORE.INTRA.VDW.0>
1.39369

>  <SCORE.INTRA.norm>
-0.493786

>  <SCORE.RESTR>
0

>  <SCORE.RESTR.CAVITY>
0

>  <SCORE.RESTR.norm>
0

>  <SCORE.SYSTEM>
0

>  <SCORE.SYSTEM.CONST>
0

>  <SCORE.SYSTEM.DIHEDRAL>
0

>  <SCORE.SYSTEM.SOLV>
0

>  <SCORE.SYSTEM.norm>
0

>  <SCORE.heavy>
12

>  <SCORE.norm>
-1.85185

>  <SYMMETRIC_BONDS>
4 1 2

>  <RMSD>
2.241

$$$$
1kod cryst
 OpenBabel11021811393D
libRbt.so/2013.1/901 2013/11/27
 12 11  0  0  0  0  0  0  0  0999 V2000
    1.7249    5.6049   35.5333 C   0  0  0  0  0  0  0  0  0  0  0  0
    2.8937    5.8741   35.7674 O   0  5  0  0  0  0  0  0  0  0  0  0
    0.9061    5.3167   36.3970 O   0  0  0  0  0  0  0  0  0  0  0  0
    1.2582    5.6336   34.0644 C   0  0  1  0  0  0  0  0  0  0  0  0
    2.3737    6.1268   33.2002 N   0  3  0  0  0  0  0  0  0  0  0  0
    0.8299    4.2224   33.5981 C   0  0  0  0  0  0  0  0  0  0  0  0
    1.9649    3.2257   33.7936 C   0  0  0  0  0  0  0  0  0  0  0  0
    1.4690    1.8116   33.4996 C   0  0  0  0  0  0  0  0  0  0  0  0
    2.4171    0.8270   34.1081 N   0  0  0  0  0  0  0  0  0  0  0  0
    2.2453    0.4085   35.3334 C   0  0  0  0  0  0  0  0  0  0  0  0
    3.1559    0.4823   36.1555 O   0  0  0  0  0  0  0  0  0  0  0  0
    1.1042   -0.1069   35.6875 N   0  0  0  0  0  0  0  0  0  0  0  0
  1  2  1  0  0  0  0
  1  3  2  0  0  0  0
  4  1  1  1  0  0  0
  4  6  1  0  0  0  0
  4  5  1  0  0  0  0
  6  7  1  0  0  0  0
  7  8  1  0  0  0  0
  8  9  1  0  0  0  0
  9 10  1  0  0  0  0
 10 12  1  0  0  0  0
 10 11  2  0  0  0  0
M  CHG  2   2  -1   5   1
M  END
>  <CHROM.1>
-5.05372930,-56.37132278,-62.81021088,172.73269437,-161.72742376,-90.49506554
1.88497471,3.29275036,34.77072343,-1.97798356,1.45773570,-2.83912946

>  <Name>
1kod cryst

>  <RI>
0

>  <Rbt.Current_Directory>
/home/itssahil/PROJECTS/Mol_Feturizer/New_Systems/rnas/1kod

>  <Rbt.Executable>
rbdock ($Id: //depot/dev/client3/rdock/2013.1/src/exe/rbdock.cxx#4 $)

>  <Rbt.Library>
libRbt.so (2013.1, Build901 2013/11/27)

>  <Rbt.Parameter_File>
/export/apps/rDock/src/rDock_2013.1_src/data/scripts/dock_solv.prm

>  <Rbt.Receptor>
prm/pocket_docking_4.prm

>  <SCORE>
-24.9868

>  <SCORE.INTER>
-20.5111

>  <SCORE.INTER.CONST>
1

>  <SCORE.INTER.POLAR>
-3.55465

>  <SCORE.INTER.ROT>
5

>  <SCORE.INTER.SOLV>
17.4319

>  <SCORE.INTER.VDW>
-14.5693

>  <SCORE.INTER.norm>
-1.70926

>  <SCORE.INTRA>
-4.47563

>  <SCORE.INTRA.DIHEDRAL>
-4.08567

>  <SCORE.INTRA.DIHEDRAL.0>
7.7847

>  <SCORE.INTRA.POLAR>
0

>  <SCORE.INTRA.POLAR.0>
0

>  <SCORE.INTRA.REPUL>
0

>  <SCORE.INTRA.REPUL.0>
0

>  <SCORE.INTRA.SOLV>
-1.05441

>  <SCORE.INTRA.SOLV.lig_0>
-57.5465

>  <SCORE.INTRA.VDW>
-1.90559

>  <SCORE.INTRA.VDW.0>
1.39369

>  <SCORE.INTRA.norm>
-0.37297

>  <SCORE.RESTR>
0

>  <SCORE.RESTR.CAVITY>
0

>  <SCORE.RESTR.norm>
0

>  <SCORE.SYSTEM>
0

>  <SCORE.SYSTEM.CONST>
0

>  <SCORE.SYSTEM.DIHEDRAL>
0

>  <SCORE.SYSTEM.SOLV>
0

>  <SCORE.SYSTEM.norm>
0

>  <SCORE.heavy>
12

>  <SCORE.norm>
-2.08223

>  <SYMMETRIC_BONDS>
4 1 2

>  <RMSD>
2.246

$$$$
1kod cryst
 OpenBabel11021811393D
libRbt.so/2013.1/901 2013/11/27
 12 11  0  0  0  0  0  0  0  0999 V2000
    3.7877    6.4007   35.2643 C   0  0  0  0  0  0  0  0  0  0  0  0
    4.6668    6.2202   34.4349 O   0  5  0  0  0  0  0  0  0  0  0  0
    3.9376    6.2197   36.4662 O   0  0  0  0  0  0  0  0  0  0  0  0
    2.4129    6.8869   34.7645 C   0  0  1  0  0  0  0  0  0  0  0  0
    2.5770    7.5562   33.4380 N   0  3  0  0  0  0  0  0  0  0  0  0
    1.4298    5.7009   34.6256 C   0  0  0  0  0  0  0  0  0  0  0  0
    2.0565    4.5777   33.8097 C   0  0  0  0  0  0  0  0  0  0  0  0
    1.0251    3.4791   33.5626 C   0  0  0  0  0  0  0  0  0  0  0  0
    1.7330    2.2372   33.1209 N   0  0  0  0  0  0  0  0  0  0  0  0
    1.1222    1.0828   33.1355 C   0  0  0  0  0  0  0  0  0  0  0  0
    1.6160    0.1184   33.7158 O   0  0  0  0  0  0  0  0  0  0  0  0
   -0.0143    0.9438   32.5171 N   0  0  0  0  0  0  0  0  0  0  0  0
  1  2  1  0  0  0  0
  1  3  2  0  0  0  0
  4  1  1  6  0  0  0
  4  6  1  0  0  0  0
  4  5  1  0  0  0  0
  6  7  1  0  0  0  0
  7  8  1  0  0  0  0
  8  9  1  0  0  0  0
  9 10  1  0  0  0  0
 10 12  1  0  0  0  0
 10 11  2  0  0  0  0
M  CHG  2   2  -1   5   1
M  END
>  <CHROM.1>
-22.55223227,-51.02950376,166.55198725,-174.25673914,-163.87613978,-15.50878085
2.20937985,4.28821687,34.04772371,-1.06266688,0.67118740,3.10788818

>  <Name>
1kod cryst

>  <RI>
0

>  <Rbt.Current_Directory>
/home/itssahil/PROJECTS/Mol_Feturizer/New_Systems/rnas/1kod

>  <Rbt.Executable>
rbdock ($Id: //depot/dev/client3/rdock/2013.1/src/exe/rbdock.cxx#4 $)

>  <Rbt.Library>
libRbt.so (2013.1, Build901 2013/11/27)

>  <Rbt.Parameter_File>
/export/apps/rDock/src/rDock_2013.1_src/data/scripts/dock_solv.prm

>  <Rbt.Receptor>
prm/pocket_docking_4.prm

>  <SCORE>
-27.8587

>  <SCORE.INTER>
-23.7539

>  <SCORE.INTER.CONST>
1

>  <SCORE.INTER.POLAR>
-3.943

>  <SCORE.INTER.ROT>
5

>  <SCORE.INTER.SOLV>
16.7315

>  <SCORE.INTER.VDW>
-15.2031

>  <SCORE.INTER.norm>
-1.97949

>  <SCORE.INTRA>
-4.17918

>  <SCORE.INTRA.DIHEDRAL>
-3.77094

>  <SCORE.INTRA.DIHEDRAL.0>
7.7847

>  <SCORE.INTRA.POLAR>
0

>  <SCORE.INTRA.POLAR.0>
0

>  <SCORE.INTRA.REPUL>
0

>  <SCORE.INTRA.REPUL.0>
0

>  <SCORE.INTRA.SOLV>
-1.42009

>  <SCORE.INTRA.SOLV.lig_0>
-57.5465

>  <SCORE.INTRA.VDW>
-1.58367

>  <SCORE.INTRA.VDW.0>
1.39369

>  <SCORE.INTRA.norm>
-0.348265

>  <SCORE.RESTR>
0.0743396

>  <SCORE.RESTR.CAVITY>
0.0743396

>  <SCORE.RESTR.norm>
0.00619496

>  <SCORE.SYSTEM>
0

>  <SCORE.SYSTEM.CONST>
0

>  <SCORE.SYSTEM.DIHEDRAL>
0

>  <SCORE.SYSTEM.SOLV>
0

>  <SCORE.SYSTEM.norm>
0

>  <SCORE.heavy>
12

>  <SCORE.norm>
-2.32156

>  <SYMMETRIC_BONDS>
4 1 2

>  <RMSD>
2.250

$$$$
1kod cryst
 OpenBabel11021811393D
libRbt.so/2013.1/901 2013/11/27
 12 11  0  0  0  0  0  0  0  0999 V2000
    3.0780    6.7040   35.3592 C   0  0  0  0  0  0  0  0  0  0  0  0
    2.6733    6.3170   36.4454 O   0  5  0  0  0  0  0  0  0  0  0  0
    4.2308    7.0595   35.1490 O   0  0  0  0  0  0  0  0  0  0  0  0
    2.0762    6.7428   34.1881 C   0  0  1  0  0  0  0  0  0  0  0  0
    2.5061    7.7821   33.2034 N   0  3  0  0  0  0  0  0  0  0  0  0
    2.0011    5.3668   33.4858 C   0  0  0  0  0  0  0  0  0  0  0  0
    0.8411    4.5469   34.0355 C   0  0  0  0  0  0  0  0  0  0  0  0
    0.8377    3.1603   33.3957 C   0  0  0  0  0  0  0  0  0  0  0  0
    1.6432    2.2297   34.2465 N   0  0  0  0  0  0  0  0  0  0  0  0
    1.9226    1.0231   33.8315 C   0  0  0  0  0  0  0  0  0  0  0  0
    1.6600    0.0438   34.5262 O   0  0  0  0  0  0  0  0  0  0  0  0
    2.4989    0.8526   32.6774 N   0  0  0  0  0  0  0  0  0  0  0  0
  1  2  1  0  0  0  0
  1  3  2  0  0  0  0
  4  1  1  1  0  0  0
  4  6  1  0  0  0  0
  4  5  1  0  0  0  0
  6  7  1  0  0  0  0
  7  8  1  0  0  0  0
  8  9  1  0  0  0  0
  9 10  1  0  0  0  0
 10 12  1  0  0  0  0
 10 11  2  0  0  0  0
M  CHG  2   2  -1   5   1
M  END
>  <CHROM.1>
153.45393415,95.40979836,-164.74017894,-176.36985149,91.26449521,8.08818300
2.19308781,4.33392944,34.20417853,-1.14779583,1.11999951,2.91116859

>  <Name>
1kod cryst

>  <RI>
0

>  <Rbt.Current_Directory>
/home/itssahil/PROJECTS/Mol_Feturizer/New_Systems/rnas/1kod

>  <Rbt.Executable>
rbdock ($Id: //depot/dev/client3/rdock/2013.1/src/exe/rbdock.cxx#4 $)

>  <Rbt.Library>
libRbt.so (2013.1, Build901 2013/11/27)

>  <Rbt.Parameter_File>
/export/apps/rDock/src/rDock_2013.1_src/data/scripts/dock_solv.prm

>  <Rbt.Receptor>
prm/pocket_docking_5.prm

>  <SCORE>
-24.5314

>  <SCORE.INTER>
-21.3685

>  <SCORE.INTER.CONST>
1

>  <SCORE.INTER.POLAR>
-3.66613

>  <SCORE.INTER.ROT>
5

>  <SCORE.INTER.SOLV>
16.2129

>  <SCORE.INTER.VDW>
-14.3629

>  <SCORE.INTER.norm>
-1.78071

>  <SCORE.INTRA>
-3.16289

>  <SCORE.INTRA.DIHEDRAL>
1.27686

>  <SCORE.INTRA.DIHEDRAL.0>
7.7847

>  <SCORE.INTRA.POLAR>
0

>  <SCORE.INTRA.POLAR.0>
0

>  <SCORE.INTRA.REPUL>
0

>  <SCORE.INTRA.REPUL.0>
0

>  <SCORE.INTRA.SOLV>
-2.70308

>  <SCORE.INTRA.SOLV.lig_0>
-57.5465

>  <SCORE.INTRA.VDW>
-2.44978

>  <SCORE.INTRA.VDW.0>
1.39369

>  <SCORE.INTRA.norm>
-0.263574

>  <SCORE.RESTR>
0

>  <SCORE.RESTR.CAVITY>
0

>  <SCORE.RESTR.norm>
0

>  <SCORE.SYSTEM>
0

>  <SCORE.SYSTEM.CONST>
0

>  <SCORE.SYSTEM.DIHEDRAL>
0

>  <SCORE.SYSTEM.SOLV>
0

>  <SCORE.SYSTEM.norm>
0

>  <SCORE.heavy>
12

>  <SCORE.norm>
-2.04428

>  <SYMMETRIC_BONDS>
4 1 2

>  <RMSD>
2.255

$$$$
1kod cryst
 OpenBabel11021811393D
libRbt.so/2013.1/901 2013/11/27
 12 11  0  0  0  0  0  0  0  0999 V2000
    2.4607    6.8095   35.5818 C   0  0  0  0  0  0  0  0  0  0  0  0
    1.8115    6.9102   36.6122 O   0  5  0  0  0  0  0  0  0  0  0  0
    3.4880    7.4380   35.3597 O   0  0  0  0  0  0  0  0  0  0  0  0
    1.9548    5.8314   34.5030 C   0  0  1  0  0  0  0  0  0  0  0  0
    2.1499    6.4407   33.1520 N   0  3  0  0  0  0  0  0  0  0  0  0
    2.7196    4.4892   34.5786 C   0  0  0  0  0  0  0  0  0  0  0  0
    2.0614    3.4459   33.6851 C   0  0  0  0  0  0  0  0  0  0  0  0
    3.0322    2.2950   33.4306 C   0  0  0  0  0  0  0  0  0  0  0  0
    2.8328    1.2487   34.4815 N   0  0  0  0  0  0  0  0  0  0  0  0
    1.6428    0.7677   34.7235 C   0  0  0  0  0  0  0  0  0  0  0  0
    1.1861    0.7669   35.8645 O   0  0  0  0  0  0  0  0  0  0  0  0
    0.9361    0.2690   33.7514 N   0  0  0  0  0  0  0  0  0  0  0  0
  1  2  1  0  0  0  0
  1  3  2  0  0  0  0
  4  1  1  1  0  0  0
  4  6  1  0  0  0  0
  4  5  1  0  0  0  0
  6  7  1  0  0  0  0
  7  8  1  0  0  0  0
  8  9  1  0  0  0  0
  9 10  1  0  0  0  0
 10 12  1  0  0  0  0
 10 11  2  0  0  0  0
M  CHG  2   2  -1   5   1
M  END
>  <CHROM.1>
140.43301234,170.08165064,-62.17172830,162.74708154,90.90971098,-127.74160079
2.18405178,3.90830323,34.63352842,1.05840702,1.29397755,0.61005083

>  <Name>
1kod cryst

>  <RI>
0

>  <Rbt.Current_Directory>
/home/itssahil/PROJECTS/Mol_Feturizer/New_Systems/rnas/1kod

>  <Rbt.Executable>
rbdock ($Id: //depot/dev/client3/rdock/2013.1/src/exe/rbdock.cxx#4 $)

>  <Rbt.Library>
libRbt.so (2013.1, Build901 2013/11/27)

>  <Rbt.Parameter_File>
/export/apps/rDock/src/rDock_2013.1_src/data/scripts/dock_solv.prm

>  <Rbt.Receptor>
prm/pocket_docking_7.prm

>  <SCORE>
-16.614

>  <SCORE.INTER>
-13.0436

>  <SCORE.INTER.CONST>
1

>  <SCORE.INTER.POLAR>
-2.8605

>  <SCORE.INTER.ROT>
5

>  <SCORE.INTER.SOLV>
16.7406

>  <SCORE.INTER.VDW>
-11.6743

>  <SCORE.INTER.norm>
-1.08697

>  <SCORE.INTRA>
-3.57041

>  <SCORE.INTRA.DIHEDRAL>
-1.13245

>  <SCORE.INTRA.DIHEDRAL.0>
7.7847

>  <SCORE.INTRA.POLAR>
0

>  <SCORE.INTRA.POLAR.0>
0

>  <SCORE.INTRA.REPUL>
0

>  <SCORE.INTRA.REPUL.0>
0

>  <SCORE.INTRA.SOLV>
-1.78852

>  <SCORE.INTRA.SOLV.lig_0>
-57.5465

>  <SCORE.INTRA.VDW>
-2.10992

>  <SCORE.INTRA.VDW.0>
1.39369

>  <SCORE.INTRA.norm>
-0.297534

>  <SCORE.RESTR>
0

>  <SCORE.RESTR.CAVITY>
0

>  <SCORE.RESTR.norm>
0

>  <SCORE.SYSTEM>
0

>  <SCORE.SYSTEM.CONST>
0

>  <SCORE.SYSTEM.DIHEDRAL>
0

>  <SCORE.SYSTEM.SOLV>
0

>  <SCORE.SYSTEM.norm>
0

>  <SCORE.heavy>
12

>  <SCORE.norm>
-1.3845

>  <SYMMETRIC_BONDS>
4 1 2

>  <RMSD>
2.256

$$$$
1kod cryst
 OpenBabel11021811393D
libRbt.so/2013.1/901 2013/11/27
 12 11  0  0  0  0  0  0  0  0999 V2000
    1.3166    6.6533   35.9356 C   0  0  0  0  0  0  0  0  0  0  0  0
    0.1961    6.4119   36.3592 O   0  5  0  0  0  0  0  0  0  0  0  0
    2.1167    7.3856   36.5041 O   0  0  0  0  0  0  0  0  0  0  0  0
    1.7443    5.9933   34.6097 C   0  0  1  0  0  0  0  0  0  0  0  0
    2.8004    6.8279   33.9596 N   0  3  0  0  0  0  0  0  0  0  0  0
    2.2933    4.5690   34.8589 C   0  0  0  0  0  0  0  0  0  0  0  0
    2.4212    3.8065   33.5466 C   0  0  0  0  0  0  0  0  0  0  0  0
    2.9826    2.4112   33.8108 C   0  0  0  0  0  0  0  0  0  0  0  0
    1.8530    1.4306   33.8462 N   0  0  0  0  0  0  0  0  0  0  0  0
    1.5871    0.7617   34.9361 C   0  0  0  0  0  0  0  0  0  0  0  0
    1.5082   -0.4646   34.9166 O   0  0  0  0  0  0  0  0  0  0  0  0
    1.3877    1.3978   36.0536 N   0  0  0  0  0  0  0  0  0  0  0  0
  1  2  1  0  0  0  0
  1  3  2  0  0  0  0
  4  1  1  1  0  0  0
  4  6  1  0  0  0  0
  4  5  1  0  0  0  0
  6  7  1  0  0  0  0
  7  8  1  0  0  0  0
  8  9  1  0  0  0  0
  9 10  1  0  0  0  0
 10 12  1  0  0  0  0
 10 11  2  0  0  0  0
M  CHG  2   2  -1   5   1
M  END
>  <CHROM.1>
154.70531136,167.32171429,67.73378716,179.20487541,98.66055679,62.80687729
1.85189816,3.95452812,34.95583191,1.57172782,0.97942291,0.12925440

>  <Name>
1kod cryst

>  <RI>
0

>  <Rbt.Current_Directory>
/home/itssahil/PROJECTS/Mol_Feturizer/New_Systems/rnas/1kod

>  <Rbt.Executable>
rbdock ($Id: //depot/dev/client3/rdock/2013.1/src/exe/rbdock.cxx#4 $)

>  <Rbt.Library>
libRbt.so (2013.1, Build901 2013/11/27)

>  <Rbt.Parameter_File>
/export/apps/rDock/src/rDock_2013.1_src/data/scripts/dock_solv.prm

>  <Rbt.Receptor>
prm/pocket_docking_3.prm

>  <SCORE>
-16.9486

>  <SCORE.INTER>
-12.7943

>  <SCORE.INTER.CONST>
1

>  <SCORE.INTER.POLAR>
-2.37787

>  <SCORE.INTER.ROT>
5

>  <SCORE.INTER.SOLV>
12.9946

>  <SCORE.INTER.VDW>
-11.8682

>  <SCORE.INTER.norm>
-1.06619

>  <SCORE.INTRA>
-4.15428

>  <SCORE.INTRA.DIHEDRAL>
-0.878128

>  <SCORE.INTRA.DIHEDRAL.0>
7.7847

>  <SCORE.INTRA.POLAR>
0

>  <SCORE.INTRA.POLAR.0>
0

>  <SCORE.INTRA.REPUL>
0

>  <SCORE.INTRA.REPUL.0>
0

>  <SCORE.INTRA.SOLV>
-1.97678

>  <SCORE.INTRA.SOLV.lig_0>
-57.5465

>  <SCORE.INTRA.VDW>
-2.72682

>  <SCORE.INTRA.VDW.0>
1.39369

>  <SCORE.INTRA.norm>
-0.34619

>  <SCORE.RESTR>
0

>  <SCORE.RESTR.CAVITY>
0

>  <SCORE.RESTR.norm>
0

>  <SCORE.SYSTEM>
0

>  <SCORE.SYSTEM.CONST>
0

>  <SCORE.SYSTEM.DIHEDRAL>
0

>  <SCORE.SYSTEM.SOLV>
0

>  <SCORE.SYSTEM.norm>
0

>  <SCORE.heavy>
12

>  <SCORE.norm>
-1.41238

>  <SYMMETRIC_BONDS>
4 1 2

>  <RMSD>
2.259

$$$$
1kod cryst
 OpenBabel11021811393D
libRbt.so/2013.1/901 2013/11/27
 12 11  0  0  0  0  0  0  0  0999 V2000
    3.3991    5.4374   35.3497 C   0  0  0  0  0  0  0  0  0  0  0  0
    4.5275    5.3543   34.8879 O   0  5  0  0  0  0  0  0  0  0  0  0
    3.1533    5.8438   36.4785 O   0  0  0  0  0  0  0  0  0  0  0  0
    2.2199    5.0073   34.4549 C   0  0  1  0  0  0  0  0  0  0  0  0
    2.0980    5.9566   33.3066 N   0  3  0  0  0  0  0  0  0  0  0  0
    2.4348    3.5729   33.9177 C   0  0  0  0  0  0  0  0  0  0  0  0
    1.1063    2.9470   33.5138 C   0  0  0  0  0  0  0  0  0  0  0  0
    1.3345    1.5196   33.0213 C   0  0  0  0  0  0  0  0  0  0  0  0
    2.1353    0.7747   34.0423 N   0  0  0  0  0  0  0  0  0  0  0  0
    1.5867    0.3828   35.1610 C   0  0  0  0  0  0  0  0  0  0  0  0
    2.0905    0.6748   36.2433 O   0  0  0  0  0  0  0  0  0  0  0  0
    0.5036   -0.3377   35.1334 N   0  0  0  0  0  0  0  0  0  0  0  0
  1  2  1  0  0  0  0
  1  3  2  0  0  0  0
  4  1  1  1  0  0  0
  4  6  1  0  0  0  0
  4  5  1  0  0  0  0
  6  7  1  0  0  0  0
  7  8  1  0  0  0  0
  8  9  1  0  0  0  0
  9 10  1  0  0  0  0
 10 12  1  0  0  0  0
 10 11  2  0  0  0  0
M  CHG  2   2  -1   5   1
M  END
>  <CHROM.1>
-66.93415502,157.92700233,160.47904264,-178.50799369,51.51642272,-105.99802958
2.22288134,3.11302959,34.62869084,-0.86497009,1.03632276,2.51845461

>  <Name>
1kod cryst

>  <RI>
0

>  <Rbt.Current_Directory>
/home/itssahil/PROJECTS/Mol_Feturizer/New_Systems/rnas/1kod

>  <Rbt.Executable>
rbdock ($Id: //depot/dev/client3/rdock/2013.1/src/exe/rbdock.cxx#4 $)

>  <Rbt.Library>
libRbt.so (2013.1, Build901 2013/11/27)

>  <Rbt.Parameter_File>
/export/apps/rDock/src/rDock_2013.1_src/data/scripts/dock_solv.prm

>  <Rbt.Receptor>
prm/pocket_docking_3.prm

>  <SCORE>
-25.1745

>  <SCORE.INTER>
-20.8188

>  <SCORE.INTER.CONST>
1

>  <SCORE.INTER.POLAR>
-3.69191

>  <SCORE.INTER.ROT>
5

>  <SCORE.INTER.SOLV>
17.5546

>  <SCORE.INTER.VDW>
-14.3577

>  <SCORE.INTER.norm>
-1.7349

>  <SCORE.INTRA>
-4.36536

>  <SCORE.INTRA.DIHEDRAL>
-2.8684

>  <SCORE.INTRA.DIHEDRAL.0>
7.7847

>  <SCORE.INTRA.POLAR>
0

>  <SCORE.INTRA.POLAR.0>
0

>  <SCORE.INTRA.REPUL>
0

>  <SCORE.INTRA.REPUL.0>
0

>  <SCORE.INTRA.SOLV>
-1.97289

>  <SCORE.INTRA.SOLV.lig_0>
-57.5465

>  <SCORE.INTRA.VDW>
-1.94472

>  <SCORE.INTRA.VDW.0>
1.39369

>  <SCORE.INTRA.norm>
-0.36378

>  <SCORE.RESTR>
0.00974608

>  <SCORE.RESTR.CAVITY>
0.00974608

>  <SCORE.RESTR.norm>
0.000812173

>  <SCORE.SYSTEM>
0

>  <SCORE.SYSTEM.CONST>
0

>  <SCORE.SYSTEM.DIHEDRAL>
0

>  <SCORE.SYSTEM.SOLV>
0

>  <SCORE.SYSTEM.norm>
0

>  <SCORE.heavy>
12

>  <SCORE.norm>
-2.09787

>  <SYMMETRIC_BONDS>
4 1 2

>  <RMSD>
2.267

$$$$
1kod cryst
 OpenBabel11021811393D
libRbt.so/2013.1/901 2013/11/27
 12 11  0  0  0  0  0  0  0  0999 V2000
    1.7963    5.5171   35.5824 C   0  0  0  0  0  0  0  0  0  0  0  0
    1.0458    5.1032   36.4534 O   0  5  0  0  0  0  0  0  0  0  0  0
    2.9280    5.9318   35.7989 O   0  0  0  0  0  0  0  0  0  0  0  0
    1.2855    5.5127   34.1279 C   0  0  1  0  0  0  0  0  0  0  0  0
    2.2927    6.1800   33.2477 N   0  3  0  0  0  0  0  0  0  0  0  0
    1.0481    4.0660   33.6352 C   0  0  0  0  0  0  0  0  0  0  0  0
    2.3713    3.3272   33.4834 C   0  0  0  0  0  0  0  0  0  0  0  0
    2.1138    1.8305   33.3242 C   0  0  0  0  0  0  0  0  0  0  0  0
    1.7962    1.2460   34.6644 N   0  0  0  0  0  0  0  0  0  0  0  0
    2.7397    0.7286   35.4047 C   0  0  0  0  0  0  0  0  0  0  0  0
    2.6367   -0.4142   35.8451 O   0  0  0  0  0  0  0  0  0  0  0  0
    3.7950    1.4328   35.6941 N   0  0  0  0  0  0  0  0  0  0  0  0
  1  2  1  0  0  0  0
  1  3  2  0  0  0  0
  4  1  1  1  0  0  0
  4  6  1  0  0  0  0
  4  5  1  0  0  0  0
  6  7  1  0  0  0  0
  7  8  1  0  0  0  0
  8  9  1  0  0  0  0
  9 10  1  0  0  0  0
 10 12  1  0  0  0  0
 10 11  2  0  0  0  0
M  CHG  2   2  -1   5   1
M  END
>  <CHROM.1>
174.33279253,-68.75722771,-69.73015225,166.59171546,-77.36369901,87.04818176
2.18033619,3.39074055,34.78508176,-2.30348788,1.33901548,-2.53764476

>  <Name>
1kod cryst

>  <RI>
0

>  <Rbt.Current_Directory>
/home/itssahil/PROJECTS/Mol_Feturizer/New_Systems/rnas/1kod

>  <Rbt.Executable>
rbdock ($Id: //depot/dev/client3/rdock/2013.1/src/exe/rbdock.cxx#4 $)

>  <Rbt.Library>
libRbt.so (2013.1, Build901 2013/11/27)

>  <Rbt.Parameter_File>
/export/apps/rDock/src/rDock_2013.1_src/data/scripts/dock_solv.prm

>  <Rbt.Receptor>
prm/pocket_docking_5.prm

>  <SCORE>
-23.3032

>  <SCORE.INTER>
-19.5554

>  <SCORE.INTER.CONST>
1

>  <SCORE.INTER.POLAR>
-3.57158

>  <SCORE.INTER.ROT>
5

>  <SCORE.INTER.SOLV>
15.6243

>  <SCORE.INTER.VDW>
-13.2731

>  <SCORE.INTER.norm>
-1.62961

>  <SCORE.INTRA>
-3.74782

>  <SCORE.INTRA.DIHEDRAL>
-3.25766

>  <SCORE.INTRA.DIHEDRAL.0>
7.7847

>  <SCORE.INTRA.POLAR>
0

>  <SCORE.INTRA.POLAR.0>
0

>  <SCORE.INTRA.REPUL>
0

>  <SCORE.INTRA.REPUL.0>
0

>  <SCORE.INTRA.SOLV>
-0.502699

>  <SCORE.INTRA.SOLV.lig_0>
-57.5465

>  <SCORE.INTRA.VDW>
-1.86764

>  <SCORE.INTRA.VDW.0>
1.39369

>  <SCORE.INTRA.norm>
-0.312319

>  <SCORE.RESTR>
0

>  <SCORE.RESTR.CAVITY>
0

>  <SCORE.RESTR.norm>
0

>  <SCORE.SYSTEM>
0

>  <SCORE.SYSTEM.CONST>
0

>  <SCORE.SYSTEM.DIHEDRAL>
0

>  <SCORE.SYSTEM.SOLV>
0

>  <SCORE.SYSTEM.norm>
0

>  <SCORE.heavy>
12

>  <SCORE.norm>
-1.94193

>  <SYMMETRIC_BONDS>
4 1 2

>  <RMSD>
2.272

$$$$
1kod cryst
 OpenBabel11021811393D
libRbt.so/2013.1/901 2013/11/27
 12 11  0  0  0  0  0  0  0  0999 V2000
    2.4210    7.0403   35.5077 C   0  0  0  0  0  0  0  0  0  0  0  0
    3.2977    7.8057   35.1350 O   0  5  0  0  0  0  0  0  0  0  0  0
    1.9101    7.0796   36.6199 O   0  0  0  0  0  0  0  0  0  0  0  0
    1.9312    5.9665   34.5161 C   0  0  1  0  0  0  0  0  0  0  0  0
    2.1631    6.4415   33.1178 N   0  3  0  0  0  0  0  0  0  0  0  0
    2.6814    4.6324   34.7387 C   0  0  0  0  0  0  0  0  0  0  0  0
    1.8191    3.4537   34.3064 C   0  0  0  0  0  0  0  0  0  0  0  0
    2.5947    2.5762   33.3265 C   0  0  0  0  0  0  0  0  0  0  0  0
    2.5064    1.1512   33.7742 N   0  0  0  0  0  0  0  0  0  0  0  0
    1.3514    0.5447   33.8380 C   0  0  0  0  0  0  0  0  0  0  0  0
    0.9920   -0.0142   34.8720 O   0  0  0  0  0  0  0  0  0  0  0  0
    0.5765    0.5162   32.7931 N   0  0  0  0  0  0  0  0  0  0  0  0
  1  2  1  0  0  0  0
  1  3  2  0  0  0  0
  4  1  1  1  0  0  0
  4  6  1  0  0  0  0
  4  5  1  0  0  0  0
  6  7  1  0  0  0  0
  7  8  1  0  0  0  0
  8  9  1  0  0  0  0
  9 10  1  0  0  0  0
 10 12  1  0  0  0  0
 10 11  2  0  0  0  0
M  CHG  2   2  -1   5   1
M  END
>  <CHROM.1>
-25.82541602,152.56503824,-58.25280816,127.03140587,130.28109948,-117.78176575
2.01654603,3.94620901,34.35882033,0.73265977,1.33986178,1.03998096

>  <Name>
1kod cryst

>  <RI>
0

>  <Rbt.Current_Directory>
/home/itssahil/PROJECTS/Mol_Feturizer/New_Systems/rnas/1kod

>  <Rbt.Executable>
rbdock ($Id: //depot/dev/client3/rdock/2013.1/src/exe/rbdock.cxx#4 $)

>  <Rbt.Library>
libRbt.so (2013.1, Build901 2013/11/27)

>  <Rbt.Parameter_File>
/export/apps/rDock/src/rDock_2013.1_src/data/scripts/dock_solv.prm

>  <Rbt.Receptor>
prm/pocket_docking_7.prm

>  <SCORE>
-17.9774

>  <SCORE.INTER>
-18.4115

>  <SCORE.INTER.CONST>
1

>  <SCORE.INTER.POLAR>
-3.94067

>  <SCORE.INTER.ROT>
5

>  <SCORE.INTER.SOLV>
18.6826

>  <SCORE.INTER.VDW>
-12.2996

>  <SCORE.INTER.norm>
-1.53429

>  <SCORE.INTRA>
0.434104

>  <SCORE.INTRA.DIHEDRAL>
7.73894

>  <SCORE.INTRA.DIHEDRAL.0>
7.7847

>  <SCORE.INTRA.POLAR>
0

>  <SCORE.INTRA.POLAR.0>
0

>  <SCORE.INTRA.REPUL>
0

>  <SCORE.INTRA.REPUL.0>
0

>  <SCORE.INTRA.SOLV>
-1.87267

>  <SCORE.INTRA.SOLV.lig_0>
-57.5465

>  <SCORE.INTRA.VDW>
-2.49903

>  <SCORE.INTRA.VDW.0>
1.39369

>  <SCORE.INTRA.norm>
0.0361753

>  <SCORE.RESTR>
0

>  <SCORE.RESTR.CAVITY>
0

>  <SCORE.RESTR.norm>
0

>  <SCORE.SYSTEM>
0

>  <SCORE.SYSTEM.CONST>
0

>  <SCORE.SYSTEM.DIHEDRAL>
0

>  <SCORE.SYSTEM.SOLV>
0

>  <SCORE.SYSTEM.norm>
0

>  <SCORE.heavy>
12

>  <SCORE.norm>
-1.49812

>  <SYMMETRIC_BONDS>
4 1 2

>  <RMSD>
2.299

$$$$
1kod cryst
 OpenBabel11021811393D
libRbt.so/2013.1/901 2013/11/27
 12 11  0  0  0  0  0  0  0  0999 V2000
    1.5959    7.0404   35.4551 C   0  0  0  0  0  0  0  0  0  0  0  0
    2.3967    7.9455   35.2736 O   0  5  0  0  0  0  0  0  0  0  0  0
    0.8587    6.9686   36.4303 O   0  0  0  0  0  0  0  0  0  0  0  0
    1.5104    5.9284   34.3910 C   0  0  1  0  0  0  0  0  0  0  0  0
    2.1946    6.3844   33.1426 N   0  3  0  0  0  0  0  0  0  0  0  0
    2.1789    4.6301   34.9006 C   0  0  0  0  0  0  0  0  0  0  0  0
    1.9639    3.4922   33.9112 C   0  0  0  0  0  0  0  0  0  0  0  0
    2.0233    2.1525   34.6415 C   0  0  0  0  0  0  0  0  0  0  0  0
    2.1676    1.0552   33.6346 N   0  0  0  0  0  0  0  0  0  0  0  0
    1.1153    0.4361   33.1705 C   0  0  0  0  0  0  0  0  0  0  0  0
    1.0383   -0.7898   33.2133 O   0  0  0  0  0  0  0  0  0  0  0  0
    0.1424    1.1199   32.6423 N   0  0  0  0  0  0  0  0  0  0  0  0
  1  2  1  0  0  0  0
  1  3  2  0  0  0  0
  4  1  1  1  0  0  0
  4  6  1  0  0  0  0
  4  5  1  0  0  0  0
  6  7  1  0  0  0  0
  7  8  1  0  0  0  0
  8  9  1  0  0  0  0
  9 10  1  0  0  0  0
 10 12  1  0  0  0  0
 10 11  2  0  0  0  0
M  CHG  2   2  -1   5   1
M  END
>  <CHROM.1>
-15.15422475,173.97594999,-171.59026517,-154.00859484,-165.45862331,86.54061166
1.59968491,3.88256941,34.20680273,1.17232382,1.33752922,0.66751362

>  <Name>
1kod cryst

>  <RI>
0

>  <Rbt.Current_Directory>
/home/itssahil/PROJECTS/Mol_Feturizer/New_Systems/rnas/1kod

>  <Rbt.Executable>
rbdock ($Id: //depot/dev/client3/rdock/2013.1/src/exe/rbdock.cxx#4 $)

>  <Rbt.Library>
libRbt.so (2013.1, Build901 2013/11/27)

>  <Rbt.Parameter_File>
/export/apps/rDock/src/rDock_2013.1_src/data/scripts/dock_solv.prm

>  <Rbt.Receptor>
prm/pocket_docking_2.prm

>  <SCORE>
-24.5846

>  <SCORE.INTER>
-21.3153

>  <SCORE.INTER.CONST>
1

>  <SCORE.INTER.POLAR>
-4.05903

>  <SCORE.INTER.ROT>
5

>  <SCORE.INTER.SOLV>
21.0344

>  <SCORE.INTER.VDW>
-14.6249

>  <SCORE.INTER.norm>
-1.77628

>  <SCORE.INTRA>
-4.21171

>  <SCORE.INTRA.DIHEDRAL>
-2.05627

>  <SCORE.INTRA.DIHEDRAL.0>
7.7847

>  <SCORE.INTRA.POLAR>
0

>  <SCORE.INTRA.POLAR.0>
0

>  <SCORE.INTRA.REPUL>
0

>  <SCORE.INTRA.REPUL.0>
0

>  <SCORE.INTRA.SOLV>
-2.13916

>  <SCORE.INTRA.SOLV.lig_0>
-57.5465

>  <SCORE.INTRA.VDW>
-2.11399

>  <SCORE.INTRA.VDW.0>
1.39369

>  <SCORE.INTRA.norm>
-0.350976

>  <SCORE.RESTR>
0.942435

>  <SCORE.RESTR.CAVITY>
0.942435

>  <SCORE.RESTR.norm>
0.0785362

>  <SCORE.SYSTEM>
0

>  <SCORE.SYSTEM.CONST>
0

>  <SCORE.SYSTEM.DIHEDRAL>
0

>  <SCORE.SYSTEM.SOLV>
0

>  <SCORE.SYSTEM.norm>
0

>  <SCORE.heavy>
12

>  <SCORE.norm>
-2.04871

>  <SYMMETRIC_BONDS>
4 1 2

>  <RMSD>
2.304

$$$$
1kod cryst
 OpenBabel11021811393D
libRbt.so/2013.1/901 2013/11/27
 12 11  0  0  0  0  0  0  0  0999 V2000
    1.3995    6.3479   35.5751 C   0  0  0  0  0  0  0  0  0  0  0  0
    0.4835    5.7531   36.1233 O   0  5  0  0  0  0  0  0  0  0  0  0
    2.0412    7.2468   36.1041 O   0  0  0  0  0  0  0  0  0  0  0  0
    1.7666    5.9377   34.1352 C   0  0  1  0  0  0  0  0  0  0  0  0
    2.4119    7.0934   33.4407 N   0  3  0  0  0  0  0  0  0  0  0  0
    2.7354    4.7321   34.1393 C   0  0  0  0  0  0  0  0  0  0  0  0
    2.1523    3.5783   34.9446 C   0  0  0  0  0  0  0  0  0  0  0  0
    1.6223    2.5024   33.9994 C   0  0  0  0  0  0  0  0  0  0  0  0
    2.4397    1.2606   34.1682 N   0  0  0  0  0  0  0  0  0  0  0  0
    2.3521    0.5504   35.2608 C   0  0  0  0  0  0  0  0  0  0  0  0
    3.3587    0.2608   35.9038 O   0  0  0  0  0  0  0  0  0  0  0  0
    1.1900    0.1299   35.6682 N   0  0  0  0  0  0  0  0  0  0  0  0
  1  2  1  0  0  0  0
  1  3  2  0  0  0  0
  4  1  1  1  0  0  0
  4  6  1  0  0  0  0
  4  5  1  0  0  0  0
  6  7  1  0  0  0  0
  7  8  1  0  0  0  0
  8  9  1  0  0  0  0
  9 10  1  0  0  0  0
 10 12  1  0  0  0  0
 10 11  2  0  0  0  0
M  CHG  2   2  -1   5   1
M  END
>  <CHROM.1>
154.62078929,54.51138623,93.69600902,103.84465289,114.49800935,-109.91012254
2.00037632,3.80144694,34.95868494,1.72239679,1.06479592,-0.18572710

>  <Name>
1kod cryst

>  <RI>
0

>  <Rbt.Current_Directory>
/home/itssahil/PROJECTS/Mol_Feturizer/New_Systems/rnas/1kod

>  <Rbt.Executable>
rbdock ($Id: //depot/dev/client3/rdock/2013.1/src/exe/rbdock.cxx#4 $)

>  <Rbt.Library>
libRbt.so (2013.1, Build901 2013/11/27)

>  <Rbt.Parameter_File>
/export/apps/rDock/src/rDock_2013.1_src/data/scripts/dock_solv.prm

>  <Rbt.Receptor>
prm/pocket_docking_5.prm

>  <SCORE>
-19.0689

>  <SCORE.INTER>
-20.2827

>  <SCORE.INTER.CONST>
1

>  <SCORE.INTER.POLAR>
-3.66758

>  <SCORE.INTER.ROT>
5

>  <SCORE.INTER.SOLV>
17.3893

>  <SCORE.INTER.VDW>
-14.0263

>  <SCORE.INTER.norm>
-1.69022

>  <SCORE.INTRA>
1.21377

>  <SCORE.INTRA.DIHEDRAL>
7.20057

>  <SCORE.INTRA.DIHEDRAL.0>
7.7847

>  <SCORE.INTRA.POLAR>
0

>  <SCORE.INTRA.POLAR.0>
0

>  <SCORE.INTRA.REPUL>
0

>  <SCORE.INTRA.REPUL.0>
0

>  <SCORE.INTRA.SOLV>
-1.88365

>  <SCORE.INTRA.SOLV.lig_0>
-57.5465

>  <SCORE.INTRA.VDW>
-1.44468

>  <SCORE.INTRA.VDW.0>
1.39369

>  <SCORE.INTRA.norm>
0.101148

>  <SCORE.RESTR>
0

>  <SCORE.RESTR.CAVITY>
0

>  <SCORE.RESTR.norm>
0

>  <SCORE.SYSTEM>
0

>  <SCORE.SYSTEM.CONST>
0

>  <SCORE.SYSTEM.DIHEDRAL>
0

>  <SCORE.SYSTEM.SOLV>
0

>  <SCORE.SYSTEM.norm>
0

>  <SCORE.heavy>
12

>  <SCORE.norm>
-1.58907

>  <SYMMETRIC_BONDS>
4 1 2

>  <RMSD>
2.304

$$$$
1kod cryst
 OpenBabel11021811393D
libRbt.so/2013.1/901 2013/11/27
 12 11  0  0  0  0  0  0  0  0999 V2000
    1.8039    6.1813   35.6470 C   0  0  0  0  0  0  0  0  0  0  0  0
    0.7652    5.7849   36.1544 O   0  5  0  0  0  0  0  0  0  0  0  0
    2.7138    6.7044   36.2778 O   0  0  0  0  0  0  0  0  0  0  0  0
    1.9751    6.0083   34.1248 C   0  0  1  0  0  0  0  0  0  0  0  0
    2.2109    7.3448   33.4982 N   0  3  0  0  0  0  0  0  0  0  0  0
    3.1669    5.0739   33.8104 C   0  0  0  0  0  0  0  0  0  0  0  0
    2.6979    3.6302   33.6851 C   0  0  0  0  0  0  0  0  0  0  0  0
    2.3750    3.0685   35.0679 C   0  0  0  0  0  0  0  0  0  0  0  0
    1.4172    1.9287   34.9188 N   0  0  0  0  0  0  0  0  0  0  0  0
    1.7033    0.7516   35.4072 C   0  0  0  0  0  0  0  0  0  0  0  0
    1.6587   -0.2506   34.6972 O   0  0  0  0  0  0  0  0  0  0  0  0
    2.0247    0.6322   36.6625 N   0  0  0  0  0  0  0  0  0  0  0  0
  1  2  1  0  0  0  0
  1  3  2  0  0  0  0
  4  1  1  1  0  0  0
  4  6  1  0  0  0  0
  4  5  1  0  0  0  0
  6  7  1  0  0  0  0
  7  8  1  0  0  0  0
  8  9  1  0  0  0  0
  9 10  1  0  0  0  0
 10 12  1  0  0  0  0
 10 11  2  0  0  0  0
M  CHG  2   2  -1   5   1
M  END
>  <CHROM.1>
122.10386084,91.88002372,-170.54351865,-73.89606039,156.70446709,-55.74765310
2.03506829,3.92472512,35.00609576,1.34914712,1.28679692,0.10648775

>  <Name>
1kod cryst

>  <RI>
0

>  <Rbt.Current_Directory>
/home/itssahil/PROJECTS/Mol_Feturizer/New_Systems/rnas/1kod

>  <Rbt.Executable>
rbdock ($Id: //depot/dev/client3/rdock/2013.1/src/exe/rbdock.cxx#4 $)

>  <Rbt.Library>
libRbt.so (2013.1, Build901 2013/11/27)

>  <Rbt.Parameter_File>
/export/apps/rDock/src/rDock_2013.1_src/data/scripts/dock_solv.prm

>  <Rbt.Receptor>
prm/pocket_docking_8.prm

>  <SCORE>
-22.9785

>  <SCORE.INTER>
-19.6982

>  <SCORE.INTER.CONST>
1

>  <SCORE.INTER.POLAR>
-4.01758

>  <SCORE.INTER.ROT>
5

>  <SCORE.INTER.SOLV>
15.4911

>  <SCORE.INTER.VDW>
-11.8372

>  <SCORE.INTER.norm>
-1.64151

>  <SCORE.INTRA>
-3.28037

>  <SCORE.INTRA.DIHEDRAL>
0.0737055

>  <SCORE.INTRA.DIHEDRAL.0>
7.7847

>  <SCORE.INTRA.POLAR>
0

>  <SCORE.INTRA.POLAR.0>
0

>  <SCORE.INTRA.REPUL>
0

>  <SCORE.INTRA.REPUL.0>
0

>  <SCORE.INTRA.SOLV>
-1.64555

>  <SCORE.INTRA.SOLV.lig_0>
-57.5465

>  <SCORE.INTRA.VDW>
-2.49445

>  <SCORE.INTRA.VDW.0>
1.39369

>  <SCORE.INTRA.norm>
-0.273364

>  <SCORE.RESTR>
0

>  <SCORE.RESTR.CAVITY>
0

>  <SCORE.RESTR.norm>
0

>  <SCORE.SYSTEM>
0

>  <SCORE.SYSTEM.CONST>
0

>  <SCORE.SYSTEM.DIHEDRAL>
0

>  <SCORE.SYSTEM.SOLV>
0

>  <SCORE.SYSTEM.norm>
0

>  <SCORE.heavy>
12

>  <SCORE.norm>
-1.91488

>  <SYMMETRIC_BONDS>
4 1 2

>  <RMSD>
2.306

$$$$
1kod cryst
 OpenBabel11021811393D
libRbt.so/2013.1/901 2013/11/27
 12 11  0  0  0  0  0  0  0  0999 V2000
    1.4719    5.2796   35.3954 C   0  0  0  0  0  0  0  0  0  0  0  0
    2.5462    5.5518   35.9103 O   0  5  0  0  0  0  0  0  0  0  0  0
    0.4288    5.1501   36.0237 O   0  0  0  0  0  0  0  0  0  0  0  0
    1.4319    5.0917   33.8659 C   0  0  1  0  0  0  0  0  0  0  0  0
    2.1792    6.2082   33.2105 N   0  3  0  0  0  0  0  0  0  0  0  0
    2.0668    3.7400   33.4633 C   0  0  0  0  0  0  0  0  0  0  0  0
    1.0178    2.6357   33.4569 C   0  0  0  0  0  0  0  0  0  0  0  0
    1.6763    1.2976   33.1289 C   0  0  0  0  0  0  0  0  0  0  0  0
    2.4970    0.8588   34.3004 N   0  0  0  0  0  0  0  0  0  0  0  0
    1.9562    0.7379   35.4832 C   0  0  0  0  0  0  0  0  0  0  0  0
    2.4431    1.3076   36.4574 O   0  0  0  0  0  0  0  0  0  0  0  0
    0.8994   -0.0050   35.6390 N   0  0  0  0  0  0  0  0  0  0  0  0
  1  2  1  0  0  0  0
  1  3  2  0  0  0  0
  4  1  1  1  0  0  0
  4  6  1  0  0  0  0
  4  5  1  0  0  0  0
  6  7  1  0  0  0  0
  7  8  1  0  0  0  0
  8  9  1  0  0  0  0
  9 10  1  0  0  0  0
 10 12  1  0  0  0  0
 10 11  2  0  0  0  0
M  CHG  2   2  -1   5   1
M  END
>  <CHROM.1>
-46.30903577,89.06252539,-58.93998775,-177.05719599,71.73574085,-124.22209967
1.72941627,3.17864454,34.71127303,1.57527506,1.50166470,-0.11006231

>  <Name>
1kod cryst

>  <RI>
0

>  <Rbt.Current_Directory>
/home/itssahil/PROJECTS/Mol_Feturizer/New_Systems/rnas/1kod

>  <Rbt.Executable>
rbdock ($Id: //depot/dev/client3/rdock/2013.1/src/exe/rbdock.cxx#4 $)

>  <Rbt.Library>
libRbt.so (2013.1, Build901 2013/11/27)

>  <Rbt.Parameter_File>
/export/apps/rDock/src/rDock_2013.1_src/data/scripts/dock_solv.prm

>  <Rbt.Receptor>
prm/pocket_docking_5.prm

>  <SCORE>
-23.0576

>  <SCORE.INTER>
-18.162

>  <SCORE.INTER.CONST>
1

>  <SCORE.INTER.POLAR>
-2.90449

>  <SCORE.INTER.ROT>
5

>  <SCORE.INTER.SOLV>
18.1359

>  <SCORE.INTER.VDW>
-15.405

>  <SCORE.INTER.norm>
-1.5135

>  <SCORE.INTRA>
-4.89561

>  <SCORE.INTRA.DIHEDRAL>
-2.56012

>  <SCORE.INTRA.DIHEDRAL.0>
7.7847

>  <SCORE.INTRA.POLAR>
0

>  <SCORE.INTRA.POLAR.0>
0

>  <SCORE.INTRA.REPUL>
0

>  <SCORE.INTRA.REPUL.0>
0

>  <SCORE.INTRA.SOLV>
-2.07764

>  <SCORE.INTRA.SOLV.lig_0>
-57.5465

>  <SCORE.INTRA.VDW>
-2.57673

>  <SCORE.INTRA.VDW.0>
1.39369

>  <SCORE.INTRA.norm>
-0.407967

>  <SCORE.RESTR>
0

>  <SCORE.RESTR.CAVITY>
0

>  <SCORE.RESTR.norm>
0

>  <SCORE.SYSTEM>
0

>  <SCORE.SYSTEM.CONST>
0

>  <SCORE.SYSTEM.DIHEDRAL>
0

>  <SCORE.SYSTEM.SOLV>
0

>  <SCORE.SYSTEM.norm>
0

>  <SCORE.heavy>
12

>  <SCORE.norm>
-1.92147

>  <SYMMETRIC_BONDS>
4 1 2

>  <RMSD>
2.308

$$$$
1kod cryst
 OpenBabel11021811393D
libRbt.so/2013.1/901 2013/11/27
 12 11  0  0  0  0  0  0  0  0999 V2000
    3.2175    6.6680   35.2527 C   0  0  0  0  0  0  0  0  0  0  0  0
    4.3797    6.6624   34.8751 O   0  5  0  0  0  0  0  0  0  0  0  0
    2.8813    6.5480   36.4241 O   0  0  0  0  0  0  0  0  0  0  0  0
    2.1143    6.8391   34.1897 C   0  0  1  0  0  0  0  0  0  0  0  0
    2.5194    7.9050   33.2231 N   0  3  0  0  0  0  0  0  0  0  0  0
    1.8782    5.5142   33.4273 C   0  0  0  0  0  0  0  0  0  0  0  0
    0.9864    4.5816   34.2364 C   0  0  0  0  0  0  0  0  0  0  0  0
    0.3945    3.5097   33.3239 C   0  0  0  0  0  0  0  0  0  0  0  0
    1.4196    2.4438   33.0965 N   0  0  0  0  0  0  0  0  0  0  0  0
    1.0958    1.1812   33.1801 C   0  0  0  0  0  0  0  0  0  0  0  0
    1.7245    0.4188   33.9109 O   0  0  0  0  0  0  0  0  0  0  0  0
    0.1071    0.7182   32.4720 N   0  0  0  0  0  0  0  0  0  0  0  0
  1  2  1  0  0  0  0
  1  3  2  0  0  0  0
  4  1  1  1  0  0  0
  4  6  1  0  0  0  0
  4  5  1  0  0  0  0
  6  7  1  0  0  0  0
  7  8  1  0  0  0  0
  8  9  1  0  0  0  0
  9 10  1  0  0  0  0
 10 12  1  0  0  0  0
 10 11  2  0  0  0  0
M  CHG  2   2  -1   5   1
M  END
>  <CHROM.1>
-43.06560226,80.80426864,-175.18428271,161.61547100,79.89539269,-45.48375230
1.91345938,4.42760653,33.95499425,-1.01968070,0.87426054,2.96270461

>  <Name>
1kod cryst

>  <RI>
0

>  <Rbt.Current_Directory>
/home/itssahil/PROJECTS/Mol_Feturizer/New_Systems/rnas/1kod

>  <Rbt.Executable>
rbdock ($Id: //depot/dev/client3/rdock/2013.1/src/exe/rbdock.cxx#4 $)

>  <Rbt.Library>
libRbt.so (2013.1, Build901 2013/11/27)

>  <Rbt.Parameter_File>
/export/apps/rDock/src/rDock_2013.1_src/data/scripts/dock_solv.prm

>  <Rbt.Receptor>
prm/pocket_docking_5.prm

>  <SCORE>
-29.1581

>  <SCORE.INTER>
-24.516

>  <SCORE.INTER.CONST>
1

>  <SCORE.INTER.POLAR>
-3.70299

>  <SCORE.INTER.ROT>
5

>  <SCORE.INTER.SOLV>
17.4743

>  <SCORE.INTER.VDW>
-16.7588

>  <SCORE.INTER.norm>
-2.043

>  <SCORE.INTRA>
-4.64215

>  <SCORE.INTRA.DIHEDRAL>
-1.43051

>  <SCORE.INTRA.DIHEDRAL.0>
7.7847

>  <SCORE.INTRA.POLAR>
0

>  <SCORE.INTRA.POLAR.0>
0

>  <SCORE.INTRA.REPUL>
0

>  <SCORE.INTRA.REPUL.0>
0

>  <SCORE.INTRA.SOLV>
-2.66721

>  <SCORE.INTRA.SOLV.lig_0>
-57.5465

>  <SCORE.INTRA.VDW>
-2.59329

>  <SCORE.INTRA.VDW.0>
1.39369

>  <SCORE.INTRA.norm>
-0.386846

>  <SCORE.RESTR>
0

>  <SCORE.RESTR.CAVITY>
0

>  <SCORE.RESTR.norm>
0

>  <SCORE.SYSTEM>
0

>  <SCORE.SYSTEM.CONST>
0

>  <SCORE.SYSTEM.DIHEDRAL>
0

>  <SCORE.SYSTEM.SOLV>
0

>  <SCORE.SYSTEM.norm>
0

>  <SCORE.heavy>
12

>  <SCORE.norm>
-2.42984

>  <SYMMETRIC_BONDS>
4 1 2

>  <RMSD>
2.323

$$$$
1kod cryst
 OpenBabel11021811393D
libRbt.so/2013.1/901 2013/11/27
 12 11  0  0  0  0  0  0  0  0999 V2000
    3.3185    6.6717   35.2758 C   0  0  0  0  0  0  0  0  0  0  0  0
    4.4632    6.5717   34.8599 O   0  5  0  0  0  0  0  0  0  0  0  0
    3.0222    6.6631   36.4640 O   0  0  0  0  0  0  0  0  0  0  0  0
    2.1853    6.8196   34.2412 C   0  0  1  0  0  0  0  0  0  0  0  0
    2.5462    7.8894   33.2615 N   0  3  0  0  0  0  0  0  0  0  0  0
    1.9534    5.4883   33.4888 C   0  0  0  0  0  0  0  0  0  0  0  0
    1.0049    4.5888   34.2705 C   0  0  0  0  0  0  0  0  0  0  0  0
    0.4192    3.5247   33.3450 C   0  0  0  0  0  0  0  0  0  0  0  0
    1.4447    2.4591   33.1181 N   0  0  0  0  0  0  0  0  0  0  0  0
    1.1205    1.1964   33.1989 C   0  0  0  0  0  0  0  0  0  0  0  0
    1.7475    0.4327   33.9298 O   0  0  0  0  0  0  0  0  0  0  0  0
    0.1334    0.7347   32.4879 N   0  0  0  0  0  0  0  0  0  0  0  0
  1  2  1  0  0  0  0
  1  3  2  0  0  0  0
  4  1  1  1  0  0  0
  4  6  1  0  0  0  0
  4  5  1  0  0  0  0
  6  7  1  0  0  0  0
  7  8  1  0  0  0  0
  8  9  1  0  0  0  0
  9 10  1  0  0  0  0
 10 12  1  0  0  0  0
 10 11  2  0  0  0  0
M  CHG  2   2  -1   5   1
M  END
>  <CHROM.1>
-49.13733625,85.54321982,-53.16046997,161.03628389,77.37493657,-45.97944642
1.96640910,4.43199247,33.98200413,-1.02467526,0.84525927,2.98318574

>  <Name>
1kod cryst

>  <RI>
0

>  <Rbt.Current_Directory>
/home/itssahil/PROJECTS/Mol_Feturizer/New_Systems/rnas/1kod

>  <Rbt.Executable>
rbdock ($Id: //depot/dev/client3/rdock/2013.1/src/exe/rbdock.cxx#4 $)

>  <Rbt.Library>
libRbt.so (2013.1, Build901 2013/11/27)

>  <Rbt.Parameter_File>
/export/apps/rDock/src/rDock_2013.1_src/data/scripts/dock_solv.prm

>  <Rbt.Receptor>
prm/pocket_docking_6.prm

>  <SCORE>
-29.1117

>  <SCORE.INTER>
-24.6764

>  <SCORE.INTER.CONST>
1

>  <SCORE.INTER.POLAR>
-3.69577

>  <SCORE.INTER.ROT>
5

>  <SCORE.INTER.SOLV>
17.133

>  <SCORE.INTER.VDW>
-16.7761

>  <SCORE.INTER.norm>
-2.05637

>  <SCORE.INTRA>
-4.43527

>  <SCORE.INTRA.DIHEDRAL>
-1.00396

>  <SCORE.INTRA.DIHEDRAL.0>
7.7847

>  <SCORE.INTRA.POLAR>
0

>  <SCORE.INTRA.POLAR.0>
0

>  <SCORE.INTRA.REPUL>
0

>  <SCORE.INTRA.REPUL.0>
0

>  <SCORE.INTRA.SOLV>
-2.74017

>  <SCORE.INTRA.SOLV.lig_0>
-57.5465

>  <SCORE.INTRA.VDW>
-2.56321

>  <SCORE.INTRA.VDW.0>
1.39369

>  <SCORE.INTRA.norm>
-0.369606

>  <SCORE.RESTR>
0

>  <SCORE.RESTR.CAVITY>
0

>  <SCORE.RESTR.norm>
0

>  <SCORE.SYSTEM>
0

>  <SCORE.SYSTEM.CONST>
0

>  <SCORE.SYSTEM.DIHEDRAL>
0

>  <SCORE.SYSTEM.SOLV>
0

>  <SCORE.SYSTEM.norm>
0

>  <SCORE.heavy>
12

>  <SCORE.norm>
-2.42597

>  <SYMMETRIC_BONDS>
4 1 2

>  <RMSD>
2.333

$$$$
1kod cryst
 OpenBabel11021811393D
libRbt.so/2013.1/901 2013/11/27
 12 11  0  0  0  0  0  0  0  0999 V2000
    1.9727    7.0003   35.7094 C   0  0  0  0  0  0  0  0  0  0  0  0
    0.8733    6.8854   36.2305 O   0  5  0  0  0  0  0  0  0  0  0  0
    3.0083    7.1828   36.3370 O   0  0  0  0  0  0  0  0  0  0  0  0
    2.0561    6.9070   34.1729 C   0  0  1  0  0  0  0  0  0  0  0  0
    2.8912    8.0327   33.6534 N   0  3  0  0  0  0  0  0  0  0  0  0
    2.6793    5.5596   33.7391 C   0  0  0  0  0  0  0  0  0  0  0  0
    1.6871    4.4212   33.9376 C   0  0  0  0  0  0  0  0  0  0  0  0
    2.3277    3.0977   33.5255 C   0  0  0  0  0  0  0  0  0  0  0  0
    1.3356    1.9949   33.7210 N   0  0  0  0  0  0  0  0  0  0  0  0
    1.7160    0.8312   34.1760 C   0  0  0  0  0  0  0  0  0  0  0  0
    1.4421   -0.2009   33.5674 O   0  0  0  0  0  0  0  0  0  0  0  0
    2.3791    0.7582   35.2932 N   0  0  0  0  0  0  0  0  0  0  0  0
  1  2  1  0  0  0  0
  1  3  2  0  0  0  0
  4  1  1  1  0  0  0
  4  6  1  0  0  0  0
  4  5  1  0  0  0  0
  6  7  1  0  0  0  0
  7  8  1  0  0  0  0
  8  9  1  0  0  0  0
  9 10  1  0  0  0  0
 10 12  1  0  0  0  0
 10 11  2  0  0  0  0
M  CHG  2   2  -1   5   1
M  END
>  <CHROM.1>
132.81058302,73.77637375,53.60836832,-179.08792923,-179.70388396,38.73606554
2.04161066,4.38996101,34.51822517,1.12681503,1.37651502,0.58300061

>  <Name>
1kod cryst

>  <RI>
0

>  <Rbt.Current_Directory>
/home/itssahil/PROJECTS/Mol_Feturizer/New_Systems/rnas/1kod

>  <Rbt.Executable>
rbdock ($Id: //depot/dev/client3/rdock/2013.1/src/exe/rbdock.cxx#4 $)

>  <Rbt.Library>
libRbt.so (2013.1, Build901 2013/11/27)

>  <Rbt.Parameter_File>
/export/apps/rDock/src/rDock_2013.1_src/data/scripts/dock_solv.prm

>  <Rbt.Receptor>
prm/pocket_docking_8.prm

>  <SCORE>
-22.9565

>  <SCORE.INTER>
-16.6214

>  <SCORE.INTER.CONST>
1

>  <SCORE.INTER.POLAR>
-2.60077

>  <SCORE.INTER.ROT>
5

>  <SCORE.INTER.SOLV>
12.9753

>  <SCORE.INTER.VDW>
-13.6702

>  <SCORE.INTER.norm>
-1.38512

>  <SCORE.INTRA>
-6.33513

>  <SCORE.INTRA.DIHEDRAL>
-4.80057

>  <SCORE.INTRA.DIHEDRAL.0>
7.7847

>  <SCORE.INTRA.POLAR>
0

>  <SCORE.INTRA.POLAR.0>
0

>  <SCORE.INTRA.REPUL>
0

>  <SCORE.INTRA.REPUL.0>
0

>  <SCORE.INTRA.SOLV>
-2.80939

>  <SCORE.INTRA.SOLV.lig_0>
-57.5465

>  <SCORE.INTRA.VDW>
-2.53015

>  <SCORE.INTRA.VDW.0>
1.39369

>  <SCORE.INTRA.norm>
-0.527927

>  <SCORE.RESTR>
0

>  <SCORE.RESTR.CAVITY>
0

>  <SCORE.RESTR.norm>
0

>  <SCORE.SYSTEM>
0

>  <SCORE.SYSTEM.CONST>
0

>  <SCORE.SYSTEM.DIHEDRAL>
0

>  <SCORE.SYSTEM.SOLV>
0

>  <SCORE.SYSTEM.norm>
0

>  <SCORE.heavy>
12

>  <SCORE.norm>
-1.91305

>  <SYMMETRIC_BONDS>
4 1 2

>  <RMSD>
2.342

$$$$
1kod cryst
 OpenBabel11021811393D
libRbt.so/2013.1/901 2013/11/27
 12 11  0  0  0  0  0  0  0  0999 V2000
    1.4416    6.0076   35.6407 C   0  0  0  0  0  0  0  0  0  0  0  0
    0.2901    5.6620   35.8594 O   0  5  0  0  0  0  0  0  0  0  0  0
    2.2317    6.3379   36.5161 O   0  0  0  0  0  0  0  0  0  0  0  0
    1.9240    6.0247   34.1766 C   0  0  1  0  0  0  0  0  0  0  0  0
    2.9598    7.0894   34.0093 N   0  3  0  0  0  0  0  0  0  0  0  0
    2.5240    4.6550   33.7816 C   0  0  0  0  0  0  0  0  0  0  0  0
    1.4237    3.6144   33.6189 C   0  0  0  0  0  0  0  0  0  0  0  0
    2.0415    2.2258   33.4713 C   0  0  0  0  0  0  0  0  0  0  0  0
    1.7414    1.4264   34.7000 N   0  0  0  0  0  0  0  0  0  0  0  0
    2.6991    0.8206   35.3494 C   0  0  0  0  0  0  0  0  0  0  0  0
    2.6253   -0.3802   35.6008 O   0  0  0  0  0  0  0  0  0  0  0  0
    3.7374    1.4951   35.7497 N   0  0  0  0  0  0  0  0  0  0  0  0
  1  2  1  0  0  0  0
  1  3  2  0  0  0  0
  4  1  1  1  0  0  0
  4  6  1  0  0  0  0
  4  5  1  0  0  0  0
  6  7  1  0  0  0  0
  7  8  1  0  0  0  0
  8  9  1  0  0  0  0
  9 10  1  0  0  0  0
 10 12  1  0  0  0  0
 10 11  2  0  0  0  0
M  CHG  2   2  -1   5   1
M  END
>  <CHROM.1>
149.63041706,72.93656353,-56.37347727,-170.16641378,110.51398380,51.65436138
2.15847070,3.77229383,34.89758476,2.47372061,1.41635614,-0.92459090

>  <Name>
1kod cryst

>  <RI>
0

>  <Rbt.Current_Directory>
/home/itssahil/PROJECTS/Mol_Feturizer/New_Systems/rnas/1kod

>  <Rbt.Executable>
rbdock ($Id: //depot/dev/client3/rdock/2013.1/src/exe/rbdock.cxx#4 $)

>  <Rbt.Library>
libRbt.so (2013.1, Build901 2013/11/27)

>  <Rbt.Parameter_File>
/export/apps/rDock/src/rDock_2013.1_src/data/scripts/dock_solv.prm

>  <Rbt.Receptor>
prm/pocket_docking_5.prm

>  <SCORE>
-22.6083

>  <SCORE.INTER>
-18.9825

>  <SCORE.INTER.CONST>
1

>  <SCORE.INTER.POLAR>
-3.07451

>  <SCORE.INTER.ROT>
5

>  <SCORE.INTER.SOLV>
11.9207

>  <SCORE.INTER.VDW>
-13.3135

>  <SCORE.INTER.norm>
-1.58187

>  <SCORE.INTRA>
-3.62587

>  <SCORE.INTRA.DIHEDRAL>
0.637477

>  <SCORE.INTRA.DIHEDRAL.0>
7.7847

>  <SCORE.INTRA.POLAR>
0

>  <SCORE.INTRA.POLAR.0>
0

>  <SCORE.INTRA.REPUL>
0

>  <SCORE.INTRA.REPUL.0>
0

>  <SCORE.INTRA.SOLV>
-2.27128

>  <SCORE.INTRA.SOLV.lig_0>
-57.5465

>  <SCORE.INTRA.VDW>
-2.80897

>  <SCORE.INTRA.VDW.0>
1.39369

>  <SCORE.INTRA.norm>
-0.302156

>  <SCORE.RESTR>
0

>  <SCORE.RESTR.CAVITY>
0

>  <SCORE.RESTR.norm>
0

>  <SCORE.SYSTEM>
0

>  <SCORE.SYSTEM.CONST>
0

>  <SCORE.SYSTEM.DIHEDRAL>
0

>  <SCORE.SYSTEM.SOLV>
0

>  <SCORE.SYSTEM.norm>
0

>  <SCORE.heavy>
12

>  <SCORE.norm>
-1.88403

>  <SYMMETRIC_BONDS>
4 1 2

>  <RMSD>
2.346

$$$$
1kod cryst
 OpenBabel11021811393D
libRbt.so/2013.1/901 2013/11/27
 12 11  0  0  0  0  0  0  0  0999 V2000
    1.5679    6.0190   35.4213 C   0  0  0  0  0  0  0  0  0  0  0  0
    0.5308    5.4452   35.7189 O   0  5  0  0  0  0  0  0  0  0  0  0
    2.1752    6.7649   36.1793 O   0  0  0  0  0  0  0  0  0  0  0  0
    2.1424    5.7855   34.0101 C   0  0  1  0  0  0  0  0  0  0  0  0
    2.5096    7.1005   33.4014 N   0  3  0  0  0  0  0  0  0  0  0  0
    3.3934    4.8782   34.0712 C   0  0  0  0  0  0  0  0  0  0  0  0
    3.0041    3.4157   33.8991 C   0  0  0  0  0  0  0  0  0  0  0  0
    2.4646    2.8647   35.2171 C   0  0  0  0  0  0  0  0  0  0  0  0
    1.4880    1.7699   34.9236 N   0  0  0  0  0  0  0  0  0  0  0  0
    1.5633    0.6261   35.5498 C   0  0  0  0  0  0  0  0  0  0  0  0
    1.6139   -0.4303   34.9237 O   0  0  0  0  0  0  0  0  0  0  0  0
    1.5696    0.5994   36.8507 N   0  0  0  0  0  0  0  0  0  0  0  0
  1  2  1  0  0  0  0
  1  3  2  0  0  0  0
  4  1  1  1  0  0  0
  4  6  1  0  0  0  0
  4  5  1  0  0  0  0
  6  7  1  0  0  0  0
  7  8  1  0  0  0  0
  8  9  1  0  0  0  0
  9 10  1  0  0  0  0
 10 12  1  0  0  0  0
 10 11  2  0  0  0  0
M  CHG  2   2  -1   5   1
M  END
>  <CHROM.1>
132.72867832,91.89421104,157.49751144,-79.56995465,151.42952670,-48.08558372
1.99032193,3.75737834,35.02105509,1.40374506,1.02327222,-0.01576128

>  <Name>
1kod cryst

>  <RI>
0

>  <Rbt.Current_Directory>
/home/itssahil/PROJECTS/Mol_Feturizer/New_Systems/rnas/1kod

>  <Rbt.Executable>
rbdock ($Id: //depot/dev/client3/rdock/2013.1/src/exe/rbdock.cxx#4 $)

>  <Rbt.Library>
libRbt.so (2013.1, Build901 2013/11/27)

>  <Rbt.Parameter_File>
/export/apps/rDock/src/rDock_2013.1_src/data/scripts/dock_solv.prm

>  <Rbt.Receptor>
prm/pocket_docking_3.prm

>  <SCORE>
-22.4969

>  <SCORE.INTER>
-20.5537

>  <SCORE.INTER.CONST>
1

>  <SCORE.INTER.POLAR>
-4.11646

>  <SCORE.INTER.ROT>
5

>  <SCORE.INTER.SOLV>
16.3156

>  <SCORE.INTER.VDW>
-12.3528

>  <SCORE.INTER.norm>
-1.71281

>  <SCORE.INTRA>
-1.94374

>  <SCORE.INTRA.DIHEDRAL>
2.40853

>  <SCORE.INTRA.DIHEDRAL.0>
7.7847

>  <SCORE.INTRA.POLAR>
0

>  <SCORE.INTRA.POLAR.0>
0

>  <SCORE.INTRA.REPUL>
0

>  <SCORE.INTRA.REPUL.0>
0

>  <SCORE.INTRA.SOLV>
-1.42062

>  <SCORE.INTRA.SOLV.lig_0>
-57.5465

>  <SCORE.INTRA.VDW>
-2.4377

>  <SCORE.INTRA.VDW.0>
1.39369

>  <SCORE.INTRA.norm>
-0.161979

>  <SCORE.RESTR>
0.000536069

>  <SCORE.RESTR.CAVITY>
0.000536069

>  <SCORE.RESTR.norm>
4.46724e-05

>  <SCORE.SYSTEM>
0

>  <SCORE.SYSTEM.CONST>
0

>  <SCORE.SYSTEM.DIHEDRAL>
0

>  <SCORE.SYSTEM.SOLV>
0

>  <SCORE.SYSTEM.norm>
0

>  <SCORE.heavy>
12

>  <SCORE.norm>
-1.87474

>  <SYMMETRIC_BONDS>
4 1 2

>  <RMSD>
2.356

$$$$
1kod cryst
 OpenBabel11021811393D
libRbt.so/2013.1/901 2013/11/27
 12 11  0  0  0  0  0  0  0  0999 V2000
    1.9953    7.3166   35.7362 C   0  0  0  0  0  0  0  0  0  0  0  0
    1.9507    8.5377   35.7174 O   0  5  0  0  0  0  0  0  0  0  0  0
    2.0640    6.6532   36.7633 O   0  0  0  0  0  0  0  0  0  0  0  0
    1.9601    6.5725   34.3867 C   0  0  1  0  0  0  0  0  0  0  0  0
    2.4751    7.4738   33.3110 N   0  3  0  0  0  0  0  0  0  0  0  0
    2.8254    5.2919   34.4446 C   0  0  0  0  0  0  0  0  0  0  0  0
    2.3194    4.2573   33.4478 C   0  0  0  0  0  0  0  0  0  0  0  0
    2.0681    2.9305   34.1608 C   0  0  0  0  0  0  0  0  0  0  0  0
    2.2553    1.8110   33.1860 N   0  0  0  0  0  0  0  0  0  0  0  0
    1.2963    0.9513   32.9686 C   0  0  0  0  0  0  0  0  0  0  0  0
    1.5006   -0.2563   33.0705 O   0  0  0  0  0  0  0  0  0  0  0  0
    0.1142    1.3732   32.6252 N   0  0  0  0  0  0  0  0  0  0  0  0
  1  2  1  0  0  0  0
  1  3  2  0  0  0  0
  4  1  1  1  0  0  0
  4  6  1  0  0  0  0
  4  5  1  0  0  0  0
  6  7  1  0  0  0  0
  7  8  1  0  0  0  0
  8  9  1  0  0  0  0
  9 10  1  0  0  0  0
 10 12  1  0  0  0  0
 10 11  2  0  0  0  0
M  CHG  2   2  -1   5   1
M  END
>  <CHROM.1>
24.97417311,153.55389538,17.77284998,-126.63546949,-151.62963687,56.47871246
1.89864457,4.43063220,34.13460433,0.67357312,1.41619335,1.22424320

>  <Name>
1kod cryst

>  <RI>
0

>  <Rbt.Current_Directory>
/home/itssahil/PROJECTS/Mol_Feturizer/New_Systems/rnas/1kod

>  <Rbt.Executable>
rbdock ($Id: //depot/dev/client3/rdock/2013.1/src/exe/rbdock.cxx#4 $)

>  <Rbt.Library>
libRbt.so (2013.1, Build901 2013/11/27)

>  <Rbt.Parameter_File>
/export/apps/rDock/src/rDock_2013.1_src/data/scripts/dock_solv.prm

>  <Rbt.Receptor>
prm/pocket_docking_6.prm

>  <SCORE>
-21.3044

>  <SCORE.INTER>
-22.5663

>  <SCORE.INTER.CONST>
1

>  <SCORE.INTER.POLAR>
-3.9569

>  <SCORE.INTER.ROT>
5

>  <SCORE.INTER.SOLV>
18.6475

>  <SCORE.INTER.VDW>
-15.0037

>  <SCORE.INTER.norm>
-1.88053

>  <SCORE.INTRA>
1.26192

>  <SCORE.INTRA.DIHEDRAL>
7.88527

>  <SCORE.INTRA.DIHEDRAL.0>
7.7847

>  <SCORE.INTRA.POLAR>
0

>  <SCORE.INTRA.POLAR.0>
0

>  <SCORE.INTRA.REPUL>
0

>  <SCORE.INTRA.REPUL.0>
0

>  <SCORE.INTRA.SOLV>
-2.44732

>  <SCORE.INTRA.SOLV.lig_0>
-57.5465

>  <SCORE.INTRA.VDW>
-1.45705

>  <SCORE.INTRA.VDW.0>
1.39369

>  <SCORE.INTRA.norm>
0.10516

>  <SCORE.RESTR>
0

>  <SCORE.RESTR.CAVITY>
0

>  <SCORE.RESTR.norm>
0

>  <SCORE.SYSTEM>
0

>  <SCORE.SYSTEM.CONST>
0

>  <SCORE.SYSTEM.DIHEDRAL>
0

>  <SCORE.SYSTEM.SOLV>
0

>  <SCORE.SYSTEM.norm>
0

>  <SCORE.heavy>
12

>  <SCORE.norm>
-1.77537

>  <SYMMETRIC_BONDS>
4 1 2

>  <RMSD>
2.374

$$$$
1kod cryst
 OpenBabel11021811393D
libRbt.so/2013.1/901 2013/11/27
 12 11  0  0  0  0  0  0  0  0999 V2000
    1.7582    6.5833   36.3908 C   0  0  0  0  0  0  0  0  0  0  0  0
    1.7163    7.6381   35.7752 O   0  5  0  0  0  0  0  0  0  0  0  0
    2.7667    6.1520   36.9353 O   0  0  0  0  0  0  0  0  0  0  0  0
    0.4635    5.7522   36.4869 C   0  0  1  0  0  0  0  0  0  0  0  0
   -0.6802    6.6547   36.8217 N   0  3  0  0  0  0  0  0  0  0  0  0
    0.1760    5.0295   35.1501 C   0  0  0  0  0  0  0  0  0  0  0  0
    1.4021    4.2550   34.6847 C   0  0  0  0  0  0  0  0  0  0  0  0
    1.2015    3.7827   33.2464 C   0  0  0  0  0  0  0  0  0  0  0  0
    0.8920    2.3189   33.2534 N   0  0  0  0  0  0  0  0  0  0  0  0
    1.8137    1.4430   32.9544 C   0  0  0  0  0  0  0  0  0  0  0  0
    1.6181    0.5983   32.0834 O   0  0  0  0  0  0  0  0  0  0  0  0
    2.9469    1.4517   33.5939 N   0  0  0  0  0  0  0  0  0  0  0  0
  1  2  1  0  0  0  0
  1  3  2  0  0  0  0
  4  1  1  6  0  0  0
  4  6  1  0  0  0  0
  4  5  1  0  0  0  0
  6  7  1  0  0  0  0
  7  8  1  0  0  0  0
  8  9  1  0  0  0  0
  9 10  1  0  0  0  0
 10 12  1  0  0  0  0
 10 11  2  0  0  0  0
M  CHG  2   2  -1   5   1
M  END
>  <CHROM.1>
-45.01570223,51.43076232,57.90892178,-168.76331531,-104.26361778,78.31259679
1.33421108,4.31822336,34.79745985,-1.69615764,0.11489330,-2.52295734

>  <Name>
1kod cryst

>  <RI>
0

>  <Rbt.Current_Directory>
/home/itssahil/PROJECTS/Mol_Feturizer/New_Systems/rnas/1kod

>  <Rbt.Executable>
rbdock ($Id: //depot/dev/client3/rdock/2013.1/src/exe/rbdock.cxx#4 $)

>  <Rbt.Library>
libRbt.so (2013.1, Build901 2013/11/27)

>  <Rbt.Parameter_File>
/export/apps/rDock/src/rDock_2013.1_src/data/scripts/dock_solv.prm

>  <Rbt.Receptor>
prm/pocket_docking_3.prm

>  <SCORE>
-22.9729

>  <SCORE.INTER>
-19.7819

>  <SCORE.INTER.CONST>
1

>  <SCORE.INTER.POLAR>
-3.23149

>  <SCORE.INTER.ROT>
5

>  <SCORE.INTER.SOLV>
16.7866

>  <SCORE.INTER.VDW>
-14.9452

>  <SCORE.INTER.norm>
-1.6485

>  <SCORE.INTRA>
-3.34969

>  <SCORE.INTRA.DIHEDRAL>
-0.123392

>  <SCORE.INTRA.DIHEDRAL.0>
7.7847

>  <SCORE.INTRA.POLAR>
0

>  <SCORE.INTRA.POLAR.0>
0

>  <SCORE.INTRA.REPUL>
0

>  <SCORE.INTRA.REPUL.0>
0

>  <SCORE.INTRA.SOLV>
-2.1582

>  <SCORE.INTRA.SOLV.lig_0>
-57.5465

>  <SCORE.INTRA.VDW>
-2.2089

>  <SCORE.INTRA.VDW.0>
1.39369

>  <SCORE.INTRA.norm>
-0.279141

>  <SCORE.RESTR>
0.158719

>  <SCORE.RESTR.CAVITY>
0.158719

>  <SCORE.RESTR.norm>
0.0132266

>  <SCORE.SYSTEM>
0

>  <SCORE.SYSTEM.CONST>
0

>  <SCORE.SYSTEM.DIHEDRAL>
0

>  <SCORE.SYSTEM.SOLV>
0

>  <SCORE.SYSTEM.norm>
0

>  <SCORE.heavy>
12

>  <SCORE.norm>
-1.91441

>  <SYMMETRIC_BONDS>
4 1 2

>  <RMSD>
2.377

$$$$
1kod cryst
 OpenBabel11021811393D
libRbt.so/2013.1/901 2013/11/27
 12 11  0  0  0  0  0  0  0  0999 V2000
    1.4815    6.5427   35.5125 C   0  0  0  0  0  0  0  0  0  0  0  0
    0.6436    6.2278   36.3444 O   0  5  0  0  0  0  0  0  0  0  0  0
    2.1796    7.5455   35.5946 O   0  0  0  0  0  0  0  0  0  0  0  0
    1.6688    5.6199   34.2920 C   0  0  1  0  0  0  0  0  0  0  0  0
    2.1832    6.4215   33.1398 N   0  3  0  0  0  0  0  0  0  0  0  0
    2.6652    4.4815   34.6138 C   0  0  0  0  0  0  0  0  0  0  0  0
    2.6256    3.4119   33.5302 C   0  0  0  0  0  0  0  0  0  0  0  0
    1.6359    2.3161   33.9197 C   0  0  0  0  0  0  0  0  0  0  0  0
    2.3878    1.0462   34.1657 N   0  0  0  0  0  0  0  0  0  0  0  0
    2.2791    0.4194   35.3064 C   0  0  0  0  0  0  0  0  0  0  0  0
    3.2785    0.1205   35.9563 O   0  0  0  0  0  0  0  0  0  0  0  0
    1.1025    0.0925   35.7559 N   0  0  0  0  0  0  0  0  0  0  0  0
  1  2  1  0  0  0  0
  1  3  2  0  0  0  0
  4  1  1  1  0  0  0
  4  6  1  0  0  0  0
  4  5  1  0  0  0  0
  6  7  1  0  0  0  0
  7  8  1  0  0  0  0
  8  9  1  0  0  0  0
  9 10  1  0  0  0  0
 10 12  1  0  0  0  0
 10 11  2  0  0  0  0
M  CHG  2   2  -1   5   1
M  END
>  <CHROM.1>
153.13396995,167.89346289,-51.07131314,-92.88421499,-113.56569369,-55.98498025
2.01160938,3.70314927,34.84304194,1.77757130,1.19034800,-0.23599961

>  <Name>
1kod cryst

>  <RI>
0

>  <Rbt.Current_Directory>
/home/itssahil/PROJECTS/Mol_Feturizer/New_Systems/rnas/1kod

>  <Rbt.Executable>
rbdock ($Id: //depot/dev/client3/rdock/2013.1/src/exe/rbdock.cxx#4 $)

>  <Rbt.Library>
libRbt.so (2013.1, Build901 2013/11/27)

>  <Rbt.Parameter_File>
/export/apps/rDock/src/rDock_2013.1_src/data/scripts/dock_solv.prm

>  <Rbt.Receptor>
prm/pocket_docking_4.prm

>  <SCORE>
-21.6514

>  <SCORE.INTER>
-20.0362

>  <SCORE.INTER.CONST>
1

>  <SCORE.INTER.POLAR>
-3.95317

>  <SCORE.INTER.ROT>
5

>  <SCORE.INTER.SOLV>
20.1088

>  <SCORE.INTER.VDW>
-13.8165

>  <SCORE.INTER.norm>
-1.66969

>  <SCORE.INTRA>
-1.61517

>  <SCORE.INTRA.DIHEDRAL>
4.03617

>  <SCORE.INTRA.DIHEDRAL.0>
7.7847

>  <SCORE.INTRA.POLAR>
0

>  <SCORE.INTRA.POLAR.0>
0

>  <SCORE.INTRA.REPUL>
0

>  <SCORE.INTRA.REPUL.0>
0

>  <SCORE.INTRA.SOLV>
-2.1376

>  <SCORE.INTRA.SOLV.lig_0>
-57.5465

>  <SCORE.INTRA.VDW>
-2.56446

>  <SCORE.INTRA.VDW.0>
1.39369

>  <SCORE.INTRA.norm>
-0.134597

>  <SCORE.RESTR>
0

>  <SCORE.RESTR.CAVITY>
0

>  <SCORE.RESTR.norm>
0

>  <SCORE.SYSTEM>
0

>  <SCORE.SYSTEM.CONST>
0

>  <SCORE.SYSTEM.DIHEDRAL>
0

>  <SCORE.SYSTEM.SOLV>
0

>  <SCORE.SYSTEM.norm>
0

>  <SCORE.heavy>
12

>  <SCORE.norm>
-1.80428

>  <SYMMETRIC_BONDS>
4 1 2

>  <RMSD>
2.390

$$$$
1kod cryst
 OpenBabel11021811393D
libRbt.so/2013.1/901 2013/11/27
 12 11  0  0  0  0  0  0  0  0999 V2000
    2.5463    6.2551   35.7046 C   0  0  0  0  0  0  0  0  0  0  0  0
    2.0191    5.5969   36.5891 O   0  5  0  0  0  0  0  0  0  0  0  0
    3.5283    6.9659   35.8778 O   0  0  0  0  0  0  0  0  0  0  0  0
    1.9380    6.1811   34.2901 C   0  0  1  0  0  0  0  0  0  0  0  0
    2.5663    7.2266   33.4259 N   0  3  0  0  0  0  0  0  0  0  0  0
    2.1729    4.7859   33.6651 C   0  0  0  0  0  0  0  0  0  0  0  0
    1.2533    3.7517   34.3012 C   0  0  0  0  0  0  0  0  0  0  0  0
    1.4771    2.3890   33.6495 C   0  0  0  0  0  0  0  0  0  0  0  0
    2.7261    1.7822   34.2066 N   0  0  0  0  0  0  0  0  0  0  0  0
    2.7069    1.1545   35.3519 C   0  0  0  0  0  0  0  0  0  0  0  0
    3.4890    1.4609   36.2490 O   0  0  0  0  0  0  0  0  0  0  0  0
    1.8622    0.1834   35.5437 N   0  0  0  0  0  0  0  0  0  0  0  0
  1  2  1  0  0  0  0
  1  3  2  0  0  0  0
  4  1  1  1  0  0  0
  4  6  1  0  0  0  0
  4  5  1  0  0  0  0
  6  7  1  0  0  0  0
  7  8  1  0  0  0  0
  8  9  1  0  0  0  0
  9 10  1  0  0  0  0
 10 12  1  0  0  0  0
 10 11  2  0  0  0  0
M  CHG  2   2  -1   5   1
M  END
>  <CHROM.1>
170.09763920,74.29056407,61.42178176,178.70553398,78.08795545,-97.99445819
2.37916476,3.99515229,34.91136142,-1.47938831,1.19686198,2.98797825

>  <Name>
1kod cryst

>  <RI>
0

>  <Rbt.Current_Directory>
/home/itssahil/PROJECTS/Mol_Feturizer/New_Systems/rnas/1kod

>  <Rbt.Executable>
rbdock ($Id: //depot/dev/client3/rdock/2013.1/src/exe/rbdock.cxx#4 $)

>  <Rbt.Library>
libRbt.so (2013.1, Build901 2013/11/27)

>  <Rbt.Parameter_File>
/export/apps/rDock/src/rDock_2013.1_src/data/scripts/dock_solv.prm

>  <Rbt.Receptor>
prm/pocket_docking_4.prm

>  <SCORE>
-22.0201

>  <SCORE.INTER>
-16.753

>  <SCORE.INTER.CONST>
1

>  <SCORE.INTER.POLAR>
-2.60418

>  <SCORE.INTER.ROT>
5

>  <SCORE.INTER.SOLV>
13.3014

>  <SCORE.INTER.VDW>
-13.8552

>  <SCORE.INTER.norm>
-1.39609

>  <SCORE.INTRA>
-5.26702

>  <SCORE.INTRA.DIHEDRAL>
-3.69822

>  <SCORE.INTRA.DIHEDRAL.0>
7.7847

>  <SCORE.INTRA.POLAR>
0

>  <SCORE.INTRA.POLAR.0>
0

>  <SCORE.INTRA.REPUL>
0

>  <SCORE.INTRA.REPUL.0>
0

>  <SCORE.INTRA.SOLV>
-1.97225

>  <SCORE.INTRA.SOLV.lig_0>
-57.5465

>  <SCORE.INTRA.VDW>
-2.43179

>  <SCORE.INTRA.VDW.0>
1.39369

>  <SCORE.INTRA.norm>
-0.438919

>  <SCORE.RESTR>
0

>  <SCORE.RESTR.CAVITY>
0

>  <SCORE.RESTR.norm>
0

>  <SCORE.SYSTEM>
0

>  <SCORE.SYSTEM.CONST>
0

>  <SCORE.SYSTEM.DIHEDRAL>
0

>  <SCORE.SYSTEM.SOLV>
0

>  <SCORE.SYSTEM.norm>
0

>  <SCORE.heavy>
12

>  <SCORE.norm>
-1.835

>  <SYMMETRIC_BONDS>
4 1 2

>  <RMSD>
2.415

$$$$
1kod cryst
 OpenBabel11021811393D
libRbt.so/2013.1/901 2013/11/27
 12 11  0  0  0  0  0  0  0  0999 V2000
    2.3313    6.5484   35.7699 C   0  0  0  0  0  0  0  0  0  0  0  0
    1.7782    5.8259   36.5856 O   0  5  0  0  0  0  0  0  0  0  0  0
    3.0237    7.5121   36.0725 O   0  0  0  0  0  0  0  0  0  0  0  0
    2.1458    6.2225   34.2747 C   0  0  1  0  0  0  0  0  0  0  0  0
    2.2924    7.4758   33.4731 N   0  3  0  0  0  0  0  0  0  0  0  0
    3.1931    5.1853   33.8062 C   0  0  0  0  0  0  0  0  0  0  0  0
    2.5459    3.8205   33.6106 C   0  0  0  0  0  0  0  0  0  0  0  0
    2.3957    3.1202   34.9592 C   0  0  0  0  0  0  0  0  0  0  0  0
    1.4390    1.9794   34.8114 N   0  0  0  0  0  0  0  0  0  0  0  0
    1.7186    0.8075   35.3161 C   0  0  0  0  0  0  0  0  0  0  0  0
    1.6816   -0.2024   34.6166 O   0  0  0  0  0  0  0  0  0  0  0  0
    2.0252    0.7018   36.5763 N   0  0  0  0  0  0  0  0  0  0  0  0
  1  2  1  0  0  0  0
  1  3  2  0  0  0  0
  4  1  1  1  0  0  0
  4  6  1  0  0  0  0
  4  5  1  0  0  0  0
  6  7  1  0  0  0  0
  7  8  1  0  0  0  0
  8  9  1  0  0  0  0
  9 10  1  0  0  0  0
 10 12  1  0  0  0  0
 10 11  2  0  0  0  0
M  CHG  2   2  -1   5   1
M  END
>  <CHROM.1>
153.00716574,105.94414141,-59.92027305,-80.45279258,164.52646693,-45.94944796
2.20891080,4.10303866,34.99745043,0.53068767,1.43873692,0.97346379

>  <Name>
1kod cryst

>  <RI>
0

>  <Rbt.Current_Directory>
/home/itssahil/PROJECTS/Mol_Feturizer/New_Systems/rnas/1kod

>  <Rbt.Executable>
rbdock ($Id: //depot/dev/client3/rdock/2013.1/src/exe/rbdock.cxx#4 $)

>  <Rbt.Library>
libRbt.so (2013.1, Build901 2013/11/27)

>  <Rbt.Parameter_File>
/export/apps/rDock/src/rDock_2013.1_src/data/scripts/dock_solv.prm

>  <Rbt.Receptor>
prm/pocket_docking_7.prm

>  <SCORE>
-21.9492

>  <SCORE.INTER>
-19.0643

>  <SCORE.INTER.CONST>
1

>  <SCORE.INTER.POLAR>
-3.93486

>  <SCORE.INTER.ROT>
5

>  <SCORE.INTER.SOLV>
14.4127

>  <SCORE.INTER.VDW>
-11.3309

>  <SCORE.INTER.norm>
-1.58869

>  <SCORE.INTRA>
-2.88488

>  <SCORE.INTRA.DIHEDRAL>
1.3722

>  <SCORE.INTRA.DIHEDRAL.0>
7.7847

>  <SCORE.INTRA.POLAR>
0

>  <SCORE.INTRA.POLAR.0>
0

>  <SCORE.INTRA.REPUL>
0

>  <SCORE.INTRA.REPUL.0>
0

>  <SCORE.INTRA.SOLV>
-1.90046

>  <SCORE.INTRA.SOLV.lig_0>
-57.5465

>  <SCORE.INTRA.VDW>
-2.62075

>  <SCORE.INTRA.VDW.0>
1.39369

>  <SCORE.INTRA.norm>
-0.240407

>  <SCORE.RESTR>
0

>  <SCORE.RESTR.CAVITY>
0

>  <SCORE.RESTR.norm>
0

>  <SCORE.SYSTEM>
0

>  <SCORE.SYSTEM.CONST>
0

>  <SCORE.SYSTEM.DIHEDRAL>
0

>  <SCORE.SYSTEM.SOLV>
0

>  <SCORE.SYSTEM.norm>
0

>  <SCORE.heavy>
12

>  <SCORE.norm>
-1.8291

>  <SYMMETRIC_BONDS>
4 1 2

>  <RMSD>
2.420

$$$$
1kod cryst
 OpenBabel11021811393D
libRbt.so/2013.1/901 2013/11/27
 12 11  0  0  0  0  0  0  0  0999 V2000
    2.2867    6.9585   35.7753 C   0  0  0  0  0  0  0  0  0  0  0  0
    3.4821    6.9673   36.0286 O   0  5  0  0  0  0  0  0  0  0  0  0
    1.4099    7.0654   36.6235 O   0  0  0  0  0  0  0  0  0  0  0  0
    1.8626    6.8066   34.3011 C   0  0  1  0  0  0  0  0  0  0  0  0
    2.3469    7.9872   33.5226 N   0  3  0  0  0  0  0  0  0  0  0  0
    2.4502    5.5115   33.6929 C   0  0  0  0  0  0  0  0  0  0  0  0
    1.6008    4.3063   34.0749 C   0  0  0  0  0  0  0  0  0  0  0  0
    2.1508    3.0507   33.4020 C   0  0  0  0  0  0  0  0  0  0  0  0
    1.2131    1.9125   33.6549 N   0  0  0  0  0  0  0  0  0  0  0  0
    1.6585    0.7732   34.1128 C   0  0  0  0  0  0  0  0  0  0  0  0
    1.4033   -0.2796   33.5324 O   0  0  0  0  0  0  0  0  0  0  0  0
    2.3678    0.7466   35.2034 N   0  0  0  0  0  0  0  0  0  0  0  0
  1  2  1  0  0  0  0
  1  3  2  0  0  0  0
  4  1  1  1  0  0  0
  4  6  1  0  0  0  0
  4  5  1  0  0  0  0
  6  7  1  0  0  0  0
  7  8  1  0  0  0  0
  8  9  1  0  0  0  0
  9 10  1  0  0  0  0
 10 12  1  0  0  0  0
 10 11  2  0  0  0  0
M  CHG  2   2  -1   5   1
M  END
>  <CHROM.1>
-63.68868931,81.25205172,-168.40967244,176.84093294,-173.29446269,50.28095656
2.02844657,4.33606015,34.50237477,-0.87558861,1.41909021,2.61608121

>  <Name>
1kod cryst

>  <RI>
0

>  <Rbt.Current_Directory>
/home/itssahil/PROJECTS/Mol_Feturizer/New_Systems/rnas/1kod

>  <Rbt.Executable>
rbdock ($Id: //depot/dev/client3/rdock/2013.1/src/exe/rbdock.cxx#4 $)

>  <Rbt.Library>
libRbt.so (2013.1, Build901 2013/11/27)

>  <Rbt.Parameter_File>
/export/apps/rDock/src/rDock_2013.1_src/data/scripts/dock_solv.prm

>  <Rbt.Receptor>
prm/pocket_docking_3.prm

>  <SCORE>
-21.163

>  <SCORE.INTER>
-16.2822

>  <SCORE.INTER.CONST>
1

>  <SCORE.INTER.POLAR>
-2.82946

>  <SCORE.INTER.ROT>
5

>  <SCORE.INTER.SOLV>
15.1778

>  <SCORE.INTER.VDW>
-13.4159

>  <SCORE.INTER.norm>
-1.35685

>  <SCORE.INTRA>
-5.8039

>  <SCORE.INTRA.DIHEDRAL>
-3.5829

>  <SCORE.INTRA.DIHEDRAL.0>
7.7847

>  <SCORE.INTRA.POLAR>
0

>  <SCORE.INTRA.POLAR.0>
0

>  <SCORE.INTRA.REPUL>
0

>  <SCORE.INTRA.REPUL.0>
0

>  <SCORE.INTRA.SOLV>
-2.98985

>  <SCORE.INTRA.SOLV.lig_0>
-57.5465

>  <SCORE.INTRA.VDW>
-2.51752

>  <SCORE.INTRA.VDW.0>
1.39369

>  <SCORE.INTRA.norm>
-0.483658

>  <SCORE.RESTR>
0.923168

>  <SCORE.RESTR.CAVITY>
0.923168

>  <SCORE.RESTR.norm>
0.0769307

>  <SCORE.SYSTEM>
0

>  <SCORE.SYSTEM.CONST>
0

>  <SCORE.SYSTEM.DIHEDRAL>
0

>  <SCORE.SYSTEM.SOLV>
0

>  <SCORE.SYSTEM.norm>
0

>  <SCORE.heavy>
12

>  <SCORE.norm>
-1.76358

>  <SYMMETRIC_BONDS>
4 1 2

>  <RMSD>
2.421

$$$$
1kod cryst
 OpenBabel11021811393D
libRbt.so/2013.1/901 2013/11/27
 12 11  0  0  0  0  0  0  0  0999 V2000
    1.5745    5.5564   35.4133 C   0  0  0  0  0  0  0  0  0  0  0  0
    0.5470    5.4383   36.0642 O   0  5  0  0  0  0  0  0  0  0  0  0
    2.6497    5.8936   35.8928 O   0  0  0  0  0  0  0  0  0  0  0  0
    1.5092    5.2602   33.9019 C   0  0  1  0  0  0  0  0  0  0  0  0
    2.2287    6.3368   33.1550 N   0  3  0  0  0  0  0  0  0  0  0  0
    2.1554    3.8915   33.5835 C   0  0  0  0  0  0  0  0  0  0  0  0
    1.1132    2.7819   33.6339 C   0  0  0  0  0  0  0  0  0  0  0  0
    1.7791    1.4333   33.3693 C   0  0  0  0  0  0  0  0  0  0  0  0
    2.6741    1.0982   34.5205 N   0  0  0  0  0  0  0  0  0  0  0  0
    2.3104    1.3673   35.7458 C   0  0  0  0  0  0  0  0  0  0  0  0
    3.0410    2.0190   36.4889 O   0  0  0  0  0  0  0  0  0  0  0  0
    1.1697    0.9295   36.1935 N   0  0  0  0  0  0  0  0  0  0  0  0
  1  2  1  0  0  0  0
  1  3  2  0  0  0  0
  4  1  1  1  0  0  0
  4  6  1  0  0  0  0
  4  5  1  0  0  0  0
  6  7  1  0  0  0  0
  7  8  1  0  0  0  0
  8  9  1  0  0  0  0
  9 10  1  0  0  0  0
 10 12  1  0  0  0  0
 10 11  2  0  0  0  0
M  CHG  2   2  -1   5   1
M  END
>  <CHROM.1>
134.59967887,90.77740260,-58.20153006,-177.87270237,68.14815258,-140.89379620
1.90801526,3.52886117,34.84605304,2.87429077,1.51412362,-1.44991392

>  <Name>
1kod cryst

>  <RI>
0

>  <Rbt.Current_Directory>
/home/itssahil/PROJECTS/Mol_Feturizer/New_Systems/rnas/1kod

>  <Rbt.Executable>
rbdock ($Id: //depot/dev/client3/rdock/2013.1/src/exe/rbdock.cxx#4 $)

>  <Rbt.Library>
libRbt.so (2013.1, Build901 2013/11/27)

>  <Rbt.Parameter_File>
/export/apps/rDock/src/rDock_2013.1_src/data/scripts/dock_solv.prm

>  <Rbt.Receptor>
prm/pocket_docking_3.prm

>  <SCORE>
-22.452

>  <SCORE.INTER>
-18.3441

>  <SCORE.INTER.CONST>
1

>  <SCORE.INTER.POLAR>
-3.24307

>  <SCORE.INTER.ROT>
5

>  <SCORE.INTER.SOLV>
16.3014

>  <SCORE.INTER.VDW>
-13.7863

>  <SCORE.INTER.norm>
-1.52867

>  <SCORE.INTRA>
-4.10794

>  <SCORE.INTRA.DIHEDRAL>
-2.60189

>  <SCORE.INTRA.DIHEDRAL.0>
7.7847

>  <SCORE.INTRA.POLAR>
0

>  <SCORE.INTRA.POLAR.0>
0

>  <SCORE.INTRA.REPUL>
0

>  <SCORE.INTRA.REPUL.0>
0

>  <SCORE.INTRA.SOLV>
-1.44031

>  <SCORE.INTRA.SOLV.lig_0>
-57.5465

>  <SCORE.INTRA.VDW>
-2.08685

>  <SCORE.INTRA.VDW.0>
1.39369

>  <SCORE.INTRA.norm>
-0.342329

>  <SCORE.RESTR>
0

>  <SCORE.RESTR.CAVITY>
0

>  <SCORE.RESTR.norm>
0

>  <SCORE.SYSTEM>
0

>  <SCORE.SYSTEM.CONST>
0

>  <SCORE.SYSTEM.DIHEDRAL>
0

>  <SCORE.SYSTEM.SOLV>
0

>  <SCORE.SYSTEM.norm>
0

>  <SCORE.heavy>
12

>  <SCORE.norm>
-1.871

>  <SYMMETRIC_BONDS>
4 1 2

>  <RMSD>
2.430

$$$$
1kod cryst
 OpenBabel11021811393D
libRbt.so/2013.1/901 2013/11/27
 12 11  0  0  0  0  0  0  0  0999 V2000
    0.8029    5.0962   35.2584 C   0  0  0  0  0  0  0  0  0  0  0  0
    1.6294    5.5042   36.0607 O   0  5  0  0  0  0  0  0  0  0  0  0
   -0.3825    4.9382   35.5223 O   0  0  0  0  0  0  0  0  0  0  0  0
    1.2844    4.7648   33.8320 C   0  0  1  0  0  0  0  0  0  0  0  0
    2.1056    5.8998   33.3107 N   0  3  0  0  0  0  0  0  0  0  0  0
    2.1312    3.4705   33.8266 C   0  0  0  0  0  0  0  0  0  0  0  0
    1.2835    2.2768   33.4065 C   0  0  0  0  0  0  0  0  0  0  0  0
    2.0231    0.9790   33.7233 C   0  0  0  0  0  0  0  0  0  0  0  0
    2.0962    0.8103   35.2082 N   0  0  0  0  0  0  0  0  0  0  0  0
    1.0221    0.5393   35.9002 C   0  0  0  0  0  0  0  0  0  0  0  0
    0.7046    1.2328   36.8640 O   0  0  0  0  0  0  0  0  0  0  0  0
    0.2858   -0.4841   35.5785 N   0  0  0  0  0  0  0  0  0  0  0  0
  1  2  1  0  0  0  0
  1  3  2  0  0  0  0
  4  1  1  1  0  0  0
  4  6  1  0  0  0  0
  4  5  1  0  0  0  0
  6  7  1  0  0  0  0
  7  8  1  0  0  0  0
  8  9  1  0  0  0  0
  9 10  1  0  0  0  0
 10 12  1  0  0  0  0
 10 11  2  0  0  0  0
M  CHG  2   2  -1   5   1
M  END
>  <CHROM.1>
-48.63337802,98.22260079,-39.44822495,-166.52646401,68.71011745,-109.95808338
1.24965931,2.94440591,34.88949993,1.44384631,1.06595039,-0.08286819

>  <Name>
1kod cryst

>  <RI>
0

>  <Rbt.Current_Directory>
/home/itssahil/PROJECTS/Mol_Feturizer/New_Systems/rnas/1kod

>  <Rbt.Executable>
rbdock ($Id: //depot/dev/client3/rdock/2013.1/src/exe/rbdock.cxx#4 $)

>  <Rbt.Library>
libRbt.so (2013.1, Build901 2013/11/27)

>  <Rbt.Parameter_File>
/export/apps/rDock/src/rDock_2013.1_src/data/scripts/dock_solv.prm

>  <Rbt.Receptor>
prm/pocket_docking_4.prm

>  <SCORE>
-19.9319

>  <SCORE.INTER>
-16.1609

>  <SCORE.INTER.CONST>
1

>  <SCORE.INTER.POLAR>
-2.46768

>  <SCORE.INTER.ROT>
5

>  <SCORE.INTER.SOLV>
21.7379

>  <SCORE.INTER.VDW>
-16.7277

>  <SCORE.INTER.norm>
-1.34674

>  <SCORE.INTRA>
-3.77097

>  <SCORE.INTRA.DIHEDRAL>
0.0477357

>  <SCORE.INTRA.DIHEDRAL.0>
7.7847

>  <SCORE.INTRA.POLAR>
0

>  <SCORE.INTRA.POLAR.0>
0

>  <SCORE.INTRA.REPUL>
0

>  <SCORE.INTRA.REPUL.0>
0

>  <SCORE.INTRA.SOLV>
-2.19757

>  <SCORE.INTRA.SOLV.lig_0>
-57.5465

>  <SCORE.INTRA.VDW>
-2.69606

>  <SCORE.INTRA.VDW.0>
1.39369

>  <SCORE.INTRA.norm>
-0.314248

>  <SCORE.RESTR>
0

>  <SCORE.RESTR.CAVITY>
0

>  <SCORE.RESTR.norm>
0

>  <SCORE.SYSTEM>
0

>  <SCORE.SYSTEM.CONST>
0

>  <SCORE.SYSTEM.DIHEDRAL>
0

>  <SCORE.SYSTEM.SOLV>
0

>  <SCORE.SYSTEM.norm>
0

>  <SCORE.heavy>
12

>  <SCORE.norm>
-1.66099

>  <SYMMETRIC_BONDS>
4 1 2

>  <RMSD>
2.435

$$$$
1kod cryst
 OpenBabel11021811393D
libRbt.so/2013.1/901 2013/11/27
 12 11  0  0  0  0  0  0  0  0999 V2000
    1.6497    6.7125   36.0142 C   0  0  0  0  0  0  0  0  0  0  0  0
    0.5396    7.0187   36.4231 O   0  5  0  0  0  0  0  0  0  0  0  0
    2.6452    6.6540   36.7251 O   0  0  0  0  0  0  0  0  0  0  0  0
    1.8004    6.3787   34.5168 C   0  0  1  0  0  0  0  0  0  0  0  0
    2.5671    7.4698   33.8413 N   0  3  0  0  0  0  0  0  0  0  0  0
    2.5412    5.0343   34.3272 C   0  0  0  0  0  0  0  0  0  0  0  0
    1.6302    3.8657   34.6799 C   0  0  0  0  0  0  0  0  0  0  0  0
    2.4121    2.5565   34.5996 C   0  0  0  0  0  0  0  0  0  0  0  0
    1.4484    1.4121   34.6163 N   0  0  0  0  0  0  0  0  0  0  0  0
    1.5683    0.4548   35.4967 C   0  0  0  0  0  0  0  0  0  0  0  0
    1.6190   -0.7211   35.1427 O   0  0  0  0  0  0  0  0  0  0  0  0
    1.6197    0.7437   36.7644 N   0  0  0  0  0  0  0  0  0  0  0  0
  1  2  1  0  0  0  0
  1  3  2  0  0  0  0
  4  1  1  1  0  0  0
  4  6  1  0  0  0  0
  4  5  1  0  0  0  0
  6  7  1  0  0  0  0
  7  8  1  0  0  0  0
  8  9  1  0  0  0  0
  9 10  1  0  0  0  0
 10 12  1  0  0  0  0
 10 11  2  0  0  0  0
M  CHG  2   2  -1   5   1
M  END
>  <CHROM.1>
109.56350791,73.95077375,56.25806829,-175.28623312,-166.32016721,54.34336744
1.84098366,3.98609287,35.27168645,1.40853080,1.27645761,0.13739263

>  <Name>
1kod cryst

>  <RI>
0

>  <Rbt.Current_Directory>
/home/itssahil/PROJECTS/Mol_Feturizer/New_Systems/rnas/1kod

>  <Rbt.Executable>
rbdock ($Id: //depot/dev/client3/rdock/2013.1/src/exe/rbdock.cxx#4 $)

>  <Rbt.Library>
libRbt.so (2013.1, Build901 2013/11/27)

>  <Rbt.Parameter_File>
/export/apps/rDock/src/rDock_2013.1_src/data/scripts/dock_solv.prm

>  <Rbt.Receptor>
prm/pocket_docking_3.prm

>  <SCORE>
-20.6899

>  <SCORE.INTER>
-14.8535

>  <SCORE.INTER.CONST>
1

>  <SCORE.INTER.POLAR>
-2.96925

>  <SCORE.INTER.ROT>
5

>  <SCORE.INTER.SOLV>
14.1851

>  <SCORE.INTER.VDW>
-11.6665

>  <SCORE.INTER.norm>
-1.23779

>  <SCORE.INTRA>
-5.92856

>  <SCORE.INTRA.DIHEDRAL>
-4.08175

>  <SCORE.INTRA.DIHEDRAL.0>
7.7847

>  <SCORE.INTRA.POLAR>
0

>  <SCORE.INTRA.POLAR.0>
0

>  <SCORE.INTRA.REPUL>
0

>  <SCORE.INTRA.REPUL.0>
0

>  <SCORE.INTRA.SOLV>
-2.845

>  <SCORE.INTRA.SOLV.lig_0>
-57.5465

>  <SCORE.INTRA.VDW>
-2.46519

>  <SCORE.INTRA.VDW.0>
1.39369

>  <SCORE.INTRA.norm>
-0.494047

>  <SCORE.RESTR>
0.0921228

>  <SCORE.RESTR.CAVITY>
0.0921228

>  <SCORE.RESTR.norm>
0.0076769

>  <SCORE.SYSTEM>
0

>  <SCORE.SYSTEM.CONST>
0

>  <SCORE.SYSTEM.DIHEDRAL>
0

>  <SCORE.SYSTEM.SOLV>
0

>  <SCORE.SYSTEM.norm>
0

>  <SCORE.heavy>
12

>  <SCORE.norm>
-1.72416

>  <SYMMETRIC_BONDS>
4 1 2

>  <RMSD>
2.437

$$$$
1kod cryst
 OpenBabel11021811393D
libRbt.so/2013.1/901 2013/11/27
 12 11  0  0  0  0  0  0  0  0999 V2000
    1.7161    6.0651   35.6335 C   0  0  0  0  0  0  0  0  0  0  0  0
    2.6269    6.5428   36.2935 O   0  5  0  0  0  0  0  0  0  0  0  0
    0.6512    5.6937   36.1106 O   0  0  0  0  0  0  0  0  0  0  0  0
    1.9233    5.9264   34.1122 C   0  0  1  0  0  0  0  0  0  0  0  0
    2.1828    7.2756   33.5231 N   0  3  0  0  0  0  0  0  0  0  0  0
    3.1163    4.9913   33.8049 C   0  0  0  0  0  0  0  0  0  0  0  0
    2.6403    3.5554   33.6275 C   0  0  0  0  0  0  0  0  0  0  0  0
    2.4108    2.9131   34.9937 C   0  0  0  0  0  0  0  0  0  0  0  0
    1.4574    1.7702   34.8403 N   0  0  0  0  0  0  0  0  0  0  0  0
    1.6189    0.6725   35.5294 C   0  0  0  0  0  0  0  0  0  0  0  0
    1.6648   -0.4200   34.9683 O   0  0  0  0  0  0  0  0  0  0  0  0
    1.7174    0.7304   36.8256 N   0  0  0  0  0  0  0  0  0  0  0  0
  1  2  1  0  0  0  0
  1  3  2  0  0  0  0
  4  1  1  1  0  0  0
  4  6  1  0  0  0  0
  4  5  1  0  0  0  0
  6  7  1  0  0  0  0
  7  8  1  0  0  0  0
  8  9  1  0  0  0  0
  9 10  1  0  0  0  0
 10 12  1  0  0  0  0
 10 11  2  0  0  0  0
M  CHG  2   2  -1   5   1
M  END
>  <CHROM.1>
-59.42088899,92.16778201,-50.59650992,-79.60724325,157.33227236,-38.01084603
1.96810097,3.83081209,35.03384804,1.36101298,1.23918622,0.06512246

>  <Name>
1kod cryst

>  <RI>
0

>  <Rbt.Current_Directory>
/home/itssahil/PROJECTS/Mol_Feturizer/New_Systems/rnas/1kod

>  <Rbt.Executable>
rbdock ($Id: //depot/dev/client3/rdock/2013.1/src/exe/rbdock.cxx#4 $)

>  <Rbt.Library>
libRbt.so (2013.1, Build901 2013/11/27)

>  <Rbt.Parameter_File>
/export/apps/rDock/src/rDock_2013.1_src/data/scripts/dock_solv.prm

>  <Rbt.Receptor>
prm/pocket_docking_3.prm

>  <SCORE>
-22.7818

>  <SCORE.INTER>
-19.7035

>  <SCORE.INTER.CONST>
1

>  <SCORE.INTER.POLAR>
-3.91153

>  <SCORE.INTER.ROT>
5

>  <SCORE.INTER.SOLV>
15.7448

>  <SCORE.INTER.VDW>
-12.2788

>  <SCORE.INTER.norm>
-1.64196

>  <SCORE.INTRA>
-3.07825

>  <SCORE.INTRA.DIHEDRAL>
0.725975

>  <SCORE.INTRA.DIHEDRAL.0>
7.7847

>  <SCORE.INTRA.POLAR>
0

>  <SCORE.INTRA.POLAR.0>
0

>  <SCORE.INTRA.REPUL>
0

>  <SCORE.INTRA.REPUL.0>
0

>  <SCORE.INTRA.SOLV>
-1.83602

>  <SCORE.INTRA.SOLV.lig_0>
-57.5465

>  <SCORE.INTRA.VDW>
-2.52323

>  <SCORE.INTRA.VDW.0>
1.39369

>  <SCORE.INTRA.norm>
-0.256521

>  <SCORE.RESTR>
0

>  <SCORE.RESTR.CAVITY>
0

>  <SCORE.RESTR.norm>
0

>  <SCORE.SYSTEM>
0

>  <SCORE.SYSTEM.CONST>
0

>  <SCORE.SYSTEM.DIHEDRAL>
0

>  <SCORE.SYSTEM.SOLV>
0

>  <SCORE.SYSTEM.norm>
0

>  <SCORE.heavy>
12

>  <SCORE.norm>
-1.89848

>  <SYMMETRIC_BONDS>
4 1 2

>  <RMSD>
2.438

$$$$
1kod cryst
 OpenBabel11021811393D
libRbt.so/2013.1/901 2013/11/27
 12 11  0  0  0  0  0  0  0  0999 V2000
    1.6629    5.9726   35.7573 C   0  0  0  0  0  0  0  0  0  0  0  0
    2.7508    6.2483   36.2407 O   0  5  0  0  0  0  0  0  0  0  0  0
    0.6570    5.7576   36.4218 O   0  0  0  0  0  0  0  0  0  0  0  0
    1.5547    5.8946   34.2215 C   0  0  1  0  0  0  0  0  0  0  0  0
    2.1788    7.1119   33.6189 N   0  3  0  0  0  0  0  0  0  0  0  0
    2.2673    4.6307   33.6858 C   0  0  0  0  0  0  0  0  0  0  0  0
    1.2752    3.4879   33.5140 C   0  0  0  0  0  0  0  0  0  0  0  0
    2.0229    2.1581   33.4486 C   0  0  0  0  0  0  0  0  0  0  0  0
    1.7239    1.3702   34.6850 N   0  0  0  0  0  0  0  0  0  0  0  0
    2.6831    0.7763   35.3431 C   0  0  0  0  0  0  0  0  0  0  0  0
    2.6148   -0.4222   35.6071 O   0  0  0  0  0  0  0  0  0  0  0  0
    3.7168    1.4604   35.7388 N   0  0  0  0  0  0  0  0  0  0  0  0
  1  2  1  0  0  0  0
  1  3  2  0  0  0  0
  4  1  1  1  0  0  0
  4  6  1  0  0  0  0
  4  5  1  0  0  0  0
  6  7  1  0  0  0  0
  7  8  1  0  0  0  0
  8  9  1  0  0  0  0
  9 10  1  0  0  0  0
 10 12  1  0  0  0  0
 10 11  2  0  0  0  0
M  CHG  2   2  -1   5   1
M  END
>  <CHROM.1>
-48.64804650,94.67784532,52.47374624,-161.02212077,111.20210462,45.68857446
2.11020850,3.73122728,34.87542880,-2.26650134,1.35696184,-2.49943413

>  <Name>
1kod cryst

>  <RI>
0

>  <Rbt.Current_Directory>
/home/itssahil/PROJECTS/Mol_Feturizer/New_Systems/rnas/1kod

>  <Rbt.Executable>
rbdock ($Id: //depot/dev/client3/rdock/2013.1/src/exe/rbdock.cxx#4 $)

>  <Rbt.Library>
libRbt.so (2013.1, Build901 2013/11/27)

>  <Rbt.Parameter_File>
/export/apps/rDock/src/rDock_2013.1_src/data/scripts/dock_solv.prm

>  <Rbt.Receptor>
prm/pocket_docking_3.prm

>  <SCORE>
-21.6544

>  <SCORE.INTER>
-19.6663

>  <SCORE.INTER.CONST>
1

>  <SCORE.INTER.POLAR>
-3.34888

>  <SCORE.INTER.ROT>
5

>  <SCORE.INTER.SOLV>
15.2211

>  <SCORE.INTER.VDW>
-13.955

>  <SCORE.INTER.norm>
-1.63886

>  <SCORE.INTRA>
-2.0412

>  <SCORE.INTRA.DIHEDRAL>
4.40515

>  <SCORE.INTRA.DIHEDRAL.0>
7.7847

>  <SCORE.INTRA.POLAR>
0

>  <SCORE.INTRA.POLAR.0>
0

>  <SCORE.INTRA.REPUL>
0

>  <SCORE.INTRA.REPUL.0>
0

>  <SCORE.INTRA.SOLV>
-2.68382

>  <SCORE.INTRA.SOLV.lig_0>
-57.5465

>  <SCORE.INTRA.VDW>
-2.90186

>  <SCORE.INTRA.VDW.0>
1.39369

>  <SCORE.INTRA.norm>
-0.1701

>  <SCORE.RESTR>
0.0531577

>  <SCORE.RESTR.CAVITY>
0.0531577

>  <SCORE.RESTR.norm>
0.00442981

>  <SCORE.SYSTEM>
0

>  <SCORE.SYSTEM.CONST>
0

>  <SCORE.SYSTEM.DIHEDRAL>
0

>  <SCORE.SYSTEM.SOLV>
0

>  <SCORE.SYSTEM.norm>
0

>  <SCORE.heavy>
12

>  <SCORE.norm>
-1.80453

>  <SYMMETRIC_BONDS>
4 1 2

>  <RMSD>
2.452

$$$$
1kod cryst
 OpenBabel11021811393D
libRbt.so/2013.1/901 2013/11/27
 12 11  0  0  0  0  0  0  0  0999 V2000
    2.2910    6.0625   35.6715 C   0  0  0  0  0  0  0  0  0  0  0  0
    1.5166    6.5117   36.5032 O   0  5  0  0  0  0  0  0  0  0  0  0
    3.4068    5.6353   35.9402 O   0  0  0  0  0  0  0  0  0  0  0  0
    1.8313    6.0312   34.2004 C   0  0  1  0  0  0  0  0  0  0  0  0
    2.5441    7.1002   33.4363 N   0  3  0  0  0  0  0  0  0  0  0  0
    2.1304    4.6544   33.5622 C   0  0  0  0  0  0  0  0  0  0  0  0
    1.1581    3.6016   34.0782 C   0  0  0  0  0  0  0  0  0  0  0  0
    1.4252    2.2666   33.3867 C   0  0  0  0  0  0  0  0  0  0  0  0
    2.4336    1.4994   34.1825 N   0  0  0  0  0  0  0  0  0  0  0  0
    2.4303    1.5521   35.4876 C   0  0  0  0  0  0  0  0  0  0  0  0
    3.4493    1.8507   36.1064 O   0  0  0  0  0  0  0  0  0  0  0  0
    1.3425    1.2711   36.1441 N   0  0  0  0  0  0  0  0  0  0  0  0
  1  2  1  0  0  0  0
  1  3  2  0  0  0  0
  4  1  1  1  0  0  0
  4  6  1  0  0  0  0
  4  5  1  0  0  0  0
  6  7  1  0  0  0  0
  7  8  1  0  0  0  0
  8  9  1  0  0  0  0
  9 10  1  0  0  0  0
 10 12  1  0  0  0  0
 10 11  2  0  0  0  0
M  CHG  2   2  -1   5   1
M  END
>  <CHROM.1>
106.16901142,73.84432816,68.58140687,177.25371439,89.61117645,-143.44897736
2.18243076,4.02581643,34.90595190,-1.46401753,1.34675243,2.96455942

>  <Name>
1kod cryst

>  <RI>
0

>  <Rbt.Current_Directory>
/home/itssahil/PROJECTS/Mol_Feturizer/New_Systems/rnas/1kod

>  <Rbt.Executable>
rbdock ($Id: //depot/dev/client3/rdock/2013.1/src/exe/rbdock.cxx#4 $)

>  <Rbt.Library>
libRbt.so (2013.1, Build901 2013/11/27)

>  <Rbt.Parameter_File>
/export/apps/rDock/src/rDock_2013.1_src/data/scripts/dock_solv.prm

>  <Rbt.Receptor>
prm/pocket_docking_3.prm

>  <SCORE>
-22.7698

>  <SCORE.INTER>
-19.324

>  <SCORE.INTER.CONST>
1

>  <SCORE.INTER.POLAR>
-3.32405

>  <SCORE.INTER.ROT>
5

>  <SCORE.INTER.SOLV>
12.935

>  <SCORE.INTER.VDW>
-13.0475

>  <SCORE.INTER.norm>
-1.61034

>  <SCORE.INTRA>
-3.44594

>  <SCORE.INTRA.DIHEDRAL>
-1.98398

>  <SCORE.INTRA.DIHEDRAL.0>
7.7847

>  <SCORE.INTRA.POLAR>
0

>  <SCORE.INTRA.POLAR.0>
0

>  <SCORE.INTRA.REPUL>
0

>  <SCORE.INTRA.REPUL.0>
0

>  <SCORE.INTRA.SOLV>
-1.76696

>  <SCORE.INTRA.SOLV.lig_0>
-57.5465

>  <SCORE.INTRA.VDW>
-1.57047

>  <SCORE.INTRA.VDW.0>
1.39369

>  <SCORE.INTRA.norm>
-0.287162

>  <SCORE.RESTR>
0.000161222

>  <SCORE.RESTR.CAVITY>
0.000161222

>  <SCORE.RESTR.norm>
1.34352e-05

>  <SCORE.SYSTEM>
0

>  <SCORE.SYSTEM.CONST>
0

>  <SCORE.SYSTEM.DIHEDRAL>
0

>  <SCORE.SYSTEM.SOLV>
0

>  <SCORE.SYSTEM.norm>
0

>  <SCORE.heavy>
12

>  <SCORE.norm>
-1.89748

>  <SYMMETRIC_BONDS>
4 1 2

>  <RMSD>
2.457

$$$$
1kod cryst
 OpenBabel11021811393D
libRbt.so/2013.1/901 2013/11/27
 12 11  0  0  0  0  0  0  0  0999 V2000
    2.3996    7.4136   36.2751 C   0  0  0  0  0  0  0  0  0  0  0  0
    3.3760    8.1198   36.4785 O   0  5  0  0  0  0  0  0  0  0  0  0
    1.6034    7.0850   37.1455 O   0  0  0  0  0  0  0  0  0  0  0  0
    2.1589    6.9120   34.8375 C   0  0  1  0  0  0  0  0  0  0  0  0
    3.3851    7.1534   34.0173 N   0  3  0  0  0  0  0  0  0  0  0  0
    1.8245    5.4019   34.8331 C   0  0  0  0  0  0  0  0  0  0  0  0
    1.3995    4.9509   33.4417 C   0  0  0  0  0  0  0  0  0  0  0  0
    0.6097    3.6475   33.5383 C   0  0  0  0  0  0  0  0  0  0  0  0
    1.5009    2.5087   33.1543 N   0  0  0  0  0  0  0  0  0  0  0  0
    1.0556    1.2809   33.1712 C   0  0  0  0  0  0  0  0  0  0  0  0
    1.6528    0.4050   33.7931 O   0  0  0  0  0  0  0  0  0  0  0  0
   -0.0231    0.9744   32.5113 N   0  0  0  0  0  0  0  0  0  0  0  0
  1  2  1  0  0  0  0
  1  3  2  0  0  0  0
  4  1  1  1  0  0  0
  4  6  1  0  0  0  0
  4  5  1  0  0  0  0
  6  7  1  0  0  0  0
  7  8  1  0  0  0  0
  8  9  1  0  0  0  0
  9 10  1  0  0  0  0
 10 12  1  0  0  0  0
 10 11  2  0  0  0  0
M  CHG  2   2  -1   5   1
M  END
>  <CHROM.1>
13.05192948,172.17088880,-57.48785157,-159.65251256,-101.88739435,-0.71187683
1.77102434,4.65646356,34.42649780,0.90004616,1.15130079,1.05546519

>  <Name>
1kod cryst

>  <RI>
0

>  <Rbt.Current_Directory>
/home/itssahil/PROJECTS/Mol_Feturizer/New_Systems/rnas/1kod

>  <Rbt.Executable>
rbdock ($Id: //depot/dev/client3/rdock/2013.1/src/exe/rbdock.cxx#4 $)

>  <Rbt.Library>
libRbt.so (2013.1, Build901 2013/11/27)

>  <Rbt.Parameter_File>
/export/apps/rDock/src/rDock_2013.1_src/data/scripts/dock_solv.prm

>  <Rbt.Receptor>
prm/pocket_docking_5.prm

>  <SCORE>
-22.3513

>  <SCORE.INTER>
-19.7983

>  <SCORE.INTER.CONST>
1

>  <SCORE.INTER.POLAR>
-3.06527

>  <SCORE.INTER.ROT>
5

>  <SCORE.INTER.SOLV>
11.9872

>  <SCORE.INTER.VDW>
-13.9104

>  <SCORE.INTER.norm>
-1.64986

>  <SCORE.INTRA>
-2.55295

>  <SCORE.INTRA.DIHEDRAL>
0.635828

>  <SCORE.INTRA.DIHEDRAL.0>
7.7847

>  <SCORE.INTRA.POLAR>
0

>  <SCORE.INTRA.POLAR.0>
0

>  <SCORE.INTRA.REPUL>
0

>  <SCORE.INTRA.REPUL.0>
0

>  <SCORE.INTRA.SOLV>
-2.2214

>  <SCORE.INTRA.SOLV.lig_0>
-57.5465

>  <SCORE.INTRA.VDW>
-1.76017

>  <SCORE.INTRA.VDW.0>
1.39369

>  <SCORE.INTRA.norm>
-0.212746

>  <SCORE.RESTR>
0

>  <SCORE.RESTR.CAVITY>
0

>  <SCORE.RESTR.norm>
0

>  <SCORE.SYSTEM>
0

>  <SCORE.SYSTEM.CONST>
0

>  <SCORE.SYSTEM.DIHEDRAL>
0

>  <SCORE.SYSTEM.SOLV>
0

>  <SCORE.SYSTEM.norm>
0

>  <SCORE.heavy>
12

>  <SCORE.norm>
-1.86261

>  <SYMMETRIC_BONDS>
4 1 2

>  <RMSD>
2.467

$$$$
1kod cryst
 OpenBabel11021811393D
libRbt.so/2013.1/901 2013/11/27
 12 11  0  0  0  0  0  0  0  0999 V2000
    1.7312    7.3087   35.7257 C   0  0  0  0  0  0  0  0  0  0  0  0
    2.3538    8.3524   35.8535 O   0  5  0  0  0  0  0  0  0  0  0  0
    0.9240    6.8921   36.5470 O   0  0  0  0  0  0  0  0  0  0  0  0
    1.9776    6.4726   34.4543 C   0  0  1  0  0  0  0  0  0  0  0  0
    2.5427    7.3519   33.3856 N   0  3  0  0  0  0  0  0  0  0  0  0
    2.9611    5.3142   34.7425 C   0  0  0  0  0  0  0  0  0  0  0  0
    2.6333    4.1046   33.8769 C   0  0  0  0  0  0  0  0  0  0  0  0
    2.5207    2.8574   34.7507 C   0  0  0  0  0  0  0  0  0  0  0  0
    2.4921    1.6476   33.8708 N   0  0  0  0  0  0  0  0  0  0  0  0
    1.3618    1.1976   33.3956 C   0  0  0  0  0  0  0  0  0  0  0  0
    1.0372    0.0229   33.5543 O   0  0  0  0  0  0  0  0  0  0  0  0
    0.5750    1.9946   32.7331 N   0  0  0  0  0  0  0  0  0  0  0  0
  1  2  1  0  0  0  0
  1  3  2  0  0  0  0
  4  1  1  1  0  0  0
  4  6  1  0  0  0  0
  4  5  1  0  0  0  0
  6  7  1  0  0  0  0
  7  8  1  0  0  0  0
  8  9  1  0  0  0  0
  9 10  1  0  0  0  0
 10 12  1  0  0  0  0
 10 11  2  0  0  0  0
M  CHG  2   2  -1   5   1
M  END
>  <CHROM.1>
-21.62413697,147.76465819,33.41520560,-128.82668464,-168.00708196,92.00496872
1.91985753,4.48404200,34.38640522,1.37662219,1.08580073,0.45594631

>  <Name>
1kod cryst

>  <RI>
0

>  <Rbt.Current_Directory>
/home/itssahil/PROJECTS/Mol_Feturizer/New_Systems/rnas/1kod

>  <Rbt.Executable>
rbdock ($Id: //depot/dev/client3/rdock/2013.1/src/exe/rbdock.cxx#4 $)

>  <Rbt.Library>
libRbt.so (2013.1, Build901 2013/11/27)

>  <Rbt.Parameter_File>
/export/apps/rDock/src/rDock_2013.1_src/data/scripts/dock_solv.prm

>  <Rbt.Receptor>
prm/pocket_docking_7.prm

>  <SCORE>
-22.9087

>  <SCORE.INTER>
-22.4073

>  <SCORE.INTER.CONST>
1

>  <SCORE.INTER.POLAR>
-4.11569

>  <SCORE.INTER.ROT>
5

>  <SCORE.INTER.SOLV>
16.9341

>  <SCORE.INTER.VDW>
-13.7973

>  <SCORE.INTER.norm>
-1.86727

>  <SCORE.INTRA>
-0.501423

>  <SCORE.INTRA.DIHEDRAL>
5.13313

>  <SCORE.INTRA.DIHEDRAL.0>
7.7847

>  <SCORE.INTRA.POLAR>
0

>  <SCORE.INTRA.POLAR.0>
0

>  <SCORE.INTRA.REPUL>
0

>  <SCORE.INTRA.REPUL.0>
0

>  <SCORE.INTRA.SOLV>
-2.38713

>  <SCORE.INTRA.SOLV.lig_0>
-57.5465

>  <SCORE.INTRA.VDW>
-1.87442

>  <SCORE.INTRA.VDW.0>
1.39369

>  <SCORE.INTRA.norm>
-0.0417853

>  <SCORE.RESTR>
0

>  <SCORE.RESTR.CAVITY>
0

>  <SCORE.RESTR.norm>
0

>  <SCORE.SYSTEM>
0

>  <SCORE.SYSTEM.CONST>
0

>  <SCORE.SYSTEM.DIHEDRAL>
0

>  <SCORE.SYSTEM.SOLV>
0

>  <SCORE.SYSTEM.norm>
0

>  <SCORE.heavy>
12

>  <SCORE.norm>
-1.90906

>  <SYMMETRIC_BONDS>
4 1 2

>  <RMSD>
2.482

$$$$
1kod cryst
 OpenBabel11021811393D
libRbt.so/2013.1/901 2013/11/27
 12 11  0  0  0  0  0  0  0  0999 V2000
    1.7133    5.8923   35.4270 C   0  0  0  0  0  0  0  0  0  0  0  0
    1.5408    7.0166   35.8738 O   0  5  0  0  0  0  0  0  0  0  0  0
    1.2689    4.8769   35.9475 O   0  0  0  0  0  0  0  0  0  0  0  0
    2.5365    5.7493   34.1315 C   0  0  1  0  0  0  0  0  0  0  0  0
    2.5708    7.0631   33.4193 N   0  3  0  0  0  0  0  0  0  0  0  0
    3.9811    5.2962   34.4477 C   0  0  0  0  0  0  0  0  0  0  0  0
    4.2685    3.9408   33.8151 C   0  0  0  0  0  0  0  0  0  0  0  0
    3.8216    2.8244   34.7563 C   0  0  0  0  0  0  0  0  0  0  0  0
    2.6557    2.1117   34.1471 N   0  0  0  0  0  0  0  0  0  0  0  0
    1.8822    1.3554   34.8791 C   0  0  0  0  0  0  0  0  0  0  0  0
    1.6551    0.1913   34.5568 O   0  0  0  0  0  0  0  0  0  0  0  0
    1.3319    1.8404   35.9539 N   0  0  0  0  0  0  0  0  0  0  0  0
  1  2  1  0  0  0  0
  1  3  2  0  0  0  0
  4  1  1  1  0  0  0
  4  6  1  0  0  0  0
  4  5  1  0  0  0  0
  6  7  1  0  0  0  0
  7  8  1  0  0  0  0
  8  9  1  0  0  0  0
  9 10  1  0  0  0  0
 10 12  1  0  0  0  0
 10 11  2  0  0  0  0
M  CHG  2   2  -1   5   1
M  END
>  <CHROM.1>
-19.48690749,117.76291517,50.38342107,-86.57270561,112.16672433,17.44603653
2.40517532,4.03734359,34.78053569,1.50029901,0.66323062,0.00853966

>  <Name>
1kod cryst

>  <RI>
0

>  <Rbt.Current_Directory>
/home/itssahil/PROJECTS/Mol_Feturizer/New_Systems/rnas/1kod

>  <Rbt.Executable>
rbdock ($Id: //depot/dev/client3/rdock/2013.1/src/exe/rbdock.cxx#4 $)

>  <Rbt.Library>
libRbt.so (2013.1, Build901 2013/11/27)

>  <Rbt.Parameter_File>
/export/apps/rDock/src/rDock_2013.1_src/data/scripts/dock_solv.prm

>  <Rbt.Receptor>
prm/pocket_docking_5.prm

>  <SCORE>
-16.6698

>  <SCORE.INTER>
-13.3463

>  <SCORE.INTER.CONST>
1

>  <SCORE.INTER.POLAR>
-3.0314

>  <SCORE.INTER.ROT>
5

>  <SCORE.INTER.SOLV>
13.9179

>  <SCORE.INTER.VDW>
-10.3655

>  <SCORE.INTER.norm>
-1.11219

>  <SCORE.INTRA>
-3.32353

>  <SCORE.INTRA.DIHEDRAL>
7.6021

>  <SCORE.INTRA.DIHEDRAL.0>
7.7847

>  <SCORE.INTRA.POLAR>
-1.25

>  <SCORE.INTRA.POLAR.0>
0

>  <SCORE.INTRA.REPUL>
0

>  <SCORE.INTRA.REPUL.0>
0

>  <SCORE.INTRA.SOLV>
0.428341

>  <SCORE.INTRA.SOLV.lig_0>
-57.5465

>  <SCORE.INTRA.VDW>
-3.08874

>  <SCORE.INTRA.VDW.0>
1.39369

>  <SCORE.INTRA.norm>
-0.27696

>  <SCORE.RESTR>
0

>  <SCORE.RESTR.CAVITY>
0

>  <SCORE.RESTR.norm>
0

>  <SCORE.SYSTEM>
0

>  <SCORE.SYSTEM.CONST>
0

>  <SCORE.SYSTEM.DIHEDRAL>
0

>  <SCORE.SYSTEM.SOLV>
0

>  <SCORE.SYSTEM.norm>
0

>  <SCORE.heavy>
12

>  <SCORE.norm>
-1.38915

>  <SYMMETRIC_BONDS>
4 1 2

>  <RMSD>
2.514

$$$$
1kod cryst
 OpenBabel11021811393D
libRbt.so/2013.1/901 2013/11/27
 12 11  0  0  0  0  0  0  0  0999 V2000
    2.4661    6.5234   35.6341 C   0  0  0  0  0  0  0  0  0  0  0  0
    3.5142    7.1269   35.4590 O   0  5  0  0  0  0  0  0  0  0  0  0
    1.8304    6.5518   36.6804 O   0  0  0  0  0  0  0  0  0  0  0  0
    1.9148    5.6810   34.4668 C   0  0  1  0  0  0  0  0  0  0  0  0
    2.2412    6.3549   33.1729 N   0  3  0  0  0  0  0  0  0  0  0  0
    2.5286    4.2614   34.4781 C   0  0  0  0  0  0  0  0  0  0  0  0
    2.0891    3.4971   35.7201 C   0  0  0  0  0  0  0  0  0  0  0  0
    2.4130    2.0137   35.5572 C   0  0  0  0  0  0  0  0  0  0  0  0
    1.3927    1.3884   34.6590 N   0  0  0  0  0  0  0  0  0  0  0  0
    1.5344    1.4304   33.3612 C   0  0  0  0  0  0  0  0  0  0  0  0
    0.6343    1.8634   32.6451 O   0  0  0  0  0  0  0  0  0  0  0  0
    2.6329    0.9960   32.8155 N   0  0  0  0  0  0  0  0  0  0  0  0
  1  2  1  0  0  0  0
  1  3  2  0  0  0  0
  4  1  1  1  0  0  0
  4  6  1  0  0  0  0
  4  5  1  0  0  0  0
  6  7  1  0  0  0  0
  7  8  1  0  0  0  0
  8  9  1  0  0  0  0
  9 10  1  0  0  0  0
 10 12  1  0  0  0  0
 10 11  2  0  0  0  0
M  CHG  2   2  -1   5   1
M  END
>  <CHROM.1>
-34.30070393,65.37203149,172.29989552,166.34410802,-77.44069495,-94.79498191
2.10510807,3.99526107,34.52046941,-0.20579546,1.41635134,2.11196312

>  <Name>
1kod cryst

>  <RI>
0

>  <Rbt.Current_Directory>
/home/itssahil/PROJECTS/Mol_Feturizer/New_Systems/rnas/1kod

>  <Rbt.Executable>
rbdock ($Id: //depot/dev/client3/rdock/2013.1/src/exe/rbdock.cxx#4 $)

>  <Rbt.Library>
libRbt.so (2013.1, Build901 2013/11/27)

>  <Rbt.Parameter_File>
/export/apps/rDock/src/rDock_2013.1_src/data/scripts/dock_solv.prm

>  <Rbt.Receptor>
prm/pocket_docking_8.prm

>  <SCORE>
-21.9252

>  <SCORE.INTER>
-16.741

>  <SCORE.INTER.CONST>
1

>  <SCORE.INTER.POLAR>
-3.80926

>  <SCORE.INTER.ROT>
5

>  <SCORE.INTER.SOLV>
17.5145

>  <SCORE.INTER.VDW>
-11.2347

>  <SCORE.INTER.norm>
-1.39509

>  <SCORE.INTRA>
-5.21829

>  <SCORE.INTRA.DIHEDRAL>
-3.47146

>  <SCORE.INTRA.DIHEDRAL.0>
7.7847

>  <SCORE.INTRA.POLAR>
0

>  <SCORE.INTRA.POLAR.0>
0

>  <SCORE.INTRA.REPUL>
0

>  <SCORE.INTRA.REPUL.0>
0

>  <SCORE.INTRA.SOLV>
-1.74376

>  <SCORE.INTRA.SOLV.lig_0>
-57.5465

>  <SCORE.INTRA.VDW>
-2.61068

>  <SCORE.INTRA.VDW.0>
1.39369

>  <SCORE.INTRA.norm>
-0.434857

>  <SCORE.RESTR>
0.0341243

>  <SCORE.RESTR.CAVITY>
0.0341243

>  <SCORE.RESTR.norm>
0.00284369

>  <SCORE.SYSTEM>
0

>  <SCORE.SYSTEM.CONST>
0

>  <SCORE.SYSTEM.DIHEDRAL>
0

>  <SCORE.SYSTEM.SOLV>
0

>  <SCORE.SYSTEM.norm>
0

>  <SCORE.heavy>
12

>  <SCORE.norm>
-1.8271

>  <SYMMETRIC_BONDS>
4 1 2

>  <RMSD>
2.516

$$$$
1kod cryst
 OpenBabel11021811393D
libRbt.so/2013.1/901 2013/11/27
 12 11  0  0  0  0  0  0  0  0999 V2000
    3.5152    5.9924   35.1866 C   0  0  0  0  0  0  0  0  0  0  0  0
    4.5566    5.9733   34.5475 O   0  5  0  0  0  0  0  0  0  0  0  0
    3.4489    5.7641   36.3879 O   0  0  0  0  0  0  0  0  0  0  0  0
    2.2124    6.3264   34.4333 C   0  0  1  0  0  0  0  0  0  0  0  0
    2.5073    7.3093   33.3463 N   0  3  0  0  0  0  0  0  0  0  0  0
    1.5919    5.0495   33.8195 C   0  0  0  0  0  0  0  0  0  0  0  0
    2.5035    3.8498   34.0424 C   0  0  0  0  0  0  0  0  0  0  0  0
    1.6998    2.5576   33.9152 C   0  0  0  0  0  0  0  0  0  0  0  0
    2.6131    1.3929   34.1341 N   0  0  0  0  0  0  0  0  0  0  0  0
    2.5753    0.7194   35.2526 C   0  0  0  0  0  0  0  0  0  0  0  0
    3.5975    0.5361   35.9099 O   0  0  0  0  0  0  0  0  0  0  0  0
    1.4480    0.2223   35.6713 N   0  0  0  0  0  0  0  0  0  0  0  0
  1  2  1  0  0  0  0
  1  3  2  0  0  0  0
  4  1  1  6  0  0  0
  4  6  1  0  0  0  0
  4  5  1  0  0  0  0
  6  7  1  0  0  0  0
  7  8  1  0  0  0  0
  8  9  1  0  0  0  0
  9 10  1  0  0  0  0
 10 12  1  0  0  0  0
 10 11  2  0  0  0  0
M  CHG  2   2  -1   5   1
M  END
>  <CHROM.1>
-33.78724922,-4.47699903,-176.69066947,159.24954171,179.86579173,-74.72326535
2.70568745,3.81884843,34.71840241,-1.42408599,0.76593870,2.89169835

>  <Name>
1kod cryst

>  <RI>
0

>  <Rbt.Current_Directory>
/home/itssahil/PROJECTS/Mol_Feturizer/New_Systems/rnas/1kod

>  <Rbt.Executable>
rbdock ($Id: //depot/dev/client3/rdock/2013.1/src/exe/rbdock.cxx#4 $)

>  <Rbt.Library>
libRbt.so (2013.1, Build901 2013/11/27)

>  <Rbt.Parameter_File>
/export/apps/rDock/src/rDock_2013.1_src/data/scripts/dock_solv.prm

>  <Rbt.Receptor>
prm/pocket_docking_7.prm

>  <SCORE>
-23.3196

>  <SCORE.INTER>
-23.675

>  <SCORE.INTER.CONST>
1

>  <SCORE.INTER.POLAR>
-4.26602

>  <SCORE.INTER.ROT>
5

>  <SCORE.INTER.SOLV>
16.1143

>  <SCORE.INTER.VDW>
-13.8681

>  <SCORE.INTER.norm>
-1.97292

>  <SCORE.INTRA>
0.35538

>  <SCORE.INTRA.DIHEDRAL>
1.18271

>  <SCORE.INTRA.DIHEDRAL.0>
7.7847

>  <SCORE.INTRA.POLAR>
0

>  <SCORE.INTRA.POLAR.0>
0

>  <SCORE.INTRA.REPUL>
0

>  <SCORE.INTRA.REPUL.0>
0

>  <SCORE.INTRA.SOLV>
-1.56536

>  <SCORE.INTRA.SOLV.lig_0>
-57.5465

>  <SCORE.INTRA.VDW>
0.546704

>  <SCORE.INTRA.VDW.0>
1.39369

>  <SCORE.INTRA.norm>
0.029615

>  <SCORE.RESTR>
0

>  <SCORE.RESTR.CAVITY>
0

>  <SCORE.RESTR.norm>
0

>  <SCORE.SYSTEM>
0

>  <SCORE.SYSTEM.CONST>
0

>  <SCORE.SYSTEM.DIHEDRAL>
0

>  <SCORE.SYSTEM.SOLV>
0

>  <SCORE.SYSTEM.norm>
0

>  <SCORE.heavy>
12

>  <SCORE.norm>
-1.9433

>  <SYMMETRIC_BONDS>
4 1 2

>  <RMSD>
2.534

$$$$
1kod cryst
 OpenBabel11021811393D
libRbt.so/2013.1/901 2013/11/27
 12 11  0  0  0  0  0  0  0  0999 V2000
    4.2183    5.4369   34.7228 C   0  0  0  0  0  0  0  0  0  0  0  0
    4.7388    5.0996   35.7757 O   0  5  0  0  0  0  0  0  0  0  0  0
    4.7764    6.1237   33.8763 O   0  0  0  0  0  0  0  0  0  0  0  0
    2.7764    4.9663   34.4474 C   0  0  1  0  0  0  0  0  0  0  0  0
    2.0824    5.9740   33.5887 N   0  3  0  0  0  0  0  0  0  0  0  0
    2.7750    3.5934   33.7352 C   0  0  0  0  0  0  0  0  0  0  0  0
    1.3607    3.0342   33.6513 C   0  0  0  0  0  0  0  0  0  0  0  0
    1.4053    1.5790   33.1907 C   0  0  0  0  0  0  0  0  0  0  0  0
    2.1535    0.7707   34.2034 N   0  0  0  0  0  0  0  0  0  0  0  0
    1.5537    0.3286   35.2761 C   0  0  0  0  0  0  0  0  0  0  0  0
    2.0148    0.5567   36.3923 O   0  0  0  0  0  0  0  0  0  0  0  0
    0.4642   -0.3742   35.1656 N   0  0  0  0  0  0  0  0  0  0  0  0
  1  2  1  0  0  0  0
  1  3  2  0  0  0  0
  4  1  1  6  0  0  0
  4  6  1  0  0  0  0
  4  5  1  0  0  0  0
  6  7  1  0  0  0  0
  7  8  1  0  0  0  0
  8  9  1  0  0  0  0
  9 10  1  0  0  0  0
 10 12  1  0  0  0  0
 10 11  2  0  0  0  0
M  CHG  2   2  -1   5   1
M  END
>  <CHROM.1>
150.23583777,171.51993989,59.83757289,-169.36867411,62.28977028,-97.37317431
2.52625227,3.10944020,34.50512900,-0.95459014,0.73185101,2.57702235

>  <Name>
1kod cryst

>  <RI>
0

>  <Rbt.Current_Directory>
/home/itssahil/PROJECTS/Mol_Feturizer/New_Systems/rnas/1kod

>  <Rbt.Executable>
rbdock ($Id: //depot/dev/client3/rdock/2013.1/src/exe/rbdock.cxx#4 $)

>  <Rbt.Library>
libRbt.so (2013.1, Build901 2013/11/27)

>  <Rbt.Parameter_File>
/export/apps/rDock/src/rDock_2013.1_src/data/scripts/dock_solv.prm

>  <Rbt.Receptor>
prm/pocket_docking_5.prm

>  <SCORE>
-25.9352

>  <SCORE.INTER>
-20.2524

>  <SCORE.INTER.CONST>
1

>  <SCORE.INTER.POLAR>
-3.16984

>  <SCORE.INTER.ROT>
5

>  <SCORE.INTER.SOLV>
17.5042

>  <SCORE.INTER.VDW>
-15.7036

>  <SCORE.INTER.norm>
-1.6877

>  <SCORE.INTRA>
-5.68277

>  <SCORE.INTRA.DIHEDRAL>
-4.80914

>  <SCORE.INTRA.DIHEDRAL.0>
7.7847

>  <SCORE.INTRA.POLAR>
0

>  <SCORE.INTRA.POLAR.0>
0

>  <SCORE.INTRA.REPUL>
0

>  <SCORE.INTRA.REPUL.0>
0

>  <SCORE.INTRA.SOLV>
-1.80475

>  <SCORE.INTRA.SOLV.lig_0>
-57.5465

>  <SCORE.INTRA.VDW>
-2.37582

>  <SCORE.INTRA.VDW.0>
1.39369

>  <SCORE.INTRA.norm>
-0.473564

>  <SCORE.RESTR>
0

>  <SCORE.RESTR.CAVITY>
0

>  <SCORE.RESTR.norm>
0

>  <SCORE.SYSTEM>
0

>  <SCORE.SYSTEM.CONST>
0

>  <SCORE.SYSTEM.DIHEDRAL>
0

>  <SCORE.SYSTEM.SOLV>
0

>  <SCORE.SYSTEM.norm>
0

>  <SCORE.heavy>
12

>  <SCORE.norm>
-2.16127

>  <SYMMETRIC_BONDS>
4 1 2

>  <RMSD>
2.542

$$$$
1kod cryst
 OpenBabel11021811393D
libRbt.so/2013.1/901 2013/11/27
 12 11  0  0  0  0  0  0  0  0999 V2000
    2.5429    6.2677   35.6798 C   0  0  0  0  0  0  0  0  0  0  0  0
    3.7592    6.3397   35.7737 O   0  5  0  0  0  0  0  0  0  0  0  0
    1.7865    6.2296   36.6421 O   0  0  0  0  0  0  0  0  0  0  0  0
    1.9296    6.2254   34.2662 C   0  0  1  0  0  0  0  0  0  0  0  0
    2.5689    7.2771   33.4177 N   0  3  0  0  0  0  0  0  0  0  0  0
    2.1447    4.8381   33.6171 C   0  0  0  0  0  0  0  0  0  0  0  0
    1.2582    3.7924   34.2808 C   0  0  0  0  0  0  0  0  0  0  0  0
    1.5105    2.4243   33.6512 C   0  0  0  0  0  0  0  0  0  0  0  0
    2.7352    1.8238   34.2661 N   0  0  0  0  0  0  0  0  0  0  0  0
    2.6597    1.1659   35.3920 C   0  0  0  0  0  0  0  0  0  0  0  0
    3.3818    1.4615   36.3415 O   0  0  0  0  0  0  0  0  0  0  0  0
    1.8228    0.1763   35.5086 N   0  0  0  0  0  0  0  0  0  0  0  0
  1  2  1  0  0  0  0
  1  3  2  0  0  0  0
  4  1  1  1  0  0  0
  4  6  1  0  0  0  0
  4  5  1  0  0  0  0
  6  7  1  0  0  0  0
  7  8  1  0  0  0  0
  8  9  1  0  0  0  0
  9 10  1  0  0  0  0
 10 12  1  0  0  0  0
 10 11  2  0  0  0  0
M  CHG  2   2  -1   5   1
M  END
>  <CHROM.1>
-46.08202207,71.76564730,-59.04729877,-178.56007805,81.45480136,-95.60330438
2.36359181,4.01894278,34.91020871,-1.50007425,1.21492501,2.99808121

>  <Name>
1kod cryst

>  <RI>
0

>  <Rbt.Current_Directory>
/home/itssahil/PROJECTS/Mol_Feturizer/New_Systems/rnas/1kod

>  <Rbt.Executable>
rbdock ($Id: //depot/dev/client3/rdock/2013.1/src/exe/rbdock.cxx#4 $)

>  <Rbt.Library>
libRbt.so (2013.1, Build901 2013/11/27)

>  <Rbt.Parameter_File>
/export/apps/rDock/src/rDock_2013.1_src/data/scripts/dock_solv.prm

>  <Rbt.Receptor>
prm/pocket_docking_5.prm

>  <SCORE>
-22.4278

>  <SCORE.INTER>
-16.7929

>  <SCORE.INTER.CONST>
1

>  <SCORE.INTER.POLAR>
-2.62113

>  <SCORE.INTER.ROT>
5

>  <SCORE.INTER.SOLV>
13.5381

>  <SCORE.INTER.VDW>
-13.9042

>  <SCORE.INTER.norm>
-1.39941

>  <SCORE.INTRA>
-5.6349

>  <SCORE.INTRA.DIHEDRAL>
-3.49272

>  <SCORE.INTRA.DIHEDRAL.0>
7.7847

>  <SCORE.INTRA.POLAR>
0

>  <SCORE.INTRA.POLAR.0>
0

>  <SCORE.INTRA.REPUL>
0

>  <SCORE.INTRA.REPUL.0>
0

>  <SCORE.INTRA.SOLV>
-2.36822

>  <SCORE.INTRA.SOLV.lig_0>
-57.5465

>  <SCORE.INTRA.VDW>
-2.70442

>  <SCORE.INTRA.VDW.0>
1.39369

>  <SCORE.INTRA.norm>
-0.469575

>  <SCORE.RESTR>
0

>  <SCORE.RESTR.CAVITY>
0

>  <SCORE.RESTR.norm>
0

>  <SCORE.SYSTEM>
0

>  <SCORE.SYSTEM.CONST>
0

>  <SCORE.SYSTEM.DIHEDRAL>
0

>  <SCORE.SYSTEM.SOLV>
0

>  <SCORE.SYSTEM.norm>
0

>  <SCORE.heavy>
12

>  <SCORE.norm>
-1.86898

>  <SYMMETRIC_BONDS>
4 1 2

>  <RMSD>
2.543

$$$$
1kod cryst
 OpenBabel11021811393D
libRbt.so/2013.1/901 2013/11/27
 12 11  0  0  0  0  0  0  0  0999 V2000
    3.1415    6.3955   35.3442 C   0  0  0  0  0  0  0  0  0  0  0  0
    2.7334    6.0570   36.4452 O   0  5  0  0  0  0  0  0  0  0  0  0
    4.3188    6.6215   35.0940 O   0  0  0  0  0  0  0  0  0  0  0  0
    2.1115    6.5430   34.2069 C   0  0  1  0  0  0  0  0  0  0  0  0
    2.5338    7.6515   33.2973 N   0  3  0  0  0  0  0  0  0  0  0  0
    1.9955    5.2290   33.3992 C   0  0  0  0  0  0  0  0  0  0  0  0
    1.1453    4.2119   34.1491 C   0  0  0  0  0  0  0  0  0  0  0  0
    0.9141    2.9830   33.2726 C   0  0  0  0  0  0  0  0  0  0  0  0
    2.1242    2.1053   33.3360 N   0  0  0  0  0  0  0  0  0  0  0  0
    2.5840    1.6889   34.4854 C   0  0  0  0  0  0  0  0  0  0  0  0
    3.7616    1.8636   34.7911 O   0  0  0  0  0  0  0  0  0  0  0  0
    1.7939    1.0683   35.3124 N   0  0  0  0  0  0  0  0  0  0  0  0
  1  2  1  0  0  0  0
  1  3  2  0  0  0  0
  4  1  1  1  0  0  0
  4  6  1  0  0  0  0
  4  5  1  0  0  0  0
  6  7  1  0  0  0  0
  7  8  1  0  0  0  0
  8  9  1  0  0  0  0
  9 10  1  0  0  0  0
 10 12  1  0  0  0  0
 10 11  2  0  0  0  0
M  CHG  2   2  -1   5   1
M  END
>  <CHROM.1>
146.21473323,78.21297194,73.92070419,173.78664222,80.34514478,-125.06741751
2.45500473,4.38527300,34.43194957,-1.34989113,0.87647277,3.00266437

>  <Name>
1kod cryst

>  <RI>
0

>  <Rbt.Current_Directory>
/home/itssahil/PROJECTS/Mol_Feturizer/New_Systems/rnas/1kod

>  <Rbt.Executable>
rbdock ($Id: //depot/dev/client3/rdock/2013.1/src/exe/rbdock.cxx#4 $)

>  <Rbt.Library>
libRbt.so (2013.1, Build901 2013/11/27)

>  <Rbt.Parameter_File>
/export/apps/rDock/src/rDock_2013.1_src/data/scripts/dock_solv.prm

>  <Rbt.Receptor>
prm/pocket_docking_8.prm

>  <SCORE>
-23.5064

>  <SCORE.INTER>
-18.9034

>  <SCORE.INTER.CONST>
1

>  <SCORE.INTER.POLAR>
-3.12513

>  <SCORE.INTER.ROT>
5

>  <SCORE.INTER.SOLV>
13.52

>  <SCORE.INTER.VDW>
-13.6252

>  <SCORE.INTER.norm>
-1.57528

>  <SCORE.INTRA>
-4.60302

>  <SCORE.INTRA.DIHEDRAL>
-2.42498

>  <SCORE.INTRA.DIHEDRAL.0>
7.7847

>  <SCORE.INTRA.POLAR>
0

>  <SCORE.INTRA.POLAR.0>
0

>  <SCORE.INTRA.REPUL>
0

>  <SCORE.INTRA.REPUL.0>
0

>  <SCORE.INTRA.SOLV>
-2.15147

>  <SCORE.INTRA.SOLV.lig_0>
-57.5465

>  <SCORE.INTRA.VDW>
-2.3148

>  <SCORE.INTRA.VDW.0>
1.39369

>  <SCORE.INTRA.norm>
-0.383585

>  <SCORE.RESTR>
0

>  <SCORE.RESTR.CAVITY>
0

>  <SCORE.RESTR.norm>
0

>  <SCORE.SYSTEM>
0

>  <SCORE.SYSTEM.CONST>
0

>  <SCORE.SYSTEM.DIHEDRAL>
0

>  <SCORE.SYSTEM.SOLV>
0

>  <SCORE.SYSTEM.norm>
0

>  <SCORE.heavy>
12

>  <SCORE.norm>
-1.95887

>  <SYMMETRIC_BONDS>
4 1 2

>  <RMSD>
2.543

$$$$
1kod cryst
 OpenBabel11021811393D
libRbt.so/2013.1/901 2013/11/27
 12 11  0  0  0  0  0  0  0  0999 V2000
    2.1638    6.1684   35.6782 C   0  0  0  0  0  0  0  0  0  0  0  0
    1.2648    6.1046   36.5034 O   0  5  0  0  0  0  0  0  0  0  0  0
    3.3481    6.2820   35.9684 O   0  0  0  0  0  0  0  0  0  0  0  0
    1.7804    6.0987   34.1867 C   0  0  1  0  0  0  0  0  0  0  0  0
    2.4978    7.1771   33.4404 N   0  3  0  0  0  0  0  0  0  0  0  0
    2.1536    4.7219   33.5889 C   0  0  0  0  0  0  0  0  0  0  0  0
    1.1411    3.6636   34.0070 C   0  0  0  0  0  0  0  0  0  0  0  0
    1.5134    2.3177   33.3891 C   0  0  0  0  0  0  0  0  0  0  0  0
    2.5696    1.6718   34.2294 N   0  0  0  0  0  0  0  0  0  0  0  0
    2.5672    1.8165   35.5275 C   0  0  0  0  0  0  0  0  0  0  0  0
    3.5678    2.2199   36.1161 O   0  0  0  0  0  0  0  0  0  0  0  0
    1.5008    1.5169   36.2104 N   0  0  0  0  0  0  0  0  0  0  0  0
  1  2  1  0  0  0  0
  1  3  2  0  0  0  0
  4  1  1  1  0  0  0
  4  6  1  0  0  0  0
  4  5  1  0  0  0  0
  6  7  1  0  0  0  0
  7  8  1  0  0  0  0
  8  9  1  0  0  0  0
  9 10  1  0  0  0  0
 10 12  1  0  0  0  0
 10 11  2  0  0  0  0
M  CHG  2   2  -1   5   1
M  END
>  <CHROM.1>
133.39578298,77.23062718,67.40229094,179.08004068,81.88741919,-144.90103196
2.19128871,4.17103611,34.91912686,-1.56444392,1.36860782,3.05946290

>  <Name>
1kod cryst

>  <RI>
0

>  <Rbt.Current_Directory>
/home/itssahil/PROJECTS/Mol_Feturizer/New_Systems/rnas/1kod

>  <Rbt.Executable>
rbdock ($Id: //depot/dev/client3/rdock/2013.1/src/exe/rbdock.cxx#4 $)

>  <Rbt.Library>
libRbt.so (2013.1, Build901 2013/11/27)

>  <Rbt.Parameter_File>
/export/apps/rDock/src/rDock_2013.1_src/data/scripts/dock_solv.prm

>  <Rbt.Receptor>
prm/pocket_docking_5.prm

>  <SCORE>
-23.4265

>  <SCORE.INTER>
-19.2865

>  <SCORE.INTER.CONST>
1

>  <SCORE.INTER.POLAR>
-3.35538

>  <SCORE.INTER.ROT>
5

>  <SCORE.INTER.SOLV>
12.3341

>  <SCORE.INTER.VDW>
-12.7177

>  <SCORE.INTER.norm>
-1.6072

>  <SCORE.INTRA>
-4.14004

>  <SCORE.INTRA.DIHEDRAL>
-2.81076

>  <SCORE.INTRA.DIHEDRAL.0>
7.7847

>  <SCORE.INTRA.POLAR>
0

>  <SCORE.INTRA.POLAR.0>
0

>  <SCORE.INTRA.REPUL>
0

>  <SCORE.INTRA.REPUL.0>
0

>  <SCORE.INTRA.SOLV>
-1.75923

>  <SCORE.INTRA.SOLV.lig_0>
-57.5465

>  <SCORE.INTRA.VDW>
-1.85505

>  <SCORE.INTRA.VDW.0>
1.39369

>  <SCORE.INTRA.norm>
-0.345004

>  <SCORE.RESTR>
0

>  <SCORE.RESTR.CAVITY>
0

>  <SCORE.RESTR.norm>
0

>  <SCORE.SYSTEM>
0

>  <SCORE.SYSTEM.CONST>
0

>  <SCORE.SYSTEM.DIHEDRAL>
0

>  <SCORE.SYSTEM.SOLV>
0

>  <SCORE.SYSTEM.norm>
0

>  <SCORE.heavy>
12

>  <SCORE.norm>
-1.95221

>  <SYMMETRIC_BONDS>
4 1 2

>  <RMSD>
2.546

$$$$
1kod cryst
 OpenBabel11021811393D
libRbt.so/2013.1/901 2013/11/27
 12 11  0  0  0  0  0  0  0  0999 V2000
    4.7203    5.7301   34.4057 C   0  0  0  0  0  0  0  0  0  0  0  0
    5.5349    4.8448   34.1916 O   0  5  0  0  0  0  0  0  0  0  0  0
    4.7044    6.7999   33.8099 O   0  0  0  0  0  0  0  0  0  0  0  0
    3.6510    5.4804   35.4877 C   0  0  1  0  0  0  0  0  0  0  0  0
    2.8686    6.7347   35.7090 N   0  3  0  0  0  0  0  0  0  0  0  0
    2.6933    4.3440   35.0593 C   0  0  0  0  0  0  0  0  0  0  0  0
    1.9539    4.7190   33.7815 C   0  0  0  0  0  0  0  0  0  0  0  0
    0.9133    3.6509   33.4526 C   0  0  0  0  0  0  0  0  0  0  0  0
    1.6169    2.3961   33.0416 N   0  0  0  0  0  0  0  0  0  0  0  0
    1.0035    1.2439   33.0888 C   0  0  0  0  0  0  0  0  0  0  0  0
    1.4971    0.2941   33.6928 O   0  0  0  0  0  0  0  0  0  0  0  0
   -0.1354    1.0913   32.4782 N   0  0  0  0  0  0  0  0  0  0  0  0
  1  2  1  0  0  0  0
  1  3  2  0  0  0  0
  4  1  1  6  0  0  0
  4  6  1  0  0  0  0
  4  5  1  0  0  0  0
  6  7  1  0  0  0  0
  7  8  1  0  0  0  0
  8  9  1  0  0  0  0
  9 10  1  0  0  0  0
 10 12  1  0  0  0  0
 10 11  2  0  0  0  0
M  CHG  2   2  -1   5   1
M  END
>  <CHROM.1>
173.11378927,-61.57686472,-62.62981748,-174.29366122,-69.28017184,-20.25732564
2.58328737,3.95802541,34.01258496,-0.97566702,-0.04134113,-2.78187746

>  <Name>
1kod cryst

>  <RI>
0

>  <Rbt.Current_Directory>
/home/itssahil/PROJECTS/Mol_Feturizer/New_Systems/rnas/1kod

>  <Rbt.Executable>
rbdock ($Id: //depot/dev/client3/rdock/2013.1/src/exe/rbdock.cxx#4 $)

>  <Rbt.Library>
libRbt.so (2013.1, Build901 2013/11/27)

>  <Rbt.Parameter_File>
/export/apps/rDock/src/rDock_2013.1_src/data/scripts/dock_solv.prm

>  <Rbt.Receptor>
prm/pocket_docking_5.prm

>  <SCORE>
-17.4086

>  <SCORE.INTER>
-12.7094

>  <SCORE.INTER.CONST>
1

>  <SCORE.INTER.POLAR>
-2.18212

>  <SCORE.INTER.ROT>
5

>  <SCORE.INTER.SOLV>
11.5133

>  <SCORE.INTER.VDW>
-11.9703

>  <SCORE.INTER.norm>
-1.05912

>  <SCORE.INTRA>
-4.69915

>  <SCORE.INTRA.DIHEDRAL>
-5.05979

>  <SCORE.INTRA.DIHEDRAL.0>
7.7847

>  <SCORE.INTRA.POLAR>
0

>  <SCORE.INTRA.POLAR.0>
0

>  <SCORE.INTRA.REPUL>
0

>  <SCORE.INTRA.REPUL.0>
0

>  <SCORE.INTRA.SOLV>
-1.01101

>  <SCORE.INTRA.SOLV.lig_0>
-57.5465

>  <SCORE.INTRA.VDW>
-1.66375

>  <SCORE.INTRA.VDW.0>
1.39369

>  <SCORE.INTRA.norm>
-0.391595

>  <SCORE.RESTR>
0

>  <SCORE.RESTR.CAVITY>
0

>  <SCORE.RESTR.norm>
0

>  <SCORE.SYSTEM>
0

>  <SCORE.SYSTEM.CONST>
0

>  <SCORE.SYSTEM.DIHEDRAL>
0

>  <SCORE.SYSTEM.SOLV>
0

>  <SCORE.SYSTEM.norm>
0

>  <SCORE.heavy>
12

>  <SCORE.norm>
-1.45072

>  <SYMMETRIC_BONDS>
4 1 2

>  <RMSD>
2.550

$$$$
1kod cryst
 OpenBabel11021811393D
libRbt.so/2013.1/901 2013/11/27
 12 11  0  0  0  0  0  0  0  0999 V2000
    3.9217    6.7028   35.3573 C   0  0  0  0  0  0  0  0  0  0  0  0
    4.7966    7.4229   34.8996 O   0  5  0  0  0  0  0  0  0  0  0  0
    3.9804    6.1777   36.4621 O   0  0  0  0  0  0  0  0  0  0  0  0
    2.6727    6.4455   34.4913 C   0  0  1  0  0  0  0  0  0  0  0  0
    2.5503    7.5262   33.4658 N   0  3  0  0  0  0  0  0  0  0  0  0
    2.7692    5.0729   33.7850 C   0  0  0  0  0  0  0  0  0  0  0  0
    1.3825    4.4780   33.5775 C   0  0  0  0  0  0  0  0  0  0  0  0
    1.0536    3.5194   34.7198 C   0  0  0  0  0  0  0  0  0  0  0  0
    2.0649    2.4169   34.7364 N   0  0  0  0  0  0  0  0  0  0  0  0
    1.7741    1.2405   34.2488 C   0  0  0  0  0  0  0  0  0  0  0  0
    1.9323    0.2250   34.9228 O   0  0  0  0  0  0  0  0  0  0  0  0
    1.3262    1.1369   33.0315 N   0  0  0  0  0  0  0  0  0  0  0  0
  1  2  1  0  0  0  0
  1  3  2  0  0  0  0
  4  1  1  6  0  0  0
  4  6  1  0  0  0  0
  4  5  1  0  0  0  0
  6  7  1  0  0  0  0
  7  8  1  0  0  0  0
  8  9  1  0  0  0  0
  9 10  1  0  0  0  0
 10 12  1  0  0  0  0
 10 11  2  0  0  0  0
M  CHG  2   2  -1   5   1
M  END
>  <CHROM.1>
-20.85025584,149.57390642,-164.53714168,-95.38283887,-60.39610012,78.04419457
2.53294260,4.38020504,34.45995338,-1.02684538,0.87034771,2.81813246

>  <Name>
1kod cryst

>  <RI>
0

>  <Rbt.Current_Directory>
/home/itssahil/PROJECTS/Mol_Feturizer/New_Systems/rnas/1kod

>  <Rbt.Executable>
rbdock ($Id: //depot/dev/client3/rdock/2013.1/src/exe/rbdock.cxx#4 $)

>  <Rbt.Library>
libRbt.so (2013.1, Build901 2013/11/27)

>  <Rbt.Parameter_File>
/export/apps/rDock/src/rDock_2013.1_src/data/scripts/dock_solv.prm

>  <Rbt.Receptor>
prm/pocket_docking_4.prm

>  <SCORE>
-19.0052

>  <SCORE.INTER>
-16.375

>  <SCORE.INTER.CONST>
1

>  <SCORE.INTER.POLAR>
-2.78163

>  <SCORE.INTER.ROT>
5

>  <SCORE.INTER.SOLV>
13.292

>  <SCORE.INTER.VDW>
-13.0086

>  <SCORE.INTER.norm>
-1.36458

>  <SCORE.INTRA>
-2.63394

>  <SCORE.INTRA.DIHEDRAL>
1.55517

>  <SCORE.INTRA.DIHEDRAL.0>
7.7847

>  <SCORE.INTRA.POLAR>
0

>  <SCORE.INTRA.POLAR.0>
0

>  <SCORE.INTRA.REPUL>
0

>  <SCORE.INTRA.REPUL.0>
0

>  <SCORE.INTRA.SOLV>
-1.83631

>  <SCORE.INTRA.SOLV.lig_0>
-57.5465

>  <SCORE.INTRA.VDW>
-2.49338

>  <SCORE.INTRA.VDW.0>
1.39369

>  <SCORE.INTRA.norm>
-0.219495

>  <SCORE.RESTR>
0.00377563

>  <SCORE.RESTR.CAVITY>
0.00377563

>  <SCORE.RESTR.norm>
0.000314635

>  <SCORE.SYSTEM>
0

>  <SCORE.SYSTEM.CONST>
0

>  <SCORE.SYSTEM.DIHEDRAL>
0

>  <SCORE.SYSTEM.SOLV>
0

>  <SCORE.SYSTEM.norm>
0

>  <SCORE.heavy>
12

>  <SCORE.norm>
-1.58376

>  <SYMMETRIC_BONDS>
4 1 2

>  <RMSD>
2.553

$$$$
1kod cryst
 OpenBabel11021811393D
libRbt.so/2013.1/901 2013/11/27
 12 11  0  0  0  0  0  0  0  0999 V2000
    3.0624    6.3714   35.4076 C   0  0  0  0  0  0  0  0  0  0  0  0
    2.6019    6.2540   36.5335 O   0  5  0  0  0  0  0  0  0  0  0  0
    4.2614    6.3681   35.1583 O   0  0  0  0  0  0  0  0  0  0  0  0
    2.0729    6.5299   34.2363 C   0  0  1  0  0  0  0  0  0  0  0  0
    2.5328    7.6396   33.3466 N   0  3  0  0  0  0  0  0  0  0  0  0
    1.9769    5.2200   33.4194 C   0  0  0  0  0  0  0  0  0  0  0  0
    1.1045    4.2009   34.1406 C   0  0  0  0  0  0  0  0  0  0  0  0
    0.9257    2.9613   33.2671 C   0  0  0  0  0  0  0  0  0  0  0  0
    2.1730    2.1373   33.3303 N   0  0  0  0  0  0  0  0  0  0  0  0
    2.6746    1.7774   34.4814 C   0  0  0  0  0  0  0  0  0  0  0  0
    3.8499    2.0109   34.7547 O   0  0  0  0  0  0  0  0  0  0  0  0
    1.9293    1.1512   35.3449 N   0  0  0  0  0  0  0  0  0  0  0  0
  1  2  1  0  0  0  0
  1  3  2  0  0  0  0
  4  1  1  1  0  0  0
  4  6  1  0  0  0  0
  4  5  1  0  0  0  0
  6  7  1  0  0  0  0
  7  8  1  0  0  0  0
  8  9  1  0  0  0  0
  9 10  1  0  0  0  0
 10 12  1  0  0  0  0
 10 11  2  0  0  0  0
M  CHG  2   2  -1   5   1
M  END
>  <CHROM.1>
134.13141045,77.75582271,-165.85022088,175.27369986,77.04615977,-127.11787976
2.45665529,4.40279060,34.45683292,-1.39147680,0.89436545,3.05464634

>  <Name>
1kod cryst

>  <RI>
0

>  <Rbt.Current_Directory>
/home/itssahil/PROJECTS/Mol_Feturizer/New_Systems/rnas/1kod

>  <Rbt.Executable>
rbdock ($Id: //depot/dev/client3/rdock/2013.1/src/exe/rbdock.cxx#4 $)

>  <Rbt.Library>
libRbt.so (2013.1, Build901 2013/11/27)

>  <Rbt.Parameter_File>
/export/apps/rDock/src/rDock_2013.1_src/data/scripts/dock_solv.prm

>  <Rbt.Receptor>
prm/pocket_docking_8.prm

>  <SCORE>
-23.6576

>  <SCORE.INTER>
-18.7733

>  <SCORE.INTER.CONST>
1

>  <SCORE.INTER.POLAR>
-3.0613

>  <SCORE.INTER.ROT>
5

>  <SCORE.INTER.SOLV>
13.0732

>  <SCORE.INTER.VDW>
-13.6023

>  <SCORE.INTER.norm>
-1.56445

>  <SCORE.INTRA>
-4.88429

>  <SCORE.INTRA.DIHEDRAL>
-2.9221

>  <SCORE.INTRA.DIHEDRAL.0>
7.7847

>  <SCORE.INTRA.POLAR>
0

>  <SCORE.INTRA.POLAR.0>
0

>  <SCORE.INTRA.REPUL>
0

>  <SCORE.INTRA.REPUL.0>
0

>  <SCORE.INTRA.SOLV>
-2.19478

>  <SCORE.INTRA.SOLV.lig_0>
-57.5465

>  <SCORE.INTRA.VDW>
-2.32585

>  <SCORE.INTRA.VDW.0>
1.39369

>  <SCORE.INTRA.norm>
-0.407025

>  <SCORE.RESTR>
0

>  <SCORE.RESTR.CAVITY>
0

>  <SCORE.RESTR.norm>
0

>  <SCORE.SYSTEM>
0

>  <SCORE.SYSTEM.CONST>
0

>  <SCORE.SYSTEM.DIHEDRAL>
0

>  <SCORE.SYSTEM.SOLV>
0

>  <SCORE.SYSTEM.norm>
0

>  <SCORE.heavy>
12

>  <SCORE.norm>
-1.97147

>  <SYMMETRIC_BONDS>
4 1 2

>  <RMSD>
2.561

$$$$
1kod cryst
 OpenBabel11021811393D
libRbt.so/2013.1/901 2013/11/27
 12 11  0  0  0  0  0  0  0  0999 V2000
    3.7428    6.0423   35.1598 C   0  0  0  0  0  0  0  0  0  0  0  0
    4.7519    5.8622   34.4945 O   0  5  0  0  0  0  0  0  0  0  0  0
    3.7327    6.0869   36.3836 O   0  0  0  0  0  0  0  0  0  0  0  0
    2.4081    6.2260   34.4108 C   0  0  1  0  0  0  0  0  0  0  0  0
    2.5393    7.3500   33.4341 N   0  3  0  0  0  0  0  0  0  0  0  0
    2.0196    4.9317   33.6584 C   0  0  0  0  0  0  0  0  0  0  0  0
    2.1061    3.7261   34.5853 C   0  0  0  0  0  0  0  0  0  0  0  0
    1.5888    2.4820   33.8667 C   0  0  0  0  0  0  0  0  0  0  0  0
    2.5252    1.3445   34.1276 N   0  0  0  0  0  0  0  0  0  0  0  0
    2.4494    0.6625   35.2390 C   0  0  0  0  0  0  0  0  0  0  0  0
    3.4407    0.5064   35.9486 O   0  0  0  0  0  0  0  0  0  0  0  0
    1.3177    0.1279   35.5946 N   0  0  0  0  0  0  0  0  0  0  0  0
  1  2  1  0  0  0  0
  1  3  2  0  0  0  0
  4  1  1  6  0  0  0
  4  6  1  0  0  0  0
  4  5  1  0  0  0  0
  6  7  1  0  0  0  0
  7  8  1  0  0  0  0
  8  9  1  0  0  0  0
  9 10  1  0  0  0  0
 10 12  1  0  0  0  0
 10 11  2  0  0  0  0
M  CHG  2   2  -1   5   1
M  END
>  <CHROM.1>
-55.49607325,49.89808579,-174.90807244,174.46283655,135.36533470,-98.55319744
2.73342469,3.79382698,34.74026145,-1.33776787,0.74450346,2.85778732

>  <Name>
1kod cryst

>  <RI>
0

>  <Rbt.Current_Directory>
/home/itssahil/PROJECTS/Mol_Feturizer/New_Systems/rnas/1kod

>  <Rbt.Executable>
rbdock ($Id: //depot/dev/client3/rdock/2013.1/src/exe/rbdock.cxx#4 $)

>  <Rbt.Library>
libRbt.so (2013.1, Build901 2013/11/27)

>  <Rbt.Parameter_File>
/export/apps/rDock/src/rDock_2013.1_src/data/scripts/dock_solv.prm

>  <Rbt.Receptor>
prm/pocket_docking_6.prm

>  <SCORE>
-26.2366

>  <SCORE.INTER>
-22.9079

>  <SCORE.INTER.CONST>
1

>  <SCORE.INTER.POLAR>
-4.14229

>  <SCORE.INTER.ROT>
5

>  <SCORE.INTER.SOLV>
15.7997

>  <SCORE.INTER.VDW>
-13.6642

>  <SCORE.INTER.norm>
-1.90899

>  <SCORE.INTRA>
-3.3287

>  <SCORE.INTRA.DIHEDRAL>
-0.322218

>  <SCORE.INTRA.DIHEDRAL.0>
7.7847

>  <SCORE.INTRA.POLAR>
0

>  <SCORE.INTRA.POLAR.0>
0

>  <SCORE.INTRA.REPUL>
0

>  <SCORE.INTRA.REPUL.0>
0

>  <SCORE.INTRA.SOLV>
-2.36452

>  <SCORE.INTRA.SOLV.lig_0>
-57.5465

>  <SCORE.INTRA.VDW>
-1.98533

>  <SCORE.INTRA.VDW.0>
1.39369

>  <SCORE.INTRA.norm>
-0.277392

>  <SCORE.RESTR>
0

>  <SCORE.RESTR.CAVITY>
0

>  <SCORE.RESTR.norm>
0

>  <SCORE.SYSTEM>
0

>  <SCORE.SYSTEM.CONST>
0

>  <SCORE.SYSTEM.DIHEDRAL>
0

>  <SCORE.SYSTEM.SOLV>
0

>  <SCORE.SYSTEM.norm>
0

>  <SCORE.heavy>
12

>  <SCORE.norm>
-2.18638

>  <SYMMETRIC_BONDS>
4 1 2

>  <RMSD>
2.567

$$$$
1kod cryst
 OpenBabel11021811393D
libRbt.so/2013.1/901 2013/11/27
 12 11  0  0  0  0  0  0  0  0999 V2000
    1.5649    6.5401   35.6329 C   0  0  0  0  0  0  0  0  0  0  0  0
    2.4106    7.2351   36.1760 O   0  5  0  0  0  0  0  0  0  0  0  0
    0.5129    6.2072   36.1642 O   0  0  0  0  0  0  0  0  0  0  0  0
    1.8413    6.0590   34.1947 C   0  0  1  0  0  0  0  0  0  0  0  0
    2.4483    7.1754   33.4074 N   0  3  0  0  0  0  0  0  0  0  0  0
    2.8031    4.8477   34.1977 C   0  0  0  0  0  0  0  0  0  0  0  0
    2.1948    3.6819   34.9663 C   0  0  0  0  0  0  0  0  0  0  0  0
    1.7516    2.5934   33.9913 C   0  0  0  0  0  0  0  0  0  0  0  0
    2.6286    1.3943   34.1688 N   0  0  0  0  0  0  0  0  0  0  0  0
    2.5662    0.6808   35.2611 C   0  0  0  0  0  0  0  0  0  0  0  0
    3.5798    0.4423   35.9140 O   0  0  0  0  0  0  0  0  0  0  0  0
    1.4229    0.2025   35.6575 N   0  0  0  0  0  0  0  0  0  0  0  0
  1  2  1  0  0  0  0
  1  3  2  0  0  0  0
  4  1  1  1  0  0  0
  4  6  1  0  0  0  0
  4  5  1  0  0  0  0
  6  7  1  0  0  0  0
  7  8  1  0  0  0  0
  8  9  1  0  0  0  0
  9 10  1  0  0  0  0
 10 12  1  0  0  0  0
 10 11  2  0  0  0  0
M  CHG  2   2  -1   5   1
M  END
>  <CHROM.1>
-41.27583043,60.71161948,-90.27755482,106.97359592,111.69360245,-111.35722284
2.14882643,3.94023271,34.97953549,1.78432528,1.12456707,-0.23378664

>  <Name>
1kod cryst

>  <RI>
0

>  <Rbt.Current_Directory>
/home/itssahil/PROJECTS/Mol_Feturizer/New_Systems/rnas/1kod

>  <Rbt.Executable>
rbdock ($Id: //depot/dev/client3/rdock/2013.1/src/exe/rbdock.cxx#4 $)

>  <Rbt.Library>
libRbt.so (2013.1, Build901 2013/11/27)

>  <Rbt.Parameter_File>
/export/apps/rDock/src/rDock_2013.1_src/data/scripts/dock_solv.prm

>  <Rbt.Receptor>
prm/pocket_docking_4.prm

>  <SCORE>
-20.9062

>  <SCORE.INTER>
-21.4856

>  <SCORE.INTER.CONST>
1

>  <SCORE.INTER.POLAR>
-4.16952

>  <SCORE.INTER.ROT>
5

>  <SCORE.INTER.SOLV>
17.213

>  <SCORE.INTER.VDW>
-13.0963

>  <SCORE.INTER.norm>
-1.79046

>  <SCORE.INTRA>
0.579316

>  <SCORE.INTRA.DIHEDRAL>
6.9853

>  <SCORE.INTRA.DIHEDRAL.0>
7.7847

>  <SCORE.INTRA.POLAR>
0

>  <SCORE.INTRA.POLAR.0>
0

>  <SCORE.INTRA.REPUL>
0

>  <SCORE.INTRA.REPUL.0>
0

>  <SCORE.INTRA.SOLV>
-2.07167

>  <SCORE.INTRA.SOLV.lig_0>
-57.5465

>  <SCORE.INTRA.VDW>
-1.87749

>  <SCORE.INTRA.VDW.0>
1.39369

>  <SCORE.INTRA.norm>
0.0482763

>  <SCORE.RESTR>
0

>  <SCORE.RESTR.CAVITY>
0

>  <SCORE.RESTR.norm>
0

>  <SCORE.SYSTEM>
0

>  <SCORE.SYSTEM.CONST>
0

>  <SCORE.SYSTEM.DIHEDRAL>
0

>  <SCORE.SYSTEM.SOLV>
0

>  <SCORE.SYSTEM.norm>
0

>  <SCORE.heavy>
12

>  <SCORE.norm>
-1.74219

>  <SYMMETRIC_BONDS>
4 1 2

>  <RMSD>
2.569

$$$$
1kod cryst
 OpenBabel11021811393D
libRbt.so/2013.1/901 2013/11/27
 12 11  0  0  0  0  0  0  0  0999 V2000
    3.3023    7.4488   35.5417 C   0  0  0  0  0  0  0  0  0  0  0  0
    2.9554    7.2609   36.6983 O   0  5  0  0  0  0  0  0  0  0  0  0
    4.3715    7.9550   35.2249 O   0  0  0  0  0  0  0  0  0  0  0  0
    2.3360    7.0199   34.4199 C   0  0  1  0  0  0  0  0  0  0  0  0
    2.5886    7.8521   33.2041 N   0  3  0  0  0  0  0  0  0  0  0  0
    2.5301    5.5256   34.0714 C   0  0  0  0  0  0  0  0  0  0  0  0
    1.2784    4.9620   33.4113 C   0  0  0  0  0  0  0  0  0  0  0  0
    0.9188    3.6195   34.0440 C   0  0  0  0  0  0  0  0  0  0  0  0
    1.6435    2.5298   33.3186 N   0  0  0  0  0  0  0  0  0  0  0  0
    1.0616    1.3835   33.0877 C   0  0  0  0  0  0  0  0  0  0  0  0
    1.5953    0.3292   33.4252 O   0  0  0  0  0  0  0  0  0  0  0  0
   -0.0887    1.3522   32.4802 N   0  0  0  0  0  0  0  0  0  0  0  0
  1  2  1  0  0  0  0
  1  3  2  0  0  0  0
  4  1  1  1  0  0  0
  4  6  1  0  0  0  0
  4  5  1  0  0  0  0
  6  7  1  0  0  0  0
  7  8  1  0  0  0  0
  8  9  1  0  0  0  0
  9 10  1  0  0  0  0
 10 12  1  0  0  0  0
 10 11  2  0  0  0  0
M  CHG  2   2  -1   5   1
M  END
>  <CHROM.1>
153.83100700,157.51697719,93.02779841,-133.58652680,-88.14336259,38.41482887
2.05182624,4.78420266,34.05824159,-0.85111751,1.03191150,2.80832143

>  <Name>
1kod cryst

>  <RI>
0

>  <Rbt.Current_Directory>
/home/itssahil/PROJECTS/Mol_Feturizer/New_Systems/rnas/1kod

>  <Rbt.Executable>
rbdock ($Id: //depot/dev/client3/rdock/2013.1/src/exe/rbdock.cxx#4 $)

>  <Rbt.Library>
libRbt.so (2013.1, Build901 2013/11/27)

>  <Rbt.Parameter_File>
/export/apps/rDock/src/rDock_2013.1_src/data/scripts/dock_solv.prm

>  <Rbt.Receptor>
prm/pocket_docking_5.prm

>  <SCORE>
-25.1939

>  <SCORE.INTER>
-24.7258

>  <SCORE.INTER.CONST>
1

>  <SCORE.INTER.POLAR>
-4.19997

>  <SCORE.INTER.ROT>
5

>  <SCORE.INTER.SOLV>
16.6036

>  <SCORE.INTER.VDW>
-14.9519

>  <SCORE.INTER.norm>
-2.06048

>  <SCORE.INTRA>
-0.468046

>  <SCORE.INTRA.DIHEDRAL>
5.99216

>  <SCORE.INTRA.DIHEDRAL.0>
7.7847

>  <SCORE.INTRA.POLAR>
0

>  <SCORE.INTRA.POLAR.0>
0

>  <SCORE.INTRA.REPUL>
0

>  <SCORE.INTRA.REPUL.0>
0

>  <SCORE.INTRA.SOLV>
-2.52821

>  <SCORE.INTRA.SOLV.lig_0>
-57.5465

>  <SCORE.INTRA.VDW>
-2.20002

>  <SCORE.INTRA.VDW.0>
1.39369

>  <SCORE.INTRA.norm>
-0.0390038

>  <SCORE.RESTR>
0

>  <SCORE.RESTR.CAVITY>
0

>  <SCORE.RESTR.norm>
0

>  <SCORE.SYSTEM>
0

>  <SCORE.SYSTEM.CONST>
0

>  <SCORE.SYSTEM.DIHEDRAL>
0

>  <SCORE.SYSTEM.SOLV>
0

>  <SCORE.SYSTEM.norm>
0

>  <SCORE.heavy>
12

>  <SCORE.norm>
-2.09949

>  <SYMMETRIC_BONDS>
4 1 2

>  <RMSD>
2.569

$$$$
1kod cryst
 OpenBabel11021811393D
libRbt.so/2013.1/901 2013/11/27
 12 11  0  0  0  0  0  0  0  0999 V2000
    2.2452    3.8463   39.1403 C   0  0  0  0  0  0  0  0  0  0  0  0
    2.5016    5.0411   39.1303 O   0  5  0  0  0  0  0  0  0  0  0  0
    2.6246    3.0754   40.0129 O   0  0  0  0  0  0  0  0  0  0  0  0
    1.3922    3.2817   37.9870 C   0  0  1  0  0  0  0  0  0  0  0  0
    0.1730    4.1289   37.8125 N   0  3  0  0  0  0  0  0  0  0  0  0
    2.1993    3.2617   36.6678 C   0  0  0  0  0  0  0  0  0  0  0  0
    1.6879    2.1649   35.7429 C   0  0  0  0  0  0  0  0  0  0  0  0
    2.2315    2.3814   34.3324 C   0  0  0  0  0  0  0  0  0  0  0  0
    2.2423    1.0719   33.6086 N   0  0  0  0  0  0  0  0  0  0  0  0
    1.1229    0.4774   33.2931 C   0  0  0  0  0  0  0  0  0  0  0  0
    0.9186   -0.6900   33.6186 O   0  0  0  0  0  0  0  0  0  0  0  0
    0.2179    1.1196   32.6136 N   0  0  0  0  0  0  0  0  0  0  0  0
  1  2  1  0  0  0  0
  1  3  2  0  0  0  0
  4  1  1  1  0  0  0
  4  6  1  0  0  0  0
  4  5  1  0  0  0  0
  6  7  1  0  0  0  0
  7  8  1  0  0  0  0
  8  9  1  0  0  0  0
  9 10  1  0  0  0  0
 10 12  1  0  0  0  0
 10 11  2  0  0  0  0
M  CHG  2   2  -1   5   1
M  END
>  <CHROM.1>
-49.74465043,152.88886392,59.39449034,165.48124739,155.76848128,-112.56195558
1.60154075,2.44303471,36.16801743,-1.39553078,0.70442671,-2.22003434

>  <Name>
1kod cryst

>  <RI>
0

>  <Rbt.Current_Directory>
/home/itssahil/PROJECTS/Mol_Feturizer/New_Systems/rnas/1kod

>  <Rbt.Executable>
rbdock ($Id: //depot/dev/client3/rdock/2013.1/src/exe/rbdock.cxx#4 $)

>  <Rbt.Library>
libRbt.so (2013.1, Build901 2013/11/27)

>  <Rbt.Parameter_File>
/export/apps/rDock/src/rDock_2013.1_src/data/scripts/dock_solv.prm

>  <Rbt.Receptor>
prm/pocket_docking_7.prm

>  <SCORE>
-18.5121

>  <SCORE.INTER>
-14.4829

>  <SCORE.INTER.CONST>
1

>  <SCORE.INTER.POLAR>
-2.97233

>  <SCORE.INTER.ROT>
5

>  <SCORE.INTER.SOLV>
12.87

>  <SCORE.INTER.VDW>
-10.9709

>  <SCORE.INTER.norm>
-1.20691

>  <SCORE.INTRA>
-4.02915

>  <SCORE.INTRA.DIHEDRAL>
-0.574444

>  <SCORE.INTRA.DIHEDRAL.0>
7.7847

>  <SCORE.INTRA.POLAR>
0

>  <SCORE.INTRA.POLAR.0>
0

>  <SCORE.INTRA.REPUL>
0

>  <SCORE.INTRA.REPUL.0>
0

>  <SCORE.INTRA.SOLV>
-2.43591

>  <SCORE.INTRA.SOLV.lig_0>
-57.5465

>  <SCORE.INTRA.VDW>
-2.52397

>  <SCORE.INTRA.VDW.0>
1.39369

>  <SCORE.INTRA.norm>
-0.335762

>  <SCORE.RESTR>
0

>  <SCORE.RESTR.CAVITY>
0

>  <SCORE.RESTR.norm>
0

>  <SCORE.SYSTEM>
0

>  <SCORE.SYSTEM.CONST>
0

>  <SCORE.SYSTEM.DIHEDRAL>
0

>  <SCORE.SYSTEM.SOLV>
0

>  <SCORE.SYSTEM.norm>
0

>  <SCORE.heavy>
12

>  <SCORE.norm>
-1.54267

>  <SYMMETRIC_BONDS>
4 1 2

>  <RMSD>
2.571

$$$$
1kod cryst
 OpenBabel11021811393D
libRbt.so/2013.1/901 2013/11/27
 12 11  0  0  0  0  0  0  0  0999 V2000
    2.9276    6.9902   35.3874 C   0  0  0  0  0  0  0  0  0  0  0  0
    2.3243    7.4164   36.3609 O   0  5  0  0  0  0  0  0  0  0  0  0
    4.0761    7.3078   35.1050 O   0  0  0  0  0  0  0  0  0  0  0  0
    2.1976    5.9932   34.4658 C   0  0  1  0  0  0  0  0  0  0  0  0
    2.2098    6.5142   33.0647 N   0  3  0  0  0  0  0  0  0  0  0  0
    2.8825    4.6071   34.5066 C   0  0  0  0  0  0  0  0  0  0  0  0
    1.9973    3.5522   33.8556 C   0  0  0  0  0  0  0  0  0  0  0  0
    2.6687    2.1838   33.9479 C   0  0  0  0  0  0  0  0  0  0  0  0
    1.6124    1.1247   33.9822 N   0  0  0  0  0  0  0  0  0  0  0  0
    1.3738    0.4590   35.0803 C   0  0  0  0  0  0  0  0  0  0  0  0
    1.3841   -0.7700   35.0843 O   0  0  0  0  0  0  0  0  0  0  0  0
    1.1067    1.0998   36.1808 N   0  0  0  0  0  0  0  0  0  0  0  0
  1  2  1  0  0  0  0
  1  3  2  0  0  0  0
  4  1  1  1  0  0  0
  4  6  1  0  0  0  0
  4  5  1  0  0  0  0
  6  7  1  0  0  0  0
  7  8  1  0  0  0  0
  8  9  1  0  0  0  0
  9 10  1  0  0  0  0
 10 12  1  0  0  0  0
 10 11  2  0  0  0  0
M  CHG  2   2  -1   5   1
M  END
>  <CHROM.1>
124.65643796,167.31562564,-66.81762370,-178.08489412,151.31192152,71.24018145
2.22355422,3.89260417,34.74589154,0.40972206,1.33814363,1.14840509

>  <Name>
1kod cryst

>  <RI>
0

>  <Rbt.Current_Directory>
/home/itssahil/PROJECTS/Mol_Feturizer/New_Systems/rnas/1kod

>  <Rbt.Executable>
rbdock ($Id: //depot/dev/client3/rdock/2013.1/src/exe/rbdock.cxx#4 $)

>  <Rbt.Library>
libRbt.so (2013.1, Build901 2013/11/27)

>  <Rbt.Parameter_File>
/export/apps/rDock/src/rDock_2013.1_src/data/scripts/dock_solv.prm

>  <Rbt.Receptor>
prm/pocket_docking_7.prm

>  <SCORE>
-18.5125

>  <SCORE.INTER>
-13.5768

>  <SCORE.INTER.CONST>
1

>  <SCORE.INTER.POLAR>
-3.05282

>  <SCORE.INTER.ROT>
5

>  <SCORE.INTER.SOLV>
18.2902

>  <SCORE.INTER.VDW>
-11.9052

>  <SCORE.INTER.norm>
-1.1314

>  <SCORE.INTRA>
-4.93571

>  <SCORE.INTRA.DIHEDRAL>
-2.29342

>  <SCORE.INTRA.DIHEDRAL.0>
7.7847

>  <SCORE.INTRA.POLAR>
0

>  <SCORE.INTRA.POLAR.0>
0

>  <SCORE.INTRA.REPUL>
0

>  <SCORE.INTRA.REPUL.0>
0

>  <SCORE.INTRA.SOLV>
-2.33428

>  <SCORE.INTRA.SOLV.lig_0>
-57.5465

>  <SCORE.INTRA.VDW>
-2.62186

>  <SCORE.INTRA.VDW.0>
1.39369

>  <SCORE.INTRA.norm>
-0.41131

>  <SCORE.RESTR>
0

>  <SCORE.RESTR.CAVITY>
0

>  <SCORE.RESTR.norm>
0

>  <SCORE.SYSTEM>
0

>  <SCORE.SYSTEM.CONST>
0

>  <SCORE.SYSTEM.DIHEDRAL>
0

>  <SCORE.SYSTEM.SOLV>
0

>  <SCORE.SYSTEM.norm>
0

>  <SCORE.heavy>
12

>  <SCORE.norm>
-1.54271

>  <SYMMETRIC_BONDS>
4 1 2

>  <RMSD>
2.573

$$$$
1kod cryst
 OpenBabel11021811393D
libRbt.so/2013.1/901 2013/11/27
 12 11  0  0  0  0  0  0  0  0999 V2000
    2.1960    6.8775   35.5879 C   0  0  0  0  0  0  0  0  0  0  0  0
    1.6119    7.9505   35.5618 O   0  5  0  0  0  0  0  0  0  0  0  0
    3.0270    6.5747   36.4350 O   0  0  0  0  0  0  0  0  0  0  0  0
    1.8625    5.8475   34.4906 C   0  0  1  0  0  0  0  0  0  0  0  0
    2.1786    6.4314   33.1513 N   0  3  0  0  0  0  0  0  0  0  0  0
    2.6777    4.5487   34.6924 C   0  0  0  0  0  0  0  0  0  0  0  0
    2.0157    3.3824   33.9701 C   0  0  0  0  0  0  0  0  0  0  0  0
    2.5781    2.0626   34.4933 C   0  0  0  0  0  0  0  0  0  0  0  0
    1.4950    1.0306   34.4746 N   0  0  0  0  0  0  0  0  0  0  0  0
    1.3920    0.1573   35.4405 C   0  0  0  0  0  0  0  0  0  0  0  0
    1.3515   -1.0466   35.1968 O   0  0  0  0  0  0  0  0  0  0  0  0
    1.3156    0.5630   36.6745 N   0  0  0  0  0  0  0  0  0  0  0  0
  1  2  1  0  0  0  0
  1  3  2  0  0  0  0
  4  1  1  1  0  0  0
  4  6  1  0  0  0  0
  4  5  1  0  0  0  0
  6  7  1  0  0  0  0
  7  8  1  0  0  0  0
  8  9  1  0  0  0  0
  9 10  1  0  0  0  0
 10 12  1  0  0  0  0
 10 11  2  0  0  0  0
M  CHG  2   2  -1   5   1
M  END
>  <CHROM.1>
60.07601072,159.24406915,62.19857173,-163.71852403,146.09926041,38.54380433
1.97104573,3.71696932,35.00963612,0.18960880,1.46397982,1.33528040

>  <Name>
1kod cryst

>  <RI>
0

>  <Rbt.Current_Directory>
/home/itssahil/PROJECTS/Mol_Feturizer/New_Systems/rnas/1kod

>  <Rbt.Executable>
rbdock ($Id: //depot/dev/client3/rdock/2013.1/src/exe/rbdock.cxx#4 $)

>  <Rbt.Library>
libRbt.so (2013.1, Build901 2013/11/27)

>  <Rbt.Parameter_File>
/export/apps/rDock/src/rDock_2013.1_src/data/scripts/dock_solv.prm

>  <Rbt.Receptor>
prm/pocket_docking_3.prm

>  <SCORE>
-16.8386

>  <SCORE.INTER>
-13.9577

>  <SCORE.INTER.CONST>
1

>  <SCORE.INTER.POLAR>
-3.018

>  <SCORE.INTER.ROT>
5

>  <SCORE.INTER.SOLV>
19.921

>  <SCORE.INTER.VDW>
-12.8188

>  <SCORE.INTER.norm>
-1.16314

>  <SCORE.INTRA>
-2.88092

>  <SCORE.INTRA.DIHEDRAL>
0.212783

>  <SCORE.INTRA.DIHEDRAL.0>
7.7847

>  <SCORE.INTRA.POLAR>
0

>  <SCORE.INTRA.POLAR.0>
0

>  <SCORE.INTRA.REPUL>
0

>  <SCORE.INTRA.REPUL.0>
0

>  <SCORE.INTRA.SOLV>
-2.6804

>  <SCORE.INTRA.SOLV.lig_0>
-57.5465

>  <SCORE.INTRA.VDW>
-1.64711

>  <SCORE.INTRA.VDW.0>
1.39369

>  <SCORE.INTRA.norm>
-0.240077

>  <SCORE.RESTR>
0

>  <SCORE.RESTR.CAVITY>
0

>  <SCORE.RESTR.norm>
0

>  <SCORE.SYSTEM>
0

>  <SCORE.SYSTEM.CONST>
0

>  <SCORE.SYSTEM.DIHEDRAL>
0

>  <SCORE.SYSTEM.SOLV>
0

>  <SCORE.SYSTEM.norm>
0

>  <SCORE.heavy>
12

>  <SCORE.norm>
-1.40322

>  <SYMMETRIC_BONDS>
4 1 2

>  <RMSD>
2.580

$$$$
1kod cryst
 OpenBabel11021811393D
libRbt.so/2013.1/901 2013/11/27
 12 11  0  0  0  0  0  0  0  0999 V2000
    1.5761    5.5184   35.4015 C   0  0  0  0  0  0  0  0  0  0  0  0
    2.6186    5.9556   35.8655 O   0  5  0  0  0  0  0  0  0  0  0  0
    0.5739    5.2957   36.0690 O   0  0  0  0  0  0  0  0  0  0  0  0
    1.5234    5.2347   33.8872 C   0  0  1  0  0  0  0  0  0  0  0  0
    2.2532    6.3149   33.1556 N   0  3  0  0  0  0  0  0  0  0  0  0
    2.1679    3.8664   33.5635 C   0  0  0  0  0  0  0  0  0  0  0  0
    1.1290    2.7548   33.6318 C   0  0  0  0  0  0  0  0  0  0  0  0
    1.7950    1.4062   33.3677 C   0  0  0  0  0  0  0  0  0  0  0  0
    2.6970    1.0759   34.5149 N   0  0  0  0  0  0  0  0  0  0  0  0
    2.3519    1.3731   35.7390 C   0  0  0  0  0  0  0  0  0  0  0  0
    3.1021    2.0249   36.4622 O   0  0  0  0  0  0  0  0  0  0  0  0
    1.2089    0.9636   36.2070 N   0  0  0  0  0  0  0  0  0  0  0  0
  1  2  1  0  0  0  0
  1  3  2  0  0  0  0
  4  1  1  1  0  0  0
  4  6  1  0  0  0  0
  4  5  1  0  0  0  0
  6  7  1  0  0  0  0
  7  8  1  0  0  0  0
  8  9  1  0  0  0  0
  9 10  1  0  0  0  0
 10 12  1  0  0  0  0
 10 11  2  0  0  0  0
M  CHG  2   2  -1   5   1
M  END
>  <CHROM.1>
-39.42666815,89.27573290,-175.82356911,-177.62064843,68.49114812,-142.29566355
1.92866321,3.51069260,34.83824703,2.86481258,1.51200386,-1.44186079

>  <Name>
1kod cryst

>  <RI>
0

>  <Rbt.Current_Directory>
/home/itssahil/PROJECTS/Mol_Feturizer/New_Systems/rnas/1kod

>  <Rbt.Executable>
rbdock ($Id: //depot/dev/client3/rdock/2013.1/src/exe/rbdock.cxx#4 $)

>  <Rbt.Library>
libRbt.so (2013.1, Build901 2013/11/27)

>  <Rbt.Parameter_File>
/export/apps/rDock/src/rDock_2013.1_src/data/scripts/dock_solv.prm

>  <Rbt.Receptor>
prm/pocket_docking_3.prm

>  <SCORE>
-22.3688

>  <SCORE.INTER>
-18.3395

>  <SCORE.INTER.CONST>
1

>  <SCORE.INTER.POLAR>
-3.27348

>  <SCORE.INTER.ROT>
5

>  <SCORE.INTER.SOLV>
16.2099

>  <SCORE.INTER.VDW>
-13.6514

>  <SCORE.INTER.norm>
-1.52829

>  <SCORE.INTRA>
-4.02933

>  <SCORE.INTRA.DIHEDRAL>
-2.74071

>  <SCORE.INTRA.DIHEDRAL.0>
7.7847

>  <SCORE.INTRA.POLAR>
0

>  <SCORE.INTRA.POLAR.0>
0

>  <SCORE.INTRA.REPUL>
0

>  <SCORE.INTRA.REPUL.0>
0

>  <SCORE.INTRA.SOLV>
-1.26814

>  <SCORE.INTRA.SOLV.lig_0>
-57.5465

>  <SCORE.INTRA.VDW>
-2.02491

>  <SCORE.INTRA.VDW.0>
1.39369

>  <SCORE.INTRA.norm>
-0.335778

>  <SCORE.RESTR>
0

>  <SCORE.RESTR.CAVITY>
0

>  <SCORE.RESTR.norm>
0

>  <SCORE.SYSTEM>
0

>  <SCORE.SYSTEM.CONST>
0

>  <SCORE.SYSTEM.DIHEDRAL>
0

>  <SCORE.SYSTEM.SOLV>
0

>  <SCORE.SYSTEM.norm>
0

>  <SCORE.heavy>
12

>  <SCORE.norm>
-1.86407

>  <SYMMETRIC_BONDS>
4 1 2

>  <RMSD>
2.582

$$$$
1kod cryst
 OpenBabel11021811393D
libRbt.so/2013.1/901 2013/11/27
 12 11  0  0  0  0  0  0  0  0999 V2000
    2.1550    6.8216   35.6091 C   0  0  0  0  0  0  0  0  0  0  0  0
    2.3148    7.9870   35.2780 O   0  5  0  0  0  0  0  0  0  0  0  0
    2.1588    6.4371   36.7718 O   0  0  0  0  0  0  0  0  0  0  0  0
    1.9336    5.7790   34.4954 C   0  0  1  0  0  0  0  0  0  0  0  0
    2.1629    6.4201   33.1647 N   0  3  0  0  0  0  0  0  0  0  0  0
    2.8994    4.5829   34.6650 C   0  0  0  0  0  0  0  0  0  0  0  0
    2.6557    3.5393   33.5826 C   0  0  0  0  0  0  0  0  0  0  0  0
    1.6888    2.4753   34.0971 C   0  0  0  0  0  0  0  0  0  0  0  0
    2.4283    1.1854   34.2639 N   0  0  0  0  0  0  0  0  0  0  0  0
    2.3055    0.4854   35.3598 C   0  0  0  0  0  0  0  0  0  0  0  0
    3.2973    0.1355   35.9957 O   0  0  0  0  0  0  0  0  0  0  0  0
    1.1228    0.1397   35.7780 N   0  0  0  0  0  0  0  0  0  0  0  0
  1  2  1  0  0  0  0
  1  3  2  0  0  0  0
  4  1  1  1  0  0  0
  4  6  1  0  0  0  0
  4  5  1  0  0  0  0
  6  7  1  0  0  0  0
  7  8  1  0  0  0  0
  8  9  1  0  0  0  0
  9 10  1  0  0  0  0
 10 12  1  0  0  0  0
 10 11  2  0  0  0  0
M  CHG  2   2  -1   5   1
M  END
>  <CHROM.1>
8.26531670,178.66011023,67.55392275,-93.96864352,-111.22435502,-47.49808543
2.25935329,3.84614572,34.91657430,1.61867682,1.54875556,-0.09216802

>  <Name>
1kod cryst

>  <RI>
0

>  <Rbt.Current_Directory>
/home/itssahil/PROJECTS/Mol_Feturizer/New_Systems/rnas/1kod

>  <Rbt.Executable>
rbdock ($Id: //depot/dev/client3/rdock/2013.1/src/exe/rbdock.cxx#4 $)

>  <Rbt.Library>
libRbt.so (2013.1, Build901 2013/11/27)

>  <Rbt.Parameter_File>
/export/apps/rDock/src/rDock_2013.1_src/data/scripts/dock_solv.prm

>  <Rbt.Receptor>
prm/pocket_docking_6.prm

>  <SCORE>
-20.4854

>  <SCORE.INTER>
-19.3938

>  <SCORE.INTER.CONST>
1

>  <SCORE.INTER.POLAR>
-3.90956

>  <SCORE.INTER.ROT>
5

>  <SCORE.INTER.SOLV>
18.7293

>  <SCORE.INTER.VDW>
-13.0738

>  <SCORE.INTER.norm>
-1.61615

>  <SCORE.INTRA>
-1.09164

>  <SCORE.INTRA.DIHEDRAL>
3.52875

>  <SCORE.INTRA.DIHEDRAL.0>
7.7847

>  <SCORE.INTRA.POLAR>
0

>  <SCORE.INTRA.POLAR.0>
0

>  <SCORE.INTRA.REPUL>
0

>  <SCORE.INTRA.REPUL.0>
0

>  <SCORE.INTRA.SOLV>
-1.84452

>  <SCORE.INTRA.SOLV.lig_0>
-57.5465

>  <SCORE.INTRA.VDW>
-1.93376

>  <SCORE.INTRA.VDW.0>
1.39369

>  <SCORE.INTRA.norm>
-0.0909701

>  <SCORE.RESTR>
0

>  <SCORE.RESTR.CAVITY>
0

>  <SCORE.RESTR.norm>
0

>  <SCORE.SYSTEM>
0

>  <SCORE.SYSTEM.CONST>
0

>  <SCORE.SYSTEM.DIHEDRAL>
0

>  <SCORE.SYSTEM.SOLV>
0

>  <SCORE.SYSTEM.norm>
0

>  <SCORE.heavy>
12

>  <SCORE.norm>
-1.70712

>  <SYMMETRIC_BONDS>
4 1 2

>  <RMSD>
2.594

$$$$
1kod cryst
 OpenBabel11021811393D
libRbt.so/2013.1/901 2013/11/27
 12 11  0  0  0  0  0  0  0  0999 V2000
    3.0127    6.1027   35.4213 C   0  0  0  0  0  0  0  0  0  0  0  0
    2.6175    6.1561   36.5764 O   0  5  0  0  0  0  0  0  0  0  0  0
    4.1751    5.8772   35.1088 O   0  0  0  0  0  0  0  0  0  0  0  0
    1.9844    6.3303   34.2956 C   0  0  1  0  0  0  0  0  0  0  0  0
    2.4767    7.4099   33.3864 N   0  3  0  0  0  0  0  0  0  0  0  0
    1.7649    5.0324   33.4835 C   0  0  0  0  0  0  0  0  0  0  0  0
    0.7464    4.1341   34.1731 C   0  0  0  0  0  0  0  0  0  0  0  0
    1.4079    3.3986   35.3365 C   0  0  0  0  0  0  0  0  0  0  0  0
    2.3297    2.3540   34.7908 N   0  0  0  0  0  0  0  0  0  0  0  0
    2.5975    1.2777   35.4807 C   0  0  0  0  0  0  0  0  0  0  0  0
    3.7603    0.9500   35.7066 O   0  0  0  0  0  0  0  0  0  0  0  0
    1.6259    0.5333   35.9223 N   0  0  0  0  0  0  0  0  0  0  0  0
  1  2  1  0  0  0  0
  1  3  2  0  0  0  0
  4  1  1  1  0  0  0
  4  6  1  0  0  0  0
  4  5  1  0  0  0  0
  6  7  1  0  0  0  0
  7  8  1  0  0  0  0
  8  9  1  0  0  0  0
  9 10  1  0  0  0  0
 10 12  1  0  0  0  0
 10 11  2  0  0  0  0
M  CHG  2   2  -1   5   1
M  END
>  <CHROM.1>
126.40396629,83.68309819,-45.14407166,-78.41822848,-71.94530986,27.41079534
2.39884533,4.14068885,34.97002396,-1.52662756,0.65404222,2.90981447

>  <Name>
1kod cryst

>  <RI>
0

>  <Rbt.Current_Directory>
/home/itssahil/PROJECTS/Mol_Feturizer/New_Systems/rnas/1kod

>  <Rbt.Executable>
rbdock ($Id: //depot/dev/client3/rdock/2013.1/src/exe/rbdock.cxx#4 $)

>  <Rbt.Library>
libRbt.so (2013.1, Build901 2013/11/27)

>  <Rbt.Parameter_File>
/export/apps/rDock/src/rDock_2013.1_src/data/scripts/dock_solv.prm

>  <Rbt.Receptor>
prm/pocket_docking_6.prm

>  <SCORE>
-25.9751

>  <SCORE.INTER>
-22.3919

>  <SCORE.INTER.CONST>
1

>  <SCORE.INTER.POLAR>
-3.91487

>  <SCORE.INTER.ROT>
5

>  <SCORE.INTER.SOLV>
13.7446

>  <SCORE.INTER.VDW>
-13.3932

>  <SCORE.INTER.norm>
-1.866

>  <SCORE.INTRA>
-3.58319

>  <SCORE.INTRA.DIHEDRAL>
-1.45781

>  <SCORE.INTRA.DIHEDRAL.0>
7.7847

>  <SCORE.INTRA.POLAR>
0

>  <SCORE.INTRA.POLAR.0>
0

>  <SCORE.INTRA.REPUL>
0

>  <SCORE.INTRA.REPUL.0>
0

>  <SCORE.INTRA.SOLV>
-0.941877

>  <SCORE.INTRA.SOLV.lig_0>
-57.5465

>  <SCORE.INTRA.VDW>
-2.38334

>  <SCORE.INTRA.VDW.0>
1.39369

>  <SCORE.INTRA.norm>
-0.298599

>  <SCORE.RESTR>
0

>  <SCORE.RESTR.CAVITY>
0

>  <SCORE.RESTR.norm>
0

>  <SCORE.SYSTEM>
0

>  <SCORE.SYSTEM.CONST>
0

>  <SCORE.SYSTEM.DIHEDRAL>
0

>  <SCORE.SYSTEM.SOLV>
0

>  <SCORE.SYSTEM.norm>
0

>  <SCORE.heavy>
12

>  <SCORE.norm>
-2.16459

>  <SYMMETRIC_BONDS>
4 1 2

>  <RMSD>
2.599

$$$$
1kod cryst
 OpenBabel11021811393D
libRbt.so/2013.1/901 2013/11/27
 12 11  0  0  0  0  0  0  0  0999 V2000
    3.9255    6.0081   35.0347 C   0  0  0  0  0  0  0  0  0  0  0  0
    4.0179    5.9720   36.2527 O   0  5  0  0  0  0  0  0  0  0  0  0
    4.8785    5.8861   34.2754 O   0  0  0  0  0  0  0  0  0  0  0  0
    2.5260    6.2171   34.4231 C   0  0  1  0  0  0  0  0  0  0  0  0
    2.5756    7.3503   33.4495 N   0  3  0  0  0  0  0  0  0  0  0  0
    2.0475    4.9364   33.7000 C   0  0  0  0  0  0  0  0  0  0  0  0
    2.1968    3.7213   34.6062 C   0  0  0  0  0  0  0  0  0  0  0  0
    1.5932    2.4928   33.9293 C   0  0  0  0  0  0  0  0  0  0  0  0
    2.4873    1.3171   34.1677 N   0  0  0  0  0  0  0  0  0  0  0  0
    2.4306    0.6559   35.2927 C   0  0  0  0  0  0  0  0  0  0  0  0
    3.4446    0.4645   35.9602 O   0  0  0  0  0  0  0  0  0  0  0  0
    1.2927    0.1798   35.7072 N   0  0  0  0  0  0  0  0  0  0  0  0
  1  2  1  0  0  0  0
  1  3  2  0  0  0  0
  4  1  1  6  0  0  0
  4  6  1  0  0  0  0
  4  5  1  0  0  0  0
  6  7  1  0  0  0  0
  7  8  1  0  0  0  0
  8  9  1  0  0  0  0
  9 10  1  0  0  0  0
 10 12  1  0  0  0  0
 10 11  2  0  0  0  0
M  CHG  2   2  -1   5   1
M  END
>  <CHROM.1>
128.06800900,50.40949474,-179.99150150,174.42221692,138.85506043,-98.70495237
2.79864936,3.78157292,34.73073593,-1.32254571,0.65493997,2.83883816

>  <Name>
1kod cryst

>  <RI>
0

>  <Rbt.Current_Directory>
/home/itssahil/PROJECTS/Mol_Feturizer/New_Systems/rnas/1kod

>  <Rbt.Executable>
rbdock ($Id: //depot/dev/client3/rdock/2013.1/src/exe/rbdock.cxx#4 $)

>  <Rbt.Library>
libRbt.so (2013.1, Build901 2013/11/27)

>  <Rbt.Parameter_File>
/export/apps/rDock/src/rDock_2013.1_src/data/scripts/dock_solv.prm

>  <Rbt.Receptor>
prm/pocket_docking_4.prm

>  <SCORE>
-26.3926

>  <SCORE.INTER>
-22.769

>  <SCORE.INTER.CONST>
1

>  <SCORE.INTER.POLAR>
-4.17075

>  <SCORE.INTER.ROT>
5

>  <SCORE.INTER.SOLV>
15.9701

>  <SCORE.INTER.VDW>
-13.5335

>  <SCORE.INTER.norm>
-1.89742

>  <SCORE.INTRA>
-3.62358

>  <SCORE.INTRA.DIHEDRAL>
-0.811587

>  <SCORE.INTRA.DIHEDRAL.0>
7.7847

>  <SCORE.INTRA.POLAR>
0

>  <SCORE.INTRA.POLAR.0>
0

>  <SCORE.INTRA.REPUL>
0

>  <SCORE.INTRA.REPUL.0>
0

>  <SCORE.INTRA.SOLV>
-2.36976

>  <SCORE.INTRA.SOLV.lig_0>
-57.5465

>  <SCORE.INTRA.VDW>
-2.03291

>  <SCORE.INTRA.VDW.0>
1.39369

>  <SCORE.INTRA.norm>
-0.301965

>  <SCORE.RESTR>
0

>  <SCORE.RESTR.CAVITY>
0

>  <SCORE.RESTR.norm>
0

>  <SCORE.SYSTEM>
0

>  <SCORE.SYSTEM.CONST>
0

>  <SCORE.SYSTEM.DIHEDRAL>
0

>  <SCORE.SYSTEM.SOLV>
0

>  <SCORE.SYSTEM.norm>
0

>  <SCORE.heavy>
12

>  <SCORE.norm>
-2.19938

>  <SYMMETRIC_BONDS>
4 1 2

>  <RMSD>
2.601

$$$$
1kod cryst
 OpenBabel11021811393D
libRbt.so/2013.1/901 2013/11/27
 12 11  0  0  0  0  0  0  0  0999 V2000
    3.0177    6.1448   35.4232 C   0  0  0  0  0  0  0  0  0  0  0  0
    2.6026    6.1442   36.5726 O   0  5  0  0  0  0  0  0  0  0  0  0
    4.1966    6.0008   35.1247 O   0  0  0  0  0  0  0  0  0  0  0  0
    1.9941    6.3355   34.2865 C   0  0  1  0  0  0  0  0  0  0  0  0
    2.4532    7.4376   33.3869 N   0  3  0  0  0  0  0  0  0  0  0  0
    1.8363    5.0332   33.4673 C   0  0  0  0  0  0  0  0  0  0  0  0
    0.7676    4.1390   34.0823 C   0  0  0  0  0  0  0  0  0  0  0  0
    1.3489    3.3809   35.2736 C   0  0  0  0  0  0  0  0  0  0  0  0
    2.3039    2.3442   34.7718 N   0  0  0  0  0  0  0  0  0  0  0  0
    2.5821    1.2916   35.4933 C   0  0  0  0  0  0  0  0  0  0  0  0
    3.7473    0.9958   35.7492 O   0  0  0  0  0  0  0  0  0  0  0  0
    1.6188    0.5366   35.9351 N   0  0  0  0  0  0  0  0  0  0  0  0
  1  2  1  0  0  0  0
  1  3  2  0  0  0  0
  4  1  1  1  0  0  0
  4  6  1  0  0  0  0
  4  5  1  0  0  0  0
  6  7  1  0  0  0  0
  7  8  1  0  0  0  0
  8  9  1  0  0  0  0
  9 10  1  0  0  0  0
 10 12  1  0  0  0  0
 10 11  2  0  0  0  0
M  CHG  2   2  -1   5   1
M  END
>  <CHROM.1>
128.20316013,88.09195797,75.90570914,-79.96255259,-71.18266337,23.46863338
2.39580514,4.16046006,34.96139546,-1.51522293,0.67806319,2.90079893

>  <Name>
1kod cryst

>  <RI>
0

>  <Rbt.Current_Directory>
/home/itssahil/PROJECTS/Mol_Feturizer/New_Systems/rnas/1kod

>  <Rbt.Executable>
rbdock ($Id: //depot/dev/client3/rdock/2013.1/src/exe/rbdock.cxx#4 $)

>  <Rbt.Library>
libRbt.so (2013.1, Build901 2013/11/27)

>  <Rbt.Parameter_File>
/export/apps/rDock/src/rDock_2013.1_src/data/scripts/dock_solv.prm

>  <Rbt.Receptor>
prm/pocket_docking_5.prm

>  <SCORE>
-25.902

>  <SCORE.INTER>
-22.5427

>  <SCORE.INTER.CONST>
1

>  <SCORE.INTER.POLAR>
-3.91928

>  <SCORE.INTER.ROT>
5

>  <SCORE.INTER.SOLV>
13.7473

>  <SCORE.INTER.VDW>
-13.4799

>  <SCORE.INTER.norm>
-1.87856

>  <SCORE.INTRA>
-3.35935

>  <SCORE.INTRA.DIHEDRAL>
-0.663783

>  <SCORE.INTRA.DIHEDRAL.0>
7.7847

>  <SCORE.INTRA.POLAR>
0

>  <SCORE.INTRA.POLAR.0>
0

>  <SCORE.INTRA.REPUL>
0

>  <SCORE.INTRA.REPUL.0>
0

>  <SCORE.INTRA.SOLV>
-1.17429

>  <SCORE.INTRA.SOLV.lig_0>
-57.5465

>  <SCORE.INTRA.VDW>
-2.44031

>  <SCORE.INTRA.VDW.0>
1.39369

>  <SCORE.INTRA.norm>
-0.279945

>  <SCORE.RESTR>
0

>  <SCORE.RESTR.CAVITY>
0

>  <SCORE.RESTR.norm>
0

>  <SCORE.SYSTEM>
0

>  <SCORE.SYSTEM.CONST>
0

>  <SCORE.SYSTEM.DIHEDRAL>
0

>  <SCORE.SYSTEM.SOLV>
0

>  <SCORE.SYSTEM.norm>
0

>  <SCORE.heavy>
12

>  <SCORE.norm>
-2.1585

>  <SYMMETRIC_BONDS>
4 1 2

>  <RMSD>
2.604

$$$$
1kod cryst
 OpenBabel11021811393D
libRbt.so/2013.1/901 2013/11/27
 12 11  0  0  0  0  0  0  0  0999 V2000
    1.6272    6.0709   35.7228 C   0  0  0  0  0  0  0  0  0  0  0  0
    2.5876    6.0814   36.4783 O   0  5  0  0  0  0  0  0  0  0  0  0
    0.4626    6.0818   36.1014 O   0  0  0  0  0  0  0  0  0  0  0  0
    1.9023    6.0450   34.2063 C   0  0  1  0  0  0  0  0  0  0  0  0
    3.0060    7.0013   33.8871 N   0  3  0  0  0  0  0  0  0  0  0  0
    2.3026    4.6235   33.7464 C   0  0  0  0  0  0  0  0  0  0  0  0
    1.1397    3.6557   33.9222 C   0  0  0  0  0  0  0  0  0  0  0  0
    1.5096    2.2911   33.3454 C   0  0  0  0  0  0  0  0  0  0  0  0
    2.5146    1.6398   34.2423 N   0  0  0  0  0  0  0  0  0  0  0  0
    2.4552    1.8032   35.5368 C   0  0  0  0  0  0  0  0  0  0  0  0
    3.4347    2.1982   36.1654 O   0  0  0  0  0  0  0  0  0  0  0  0
    1.3535    1.5314   36.1737 N   0  0  0  0  0  0  0  0  0  0  0  0
  1  2  1  0  0  0  0
  1  3  2  0  0  0  0
  4  1  1  1  0  0  0
  4  6  1  0  0  0  0
  4  5  1  0  0  0  0
  6  7  1  0  0  0  0
  7  8  1  0  0  0  0
  8  9  1  0  0  0  0
  9 10  1  0  0  0  0
 10 12  1  0  0  0  0
 10 11  2  0  0  0  0
M  CHG  2   2  -1   5   1
M  END
>  <CHROM.1>
-43.10739007,65.43819777,-176.02874780,174.81982095,71.82543714,-144.53308408
2.04512152,4.10744054,34.98381190,1.97298874,1.49685421,-0.41647200

>  <Name>
1kod cryst

>  <RI>
0

>  <Rbt.Current_Directory>
/home/itssahil/PROJECTS/Mol_Feturizer/New_Systems/rnas/1kod

>  <Rbt.Executable>
rbdock ($Id: //depot/dev/client3/rdock/2013.1/src/exe/rbdock.cxx#4 $)

>  <Rbt.Library>
libRbt.so (2013.1, Build901 2013/11/27)

>  <Rbt.Parameter_File>
/export/apps/rDock/src/rDock_2013.1_src/data/scripts/dock_solv.prm

>  <Rbt.Receptor>
prm/pocket_docking_8.prm

>  <SCORE>
-23.147

>  <SCORE.INTER>
-18.4187

>  <SCORE.INTER.CONST>
1

>  <SCORE.INTER.POLAR>
-3.09754

>  <SCORE.INTER.ROT>
5

>  <SCORE.INTER.SOLV>
10.0392

>  <SCORE.INTER.VDW>
-12.2337

>  <SCORE.INTER.norm>
-1.53489

>  <SCORE.INTRA>
-4.72833

>  <SCORE.INTRA.DIHEDRAL>
-4.77444

>  <SCORE.INTRA.DIHEDRAL.0>
7.7847

>  <SCORE.INTRA.POLAR>
0

>  <SCORE.INTRA.POLAR.0>
0

>  <SCORE.INTRA.REPUL>
0

>  <SCORE.INTRA.REPUL.0>
0

>  <SCORE.INTRA.SOLV>
-1.41444

>  <SCORE.INTRA.SOLV.lig_0>
-57.5465

>  <SCORE.INTRA.VDW>
-1.63389

>  <SCORE.INTRA.VDW.0>
1.39369

>  <SCORE.INTRA.norm>
-0.394028

>  <SCORE.RESTR>
0

>  <SCORE.RESTR.CAVITY>
0

>  <SCORE.RESTR.norm>
0

>  <SCORE.SYSTEM>
0

>  <SCORE.SYSTEM.CONST>
0

>  <SCORE.SYSTEM.DIHEDRAL>
0

>  <SCORE.SYSTEM.SOLV>
0

>  <SCORE.SYSTEM.norm>
0

>  <SCORE.heavy>
12

>  <SCORE.norm>
-1.92892

>  <SYMMETRIC_BONDS>
4 1 2

>  <RMSD>
2.610

$$$$
1kod cryst
 OpenBabel11021811393D
libRbt.so/2013.1/901 2013/11/27
 12 11  0  0  0  0  0  0  0  0999 V2000
    3.4133    7.2668   35.3425 C   0  0  0  0  0  0  0  0  0  0  0  0
    3.1418    7.5138   36.5081 O   0  5  0  0  0  0  0  0  0  0  0  0
    4.5498    7.0574   34.9374 O   0  0  0  0  0  0  0  0  0  0  0  0
    2.2544    7.2142   34.3273 C   0  0  1  0  0  0  0  0  0  0  0  0
    2.5920    8.0661   33.1463 N   0  3  0  0  0  0  0  0  0  0  0  0
    2.0011    5.7617   33.8599 C   0  0  0  0  0  0  0  0  0  0  0  0
    1.5287    4.8989   35.0228 C   0  0  0  0  0  0  0  0  0  0  0  0
    0.8302    3.6496   34.4907 C   0  0  0  0  0  0  0  0  0  0  0  0
    1.8656    2.6602   34.0577 N   0  0  0  0  0  0  0  0  0  0  0  0
    1.5205    1.4573   33.6836 C   0  0  0  0  0  0  0  0  0  0  0  0
    2.0366    0.4675   34.1980 O   0  0  0  0  0  0  0  0  0  0  0  0
    0.6322    1.3008   32.7458 N   0  0  0  0  0  0  0  0  0  0  0  0
  1  2  1  0  0  0  0
  1  3  2  0  0  0  0
  4  1  1  1  0  0  0
  4  6  1  0  0  0  0
  4  5  1  0  0  0  0
  6  7  1  0  0  0  0
  7  8  1  0  0  0  0
  8  9  1  0  0  0  0
  9 10  1  0  0  0  0
 10 12  1  0  0  0  0
 10 11  2  0  0  0  0
M  CHG  2   2  -1   5   1
M  END
>  <CHROM.1>
129.78749243,64.63476853,-48.93635999,160.32403490,78.89102678,-6.61021169
2.21600469,4.78869322,34.33584352,-1.04855022,0.96600567,2.88902931

>  <Name>
1kod cryst

>  <RI>
0

>  <Rbt.Current_Directory>
/home/itssahil/PROJECTS/Mol_Feturizer/New_Systems/rnas/1kod

>  <Rbt.Executable>
rbdock ($Id: //depot/dev/client3/rdock/2013.1/src/exe/rbdock.cxx#4 $)

>  <Rbt.Library>
libRbt.so (2013.1, Build901 2013/11/27)

>  <Rbt.Parameter_File>
/export/apps/rDock/src/rDock_2013.1_src/data/scripts/dock_solv.prm

>  <Rbt.Receptor>
prm/pocket_docking_5.prm

>  <SCORE>
-22.626

>  <SCORE.INTER>
-17.8863

>  <SCORE.INTER.CONST>
1

>  <SCORE.INTER.POLAR>
-3.2857

>  <SCORE.INTER.ROT>
5

>  <SCORE.INTER.SOLV>
14.7151

>  <SCORE.INTER.VDW>
-12.8102

>  <SCORE.INTER.norm>
-1.49053

>  <SCORE.INTRA>
-4.73974

>  <SCORE.INTRA.DIHEDRAL>
-2.44561

>  <SCORE.INTRA.DIHEDRAL.0>
7.7847

>  <SCORE.INTRA.POLAR>
0

>  <SCORE.INTRA.POLAR.0>
0

>  <SCORE.INTRA.REPUL>
0

>  <SCORE.INTRA.REPUL.0>
0

>  <SCORE.INTRA.SOLV>
-2.63951

>  <SCORE.INTRA.SOLV.lig_0>
-57.5465

>  <SCORE.INTRA.VDW>
-2.19718

>  <SCORE.INTRA.VDW.0>
1.39369

>  <SCORE.INTRA.norm>
-0.394978

>  <SCORE.RESTR>
0

>  <SCORE.RESTR.CAVITY>
0

>  <SCORE.RESTR.norm>
0

>  <SCORE.SYSTEM>
0

>  <SCORE.SYSTEM.CONST>
0

>  <SCORE.SYSTEM.DIHEDRAL>
0

>  <SCORE.SYSTEM.SOLV>
0

>  <SCORE.SYSTEM.norm>
0

>  <SCORE.heavy>
12

>  <SCORE.norm>
-1.8855

>  <SYMMETRIC_BONDS>
4 1 2

>  <RMSD>
2.615

$$$$
1kod cryst
 OpenBabel11021811393D
libRbt.so/2013.1/901 2013/11/27
 12 11  0  0  0  0  0  0  0  0999 V2000
    1.6186    6.0390   35.7218 C   0  0  0  0  0  0  0  0  0  0  0  0
    2.5743    6.0704   36.4827 O   0  5  0  0  0  0  0  0  0  0  0  0
    0.4525    6.0016   36.0940 O   0  0  0  0  0  0  0  0  0  0  0  0
    1.9020    6.0500   34.2066 C   0  0  1  0  0  0  0  0  0  0  0  0
    3.0185    7.0014   33.9188 N   0  3  0  0  0  0  0  0  0  0  0  0
    2.2884    4.6366   33.7114 C   0  0  0  0  0  0  0  0  0  0  0  0
    1.1051    3.6849   33.8295 C   0  0  0  0  0  0  0  0  0  0  0  0
    1.4904    2.3096   33.2891 C   0  0  0  0  0  0  0  0  0  0  0  0
    2.5227    1.7052   34.1878 N   0  0  0  0  0  0  0  0  0  0  0  0
    2.4826    1.9083   35.4775 C   0  0  0  0  0  0  0  0  0  0  0  0
    3.4653    2.3406   36.0758 O   0  0  0  0  0  0  0  0  0  0  0  0
    1.3974    1.6369   36.1421 N   0  0  0  0  0  0  0  0  0  0  0  0
  1  2  1  0  0  0  0
  1  3  2  0  0  0  0
  4  1  1  1  0  0  0
  4  6  1  0  0  0  0
  4  5  1  0  0  0  0
  6  7  1  0  0  0  0
  7  8  1  0  0  0  0
  8  9  1  0  0  0  0
  9 10  1  0  0  0  0
 10 12  1  0  0  0  0
 10 11  2  0  0  0  0
M  CHG  2   2  -1   5   1
M  END
>  <CHROM.1>
-40.34787405,66.56458664,-178.92509566,177.94511927,67.00643422,-144.53533347
2.04766282,4.13764855,34.95231817,2.13152516,1.51620228,-0.55096671

>  <Name>
1kod cryst

>  <RI>
0

>  <Rbt.Current_Directory>
/home/itssahil/PROJECTS/Mol_Feturizer/New_Systems/rnas/1kod

>  <Rbt.Executable>
rbdock ($Id: //depot/dev/client3/rdock/2013.1/src/exe/rbdock.cxx#4 $)

>  <Rbt.Library>
libRbt.so (2013.1, Build901 2013/11/27)

>  <Rbt.Parameter_File>
/export/apps/rDock/src/rDock_2013.1_src/data/scripts/dock_solv.prm

>  <Rbt.Receptor>
prm/pocket_docking_3.prm

>  <SCORE>
-23.2466

>  <SCORE.INTER>
-18.4231

>  <SCORE.INTER.CONST>
1

>  <SCORE.INTER.POLAR>
-3.10473

>  <SCORE.INTER.ROT>
5

>  <SCORE.INTER.SOLV>
9.66104

>  <SCORE.INTER.VDW>
-12.0867

>  <SCORE.INTER.norm>
-1.53526

>  <SCORE.INTRA>
-4.82353

>  <SCORE.INTRA.DIHEDRAL>
-5.18632

>  <SCORE.INTRA.DIHEDRAL.0>
7.7847

>  <SCORE.INTRA.POLAR>
0

>  <SCORE.INTRA.POLAR.0>
0

>  <SCORE.INTRA.REPUL>
0

>  <SCORE.INTRA.REPUL.0>
0

>  <SCORE.INTRA.SOLV>
-1.14334

>  <SCORE.INTRA.SOLV.lig_0>
-57.5465

>  <SCORE.INTRA.VDW>
-1.6587

>  <SCORE.INTRA.VDW.0>
1.39369

>  <SCORE.INTRA.norm>
-0.401961

>  <SCORE.RESTR>
0

>  <SCORE.RESTR.CAVITY>
0

>  <SCORE.RESTR.norm>
0

>  <SCORE.SYSTEM>
0

>  <SCORE.SYSTEM.CONST>
0

>  <SCORE.SYSTEM.DIHEDRAL>
0

>  <SCORE.SYSTEM.SOLV>
0

>  <SCORE.SYSTEM.norm>
0

>  <SCORE.heavy>
12

>  <SCORE.norm>
-1.93722

>  <SYMMETRIC_BONDS>
4 1 2

>  <RMSD>
2.616

$$$$
1kod cryst
 OpenBabel11021811393D
libRbt.so/2013.1/901 2013/11/27
 12 11  0  0  0  0  0  0  0  0999 V2000
    1.6186    6.0918   35.7306 C   0  0  0  0  0  0  0  0  0  0  0  0
    2.5612    6.1741   36.5038 O   0  5  0  0  0  0  0  0  0  0  0  0
    0.4489    6.0254   36.0870 O   0  0  0  0  0  0  0  0  0  0  0  0
    1.9242    6.0736   34.2198 C   0  0  1  0  0  0  0  0  0  0  0  0
    3.0497    7.0141   33.9311 N   0  3  0  0  0  0  0  0  0  0  0  0
    2.3104    4.6495   33.7562 C   0  0  0  0  0  0  0  0  0  0  0  0
    1.1330    3.6963   33.9143 C   0  0  0  0  0  0  0  0  0  0  0  0
    1.4920    2.3290   33.3368 C   0  0  0  0  0  0  0  0  0  0  0  0
    2.5154    1.6826   34.2163 N   0  0  0  0  0  0  0  0  0  0  0  0
    2.4664    1.8305   35.5132 C   0  0  0  0  0  0  0  0  0  0  0  0
    3.4461    2.2329   36.1367 O   0  0  0  0  0  0  0  0  0  0  0  0
    1.3752    1.5352   36.1576 N   0  0  0  0  0  0  0  0  0  0  0  0
  1  2  1  0  0  0  0
  1  3  2  0  0  0  0
  4  1  1  1  0  0  0
  4  6  1  0  0  0  0
  4  5  1  0  0  0  0
  6  7  1  0  0  0  0
  7  8  1  0  0  0  0
  8  9  1  0  0  0  0
  9 10  1  0  0  0  0
 10 12  1  0  0  0  0
 10 11  2  0  0  0  0
M  CHG  2   2  -1   5   1
M  END
>  <CHROM.1>
-38.13171579,64.83102895,-176.79114293,174.94972695,69.75903612,-143.16113156
2.04944206,4.13291077,34.98224531,1.90077761,1.49544288,-0.33281946

>  <Name>
1kod cryst

>  <RI>
0

>  <Rbt.Current_Directory>
/home/itssahil/PROJECTS/Mol_Feturizer/New_Systems/rnas/1kod

>  <Rbt.Executable>
rbdock ($Id: //depot/dev/client3/rdock/2013.1/src/exe/rbdock.cxx#4 $)

>  <Rbt.Library>
libRbt.so (2013.1, Build901 2013/11/27)

>  <Rbt.Parameter_File>
/export/apps/rDock/src/rDock_2013.1_src/data/scripts/dock_solv.prm

>  <Rbt.Receptor>
prm/pocket_docking_6.prm

>  <SCORE>
-23.2328

>  <SCORE.INTER>
-18.3853

>  <SCORE.INTER.CONST>
1

>  <SCORE.INTER.POLAR>
-3.09137

>  <SCORE.INTER.ROT>
5

>  <SCORE.INTER.SOLV>
9.63231

>  <SCORE.INTER.VDW>
-12.0964

>  <SCORE.INTER.norm>
-1.5321

>  <SCORE.INTRA>
-4.84753

>  <SCORE.INTRA.DIHEDRAL>
-4.97443

>  <SCORE.INTRA.DIHEDRAL.0>
7.7847

>  <SCORE.INTRA.POLAR>
0

>  <SCORE.INTRA.POLAR.0>
0

>  <SCORE.INTRA.REPUL>
0

>  <SCORE.INTRA.REPUL.0>
0

>  <SCORE.INTRA.SOLV>
-1.38925

>  <SCORE.INTRA.SOLV.lig_0>
-57.5465

>  <SCORE.INTRA.VDW>
-1.66569

>  <SCORE.INTRA.VDW.0>
1.39369

>  <SCORE.INTRA.norm>
-0.403961

>  <SCORE.RESTR>
0

>  <SCORE.RESTR.CAVITY>
0

>  <SCORE.RESTR.norm>
0

>  <SCORE.SYSTEM>
0

>  <SCORE.SYSTEM.CONST>
0

>  <SCORE.SYSTEM.DIHEDRAL>
0

>  <SCORE.SYSTEM.SOLV>
0

>  <SCORE.SYSTEM.norm>
0

>  <SCORE.heavy>
12

>  <SCORE.norm>
-1.93607

>  <SYMMETRIC_BONDS>
4 1 2

>  <RMSD>
2.618

$$$$
1kod cryst
 OpenBabel11021811393D
libRbt.so/2013.1/901 2013/11/27
 12 11  0  0  0  0  0  0  0  0999 V2000
    3.7556    7.2751   35.4081 C   0  0  0  0  0  0  0  0  0  0  0  0
    3.5675    7.2766   36.6156 O   0  5  0  0  0  0  0  0  0  0  0  0
    4.8358    7.5220   34.8866 O   0  0  0  0  0  0  0  0  0  0  0  0
    2.5617    6.9399   34.4924 C   0  0  1  0  0  0  0  0  0  0  0  0
    2.5927    7.8311   33.2927 N   0  3  0  0  0  0  0  0  0  0  0  0
    2.6173    5.4623   34.0387 C   0  0  0  0  0  0  0  0  0  0  0  0
    1.2678    5.0189   33.4892 C   0  0  0  0  0  0  0  0  0  0  0  0
    0.9095    3.6420   34.0440 C   0  0  0  0  0  0  0  0  0  0  0  0
    1.7216    2.6050   33.3343 N   0  0  0  0  0  0  0  0  0  0  0  0
    1.2436    1.4052   33.1387 C   0  0  0  0  0  0  0  0  0  0  0  0
    1.8751    0.4123   33.4934 O   0  0  0  0  0  0  0  0  0  0  0  0
    0.0936    1.2548   32.5486 N   0  0  0  0  0  0  0  0  0  0  0  0
  1  2  1  0  0  0  0
  1  3  2  0  0  0  0
  4  1  1  1  0  0  0
  4  6  1  0  0  0  0
  4  5  1  0  0  0  0
  6  7  1  0  0  0  0
  7  8  1  0  0  0  0
  8  9  1  0  0  0  0
  9 10  1  0  0  0  0
 10 12  1  0  0  0  0
 10 11  2  0  0  0  0
M  CHG  2   2  -1   5   1
M  END
>  <CHROM.1>
140.18470112,163.47660071,81.38687571,-135.40153339,-75.78824098,31.48027696
2.26418755,4.73424523,34.04561237,-1.01169425,0.79215408,3.02327774

>  <Name>
1kod cryst

>  <RI>
0

>  <Rbt.Current_Directory>
/home/itssahil/PROJECTS/Mol_Feturizer/New_Systems/rnas/1kod

>  <Rbt.Executable>
rbdock ($Id: //depot/dev/client3/rdock/2013.1/src/exe/rbdock.cxx#4 $)

>  <Rbt.Library>
libRbt.so (2013.1, Build901 2013/11/27)

>  <Rbt.Parameter_File>
/export/apps/rDock/src/rDock_2013.1_src/data/scripts/dock_solv.prm

>  <Rbt.Receptor>
prm/pocket_docking_6.prm

>  <SCORE>
-25.9151

>  <SCORE.INTER>
-23.5738

>  <SCORE.INTER.CONST>
1

>  <SCORE.INTER.POLAR>
-3.87773

>  <SCORE.INTER.ROT>
5

>  <SCORE.INTER.SOLV>
16.2658

>  <SCORE.INTER.VDW>
-15.1453

>  <SCORE.INTER.norm>
-1.96448

>  <SCORE.INTRA>
-2.34136

>  <SCORE.INTRA.DIHEDRAL>
2.44397

>  <SCORE.INTRA.DIHEDRAL.0>
7.7847

>  <SCORE.INTRA.POLAR>
0

>  <SCORE.INTRA.POLAR.0>
0

>  <SCORE.INTRA.REPUL>
0

>  <SCORE.INTRA.REPUL.0>
0

>  <SCORE.INTRA.SOLV>
-2.49737

>  <SCORE.INTRA.SOLV.lig_0>
-57.5465

>  <SCORE.INTRA.VDW>
-2.31466

>  <SCORE.INTRA.VDW.0>
1.39369

>  <SCORE.INTRA.norm>
-0.195113

>  <SCORE.RESTR>
0

>  <SCORE.RESTR.CAVITY>
0

>  <SCORE.RESTR.norm>
0

>  <SCORE.SYSTEM>
0

>  <SCORE.SYSTEM.CONST>
0

>  <SCORE.SYSTEM.DIHEDRAL>
0

>  <SCORE.SYSTEM.SOLV>
0

>  <SCORE.SYSTEM.norm>
0

>  <SCORE.heavy>
12

>  <SCORE.norm>
-2.15959

>  <SYMMETRIC_BONDS>
4 1 2

>  <RMSD>
2.625

$$$$
1kod cryst
 OpenBabel11021811393D
libRbt.so/2013.1/901 2013/11/27
 12 11  0  0  0  0  0  0  0  0999 V2000
    3.7988    6.0052   35.1364 C   0  0  0  0  0  0  0  0  0  0  0  0
    4.8341    6.0262   34.4876 O   0  5  0  0  0  0  0  0  0  0  0  0
    3.7596    5.8642   36.3523 O   0  0  0  0  0  0  0  0  0  0  0  0
    2.4676    6.1687   34.3765 C   0  0  1  0  0  0  0  0  0  0  0  0
    2.5872    7.2996   33.4063 N   0  3  0  0  0  0  0  0  0  0  0  0
    2.1091    4.8714   33.6145 C   0  0  0  0  0  0  0  0  0  0  0  0
    1.9477    3.7075   34.5836 C   0  0  0  0  0  0  0  0  0  0  0  0
    1.5669    2.4433   33.8162 C   0  0  0  0  0  0  0  0  0  0  0  0
    2.5583    1.3671   34.1286 N   0  0  0  0  0  0  0  0  0  0  0  0
    2.5297    0.7504   35.2796 C   0  0  0  0  0  0  0  0  0  0  0  0
    3.5369    0.6822   35.9806 O   0  0  0  0  0  0  0  0  0  0  0  0
    1.4288    0.1875   35.6852 N   0  0  0  0  0  0  0  0  0  0  0  0
  1  2  1  0  0  0  0
  1  3  2  0  0  0  0
  4  1  1  6  0  0  0
  4  6  1  0  0  0  0
  4  5  1  0  0  0  0
  6  7  1  0  0  0  0
  7  8  1  0  0  0  0
  8  9  1  0  0  0  0
  9 10  1  0  0  0  0
 10 12  1  0  0  0  0
 10 11  2  0  0  0  0
M  CHG  2   2  -1   5   1
M  END
>  <CHROM.1>
-45.89757160,60.73675709,-172.36698280,178.87702402,124.34707041,-105.11268836
2.77643152,3.79667978,34.73655624,-1.32983654,0.73795660,2.83577919

>  <Name>
1kod cryst

>  <RI>
0

>  <Rbt.Current_Directory>
/home/itssahil/PROJECTS/Mol_Feturizer/New_Systems/rnas/1kod

>  <Rbt.Executable>
rbdock ($Id: //depot/dev/client3/rdock/2013.1/src/exe/rbdock.cxx#4 $)

>  <Rbt.Library>
libRbt.so (2013.1, Build901 2013/11/27)

>  <Rbt.Parameter_File>
/export/apps/rDock/src/rDock_2013.1_src/data/scripts/dock_solv.prm

>  <Rbt.Receptor>
prm/pocket_docking_7.prm

>  <SCORE>
-25.9568

>  <SCORE.INTER>
-22.4437

>  <SCORE.INTER.CONST>
1

>  <SCORE.INTER.POLAR>
-4.08881

>  <SCORE.INTER.ROT>
5

>  <SCORE.INTER.SOLV>
15.5969

>  <SCORE.INTER.VDW>
-13.4654

>  <SCORE.INTER.norm>
-1.87031

>  <SCORE.INTRA>
-3.51315

>  <SCORE.INTRA.DIHEDRAL>
0.0580742

>  <SCORE.INTRA.DIHEDRAL.0>
7.7847

>  <SCORE.INTRA.POLAR>
0

>  <SCORE.INTRA.POLAR.0>
0

>  <SCORE.INTRA.REPUL>
0

>  <SCORE.INTRA.REPUL.0>
0

>  <SCORE.INTRA.SOLV>
-2.40219

>  <SCORE.INTRA.SOLV.lig_0>
-57.5465

>  <SCORE.INTRA.VDW>
-2.34109

>  <SCORE.INTRA.VDW.0>
1.39369

>  <SCORE.INTRA.norm>
-0.292762

>  <SCORE.RESTR>
0

>  <SCORE.RESTR.CAVITY>
0

>  <SCORE.RESTR.norm>
0

>  <SCORE.SYSTEM>
0

>  <SCORE.SYSTEM.CONST>
0

>  <SCORE.SYSTEM.DIHEDRAL>
0

>  <SCORE.SYSTEM.SOLV>
0

>  <SCORE.SYSTEM.norm>
0

>  <SCORE.heavy>
12

>  <SCORE.norm>
-2.16307

>  <SYMMETRIC_BONDS>
4 1 2

>  <RMSD>
2.627

$$$$
1kod cryst
 OpenBabel11021811393D
libRbt.so/2013.1/901 2013/11/27
 12 11  0  0  0  0  0  0  0  0999 V2000
    2.7303    6.1626   35.6381 C   0  0  0  0  0  0  0  0  0  0  0  0
    3.9341    6.3722   35.6487 O   0  5  0  0  0  0  0  0  0  0  0  0
    2.0687    5.9398   36.6443 O   0  0  0  0  0  0  0  0  0  0  0  0
    2.0063    6.1834   34.2773 C   0  0  1  0  0  0  0  0  0  0  0  0
    2.5758    7.2756   33.4304 N   0  3  0  0  0  0  0  0  0  0  0  0
    2.1690    4.8284   33.5495 C   0  0  0  0  0  0  0  0  0  0  0  0
    1.4307    3.7259   34.2975 C   0  0  0  0  0  0  0  0  0  0  0  0
    1.5985    2.3985   33.5616 C   0  0  0  0  0  0  0  0  0  0  0  0
    2.5506    1.5346   34.3271 N   0  0  0  0  0  0  0  0  0  0  0  0
    2.4646    1.4401   35.6270 C   0  0  0  0  0  0  0  0  0  0  0  0
    3.4436    1.6550   36.3383 O   0  0  0  0  0  0  0  0  0  0  0  0
    1.3359    1.1000   36.1781 N   0  0  0  0  0  0  0  0  0  0  0  0
  1  2  1  0  0  0  0
  1  3  2  0  0  0  0
  4  1  1  1  0  0  0
  4  6  1  0  0  0  0
  4  5  1  0  0  0  0
  6  7  1  0  0  0  0
  7  8  1  0  0  0  0
  8  9  1  0  0  0  0
  9 10  1  0  0  0  0
 10 12  1  0  0  0  0
 10 11  2  0  0  0  0
M  CHG  2   2  -1   5   1
M  END
>  <CHROM.1>
-38.70938694,67.12416596,-64.14144482,179.79157706,106.34302621,-136.41860936
2.37667432,4.07245336,34.97097490,-1.30383918,1.22498188,2.75073799

>  <Name>
1kod cryst

>  <RI>
0

>  <Rbt.Current_Directory>
/home/itssahil/PROJECTS/Mol_Feturizer/New_Systems/rnas/1kod

>  <Rbt.Executable>
rbdock ($Id: //depot/dev/client3/rdock/2013.1/src/exe/rbdock.cxx#4 $)

>  <Rbt.Library>
libRbt.so (2013.1, Build901 2013/11/27)

>  <Rbt.Parameter_File>
/export/apps/rDock/src/rDock_2013.1_src/data/scripts/dock_solv.prm

>  <Rbt.Receptor>
prm/pocket_docking_4.prm

>  <SCORE>
-22.9938

>  <SCORE.INTER>
-19.8155

>  <SCORE.INTER.CONST>
1

>  <SCORE.INTER.POLAR>
-3.35811

>  <SCORE.INTER.ROT>
5

>  <SCORE.INTER.SOLV>
12.4146

>  <SCORE.INTER.VDW>
-13.0882

>  <SCORE.INTER.norm>
-1.65129

>  <SCORE.INTRA>
-3.17913

>  <SCORE.INTRA.DIHEDRAL>
-0.477576

>  <SCORE.INTRA.DIHEDRAL.0>
7.7847

>  <SCORE.INTRA.POLAR>
0

>  <SCORE.INTRA.POLAR.0>
0

>  <SCORE.INTRA.REPUL>
0

>  <SCORE.INTRA.REPUL.0>
0

>  <SCORE.INTRA.SOLV>
-2.10927

>  <SCORE.INTRA.SOLV.lig_0>
-57.5465

>  <SCORE.INTRA.VDW>
-1.88571

>  <SCORE.INTRA.VDW.0>
1.39369

>  <SCORE.INTRA.norm>
-0.264928

>  <SCORE.RESTR>
0.000871655

>  <SCORE.RESTR.CAVITY>
0.000871655

>  <SCORE.RESTR.norm>
7.26379e-05

>  <SCORE.SYSTEM>
0

>  <SCORE.SYSTEM.CONST>
0

>  <SCORE.SYSTEM.DIHEDRAL>
0

>  <SCORE.SYSTEM.SOLV>
0

>  <SCORE.SYSTEM.norm>
0

>  <SCORE.heavy>
12

>  <SCORE.norm>
-1.91615

>  <SYMMETRIC_BONDS>
4 1 2

>  <RMSD>
2.628

$$$$
1kod cryst
 OpenBabel11021811393D
libRbt.so/2013.1/901 2013/11/27
 12 11  0  0  0  0  0  0  0  0999 V2000
    3.0419    6.1267   35.4127 C   0  0  0  0  0  0  0  0  0  0  0  0
    2.6964    6.2937   36.5729 O   0  5  0  0  0  0  0  0  0  0  0  0
    4.1719    5.7923   35.0799 O   0  0  0  0  0  0  0  0  0  0  0  0
    1.9902    6.3483   34.3077 C   0  0  1  0  0  0  0  0  0  0  0  0
    2.4629    7.4237   33.3832 N   0  3  0  0  0  0  0  0  0  0  0  0
    1.7546    5.0464   33.5067 C   0  0  0  0  0  0  0  0  0  0  0  0
    0.7470    4.1535   34.2190 C   0  0  0  0  0  0  0  0  0  0  0  0
    1.4298    3.4167   35.3691 C   0  0  0  0  0  0  0  0  0  0  0  0
    2.3409    2.3723   34.8055 N   0  0  0  0  0  0  0  0  0  0  0  0
    2.6153    1.2918   35.4861 C   0  0  0  0  0  0  0  0  0  0  0  0
    3.7802    0.9598   35.6942 O   0  0  0  0  0  0  0  0  0  0  0  0
    1.6479    0.5479   35.9376 N   0  0  0  0  0  0  0  0  0  0  0  0
  1  2  1  0  0  0  0
  1  3  2  0  0  0  0
  4  1  1  1  0  0  0
  4  6  1  0  0  0  0
  4  5  1  0  0  0  0
  6  7  1  0  0  0  0
  7  8  1  0  0  0  0
  8  9  1  0  0  0  0
  9 10  1  0  0  0  0
 10 12  1  0  0  0  0
 10 11  2  0  0  0  0
M  CHG  2   2  -1   5   1
M  END
>  <CHROM.1>
120.50427094,83.90621013,-165.86177149,-78.76639410,-71.64342274,27.79141088
2.41368654,4.15870996,34.97704338,-1.53221267,0.64353621,2.91563362

>  <Name>
1kod cryst

>  <RI>
0

>  <Rbt.Current_Directory>
/home/itssahil/PROJECTS/Mol_Feturizer/New_Systems/rnas/1kod

>  <Rbt.Executable>
rbdock ($Id: //depot/dev/client3/rdock/2013.1/src/exe/rbdock.cxx#4 $)

>  <Rbt.Library>
libRbt.so (2013.1, Build901 2013/11/27)

>  <Rbt.Parameter_File>
/export/apps/rDock/src/rDock_2013.1_src/data/scripts/dock_solv.prm

>  <Rbt.Receptor>
prm/pocket_docking_5.prm

>  <SCORE>
-25.987

>  <SCORE.INTER>
-22.3682

>  <SCORE.INTER.CONST>
1

>  <SCORE.INTER.POLAR>
-3.92599

>  <SCORE.INTER.ROT>
5

>  <SCORE.INTER.SOLV>
13.7564

>  <SCORE.INTER.VDW>
-13.3443

>  <SCORE.INTER.norm>
-1.86402

>  <SCORE.INTRA>
-3.6188

>  <SCORE.INTRA.DIHEDRAL>
-1.45449

>  <SCORE.INTRA.DIHEDRAL.0>
7.7847

>  <SCORE.INTRA.POLAR>
0

>  <SCORE.INTRA.POLAR.0>
0

>  <SCORE.INTRA.REPUL>
0

>  <SCORE.INTRA.REPUL.0>
0

>  <SCORE.INTRA.SOLV>
-0.971941

>  <SCORE.INTRA.SOLV.lig_0>
-57.5465

>  <SCORE.INTRA.VDW>
-2.40558

>  <SCORE.INTRA.VDW.0>
1.39369

>  <SCORE.INTRA.norm>
-0.301566

>  <SCORE.RESTR>
0

>  <SCORE.RESTR.CAVITY>
0

>  <SCORE.RESTR.norm>
0

>  <SCORE.SYSTEM>
0

>  <SCORE.SYSTEM.CONST>
0

>  <SCORE.SYSTEM.DIHEDRAL>
0

>  <SCORE.SYSTEM.SOLV>
0

>  <SCORE.SYSTEM.norm>
0

>  <SCORE.heavy>
12

>  <SCORE.norm>
-2.16559

>  <SYMMETRIC_BONDS>
4 1 2

>  <RMSD>
2.629

$$$$
1kod cryst
 OpenBabel11021811393D
libRbt.so/2013.1/901 2013/11/27
 12 11  0  0  0  0  0  0  0  0999 V2000
    3.9180    5.6169   34.9587 C   0  0  0  0  0  0  0  0  0  0  0  0
    4.8214    5.9076   34.1889 O   0  5  0  0  0  0  0  0  0  0  0  0
    4.0175    5.6728   36.1779 O   0  0  0  0  0  0  0  0  0  0  0  0
    2.5763    5.1560   34.3554 C   0  0  1  0  0  0  0  0  0  0  0  0
    2.1869    6.0826   33.2489 N   0  3  0  0  0  0  0  0  0  0  0  0
    2.6894    3.7148   33.8053 C   0  0  0  0  0  0  0  0  0  0  0  0
    1.3284    3.0310   33.8095 C   0  0  0  0  0  0  0  0  0  0  0  0
    1.4685    1.5952   33.3088 C   0  0  0  0  0  0  0  0  0  0  0  0
    2.4684    0.8782   34.1601 N   0  0  0  0  0  0  0  0  0  0  0  0
    2.1716    0.5289   35.3832 C   0  0  0  0  0  0  0  0  0  0  0  0
    2.8957    0.8529   36.3219 O   0  0  0  0  0  0  0  0  0  0  0  0
    1.1068   -0.1828   35.6129 N   0  0  0  0  0  0  0  0  0  0  0  0
  1  2  1  0  0  0  0
  1  3  2  0  0  0  0
  4  1  1  6  0  0  0
  4  6  1  0  0  0  0
  4  5  1  0  0  0  0
  6  7  1  0  0  0  0
  7  8  1  0  0  0  0
  8  9  1  0  0  0  0
  9 10  1  0  0  0  0
 10 12  1  0  0  0  0
 10 11  2  0  0  0  0
M  CHG  2   2  -1   5   1
M  END
>  <CHROM.1>
-46.30030715,153.91353149,27.65172951,-178.06652018,56.50907325,-107.31399321
2.64431724,3.25691242,34.61180344,-1.07653676,0.85707563,2.63210191

>  <Name>
1kod cryst

>  <RI>
0

>  <Rbt.Current_Directory>
/home/itssahil/PROJECTS/Mol_Feturizer/New_Systems/rnas/1kod

>  <Rbt.Executable>
rbdock ($Id: //depot/dev/client3/rdock/2013.1/src/exe/rbdock.cxx#4 $)

>  <Rbt.Library>
libRbt.so (2013.1, Build901 2013/11/27)

>  <Rbt.Parameter_File>
/export/apps/rDock/src/rDock_2013.1_src/data/scripts/dock_solv.prm

>  <Rbt.Receptor>
prm/pocket_docking_8.prm

>  <SCORE>
-22.5665

>  <SCORE.INTER>
-18.903

>  <SCORE.INTER.CONST>
1

>  <SCORE.INTER.POLAR>
-3.1833

>  <SCORE.INTER.ROT>
5

>  <SCORE.INTER.SOLV>
18.2749

>  <SCORE.INTER.VDW>
-15.016

>  <SCORE.INTER.norm>
-1.57525

>  <SCORE.INTRA>
-3.66345

>  <SCORE.INTRA.DIHEDRAL>
-1.41222

>  <SCORE.INTRA.DIHEDRAL.0>
7.7847

>  <SCORE.INTRA.POLAR>
0

>  <SCORE.INTRA.POLAR.0>
0

>  <SCORE.INTRA.REPUL>
0

>  <SCORE.INTRA.REPUL.0>
0

>  <SCORE.INTRA.SOLV>
-1.94524

>  <SCORE.INTRA.SOLV.lig_0>
-57.5465

>  <SCORE.INTRA.VDW>
-1.98472

>  <SCORE.INTRA.VDW.0>
1.39369

>  <SCORE.INTRA.norm>
-0.305287

>  <SCORE.RESTR>
0

>  <SCORE.RESTR.CAVITY>
0

>  <SCORE.RESTR.norm>
0

>  <SCORE.SYSTEM>
0

>  <SCORE.SYSTEM.CONST>
0

>  <SCORE.SYSTEM.DIHEDRAL>
0

>  <SCORE.SYSTEM.SOLV>
0

>  <SCORE.SYSTEM.norm>
0

>  <SCORE.heavy>
12

>  <SCORE.norm>
-1.88054

>  <SYMMETRIC_BONDS>
4 1 2

>  <RMSD>
2.630

$$$$
1kod cryst
 OpenBabel11021811393D
libRbt.so/2013.1/901 2013/11/27
 12 11  0  0  0  0  0  0  0  0999 V2000
    3.7910    7.3066   35.4086 C   0  0  0  0  0  0  0  0  0  0  0  0
    3.7977    6.9095   36.5643 O   0  5  0  0  0  0  0  0  0  0  0  0
    4.6887    7.9762   34.9131 O   0  0  0  0  0  0  0  0  0  0  0  0
    2.5817    6.9387   34.5263 C   0  0  1  0  0  0  0  0  0  0  0  0
    2.6009    7.7742   33.2868 N   0  3  0  0  0  0  0  0  0  0  0  0
    2.6209    5.4417   34.1398 C   0  0  0  0  0  0  0  0  0  0  0  0
    1.3112    5.0224   33.4850 C   0  0  0  0  0  0  0  0  0  0  0  0
    0.8876    3.6507   34.0055 C   0  0  0  0  0  0  0  0  0  0  0  0
    1.6952    2.5974   33.3149 N   0  0  0  0  0  0  0  0  0  0  0  0
    1.2059    1.4010   33.1268 C   0  0  0  0  0  0  0  0  0  0  0  0
    1.8227    0.4049   33.4981 O   0  0  0  0  0  0  0  0  0  0  0  0
    0.0605    1.2571   32.5265 N   0  0  0  0  0  0  0  0  0  0  0  0
  1  2  1  0  0  0  0
  1  3  2  0  0  0  0
  4  1  1  1  0  0  0
  4  6  1  0  0  0  0
  4  5  1  0  0  0  0
  6  7  1  0  0  0  0
  7  8  1  0  0  0  0
  8  9  1  0  0  0  0
  9 10  1  0  0  0  0
 10 12  1  0  0  0  0
 10 11  2  0  0  0  0
M  CHG  2   2  -1   5   1
M  END
>  <CHROM.1>
166.46748773,169.86327421,-159.17313471,-138.34180662,-78.17086016,28.97158424
2.26584050,4.73638917,34.04577339,-0.96951942,0.82881482,2.97111945

>  <Name>
1kod cryst

>  <RI>
0

>  <Rbt.Current_Directory>
/home/itssahil/PROJECTS/Mol_Feturizer/New_Systems/rnas/1kod

>  <Rbt.Executable>
rbdock ($Id: //depot/dev/client3/rdock/2013.1/src/exe/rbdock.cxx#4 $)

>  <Rbt.Library>
libRbt.so (2013.1, Build901 2013/11/27)

>  <Rbt.Parameter_File>
/export/apps/rDock/src/rDock_2013.1_src/data/scripts/dock_solv.prm

>  <Rbt.Receptor>
prm/pocket_docking_8.prm

>  <SCORE>
-26.0285

>  <SCORE.INTER>
-23.6434

>  <SCORE.INTER.CONST>
1

>  <SCORE.INTER.POLAR>
-3.89708

>  <SCORE.INTER.ROT>
5

>  <SCORE.INTER.SOLV>
16.2511

>  <SCORE.INTER.VDW>
-15.1224

>  <SCORE.INTER.norm>
-1.97028

>  <SCORE.INTRA>
-2.38511

>  <SCORE.INTRA.DIHEDRAL>
1.75098

>  <SCORE.INTRA.DIHEDRAL.0>
7.7847

>  <SCORE.INTRA.POLAR>
0

>  <SCORE.INTRA.POLAR.0>
0

>  <SCORE.INTRA.REPUL>
0

>  <SCORE.INTRA.REPUL.0>
0

>  <SCORE.INTRA.SOLV>
-2.26131

>  <SCORE.INTRA.SOLV.lig_0>
-57.5465

>  <SCORE.INTRA.VDW>
-2.12995

>  <SCORE.INTRA.VDW.0>
1.39369

>  <SCORE.INTRA.norm>
-0.198759

>  <SCORE.RESTR>
0

>  <SCORE.RESTR.CAVITY>
0

>  <SCORE.RESTR.norm>
0

>  <SCORE.SYSTEM>
0

>  <SCORE.SYSTEM.CONST>
0

>  <SCORE.SYSTEM.DIHEDRAL>
0

>  <SCORE.SYSTEM.SOLV>
0

>  <SCORE.SYSTEM.norm>
0

>  <SCORE.heavy>
12

>  <SCORE.norm>
-2.16904

>  <SYMMETRIC_BONDS>
4 1 2

>  <RMSD>
2.637

$$$$
1kod cryst
 OpenBabel11021811393D
libRbt.so/2013.1/901 2013/11/27
 12 11  0  0  0  0  0  0  0  0999 V2000
    2.3405    6.2579   35.6709 C   0  0  0  0  0  0  0  0  0  0  0  0
    3.5211    6.4941   35.8805 O   0  5  0  0  0  0  0  0  0  0  0  0
    1.5167    6.0656   36.5563 O   0  0  0  0  0  0  0  0  0  0  0  0
    1.8649    6.2025   34.2057 C   0  0  1  0  0  0  0  0  0  0  0  0
    2.5380    7.2855   33.4255 N   0  3  0  0  0  0  0  0  0  0  0  0
    2.1959    4.8300   33.5740 C   0  0  0  0  0  0  0  0  0  0  0  0
    1.2541    3.7557   34.1018 C   0  0  0  0  0  0  0  0  0  0  0  0
    1.5518    2.4236   33.4171 C   0  0  0  0  0  0  0  0  0  0  0  0
    2.5189    1.6501   34.2568 N   0  0  0  0  0  0  0  0  0  0  0  0
    2.4303    1.6677   35.5598 C   0  0  0  0  0  0  0  0  0  0  0  0
    3.4021    1.9644   36.2513 O   0  0  0  0  0  0  0  0  0  0  0  0
    1.3070    1.3534   36.1366 N   0  0  0  0  0  0  0  0  0  0  0  0
  1  2  1  0  0  0  0
  1  3  2  0  0  0  0
  4  1  1  1  0  0  0
  4  6  1  0  0  0  0
  4  5  1  0  0  0  0
  6  7  1  0  0  0  0
  7  8  1  0  0  0  0
  8  9  1  0  0  0  0
  9 10  1  0  0  0  0
 10 12  1  0  0  0  0
 10 11  2  0  0  0  0
M  CHG  2   2  -1   5   1
M  END
>  <CHROM.1>
-39.82333662,74.22526512,-175.53223519,177.26770169,93.16395499,-141.61733299
2.22089419,4.18539886,34.93355231,-1.32110715,1.35613224,2.79764191

>  <Name>
1kod cryst

>  <RI>
0

>  <Rbt.Current_Directory>
/home/itssahil/PROJECTS/Mol_Feturizer/New_Systems/rnas/1kod

>  <Rbt.Executable>
rbdock ($Id: //depot/dev/client3/rdock/2013.1/src/exe/rbdock.cxx#4 $)

>  <Rbt.Library>
libRbt.so (2013.1, Build901 2013/11/27)

>  <Rbt.Parameter_File>
/export/apps/rDock/src/rDock_2013.1_src/data/scripts/dock_solv.prm

>  <Rbt.Receptor>
prm/pocket_docking_4.prm

>  <SCORE>
-23.365

>  <SCORE.INTER>
-19.7039

>  <SCORE.INTER.CONST>
1

>  <SCORE.INTER.POLAR>
-3.40728

>  <SCORE.INTER.ROT>
5

>  <SCORE.INTER.SOLV>
12.4654

>  <SCORE.INTER.VDW>
-12.8668

>  <SCORE.INTER.norm>
-1.64199

>  <SCORE.INTRA>
-3.66115

>  <SCORE.INTRA.DIHEDRAL>
-1.56752

>  <SCORE.INTRA.DIHEDRAL.0>
7.7847

>  <SCORE.INTRA.POLAR>
0

>  <SCORE.INTRA.POLAR.0>
0

>  <SCORE.INTRA.REPUL>
0

>  <SCORE.INTRA.REPUL.0>
0

>  <SCORE.INTRA.SOLV>
-2.07451

>  <SCORE.INTRA.SOLV.lig_0>
-57.5465

>  <SCORE.INTRA.VDW>
-1.84013

>  <SCORE.INTRA.VDW.0>
1.39369

>  <SCORE.INTRA.norm>
-0.305096

>  <SCORE.RESTR>
0

>  <SCORE.RESTR.CAVITY>
0

>  <SCORE.RESTR.norm>
0

>  <SCORE.SYSTEM>
0

>  <SCORE.SYSTEM.CONST>
0

>  <SCORE.SYSTEM.DIHEDRAL>
0

>  <SCORE.SYSTEM.SOLV>
0

>  <SCORE.SYSTEM.norm>
0

>  <SCORE.heavy>
12

>  <SCORE.norm>
-1.94708

>  <SYMMETRIC_BONDS>
4 1 2

>  <RMSD>
2.643

$$$$
1kod cryst
 OpenBabel11021811393D
libRbt.so/2013.1/901 2013/11/27
 12 11  0  0  0  0  0  0  0  0999 V2000
    2.4505    7.2879   35.6006 C   0  0  0  0  0  0  0  0  0  0  0  0
    3.3762    8.0698   35.7593 O   0  5  0  0  0  0  0  0  0  0  0  0
    1.8201    6.7830   36.5210 O   0  0  0  0  0  0  0  0  0  0  0  0
    2.0555    6.9210   34.1565 C   0  0  1  0  0  0  0  0  0  0  0  0
    2.5163    7.9985   33.2284 N   0  3  0  0  0  0  0  0  0  0  0  0
    2.6921    5.5744   33.7398 C   0  0  0  0  0  0  0  0  0  0  0  0
    1.7272    4.4237   33.9940 C   0  0  0  0  0  0  0  0  0  0  0  0
    2.3235    3.1211   33.4655 C   0  0  0  0  0  0  0  0  0  0  0  0
    1.3387    2.0144   33.6755 N   0  0  0  0  0  0  0  0  0  0  0  0
    1.7307    0.8516   34.1231 C   0  0  0  0  0  0  0  0  0  0  0  0
    1.4510   -0.1809   33.5178 O   0  0  0  0  0  0  0  0  0  0  0  0
    2.4118    0.7798   35.2294 N   0  0  0  0  0  0  0  0  0  0  0  0
  1  2  1  0  0  0  0
  1  3  2  0  0  0  0
  4  1  1  1  0  0  0
  4  6  1  0  0  0  0
  4  5  1  0  0  0  0
  6  7  1  0  0  0  0
  7  8  1  0  0  0  0
  8  9  1  0  0  0  0
  9 10  1  0  0  0  0
 10 12  1  0  0  0  0
 10 11  2  0  0  0  0
M  CHG  2   2  -1   5   1
M  END
>  <CHROM.1>
-22.74579274,94.00515518,60.76688673,175.09027062,-177.77423032,43.28095395
2.16553483,4.48899222,34.42234962,-0.52719896,1.43338496,2.23197684

>  <Name>
1kod cryst

>  <RI>
0

>  <Rbt.Current_Directory>
/home/itssahil/PROJECTS/Mol_Feturizer/New_Systems/rnas/1kod

>  <Rbt.Executable>
rbdock ($Id: //depot/dev/client3/rdock/2013.1/src/exe/rbdock.cxx#4 $)

>  <Rbt.Library>
libRbt.so (2013.1, Build901 2013/11/27)

>  <Rbt.Parameter_File>
/export/apps/rDock/src/rDock_2013.1_src/data/scripts/dock_solv.prm

>  <Rbt.Receptor>
prm/pocket_docking_6.prm

>  <SCORE>
-22.6881

>  <SCORE.INTER>
-17.5448

>  <SCORE.INTER.CONST>
1

>  <SCORE.INTER.POLAR>
-2.84595

>  <SCORE.INTER.ROT>
5

>  <SCORE.INTER.SOLV>
15.4645

>  <SCORE.INTER.VDW>
-14.2982

>  <SCORE.INTER.norm>
-1.46207

>  <SCORE.INTRA>
-5.14325

>  <SCORE.INTRA.DIHEDRAL>
-2.3225

>  <SCORE.INTRA.DIHEDRAL.0>
7.7847

>  <SCORE.INTRA.POLAR>
0

>  <SCORE.INTRA.POLAR.0>
0

>  <SCORE.INTRA.REPUL>
0

>  <SCORE.INTRA.REPUL.0>
0

>  <SCORE.INTRA.SOLV>
-2.7891

>  <SCORE.INTRA.SOLV.lig_0>
-57.5465

>  <SCORE.INTRA.VDW>
-2.58745

>  <SCORE.INTRA.VDW.0>
1.39369

>  <SCORE.INTRA.norm>
-0.428604

>  <SCORE.RESTR>
0

>  <SCORE.RESTR.CAVITY>
0

>  <SCORE.RESTR.norm>
0

>  <SCORE.SYSTEM>
0

>  <SCORE.SYSTEM.CONST>
0

>  <SCORE.SYSTEM.DIHEDRAL>
0

>  <SCORE.SYSTEM.SOLV>
0

>  <SCORE.SYSTEM.norm>
0

>  <SCORE.heavy>
12

>  <SCORE.norm>
-1.89067

>  <SYMMETRIC_BONDS>
4 1 2

>  <RMSD>
2.645

$$$$
1kod cryst
 OpenBabel11021811393D
libRbt.so/2013.1/901 2013/11/27
 12 11  0  0  0  0  0  0  0  0999 V2000
    2.8654    6.1867   35.4952 C   0  0  0  0  0  0  0  0  0  0  0  0
    4.0658    6.0488   35.3126 O   0  5  0  0  0  0  0  0  0  0  0  0
    2.3423    6.2040   36.6023 O   0  0  0  0  0  0  0  0  0  0  0  0
    1.9615    6.3506   34.2573 C   0  0  1  0  0  0  0  0  0  0  0  0
    2.4849    7.4625   33.4061 N   0  3  0  0  0  0  0  0  0  0  0  0
    1.9218    5.0436   33.4312 C   0  0  0  0  0  0  0  0  0  0  0  0
    0.8543    4.1005   33.9707 C   0  0  0  0  0  0  0  0  0  0  0  0
    1.3993    3.3357   35.1748 C   0  0  0  0  0  0  0  0  0  0  0  0
    2.3697    2.3022   34.6965 N   0  0  0  0  0  0  0  0  0  0  0  0
    2.6384    1.2536   35.4274 C   0  0  0  0  0  0  0  0  0  0  0  0
    3.7995    0.9648   35.7083 O   0  0  0  0  0  0  0  0  0  0  0  0
    1.6701    0.4952   35.8520 N   0  0  0  0  0  0  0  0  0  0  0  0
  1  2  1  0  0  0  0
  1  3  2  0  0  0  0
  4  1  1  1  0  0  0
  4  6  1  0  0  0  0
  4  5  1  0  0  0  0
  6  7  1  0  0  0  0
  7  8  1  0  0  0  0
  8  9  1  0  0  0  0
  9 10  1  0  0  0  0
 10 12  1  0  0  0  0
 10 11  2  0  0  0  0
M  CHG  2   2  -1   5   1
M  END
>  <CHROM.1>
-53.16427992,85.80544297,-41.16349772,-81.73447460,-73.64572135,22.63759421
2.38741221,4.15804058,34.94402318,-1.54314076,0.79176613,2.94192608

>  <Name>
1kod cryst

>  <RI>
0

>  <Rbt.Current_Directory>
/home/itssahil/PROJECTS/Mol_Feturizer/New_Systems/rnas/1kod

>  <Rbt.Executable>
rbdock ($Id: //depot/dev/client3/rdock/2013.1/src/exe/rbdock.cxx#4 $)

>  <Rbt.Library>
libRbt.so (2013.1, Build901 2013/11/27)

>  <Rbt.Parameter_File>
/export/apps/rDock/src/rDock_2013.1_src/data/scripts/dock_solv.prm

>  <Rbt.Receptor>
prm/pocket_docking_8.prm

>  <SCORE>
-25.6173

>  <SCORE.INTER>
-22.4313

>  <SCORE.INTER.CONST>
1

>  <SCORE.INTER.POLAR>
-3.86227

>  <SCORE.INTER.ROT>
5

>  <SCORE.INTER.SOLV>
13.5189

>  <SCORE.INTER.VDW>
-13.5196

>  <SCORE.INTER.norm>
-1.86927

>  <SCORE.INTRA>
-3.18603

>  <SCORE.INTRA.DIHEDRAL>
-0.281217

>  <SCORE.INTRA.DIHEDRAL.0>
7.7847

>  <SCORE.INTRA.POLAR>
0

>  <SCORE.INTRA.POLAR.0>
0

>  <SCORE.INTRA.REPUL>
0

>  <SCORE.INTRA.REPUL.0>
0

>  <SCORE.INTRA.SOLV>
-1.28569

>  <SCORE.INTRA.SOLV.lig_0>
-57.5465

>  <SCORE.INTRA.VDW>
-2.40257

>  <SCORE.INTRA.VDW.0>
1.39369

>  <SCORE.INTRA.norm>
-0.265502

>  <SCORE.RESTR>
0

>  <SCORE.RESTR.CAVITY>
0

>  <SCORE.RESTR.norm>
0

>  <SCORE.SYSTEM>
0

>  <SCORE.SYSTEM.CONST>
0

>  <SCORE.SYSTEM.DIHEDRAL>
0

>  <SCORE.SYSTEM.SOLV>
0

>  <SCORE.SYSTEM.norm>
0

>  <SCORE.heavy>
12

>  <SCORE.norm>
-2.13478

>  <SYMMETRIC_BONDS>
4 1 2

>  <RMSD>
2.645

$$$$
1kod cryst
 OpenBabel11021811393D
libRbt.so/2013.1/901 2013/11/27
 12 11  0  0  0  0  0  0  0  0999 V2000
    2.5685    7.2747   35.5575 C   0  0  0  0  0  0  0  0  0  0  0  0
    3.6579    7.8210   35.6475 O   0  5  0  0  0  0  0  0  0  0  0  0
    1.8707    6.9838   36.5209 O   0  0  0  0  0  0  0  0  0  0  0  0
    2.0452    6.9364   34.1476 C   0  0  1  0  0  0  0  0  0  0  0  0
    2.4341    8.0259   33.2008 N   0  3  0  0  0  0  0  0  0  0  0  0
    2.6294    5.5919   33.6545 C   0  0  0  0  0  0  0  0  0  0  0  0
    1.6677    4.4485   33.9508 C   0  0  0  0  0  0  0  0  0  0  0  0
    2.2910    3.1225   33.5207 C   0  0  0  0  0  0  0  0  0  0  0  0
    1.2990    2.0243   33.7408 N   0  0  0  0  0  0  0  0  0  0  0  0
    1.6851    0.8592   34.1876 C   0  0  0  0  0  0  0  0  0  0  0  0
    1.3924   -0.1721   33.5867 O   0  0  0  0  0  0  0  0  0  0  0  0
    2.3744    0.7841   35.2887 N   0  0  0  0  0  0  0  0  0  0  0  0
  1  2  1  0  0  0  0
  1  3  2  0  0  0  0
  4  1  1  1  0  0  0
  4  6  1  0  0  0  0
  4  5  1  0  0  0  0
  6  7  1  0  0  0  0
  7  8  1  0  0  0  0
  8  9  1  0  0  0  0
  9 10  1  0  0  0  0
 10 12  1  0  0  0  0
 10 11  2  0  0  0  0
M  CHG  2   2  -1   5   1
M  END
>  <CHROM.1>
-36.98841925,95.01257038,94.28232094,-177.18342071,-176.50757876,38.90511623
2.16726517,4.49365818,34.42163590,-0.81424134,1.37535189,2.50794324

>  <Name>
1kod cryst

>  <RI>
0

>  <Rbt.Current_Directory>
/home/itssahil/PROJECTS/Mol_Feturizer/New_Systems/rnas/1kod

>  <Rbt.Executable>
rbdock ($Id: //depot/dev/client3/rdock/2013.1/src/exe/rbdock.cxx#4 $)

>  <Rbt.Library>
libRbt.so (2013.1, Build901 2013/11/27)

>  <Rbt.Parameter_File>
/export/apps/rDock/src/rDock_2013.1_src/data/scripts/dock_solv.prm

>  <Rbt.Receptor>
prm/pocket_docking_7.prm

>  <SCORE>
-24.065

>  <SCORE.INTER>
-20.3947

>  <SCORE.INTER.CONST>
1

>  <SCORE.INTER.POLAR>
-3.48442

>  <SCORE.INTER.ROT>
5

>  <SCORE.INTER.SOLV>
15.468

>  <SCORE.INTER.VDW>
-14.0711

>  <SCORE.INTER.norm>
-1.69956

>  <SCORE.INTRA>
-3.67024

>  <SCORE.INTRA.DIHEDRAL>
-0.0378175

>  <SCORE.INTRA.DIHEDRAL.0>
7.7847

>  <SCORE.INTRA.POLAR>
0

>  <SCORE.INTRA.POLAR.0>
0

>  <SCORE.INTRA.REPUL>
0

>  <SCORE.INTRA.REPUL.0>
0

>  <SCORE.INTRA.SOLV>
-2.96215

>  <SCORE.INTRA.SOLV.lig_0>
-57.5465

>  <SCORE.INTRA.VDW>
-2.17026

>  <SCORE.INTRA.VDW.0>
1.39369

>  <SCORE.INTRA.norm>
-0.305854

>  <SCORE.RESTR>
0

>  <SCORE.RESTR.CAVITY>
0

>  <SCORE.RESTR.norm>
0

>  <SCORE.SYSTEM>
0

>  <SCORE.SYSTEM.CONST>
0

>  <SCORE.SYSTEM.DIHEDRAL>
0

>  <SCORE.SYSTEM.SOLV>
0

>  <SCORE.SYSTEM.norm>
0

>  <SCORE.heavy>
12

>  <SCORE.norm>
-2.00541

>  <SYMMETRIC_BONDS>
4 1 2

>  <RMSD>
2.651

$$$$
1kod cryst
 OpenBabel11021811393D
libRbt.so/2013.1/901 2013/11/27
 12 11  0  0  0  0  0  0  0  0999 V2000
    3.1308    6.3860   35.2714 C   0  0  0  0  0  0  0  0  0  0  0  0
    4.2747    6.1895   34.8890 O   0  5  0  0  0  0  0  0  0  0  0  0
    2.8018    6.4126   36.4506 O   0  0  0  0  0  0  0  0  0  0  0  0
    2.0428    6.6158   34.2038 C   0  0  1  0  0  0  0  0  0  0  0  0
    2.4795    7.7058   33.2787 N   0  3  0  0  0  0  0  0  0  0  0  0
    1.7885    5.3230   33.3938 C   0  0  0  0  0  0  0  0  0  0  0  0
    0.9941    4.3200   34.2202 C   0  0  0  0  0  0  0  0  0  0  0  0
    1.9139    3.6362   35.2293 C   0  0  0  0  0  0  0  0  0  0  0  0
    1.4427    2.2325   35.4442 N   0  0  0  0  0  0  0  0  0  0  0  0
    2.1344    1.2220   34.9898 C   0  0  0  0  0  0  0  0  0  0  0  0
    1.6075    0.3701   34.2775 O   0  0  0  0  0  0  0  0  0  0  0  0
    3.3914    1.1039   35.3048 N   0  0  0  0  0  0  0  0  0  0  0  0
  1  2  1  0  0  0  0
  1  3  2  0  0  0  0
  4  1  1  1  0  0  0
  4  6  1  0  0  0  0
  4  5  1  0  0  0  0
  6  7  1  0  0  0  0
  7  8  1  0  0  0  0
  8  9  1  0  0  0  0
  9 10  1  0  0  0  0
 10 12  1  0  0  0  0
 10 11  2  0  0  0  0
M  CHG  2   2  -1   5   1
M  END
>  <CHROM.1>
-52.74769120,74.73410989,-172.63377990,-77.51821011,-147.43113247,-70.64760901
2.35913962,4.30532752,34.74172373,-1.40276792,0.78167850,2.93865482

>  <Name>
1kod cryst

>  <RI>
0

>  <Rbt.Current_Directory>
/home/itssahil/PROJECTS/Mol_Feturizer/New_Systems/rnas/1kod

>  <Rbt.Executable>
rbdock ($Id: //depot/dev/client3/rdock/2013.1/src/exe/rbdock.cxx#4 $)

>  <Rbt.Library>
libRbt.so (2013.1, Build901 2013/11/27)

>  <Rbt.Parameter_File>
/export/apps/rDock/src/rDock_2013.1_src/data/scripts/dock_solv.prm

>  <Rbt.Receptor>
prm/pocket_docking_7.prm

>  <SCORE>
-23.0817

>  <SCORE.INTER>
-19.9351

>  <SCORE.INTER.CONST>
1

>  <SCORE.INTER.POLAR>
-3.87232

>  <SCORE.INTER.ROT>
5

>  <SCORE.INTER.SOLV>
14.1669

>  <SCORE.INTER.VDW>
-12.038

>  <SCORE.INTER.norm>
-1.66126

>  <SCORE.INTRA>
-3.14652

>  <SCORE.INTRA.DIHEDRAL>
-0.354837

>  <SCORE.INTRA.DIHEDRAL.0>
7.7847

>  <SCORE.INTRA.POLAR>
0

>  <SCORE.INTRA.POLAR.0>
0

>  <SCORE.INTRA.REPUL>
0

>  <SCORE.INTRA.REPUL.0>
0

>  <SCORE.INTRA.SOLV>
-1.45326

>  <SCORE.INTRA.SOLV.lig_0>
-57.5465

>  <SCORE.INTRA.VDW>
-2.24247

>  <SCORE.INTRA.VDW.0>
1.39369

>  <SCORE.INTRA.norm>
-0.26221

>  <SCORE.RESTR>
0

>  <SCORE.RESTR.CAVITY>
0

>  <SCORE.RESTR.norm>
0

>  <SCORE.SYSTEM>
0

>  <SCORE.SYSTEM.CONST>
0

>  <SCORE.SYSTEM.DIHEDRAL>
0

>  <SCORE.SYSTEM.SOLV>
0

>  <SCORE.SYSTEM.norm>
0

>  <SCORE.heavy>
12

>  <SCORE.norm>
-1.92347

>  <SYMMETRIC_BONDS>
4 1 2

>  <RMSD>
2.661

$$$$
1kod cryst
 OpenBabel11021811393D
libRbt.so/2013.1/901 2013/11/27
 12 11  0  0  0  0  0  0  0  0999 V2000
    4.0490    5.5489   34.6985 C   0  0  0  0  0  0  0  0  0  0  0  0
    4.5513    5.0429   35.6910 O   0  5  0  0  0  0  0  0  0  0  0  0
    4.5962    6.4109   34.0223 O   0  0  0  0  0  0  0  0  0  0  0  0
    2.6464    5.0694   34.2755 C   0  0  1  0  0  0  0  0  0  0  0  0
    2.1035    5.9890   33.2295 N   0  3  0  0  0  0  0  0  0  0  0  0
    2.7058    3.6289   33.7153 C   0  0  0  0  0  0  0  0  0  0  0  0
    1.3302    2.9769   33.7655 C   0  0  0  0  0  0  0  0  0  0  0  0
    1.4263    1.5277   33.2937 C   0  0  0  0  0  0  0  0  0  0  0  0
    2.4393    0.8101   34.1287 N   0  0  0  0  0  0  0  0  0  0  0  0
    2.1641    0.4662   35.3584 C   0  0  0  0  0  0  0  0  0  0  0  0
    2.9068    0.7909   36.2822 O   0  0  0  0  0  0  0  0  0  0  0  0
    1.1012   -0.2407   35.6105 N   0  0  0  0  0  0  0  0  0  0  0  0
  1  2  1  0  0  0  0
  1  3  2  0  0  0  0
  4  1  1  6  0  0  0
  4  6  1  0  0  0  0
  4  5  1  0  0  0  0
  6  7  1  0  0  0  0
  7  8  1  0  0  0  0
  8  9  1  0  0  0  0
  9 10  1  0  0  0  0
 10 12  1  0  0  0  0
 10 11  2  0  0  0  0
M  CHG  2   2  -1   5   1
M  END
>  <CHROM.1>
168.57770845,159.75283447,27.70299143,-176.35649682,55.94374127,-105.69067848
2.67352492,3.18739964,34.50655118,-1.12620477,0.73714005,2.66527227

>  <Name>
1kod cryst

>  <RI>
0

>  <Rbt.Current_Directory>
/home/itssahil/PROJECTS/Mol_Feturizer/New_Systems/rnas/1kod

>  <Rbt.Executable>
rbdock ($Id: //depot/dev/client3/rdock/2013.1/src/exe/rbdock.cxx#4 $)

>  <Rbt.Library>
libRbt.so (2013.1, Build901 2013/11/27)

>  <Rbt.Parameter_File>
/export/apps/rDock/src/rDock_2013.1_src/data/scripts/dock_solv.prm

>  <Rbt.Receptor>
prm/pocket_docking_4.prm

>  <SCORE>
-22.6057

>  <SCORE.INTER>
-18.9515

>  <SCORE.INTER.CONST>
1

>  <SCORE.INTER.POLAR>
-3.25168

>  <SCORE.INTER.ROT>
5

>  <SCORE.INTER.SOLV>
18.9335

>  <SCORE.INTER.VDW>
-15.0399

>  <SCORE.INTER.norm>
-1.57929

>  <SCORE.INTRA>
-3.65419

>  <SCORE.INTRA.DIHEDRAL>
-2.09521

>  <SCORE.INTRA.DIHEDRAL.0>
7.7847

>  <SCORE.INTRA.POLAR>
0

>  <SCORE.INTRA.POLAR.0>
0

>  <SCORE.INTRA.REPUL>
0

>  <SCORE.INTRA.REPUL.0>
0

>  <SCORE.INTRA.SOLV>
-1.73251

>  <SCORE.INTRA.SOLV.lig_0>
-57.5465

>  <SCORE.INTRA.VDW>
-1.74033

>  <SCORE.INTRA.VDW.0>
1.39369

>  <SCORE.INTRA.norm>
-0.304516

>  <SCORE.RESTR>
0

>  <SCORE.RESTR.CAVITY>
0

>  <SCORE.RESTR.norm>
0

>  <SCORE.SYSTEM>
0

>  <SCORE.SYSTEM.CONST>
0

>  <SCORE.SYSTEM.DIHEDRAL>
0

>  <SCORE.SYSTEM.SOLV>
0

>  <SCORE.SYSTEM.norm>
0

>  <SCORE.heavy>
12

>  <SCORE.norm>
-1.8838

>  <SYMMETRIC_BONDS>
4 1 2

>  <RMSD>
2.662

$$$$
1kod cryst
 OpenBabel11021811393D
libRbt.so/2013.1/901 2013/11/27
 12 11  0  0  0  0  0  0  0  0999 V2000
    3.5896    6.2093   35.2229 C   0  0  0  0  0  0  0  0  0  0  0  0
    3.4599    6.1271   36.4352 O   0  5  0  0  0  0  0  0  0  0  0  0
    4.6718    6.1841   34.6503 O   0  0  0  0  0  0  0  0  0  0  0  0
    2.3141    6.3500   34.3687 C   0  0  1  0  0  0  0  0  0  0  0  0
    2.4882    7.4760   33.4011 N   0  3  0  0  0  0  0  0  0  0  0  0
    2.0275    5.0430   33.5929 C   0  0  0  0  0  0  0  0  0  0  0  0
    2.0229    3.8485   34.5378 C   0  0  0  0  0  0  0  0  0  0  0  0
    1.8218    2.5601   33.7433 C   0  0  0  0  0  0  0  0  0  0  0  0
    2.5840    1.4559   34.4055 N   0  0  0  0  0  0  0  0  0  0  0  0
    2.3762    1.1649   35.6618 C   0  0  0  0  0  0  0  0  0  0  0  0
    3.3109    1.1188   36.4585 O   0  0  0  0  0  0  0  0  0  0  0  0
    1.1700    0.9054   36.0752 N   0  0  0  0  0  0  0  0  0  0  0  0
  1  2  1  0  0  0  0
  1  3  2  0  0  0  0
  4  1  1  6  0  0  0
  4  6  1  0  0  0  0
  4  5  1  0  0  0  0
  6  7  1  0  0  0  0
  7  8  1  0  0  0  0
  8  9  1  0  0  0  0
  9 10  1  0  0  0  0
 10 12  1  0  0  0  0
 10 11  2  0  0  0  0
M  CHG  2   2  -1   5   1
M  END
>  <CHROM.1>
131.28785200,52.11423198,-171.00839845,-176.63030084,146.46691015,-124.18605699
2.66575638,4.05544629,34.88280569,-1.30372123,0.88437801,2.73045056

>  <Name>
1kod cryst

>  <RI>
0

>  <Rbt.Current_Directory>
/home/itssahil/PROJECTS/Mol_Feturizer/New_Systems/rnas/1kod

>  <Rbt.Executable>
rbdock ($Id: //depot/dev/client3/rdock/2013.1/src/exe/rbdock.cxx#4 $)

>  <Rbt.Library>
libRbt.so (2013.1, Build901 2013/11/27)

>  <Rbt.Parameter_File>
/export/apps/rDock/src/rDock_2013.1_src/data/scripts/dock_solv.prm

>  <Rbt.Receptor>
prm/pocket_docking_4.prm

>  <SCORE>
-25.2757

>  <SCORE.INTER>
-21.5362

>  <SCORE.INTER.CONST>
1

>  <SCORE.INTER.POLAR>
-3.94641

>  <SCORE.INTER.ROT>
5

>  <SCORE.INTER.SOLV>
14.3449

>  <SCORE.INTER.VDW>
-12.9177

>  <SCORE.INTER.norm>
-1.79469

>  <SCORE.INTRA>
-3.73948

>  <SCORE.INTRA.DIHEDRAL>
-1.81396

>  <SCORE.INTRA.DIHEDRAL.0>
7.7847

>  <SCORE.INTRA.POLAR>
0

>  <SCORE.INTRA.POLAR.0>
0

>  <SCORE.INTRA.REPUL>
0

>  <SCORE.INTRA.REPUL.0>
0

>  <SCORE.INTRA.SOLV>
-2.24117

>  <SCORE.INTRA.SOLV.lig_0>
-57.5465

>  <SCORE.INTRA.VDW>
-1.71191

>  <SCORE.INTRA.VDW.0>
1.39369

>  <SCORE.INTRA.norm>
-0.311623

>  <SCORE.RESTR>
0

>  <SCORE.RESTR.CAVITY>
0

>  <SCORE.RESTR.norm>
0

>  <SCORE.SYSTEM>
0

>  <SCORE.SYSTEM.CONST>
0

>  <SCORE.SYSTEM.DIHEDRAL>
0

>  <SCORE.SYSTEM.SOLV>
0

>  <SCORE.SYSTEM.norm>
0

>  <SCORE.heavy>
12

>  <SCORE.norm>
-2.10631

>  <SYMMETRIC_BONDS>
4 1 2

>  <RMSD>
2.667

$$$$
1kod cryst
 OpenBabel11021811393D
libRbt.so/2013.1/901 2013/11/27
 12 11  0  0  0  0  0  0  0  0999 V2000
    2.7388    6.4798   35.6748 C   0  0  0  0  0  0  0  0  0  0  0  0
    3.9601    6.5152   35.6980 O   0  5  0  0  0  0  0  0  0  0  0  0
    2.0371    6.5189   36.6777 O   0  0  0  0  0  0  0  0  0  0  0  0
    2.0458    6.3828   34.3013 C   0  0  1  0  0  0  0  0  0  0  0  0
    2.6421    7.3921   33.3737 N   0  3  0  0  0  0  0  0  0  0  0  0
    2.2151    4.9674   33.7011 C   0  0  0  0  0  0  0  0  0  0  0  0
    1.3263    3.9668   34.4283 C   0  0  0  0  0  0  0  0  0  0  0  0
    1.5170    2.5745   33.8308 C   0  0  0  0  0  0  0  0  0  0  0  0
    2.7555    1.9633   34.4062 N   0  0  0  0  0  0  0  0  0  0  0  0
    2.6984    1.2464   35.4966 C   0  0  0  0  0  0  0  0  0  0  0  0
    3.4220    1.5040   36.4560 O   0  0  0  0  0  0  0  0  0  0  0  0
    1.8787    0.2382   35.5663 N   0  0  0  0  0  0  0  0  0  0  0  0
  1  2  1  0  0  0  0
  1  3  2  0  0  0  0
  4  1  1  1  0  0  0
  4  6  1  0  0  0  0
  4  5  1  0  0  0  0
  6  7  1  0  0  0  0
  7  8  1  0  0  0  0
  8  9  1  0  0  0  0
  9 10  1  0  0  0  0
 10 12  1  0  0  0  0
 10 11  2  0  0  0  0
M  CHG  2   2  -1   5   1
M  END
>  <CHROM.1>
-47.68201082,73.64920744,-58.86409587,-179.46967884,80.85311649,-89.82044889
2.45868527,4.16214439,34.97184127,-1.46145377,1.16280840,2.94509341

>  <Name>
1kod cryst

>  <RI>
0

>  <Rbt.Current_Directory>
/home/itssahil/PROJECTS/Mol_Feturizer/New_Systems/rnas/1kod

>  <Rbt.Executable>
rbdock ($Id: //depot/dev/client3/rdock/2013.1/src/exe/rbdock.cxx#4 $)

>  <Rbt.Library>
libRbt.so (2013.1, Build901 2013/11/27)

>  <Rbt.Parameter_File>
/export/apps/rDock/src/rDock_2013.1_src/data/scripts/dock_solv.prm

>  <Rbt.Receptor>
prm/pocket_docking_7.prm

>  <SCORE>
-22.389

>  <SCORE.INTER>
-16.7375

>  <SCORE.INTER.CONST>
1

>  <SCORE.INTER.POLAR>
-2.692

>  <SCORE.INTER.ROT>
5

>  <SCORE.INTER.SOLV>
13.1063

>  <SCORE.INTER.VDW>
-13.4871

>  <SCORE.INTER.norm>
-1.39479

>  <SCORE.INTRA>
-5.6515

>  <SCORE.INTRA.DIHEDRAL>
-3.42138

>  <SCORE.INTRA.DIHEDRAL.0>
7.7847

>  <SCORE.INTRA.POLAR>
0

>  <SCORE.INTRA.POLAR.0>
0

>  <SCORE.INTRA.REPUL>
0

>  <SCORE.INTRA.REPUL.0>
0

>  <SCORE.INTRA.SOLV>
-2.43413

>  <SCORE.INTRA.SOLV.lig_0>
-57.5465

>  <SCORE.INTRA.VDW>
-2.72374

>  <SCORE.INTRA.VDW.0>
1.39369

>  <SCORE.INTRA.norm>
-0.470958

>  <SCORE.RESTR>
0

>  <SCORE.RESTR.CAVITY>
0

>  <SCORE.RESTR.norm>
0

>  <SCORE.SYSTEM>
0

>  <SCORE.SYSTEM.CONST>
0

>  <SCORE.SYSTEM.DIHEDRAL>
0

>  <SCORE.SYSTEM.SOLV>
0

>  <SCORE.SYSTEM.norm>
0

>  <SCORE.heavy>
12

>  <SCORE.norm>
-1.86575

>  <SYMMETRIC_BONDS>
4 1 2

>  <RMSD>
2.672

$$$$
1kod cryst
 OpenBabel11021811393D
libRbt.so/2013.1/901 2013/11/27
 12 11  0  0  0  0  0  0  0  0999 V2000
    3.0012    7.4957   35.7665 C   0  0  0  0  0  0  0  0  0  0  0  0
    2.3497    7.4488   36.7993 O   0  5  0  0  0  0  0  0  0  0  0  0
    4.1351    7.9529   35.6965 O   0  0  0  0  0  0  0  0  0  0  0  0
    2.3551    6.9439   34.4803 C   0  0  1  0  0  0  0  0  0  0  0  0
    2.5828    7.9067   33.3597 N   0  3  0  0  0  0  0  0  0  0  0  0
    2.9595    5.5693   34.1099 C   0  0  0  0  0  0  0  0  0  0  0  0
    1.8573    4.5452   33.8725 C   0  0  0  0  0  0  0  0  0  0  0  0
    2.4736    3.1795   33.5781 C   0  0  0  0  0  0  0  0  0  0  0  0
    1.4213    2.1271   33.7323 N   0  0  0  0  0  0  0  0  0  0  0  0
    1.7279    0.9418   34.1874 C   0  0  0  0  0  0  0  0  0  0  0  0
    1.4212   -0.0700   33.5607 O   0  0  0  0  0  0  0  0  0  0  0  0
    2.3513    0.8260   35.3237 N   0  0  0  0  0  0  0  0  0  0  0  0
  1  2  1  0  0  0  0
  1  3  2  0  0  0  0
  4  1  1  1  0  0  0
  4  6  1  0  0  0  0
  4  5  1  0  0  0  0
  6  7  1  0  0  0  0
  7  8  1  0  0  0  0
  8  9  1  0  0  0  0
  9 10  1  0  0  0  0
 10 12  1  0  0  0  0
 10 11  2  0  0  0  0
M  CHG  2   2  -1   5   1
M  END
>  <CHROM.1>
134.50946762,128.87427113,-56.99656979,-177.14424779,164.08436306,34.13419168
2.39109819,4.59002954,34.54009741,-0.78966454,1.31485973,2.53803001

>  <Name>
1kod cryst

>  <RI>
0

>  <Rbt.Current_Directory>
/home/itssahil/PROJECTS/Mol_Feturizer/New_Systems/rnas/1kod

>  <Rbt.Executable>
rbdock ($Id: //depot/dev/client3/rdock/2013.1/src/exe/rbdock.cxx#4 $)

>  <Rbt.Library>
libRbt.so (2013.1, Build901 2013/11/27)

>  <Rbt.Parameter_File>
/export/apps/rDock/src/rDock_2013.1_src/data/scripts/dock_solv.prm

>  <Rbt.Receptor>
prm/pocket_docking_7.prm

>  <SCORE>
-22.0021

>  <SCORE.INTER>
-17.9964

>  <SCORE.INTER.CONST>
1

>  <SCORE.INTER.POLAR>
-2.91452

>  <SCORE.INTER.ROT>
5

>  <SCORE.INTER.SOLV>
14.1175

>  <SCORE.INTER.VDW>
-13.9217

>  <SCORE.INTER.norm>
-1.4997

>  <SCORE.INTRA>
-4.00564

>  <SCORE.INTRA.DIHEDRAL>
0.279265

>  <SCORE.INTRA.DIHEDRAL.0>
7.7847

>  <SCORE.INTRA.POLAR>
0

>  <SCORE.INTRA.POLAR.0>
0

>  <SCORE.INTRA.REPUL>
0

>  <SCORE.INTRA.REPUL.0>
0

>  <SCORE.INTRA.SOLV>
-3.02726

>  <SCORE.INTRA.SOLV.lig_0>
-57.5465

>  <SCORE.INTRA.VDW>
-2.63165

>  <SCORE.INTRA.VDW.0>
1.39369

>  <SCORE.INTRA.norm>
-0.333804

>  <SCORE.RESTR>
0

>  <SCORE.RESTR.CAVITY>
0

>  <SCORE.RESTR.norm>
0

>  <SCORE.SYSTEM>
0

>  <SCORE.SYSTEM.CONST>
0

>  <SCORE.SYSTEM.DIHEDRAL>
0

>  <SCORE.SYSTEM.SOLV>
0

>  <SCORE.SYSTEM.norm>
0

>  <SCORE.heavy>
12

>  <SCORE.norm>
-1.83351

>  <SYMMETRIC_BONDS>
4 1 2

>  <RMSD>
2.673

$$$$
1kod cryst
 OpenBabel11021811393D
libRbt.so/2013.1/901 2013/11/27
 12 11  0  0  0  0  0  0  0  0999 V2000
    4.2345    5.9022   34.6446 C   0  0  0  0  0  0  0  0  0  0  0  0
    4.6777    5.3268   35.6273 O   0  5  0  0  0  0  0  0  0  0  0  0
    4.9307    6.3181   33.7270 O   0  0  0  0  0  0  0  0  0  0  0  0
    2.7098    6.1122   34.5581 C   0  0  1  0  0  0  0  0  0  0  0  0
    2.4251    7.3603   33.7861 N   0  3  0  0  0  0  0  0  0  0  0  0
    2.0298    4.9095   33.8629 C   0  0  0  0  0  0  0  0  0  0  0  0
    2.3436    3.6153   34.6021 C   0  0  0  0  0  0  0  0  0  0  0  0
    1.6135    2.4496   33.9389 C   0  0  0  0  0  0  0  0  0  0  0  0
    2.4189    1.2023   34.1236 N   0  0  0  0  0  0  0  0  0  0  0  0
    2.3468    0.5230   35.2369 C   0  0  0  0  0  0  0  0  0  0  0  0
    3.3638    0.2379   35.8653 O   0  0  0  0  0  0  0  0  0  0  0  0
    1.1890    0.1289   35.6810 N   0  0  0  0  0  0  0  0  0  0  0  0
  1  2  1  0  0  0  0
  1  3  2  0  0  0  0
  4  1  1  6  0  0  0
  4  6  1  0  0  0  0
  4  5  1  0  0  0  0
  6  7  1  0  0  0  0
  7  8  1  0  0  0  0
  8  9  1  0  0  0  0
  9 10  1  0  0  0  0
 10 12  1  0  0  0  0
 10 11  2  0  0  0  0
M  CHG  2   2  -1   5   1
M  END
>  <CHROM.1>
150.05732207,57.41102880,-43.01761143,177.46012001,149.80319530,-97.95547306
2.86571482,3.69023561,34.63512667,-1.31882830,0.36585656,2.87926529

>  <Name>
1kod cryst

>  <RI>
0

>  <Rbt.Current_Directory>
/home/itssahil/PROJECTS/Mol_Feturizer/New_Systems/rnas/1kod

>  <Rbt.Executable>
rbdock ($Id: //depot/dev/client3/rdock/2013.1/src/exe/rbdock.cxx#4 $)

>  <Rbt.Library>
libRbt.so (2013.1, Build901 2013/11/27)

>  <Rbt.Parameter_File>
/export/apps/rDock/src/rDock_2013.1_src/data/scripts/dock_solv.prm

>  <Rbt.Receptor>
prm/pocket_docking_7.prm

>  <SCORE>
-24.6453

>  <SCORE.INTER>
-20.481

>  <SCORE.INTER.CONST>
1

>  <SCORE.INTER.POLAR>
-3.79342

>  <SCORE.INTER.ROT>
5

>  <SCORE.INTER.SOLV>
16.3709

>  <SCORE.INTER.VDW>
-13.3996

>  <SCORE.INTER.norm>
-1.70675

>  <SCORE.INTRA>
-4.16429

>  <SCORE.INTRA.DIHEDRAL>
-2.03835

>  <SCORE.INTRA.DIHEDRAL.0>
7.7847

>  <SCORE.INTRA.POLAR>
0

>  <SCORE.INTRA.POLAR.0>
0

>  <SCORE.INTRA.REPUL>
0

>  <SCORE.INTRA.REPUL.0>
0

>  <SCORE.INTRA.SOLV>
-2.26451

>  <SCORE.INTRA.SOLV.lig_0>
-57.5465

>  <SCORE.INTRA.VDW>
-2.01286

>  <SCORE.INTRA.VDW.0>
1.39369

>  <SCORE.INTRA.norm>
-0.347024

>  <SCORE.RESTR>
0

>  <SCORE.RESTR.CAVITY>
0

>  <SCORE.RESTR.norm>
0

>  <SCORE.SYSTEM>
0

>  <SCORE.SYSTEM.CONST>
0

>  <SCORE.SYSTEM.DIHEDRAL>
0

>  <SCORE.SYSTEM.SOLV>
0

>  <SCORE.SYSTEM.norm>
0

>  <SCORE.heavy>
12

>  <SCORE.norm>
-2.05377

>  <SYMMETRIC_BONDS>
4 1 2

>  <RMSD>
2.673

$$$$
1kod cryst
 OpenBabel11021811393D
libRbt.so/2013.1/901 2013/11/27
 12 11  0  0  0  0  0  0  0  0999 V2000
    2.4987    7.3490   35.5704 C   0  0  0  0  0  0  0  0  0  0  0  0
    3.5060    8.0340   35.6672 O   0  5  0  0  0  0  0  0  0  0  0  0
    1.8410    6.9653   36.5295 O   0  0  0  0  0  0  0  0  0  0  0  0
    2.0311    6.9492   34.1569 C   0  0  1  0  0  0  0  0  0  0  0  0
    2.4278    8.0134   33.1850 N   0  3  0  0  0  0  0  0  0  0  0  0
    2.6612    5.6020   33.7322 C   0  0  0  0  0  0  0  0  0  0  0  0
    1.6648    4.4640   33.9110 C   0  0  0  0  0  0  0  0  0  0  0  0
    2.3080    3.1424   33.4969 C   0  0  0  0  0  0  0  0  0  0  0  0
    1.3167    2.0379   33.6870 N   0  0  0  0  0  0  0  0  0  0  0  0
    1.6983    0.8716   34.1343 C   0  0  0  0  0  0  0  0  0  0  0  0
    1.4241   -0.1569   33.5199 O   0  0  0  0  0  0  0  0  0  0  0  0
    2.3629    0.7920   35.2502 N   0  0  0  0  0  0  0  0  0  0  0  0
  1  2  1  0  0  0  0
  1  3  2  0  0  0  0
  4  1  1  1  0  0  0
  4  6  1  0  0  0  0
  4  5  1  0  0  0  0
  6  7  1  0  0  0  0
  7  8  1  0  0  0  0
  8  9  1  0  0  0  0
  9 10  1  0  0  0  0
 10 12  1  0  0  0  0
 10 11  2  0  0  0  0
M  CHG  2   2  -1   5   1
M  END
>  <CHROM.1>
-30.12135476,100.52184963,97.94077696,-179.57475330,179.69284326,38.43950020
2.15212001,4.52388507,34.40734163,-0.71065872,1.40652248,2.41267681

>  <Name>
1kod cryst

>  <RI>
0

>  <Rbt.Current_Directory>
/home/itssahil/PROJECTS/Mol_Feturizer/New_Systems/rnas/1kod

>  <Rbt.Executable>
rbdock ($Id: //depot/dev/client3/rdock/2013.1/src/exe/rbdock.cxx#4 $)

>  <Rbt.Library>
libRbt.so (2013.1, Build901 2013/11/27)

>  <Rbt.Parameter_File>
/export/apps/rDock/src/rDock_2013.1_src/data/scripts/dock_solv.prm

>  <Rbt.Receptor>
prm/pocket_docking_7.prm

>  <SCORE>
-23.8908

>  <SCORE.INTER>
-20.8095

>  <SCORE.INTER.CONST>
1

>  <SCORE.INTER.POLAR>
-3.53371

>  <SCORE.INTER.ROT>
5

>  <SCORE.INTER.SOLV>
15.6412

>  <SCORE.INTER.VDW>
-14.241

>  <SCORE.INTER.norm>
-1.73412

>  <SCORE.INTRA>
-3.08127

>  <SCORE.INTRA.DIHEDRAL>
0.888081

>  <SCORE.INTRA.DIHEDRAL.0>
7.7847

>  <SCORE.INTRA.POLAR>
0

>  <SCORE.INTRA.POLAR.0>
0

>  <SCORE.INTRA.REPUL>
0

>  <SCORE.INTRA.REPUL.0>
0

>  <SCORE.INTRA.SOLV>
-2.92284

>  <SCORE.INTRA.SOLV.lig_0>
-57.5465

>  <SCORE.INTRA.VDW>
-2.06389

>  <SCORE.INTRA.VDW.0>
1.39369

>  <SCORE.INTRA.norm>
-0.256773

>  <SCORE.RESTR>
0

>  <SCORE.RESTR.CAVITY>
0

>  <SCORE.RESTR.norm>
0

>  <SCORE.SYSTEM>
0

>  <SCORE.SYSTEM.CONST>
0

>  <SCORE.SYSTEM.DIHEDRAL>
0

>  <SCORE.SYSTEM.SOLV>
0

>  <SCORE.SYSTEM.norm>
0

>  <SCORE.heavy>
12

>  <SCORE.norm>
-1.9909

>  <SYMMETRIC_BONDS>
4 1 2

>  <RMSD>
2.675

$$$$
1kod cryst
 OpenBabel11021811393D
libRbt.so/2013.1/901 2013/11/27
 12 11  0  0  0  0  0  0  0  0999 V2000
    1.9951    6.2264   35.6964 C   0  0  0  0  0  0  0  0  0  0  0  0
    3.1513    6.3782   36.0619 O   0  5  0  0  0  0  0  0  0  0  0  0
    1.0408    6.1687   36.4617 O   0  0  0  0  0  0  0  0  0  0  0  0
    1.7270    6.1036   34.1834 C   0  0  1  0  0  0  0  0  0  0  0  0
    2.4695    7.1807   33.4601 N   0  3  0  0  0  0  0  0  0  0  0  0
    2.1806    4.7218   33.6571 C   0  0  0  0  0  0  0  0  0  0  0  0
    1.1457    3.6550   33.9901 C   0  0  0  0  0  0  0  0  0  0  0  0
    1.5511    2.3249   33.3591 C   0  0  0  0  0  0  0  0  0  0  0  0
    2.5888    1.6746   34.2187 N   0  0  0  0  0  0  0  0  0  0  0  0
    2.5669    1.8247   35.5161 C   0  0  0  0  0  0  0  0  0  0  0  0
    3.5611    2.2230   36.1189 O   0  0  0  0  0  0  0  0  0  0  0  0
    1.4876    1.5359   36.1830 N   0  0  0  0  0  0  0  0  0  0  0  0
  1  2  1  0  0  0  0
  1  3  2  0  0  0  0
  4  1  1  1  0  0  0
  4  6  1  0  0  0  0
  4  5  1  0  0  0  0
  6  7  1  0  0  0  0
  7  8  1  0  0  0  0
  8  9  1  0  0  0  0
  9 10  1  0  0  0  0
 10 12  1  0  0  0  0
 10 11  2  0  0  0  0
M  CHG  2   2  -1   5   1
M  END
>  <CHROM.1>
-46.90574512,79.11569103,71.19768044,175.11063319,80.18591667,-146.75124691
2.13996944,4.19304357,34.92463189,-1.76456319,1.42739030,-3.00581735

>  <Name>
1kod cryst

>  <RI>
0

>  <Rbt.Current_Directory>
/home/itssahil/PROJECTS/Mol_Feturizer/New_Systems/rnas/1kod

>  <Rbt.Executable>
rbdock ($Id: //depot/dev/client3/rdock/2013.1/src/exe/rbdock.cxx#4 $)

>  <Rbt.Library>
libRbt.so (2013.1, Build901 2013/11/27)

>  <Rbt.Parameter_File>
/export/apps/rDock/src/rDock_2013.1_src/data/scripts/dock_solv.prm

>  <Rbt.Receptor>
prm/pocket_docking_7.prm

>  <SCORE>
-23.3409

>  <SCORE.INTER>
-19.4707

>  <SCORE.INTER.CONST>
1

>  <SCORE.INTER.POLAR>
-3.36564

>  <SCORE.INTER.ROT>
5

>  <SCORE.INTER.SOLV>
12.452

>  <SCORE.INTER.VDW>
-12.8457

>  <SCORE.INTER.norm>
-1.62256

>  <SCORE.INTRA>
-3.87021

>  <SCORE.INTRA.DIHEDRAL>
-2.55943

>  <SCORE.INTRA.DIHEDRAL.0>
7.7847

>  <SCORE.INTRA.POLAR>
0

>  <SCORE.INTRA.POLAR.0>
0

>  <SCORE.INTRA.REPUL>
0

>  <SCORE.INTRA.REPUL.0>
0

>  <SCORE.INTRA.SOLV>
-1.86966

>  <SCORE.INTRA.SOLV.lig_0>
-57.5465

>  <SCORE.INTRA.VDW>
-1.65567

>  <SCORE.INTRA.VDW.0>
1.39369

>  <SCORE.INTRA.norm>
-0.322518

>  <SCORE.RESTR>
0

>  <SCORE.RESTR.CAVITY>
0

>  <SCORE.RESTR.norm>
0

>  <SCORE.SYSTEM>
0

>  <SCORE.SYSTEM.CONST>
0

>  <SCORE.SYSTEM.DIHEDRAL>
0

>  <SCORE.SYSTEM.SOLV>
0

>  <SCORE.SYSTEM.norm>
0

>  <SCORE.heavy>
12

>  <SCORE.norm>
-1.94508

>  <SYMMETRIC_BONDS>
4 1 2

>  <RMSD>
2.676

$$$$
1kod cryst
 OpenBabel11021811393D
libRbt.so/2013.1/901 2013/11/27
 12 11  0  0  0  0  0  0  0  0999 V2000
    2.5705    6.2748   35.6688 C   0  0  0  0  0  0  0  0  0  0  0  0
    3.7207    6.6702   35.7876 O   0  5  0  0  0  0  0  0  0  0  0  0
    1.8703    5.9235   36.6100 O   0  0  0  0  0  0  0  0  0  0  0  0
    1.9696    6.2193   34.2503 C   0  0  1  0  0  0  0  0  0  0  0  0
    2.6055    7.2731   33.4018 N   0  3  0  0  0  0  0  0  0  0  0  0
    2.2038    4.8310   33.6101 C   0  0  0  0  0  0  0  0  0  0  0  0
    1.3130    3.7822   34.2631 C   0  0  0  0  0  0  0  0  0  0  0  0
    1.5099    2.4336   33.5744 C   0  0  0  0  0  0  0  0  0  0  0  0
    2.5042    1.6304   34.3521 N   0  0  0  0  0  0  0  0  0  0  0  0
    2.4522    1.5906   35.6566 C   0  0  0  0  0  0  0  0  0  0  0  0
    3.4415    1.8630   36.3331 O   0  0  0  0  0  0  0  0  0  0  0  0
    1.3472    1.2443   36.2502 N   0  0  0  0  0  0  0  0  0  0  0  0
  1  2  1  0  0  0  0
  1  3  2  0  0  0  0
  4  1  1  1  0  0  0
  4  6  1  0  0  0  0
  4  5  1  0  0  0  0
  6  7  1  0  0  0  0
  7  8  1  0  0  0  0
  8  9  1  0  0  0  0
  9 10  1  0  0  0  0
 10 12  1  0  0  0  0
 10 11  2  0  0  0  0
M  CHG  2   2  -1   5   1
M  END
>  <CHROM.1>
-29.15805671,72.27821531,-175.56794914,177.33109121,96.03159710,-136.90903935
2.31094785,4.16637513,34.99146228,-1.27404315,1.26905596,2.72464158

>  <Name>
1kod cryst

>  <RI>
0

>  <Rbt.Current_Directory>
/home/itssahil/PROJECTS/Mol_Feturizer/New_Systems/rnas/1kod

>  <Rbt.Executable>
rbdock ($Id: //depot/dev/client3/rdock/2013.1/src/exe/rbdock.cxx#4 $)

>  <Rbt.Library>
libRbt.so (2013.1, Build901 2013/11/27)

>  <Rbt.Parameter_File>
/export/apps/rDock/src/rDock_2013.1_src/data/scripts/dock_solv.prm

>  <Rbt.Receptor>
prm/pocket_docking_6.prm

>  <SCORE>
-23.2928

>  <SCORE.INTER>
-19.7619

>  <SCORE.INTER.CONST>
1

>  <SCORE.INTER.POLAR>
-3.40485

>  <SCORE.INTER.ROT>
5

>  <SCORE.INTER.SOLV>
12.1422

>  <SCORE.INTER.VDW>
-12.8058

>  <SCORE.INTER.norm>
-1.64683

>  <SCORE.INTRA>
-3.53091

>  <SCORE.INTRA.DIHEDRAL>
-1.33422

>  <SCORE.INTRA.DIHEDRAL.0>
7.7847

>  <SCORE.INTRA.POLAR>
0

>  <SCORE.INTRA.POLAR.0>
0

>  <SCORE.INTRA.REPUL>
0

>  <SCORE.INTRA.REPUL.0>
0

>  <SCORE.INTRA.SOLV>
-1.91197

>  <SCORE.INTRA.SOLV.lig_0>
-57.5465

>  <SCORE.INTRA.VDW>
-1.90782

>  <SCORE.INTRA.VDW.0>
1.39369

>  <SCORE.INTRA.norm>
-0.294243

>  <SCORE.RESTR>
0

>  <SCORE.RESTR.CAVITY>
0

>  <SCORE.RESTR.norm>
0

>  <SCORE.SYSTEM>
0

>  <SCORE.SYSTEM.CONST>
0

>  <SCORE.SYSTEM.DIHEDRAL>
0

>  <SCORE.SYSTEM.SOLV>
0

>  <SCORE.SYSTEM.norm>
0

>  <SCORE.heavy>
12

>  <SCORE.norm>
-1.94107

>  <SYMMETRIC_BONDS>
4 1 2

>  <RMSD>
2.688

$$$$
1kod cryst
 OpenBabel11021811393D
libRbt.so/2013.1/901 2013/11/27
 12 11  0  0  0  0  0  0  0  0999 V2000
    2.1362    6.8633   36.2782 C   0  0  0  0  0  0  0  0  0  0  0  0
    3.2106    7.3458   36.6042 O   0  5  0  0  0  0  0  0  0  0  0  0
    1.1917    6.7230   37.0450 O   0  0  0  0  0  0  0  0  0  0  0  0
    1.9635    6.4090   34.8153 C   0  0  1  0  0  0  0  0  0  0  0  0
    3.1829    6.7804   34.0345 N   0  3  0  0  0  0  0  0  0  0  0  0
    1.7482    4.8793   34.7387 C   0  0  0  0  0  0  0  0  0  0  0  0
    1.3229    4.4672   33.3354 C   0  0  0  0  0  0  0  0  0  0  0  0
    0.9302    2.9916   33.3253 C   0  0  0  0  0  0  0  0  0  0  0  0
    2.1704    2.1574   33.3941 N   0  0  0  0  0  0  0  0  0  0  0  0
    2.6622    1.7911   34.5474 C   0  0  0  0  0  0  0  0  0  0  0  0
    3.8377    2.0144   34.8281 O   0  0  0  0  0  0  0  0  0  0  0  0
    1.9068    1.1691   35.4052 N   0  0  0  0  0  0  0  0  0  0  0  0
  1  2  1  0  0  0  0
  1  3  2  0  0  0  0
  4  1  1  1  0  0  0
  4  6  1  0  0  0  0
  4  5  1  0  0  0  0
  6  7  1  0  0  0  0
  7  8  1  0  0  0  0
  8  9  1  0  0  0  0
  9 10  1  0  0  0  0
 10 12  1  0  0  0  0
 10 11  2  0  0  0  0
M  CHG  2   2  -1   5   1
M  END
>  <CHROM.1>
-4.86461214,169.49887090,-175.19986705,-172.24783104,-74.78716489,-89.81864577
2.22168344,4.47435372,34.87361971,-1.51940421,1.32279794,-2.87581791

>  <Name>
1kod cryst

>  <RI>
0

>  <Rbt.Current_Directory>
/home/itssahil/PROJECTS/Mol_Feturizer/New_Systems/rnas/1kod

>  <Rbt.Executable>
rbdock ($Id: //depot/dev/client3/rdock/2013.1/src/exe/rbdock.cxx#4 $)

>  <Rbt.Library>
libRbt.so (2013.1, Build901 2013/11/27)

>  <Rbt.Parameter_File>
/export/apps/rDock/src/rDock_2013.1_src/data/scripts/dock_solv.prm

>  <Rbt.Receptor>
prm/pocket_docking_4.prm

>  <SCORE>
-18.3065

>  <SCORE.INTER>
-13.0215

>  <SCORE.INTER.CONST>
1

>  <SCORE.INTER.POLAR>
-2.16626

>  <SCORE.INTER.ROT>
5

>  <SCORE.INTER.SOLV>
8.64087

>  <SCORE.INTER.VDW>
-11.2738

>  <SCORE.INTER.norm>
-1.08513

>  <SCORE.INTRA>
-5.28498

>  <SCORE.INTRA.DIHEDRAL>
-4.06772

>  <SCORE.INTRA.DIHEDRAL.0>
7.7847

>  <SCORE.INTRA.POLAR>
0

>  <SCORE.INTRA.POLAR.0>
0

>  <SCORE.INTRA.REPUL>
0

>  <SCORE.INTRA.REPUL.0>
0

>  <SCORE.INTRA.SOLV>
-1.59947

>  <SCORE.INTRA.SOLV.lig_0>
-57.5465

>  <SCORE.INTRA.VDW>
-2.45138

>  <SCORE.INTRA.VDW.0>
1.39369

>  <SCORE.INTRA.norm>
-0.440415

>  <SCORE.RESTR>
0

>  <SCORE.RESTR.CAVITY>
0

>  <SCORE.RESTR.norm>
0

>  <SCORE.SYSTEM>
0

>  <SCORE.SYSTEM.CONST>
0

>  <SCORE.SYSTEM.DIHEDRAL>
0

>  <SCORE.SYSTEM.SOLV>
0

>  <SCORE.SYSTEM.norm>
0

>  <SCORE.heavy>
12

>  <SCORE.norm>
-1.52554

>  <SYMMETRIC_BONDS>
4 1 2

>  <RMSD>
2.691

$$$$
1kod cryst
 OpenBabel11021811393D
libRbt.so/2013.1/901 2013/11/27
 12 11  0  0  0  0  0  0  0  0999 V2000
    2.2126    7.3911   36.0384 C   0  0  0  0  0  0  0  0  0  0  0  0
    1.1053    7.3369   36.5526 O   0  5  0  0  0  0  0  0  0  0  0  0
    3.2190    7.7667   36.6265 O   0  0  0  0  0  0  0  0  0  0  0  0
    2.3459    6.9581   34.5650 C   0  0  1  0  0  0  0  0  0  0  0  0
    3.1909    7.9499   33.8323 N   0  3  0  0  0  0  0  0  0  0  0  0
    2.9904    5.5559   34.4623 C   0  0  0  0  0  0  0  0  0  0  0  0
    1.9365    4.4682   34.6238 C   0  0  0  0  0  0  0  0  0  0  0  0
    2.6088    3.0979   34.6685 C   0  0  0  0  0  0  0  0  0  0  0  0
    1.5619    2.0374   34.5336 N   0  0  0  0  0  0  0  0  0  0  0  0
    1.7739    0.8320   34.9897 C   0  0  0  0  0  0  0  0  0  0  0  0
    1.6279   -0.1487   34.2635 O   0  0  0  0  0  0  0  0  0  0  0  0
    2.1288    0.6622   36.2300 N   0  0  0  0  0  0  0  0  0  0  0  0
  1  2  1  0  0  0  0
  1  3  2  0  0  0  0
  4  1  1  1  0  0  0
  4  6  1  0  0  0  0
  4  5  1  0  0  0  0
  6  7  1  0  0  0  0
  7  8  1  0  0  0  0
  8  9  1  0  0  0  0
  9 10  1  0  0  0  0
 10 12  1  0  0  0  0
 10 11  2  0  0  0  0
M  CHG  2   2  -1   5   1
M  END
>  <CHROM.1>
135.31617217,84.40857216,-178.84622452,-174.01017867,-168.07737886,23.86454979
2.23319050,4.50966172,35.12062689,1.19595241,1.27593214,0.42841420

>  <Name>
1kod cryst

>  <RI>
0

>  <Rbt.Current_Directory>
/home/itssahil/PROJECTS/Mol_Feturizer/New_Systems/rnas/1kod

>  <Rbt.Executable>
rbdock ($Id: //depot/dev/client3/rdock/2013.1/src/exe/rbdock.cxx#4 $)

>  <Rbt.Library>
libRbt.so (2013.1, Build901 2013/11/27)

>  <Rbt.Parameter_File>
/export/apps/rDock/src/rDock_2013.1_src/data/scripts/dock_solv.prm

>  <Rbt.Receptor>
prm/pocket_docking_4.prm

>  <SCORE>
-22.6968

>  <SCORE.INTER>
-17.2744

>  <SCORE.INTER.CONST>
1

>  <SCORE.INTER.POLAR>
-3.48952

>  <SCORE.INTER.ROT>
5

>  <SCORE.INTER.SOLV>
10.1738

>  <SCORE.INTER.VDW>
-10.2091

>  <SCORE.INTER.norm>
-1.43953

>  <SCORE.INTRA>
-5.48378

>  <SCORE.INTRA.DIHEDRAL>
-3.04691

>  <SCORE.INTRA.DIHEDRAL.0>
7.7847

>  <SCORE.INTRA.POLAR>
0

>  <SCORE.INTRA.POLAR.0>
0

>  <SCORE.INTRA.REPUL>
0

>  <SCORE.INTRA.REPUL.0>
0

>  <SCORE.INTRA.SOLV>
-2.92299

>  <SCORE.INTRA.SOLV.lig_0>
-57.5465

>  <SCORE.INTRA.VDW>
-2.49883

>  <SCORE.INTRA.VDW.0>
1.39369

>  <SCORE.INTRA.norm>
-0.456981

>  <SCORE.RESTR>
0.0613317

>  <SCORE.RESTR.CAVITY>
0.0613317

>  <SCORE.RESTR.norm>
0.00511097

>  <SCORE.SYSTEM>
0

>  <SCORE.SYSTEM.CONST>
0

>  <SCORE.SYSTEM.DIHEDRAL>
0

>  <SCORE.SYSTEM.SOLV>
0

>  <SCORE.SYSTEM.norm>
0

>  <SCORE.heavy>
12

>  <SCORE.norm>
-1.8914

>  <SYMMETRIC_BONDS>
4 1 2

>  <RMSD>
2.697

$$$$
1kod cryst
 OpenBabel11021811393D
libRbt.so/2013.1/901 2013/11/27
 12 11  0  0  0  0  0  0  0  0999 V2000
    3.0011    6.5550   35.5529 C   0  0  0  0  0  0  0  0  0  0  0  0
    2.4861    6.6909   36.6527 O   0  5  0  0  0  0  0  0  0  0  0  0
    4.2078    6.4467   35.3744 O   0  0  0  0  0  0  0  0  0  0  0  0
    2.0739    6.5156   34.3220 C   0  0  1  0  0  0  0  0  0  0  0  0
    2.5439    7.5165   33.3161 N   0  3  0  0  0  0  0  0  0  0  0  0
    2.0699    5.1065   33.6842 C   0  0  0  0  0  0  0  0  0  0  0  0
    1.2948    4.1261   34.5548 C   0  0  0  0  0  0  0  0  0  0  0  0
    1.4832    2.7050   34.0287 C   0  0  0  0  0  0  0  0  0  0  0  0
    2.7632    2.1511   34.5702 N   0  0  0  0  0  0  0  0  0  0  0  0
    2.7594    1.3685   35.6159 C   0  0  0  0  0  0  0  0  0  0  0  0
    3.4642    1.6199   36.5909 O   0  0  0  0  0  0  0  0  0  0  0  0
    2.0143    0.3017   35.6234 N   0  0  0  0  0  0  0  0  0  0  0  0
  1  2  1  0  0  0  0
  1  3  2  0  0  0  0
  4  1  1  1  0  0  0
  4  6  1  0  0  0  0
  4  5  1  0  0  0  0
  6  7  1  0  0  0  0
  7  8  1  0  0  0  0
  8  9  1  0  0  0  0
  9 10  1  0  0  0  0
 10 12  1  0  0  0  0
 10 11  2  0  0  0  0
M  CHG  2   2  -1   5   1
M  END
>  <CHROM.1>
127.58879144,72.81838433,-34.02312731,-171.21336078,83.50649235,-81.83069921
2.53684230,4.27414808,34.99147630,-1.47843105,1.01869613,2.91852183

>  <Name>
1kod cryst

>  <RI>
0

>  <Rbt.Current_Directory>
/home/itssahil/PROJECTS/Mol_Feturizer/New_Systems/rnas/1kod

>  <Rbt.Executable>
rbdock ($Id: //depot/dev/client3/rdock/2013.1/src/exe/rbdock.cxx#4 $)

>  <Rbt.Library>
libRbt.so (2013.1, Build901 2013/11/27)

>  <Rbt.Parameter_File>
/export/apps/rDock/src/rDock_2013.1_src/data/scripts/dock_solv.prm

>  <Rbt.Receptor>
prm/pocket_docking_8.prm

>  <SCORE>
-23.1973

>  <SCORE.INTER>
-18.7192

>  <SCORE.INTER.CONST>
1

>  <SCORE.INTER.POLAR>
-3.25655

>  <SCORE.INTER.ROT>
5

>  <SCORE.INTER.SOLV>
13.2997

>  <SCORE.INTER.VDW>
-12.9909

>  <SCORE.INTER.norm>
-1.55993

>  <SCORE.INTRA>
-4.47811

>  <SCORE.INTRA.DIHEDRAL>
-1.40926

>  <SCORE.INTRA.DIHEDRAL.0>
7.7847

>  <SCORE.INTRA.POLAR>
0

>  <SCORE.INTRA.POLAR.0>
0

>  <SCORE.INTRA.REPUL>
0

>  <SCORE.INTRA.REPUL.0>
0

>  <SCORE.INTRA.SOLV>
-2.5915

>  <SCORE.INTRA.SOLV.lig_0>
-57.5465

>  <SCORE.INTRA.VDW>
-2.47773

>  <SCORE.INTRA.VDW.0>
1.39369

>  <SCORE.INTRA.norm>
-0.373176

>  <SCORE.RESTR>
0

>  <SCORE.RESTR.CAVITY>
0

>  <SCORE.RESTR.norm>
0

>  <SCORE.SYSTEM>
0

>  <SCORE.SYSTEM.CONST>
0

>  <SCORE.SYSTEM.DIHEDRAL>
0

>  <SCORE.SYSTEM.SOLV>
0

>  <SCORE.SYSTEM.norm>
0

>  <SCORE.heavy>
12

>  <SCORE.norm>
-1.93311

>  <SYMMETRIC_BONDS>
4 1 2

>  <RMSD>
2.712

$$$$
1kod cryst
 OpenBabel11021811393D
libRbt.so/2013.1/901 2013/11/27
 12 11  0  0  0  0  0  0  0  0999 V2000
    1.9441    6.3390   36.0316 C   0  0  0  0  0  0  0  0  0  0  0  0
    2.8114    7.0418   36.5286 O   0  5  0  0  0  0  0  0  0  0  0  0
    0.9776    5.9104   36.6495 O   0  0  0  0  0  0  0  0  0  0  0  0
    2.0771    5.9757   34.5394 C   0  0  1  0  0  0  0  0  0  0  0  0
    2.3375    7.2174   33.7490 N   0  3  0  0  0  0  0  0  0  0  0  0
    3.2343    4.9730   34.3209 C   0  0  0  0  0  0  0  0  0  0  0  0
    2.9965    3.6974   35.1185 C   0  0  0  0  0  0  0  0  0  0  0  0
    4.1220    2.7010   34.8499 C   0  0  0  0  0  0  0  0  0  0  0  0
    3.8334    1.4307   35.5858 N   0  0  0  0  0  0  0  0  0  0  0  0
    2.6033    1.0258   35.7564 C   0  0  0  0  0  0  0  0  0  0  0  0
    2.1811    0.7557   36.8785 O   0  0  0  0  0  0  0  0  0  0  0  0
    1.8176    0.8911   34.7279 N   0  0  0  0  0  0  0  0  0  0  0  0
  1  2  1  0  0  0  0
  1  3  2  0  0  0  0
  4  1  1  1  0  0  0
  4  6  1  0  0  0  0
  4  5  1  0  0  0  0
  6  7  1  0  0  0  0
  7  8  1  0  0  0  0
  8  9  1  0  0  0  0
  9 10  1  0  0  0  0
 10 12  1  0  0  0  0
 10 11  2  0  0  0  0
M  CHG  2   2  -1   5   1
M  END
>  <CHROM.1>
-49.52300336,59.24191454,-179.84791450,177.92769900,-177.09966636,-146.73543763
2.56418440,4.01819742,35.39144744,1.74858735,1.00850450,-0.22327892

>  <Name>
1kod cryst

>  <RI>
0

>  <Rbt.Current_Directory>
/home/itssahil/PROJECTS/Mol_Feturizer/New_Systems/rnas/1kod

>  <Rbt.Executable>
rbdock ($Id: //depot/dev/client3/rdock/2013.1/src/exe/rbdock.cxx#4 $)

>  <Rbt.Library>
libRbt.so (2013.1, Build901 2013/11/27)

>  <Rbt.Parameter_File>
/export/apps/rDock/src/rDock_2013.1_src/data/scripts/dock_solv.prm

>  <Rbt.Receptor>
prm/pocket_docking_4.prm

>  <SCORE>
-19.1105

>  <SCORE.INTER>
-14.2145

>  <SCORE.INTER.CONST>
1

>  <SCORE.INTER.POLAR>
-2.97678

>  <SCORE.INTER.ROT>
5

>  <SCORE.INTER.SOLV>
12.6498

>  <SCORE.INTER.VDW>
-10.7037

>  <SCORE.INTER.norm>
-1.18454

>  <SCORE.INTRA>
-4.89597

>  <SCORE.INTRA.DIHEDRAL>
-5.48773

>  <SCORE.INTRA.DIHEDRAL.0>
7.7847

>  <SCORE.INTRA.POLAR>
0

>  <SCORE.INTRA.POLAR.0>
0

>  <SCORE.INTRA.REPUL>
0

>  <SCORE.INTRA.REPUL.0>
0

>  <SCORE.INTRA.SOLV>
-2.20539

>  <SCORE.INTRA.SOLV.lig_0>
-57.5465

>  <SCORE.INTRA.VDW>
-1.0494

>  <SCORE.INTRA.VDW.0>
1.39369

>  <SCORE.INTRA.norm>
-0.407997

>  <SCORE.RESTR>
0

>  <SCORE.RESTR.CAVITY>
0

>  <SCORE.RESTR.norm>
0

>  <SCORE.SYSTEM>
0

>  <SCORE.SYSTEM.CONST>
0

>  <SCORE.SYSTEM.DIHEDRAL>
0

>  <SCORE.SYSTEM.SOLV>
0

>  <SCORE.SYSTEM.norm>
0

>  <SCORE.heavy>
12

>  <SCORE.norm>
-1.59254

>  <SYMMETRIC_BONDS>
4 1 2

>  <RMSD>
2.721

$$$$
1kod cryst
 OpenBabel11021811393D
libRbt.so/2013.1/901 2013/11/27
 12 11  0  0  0  0  0  0  0  0999 V2000
    3.3153    6.3432   35.3614 C   0  0  0  0  0  0  0  0  0  0  0  0
    4.4574    6.1771   34.9597 O   0  5  0  0  0  0  0  0  0  0  0  0
    3.0203    6.4673   36.5435 O   0  0  0  0  0  0  0  0  0  0  0  0
    2.1841    6.4017   34.3159 C   0  0  1  0  0  0  0  0  0  0  0  0
    2.4930    7.4648   33.3115 N   0  3  0  0  0  0  0  0  0  0  0  0
    2.0322    5.0410   33.5964 C   0  0  0  0  0  0  0  0  0  0  0  0
    1.4027    4.0107   34.5250 C   0  0  0  0  0  0  0  0  0  0  0  0
    1.4947    2.6221   33.8965 C   0  0  0  0  0  0  0  0  0  0  0  0
    2.7515    1.9584   34.3642 N   0  0  0  0  0  0  0  0  0  0  0  0
    2.7555    1.2322   35.4499 C   0  0  0  0  0  0  0  0  0  0  0  0
    3.5640    1.4518   36.3491 O   0  0  0  0  0  0  0  0  0  0  0  0
    1.9061    0.2549   35.5781 N   0  0  0  0  0  0  0  0  0  0  0  0
  1  2  1  0  0  0  0
  1  3  2  0  0  0  0
  4  1  1  1  0  0  0
  4  6  1  0  0  0  0
  4  5  1  0  0  0  0
  6  7  1  0  0  0  0
  7  8  1  0  0  0  0
  8  9  1  0  0  0  0
  9 10  1  0  0  0  0
 10 12  1  0  0  0  0
 10 11  2  0  0  0  0
M  CHG  2   2  -1   5   1
M  END
>  <CHROM.1>
-55.49790798,72.68472514,78.52601288,-169.64826384,92.12980453,-90.14567554
2.63647641,4.13441326,34.85439575,-1.43907632,0.89526571,2.89402256

>  <Name>
1kod cryst

>  <RI>
0

>  <Rbt.Current_Directory>
/home/itssahil/PROJECTS/Mol_Feturizer/New_Systems/rnas/1kod

>  <Rbt.Executable>
rbdock ($Id: //depot/dev/client3/rdock/2013.1/src/exe/rbdock.cxx#4 $)

>  <Rbt.Library>
libRbt.so (2013.1, Build901 2013/11/27)

>  <Rbt.Parameter_File>
/export/apps/rDock/src/rDock_2013.1_src/data/scripts/dock_solv.prm

>  <Rbt.Receptor>
prm/pocket_docking_5.prm

>  <SCORE>
-23.2491

>  <SCORE.INTER>
-19.0414

>  <SCORE.INTER.CONST>
1

>  <SCORE.INTER.POLAR>
-3.28548

>  <SCORE.INTER.ROT>
5

>  <SCORE.INTER.SOLV>
14.2133

>  <SCORE.INTER.VDW>
-13.4138

>  <SCORE.INTER.norm>
-1.58679

>  <SCORE.INTRA>
-4.20769

>  <SCORE.INTRA.DIHEDRAL>
-0.711054

>  <SCORE.INTRA.DIHEDRAL.0>
7.7847

>  <SCORE.INTRA.POLAR>
0

>  <SCORE.INTRA.POLAR.0>
0

>  <SCORE.INTRA.REPUL>
0

>  <SCORE.INTRA.REPUL.0>
0

>  <SCORE.INTRA.SOLV>
-2.55725

>  <SCORE.INTRA.SOLV.lig_0>
-57.5465

>  <SCORE.INTRA.VDW>
-2.57354

>  <SCORE.INTRA.VDW.0>
1.39369

>  <SCORE.INTRA.norm>
-0.350641

>  <SCORE.RESTR>
0

>  <SCORE.RESTR.CAVITY>
0

>  <SCORE.RESTR.norm>
0

>  <SCORE.SYSTEM>
0

>  <SCORE.SYSTEM.CONST>
0

>  <SCORE.SYSTEM.DIHEDRAL>
0

>  <SCORE.SYSTEM.SOLV>
0

>  <SCORE.SYSTEM.norm>
0

>  <SCORE.heavy>
12

>  <SCORE.norm>
-1.93743

>  <SYMMETRIC_BONDS>
4 1 2

>  <RMSD>
2.724

$$$$
1kod cryst
 OpenBabel11021811393D
libRbt.so/2013.1/901 2013/11/27
 12 11  0  0  0  0  0  0  0  0999 V2000
    3.1117    6.7785   35.3716 C   0  0  0  0  0  0  0  0  0  0  0  0
    2.6843    6.6950   36.5134 O   0  5  0  0  0  0  0  0  0  0  0  0
    4.3033    6.7984   35.0901 O   0  0  0  0  0  0  0  0  0  0  0  0
    2.0878    6.8606   34.2222 C   0  0  1  0  0  0  0  0  0  0  0  0
    2.5214    7.9073   33.2470 N   0  3  0  0  0  0  0  0  0  0  0  0
    1.9670    5.4994   33.4979 C   0  0  0  0  0  0  0  0  0  0  0  0
    1.0137    4.5767   34.2459 C   0  0  0  0  0  0  0  0  0  0  0  0
    0.8303    3.2775   33.4647 C   0  0  0  0  0  0  0  0  0  0  0  0
    2.0893    2.4740   33.5539 N   0  0  0  0  0  0  0  0  0  0  0  0
    2.4739    1.9650   34.6936 C   0  0  0  0  0  0  0  0  0  0  0  0
    3.6043    2.1777   35.1267 O   0  0  0  0  0  0  0  0  0  0  0  0
    1.6597    1.2115   35.3738 N   0  0  0  0  0  0  0  0  0  0  0  0
  1  2  1  0  0  0  0
  1  3  2  0  0  0  0
  4  1  1  1  0  0  0
  4  6  1  0  0  0  0
  4  5  1  0  0  0  0
  6  7  1  0  0  0  0
  7  8  1  0  0  0  0
  8  9  1  0  0  0  0
  9 10  1  0  0  0  0
 10 12  1  0  0  0  0
 10 11  2  0  0  0  0
M  CHG  2   2  -1   5   1
M  END
>  <CHROM.1>
136.40097790,82.95027650,-169.90693701,175.98658359,71.48470454,-112.84781752
2.38782037,4.70106275,34.53542890,-1.33479953,0.86277205,2.95902167

>  <Name>
1kod cryst

>  <RI>
0

>  <Rbt.Current_Directory>
/home/itssahil/PROJECTS/Mol_Feturizer/New_Systems/rnas/1kod

>  <Rbt.Executable>
rbdock ($Id: //depot/dev/client3/rdock/2013.1/src/exe/rbdock.cxx#4 $)

>  <Rbt.Library>
libRbt.so (2013.1, Build901 2013/11/27)

>  <Rbt.Parameter_File>
/export/apps/rDock/src/rDock_2013.1_src/data/scripts/dock_solv.prm

>  <Rbt.Receptor>
prm/pocket_docking_6.prm

>  <SCORE>
-23.3962

>  <SCORE.INTER>
-18.0937

>  <SCORE.INTER.CONST>
1

>  <SCORE.INTER.POLAR>
-2.91753

>  <SCORE.INTER.ROT>
5

>  <SCORE.INTER.SOLV>
12.9631

>  <SCORE.INTER.VDW>
-13.5917

>  <SCORE.INTER.norm>
-1.50781

>  <SCORE.INTRA>
-5.30249

>  <SCORE.INTRA.DIHEDRAL>
-3.10943

>  <SCORE.INTRA.DIHEDRAL.0>
7.7847

>  <SCORE.INTRA.POLAR>
0

>  <SCORE.INTRA.POLAR.0>
0

>  <SCORE.INTRA.REPUL>
0

>  <SCORE.INTRA.REPUL.0>
0

>  <SCORE.INTRA.SOLV>
-2.28501

>  <SCORE.INTRA.SOLV.lig_0>
-57.5465

>  <SCORE.INTRA.VDW>
-2.60527

>  <SCORE.INTRA.VDW.0>
1.39369

>  <SCORE.INTRA.norm>
-0.441874

>  <SCORE.RESTR>
0

>  <SCORE.RESTR.CAVITY>
0

>  <SCORE.RESTR.norm>
0

>  <SCORE.SYSTEM>
0

>  <SCORE.SYSTEM.CONST>
0

>  <SCORE.SYSTEM.DIHEDRAL>
0

>  <SCORE.SYSTEM.SOLV>
0

>  <SCORE.SYSTEM.norm>
0

>  <SCORE.heavy>
12

>  <SCORE.norm>
-1.94968

>  <SYMMETRIC_BONDS>
4 1 2

>  <RMSD>
2.742

$$$$
1kod cryst
 OpenBabel11021811393D
libRbt.so/2013.1/901 2013/11/27
 12 11  0  0  0  0  0  0  0  0999 V2000
    3.3575    7.1241   35.4644 C   0  0  0  0  0  0  0  0  0  0  0  0
    2.9950    7.1729   36.6304 O   0  5  0  0  0  0  0  0  0  0  0  0
    4.5199    7.2655   35.1059 O   0  0  0  0  0  0  0  0  0  0  0  0
    2.2864    6.8667   34.3861 C   0  0  1  0  0  0  0  0  0  0  0  0
    2.5146    7.7890   33.2319 N   0  3  0  0  0  0  0  0  0  0  0  0
    2.3449    5.4014   33.8946 C   0  0  0  0  0  0  0  0  0  0  0  0
    2.1910    4.4372   35.0637 C   0  0  0  0  0  0  0  0  0  0  0  0
    2.8012    3.0845   34.7034 C   0  0  0  0  0  0  0  0  0  0  0  0
    1.6992    2.1163   34.4091 N   0  0  0  0  0  0  0  0  0  0  0  0
    1.7863    0.8720   34.7967 C   0  0  0  0  0  0  0  0  0  0  0  0
    1.6368   -0.0473   33.9947 O   0  0  0  0  0  0  0  0  0  0  0  0
    2.0186    0.5982   36.0474 N   0  0  0  0  0  0  0  0  0  0  0  0
  1  2  1  0  0  0  0
  1  3  2  0  0  0  0
  4  1  1  1  0  0  0
  4  6  1  0  0  0  0
  4  5  1  0  0  0  0
  6  7  1  0  0  0  0
  7  8  1  0  0  0  0
  8  9  1  0  0  0  0
  9 10  1  0  0  0  0
 10 12  1  0  0  0  0
 10 11  2  0  0  0  0
M  CHG  2   2  -1   5   1
M  END
>  <CHROM.1>
136.24917052,56.29746422,84.94630335,-156.89826866,-104.50236649,38.72089037
2.51777379,4.40492635,34.80336251,-1.02191642,1.18194166,2.62598318

>  <Name>
1kod cryst

>  <RI>
0

>  <Rbt.Current_Directory>
/home/itssahil/PROJECTS/Mol_Feturizer/New_Systems/rnas/1kod

>  <Rbt.Executable>
rbdock ($Id: //depot/dev/client3/rdock/2013.1/src/exe/rbdock.cxx#4 $)

>  <Rbt.Library>
libRbt.so (2013.1, Build901 2013/11/27)

>  <Rbt.Parameter_File>
/export/apps/rDock/src/rDock_2013.1_src/data/scripts/dock_solv.prm

>  <Rbt.Receptor>
prm/pocket_docking_5.prm

>  <SCORE>
-24.9632

>  <SCORE.INTER>
-23.0035

>  <SCORE.INTER.CONST>
1

>  <SCORE.INTER.POLAR>
-4.59672

>  <SCORE.INTER.ROT>
5

>  <SCORE.INTER.SOLV>
14.17

>  <SCORE.INTER.VDW>
-11.6699

>  <SCORE.INTER.norm>
-1.91696

>  <SCORE.INTRA>
-1.95972

>  <SCORE.INTRA.DIHEDRAL>
2.47182

>  <SCORE.INTRA.DIHEDRAL.0>
7.7847

>  <SCORE.INTRA.POLAR>
0

>  <SCORE.INTRA.POLAR.0>
0

>  <SCORE.INTRA.REPUL>
0

>  <SCORE.INTRA.REPUL.0>
0

>  <SCORE.INTRA.SOLV>
-2.36188

>  <SCORE.INTRA.SOLV.lig_0>
-57.5465

>  <SCORE.INTRA.VDW>
-2.01469

>  <SCORE.INTRA.VDW.0>
1.39369

>  <SCORE.INTRA.norm>
-0.16331

>  <SCORE.RESTR>
0

>  <SCORE.RESTR.CAVITY>
0

>  <SCORE.RESTR.norm>
0

>  <SCORE.SYSTEM>
0

>  <SCORE.SYSTEM.CONST>
0

>  <SCORE.SYSTEM.DIHEDRAL>
0

>  <SCORE.SYSTEM.SOLV>
0

>  <SCORE.SYSTEM.norm>
0

>  <SCORE.heavy>
12

>  <SCORE.norm>
-2.08027

>  <SYMMETRIC_BONDS>
4 1 2

>  <RMSD>
2.743

$$$$
1kod cryst
 OpenBabel11021811393D
libRbt.so/2013.1/901 2013/11/27
 12 11  0  0  0  0  0  0  0  0999 V2000
    3.5141    6.3217   35.2191 C   0  0  0  0  0  0  0  0  0  0  0  0
    3.3387    6.3758   36.4273 O   0  5  0  0  0  0  0  0  0  0  0  0
    4.6126    6.1833   34.6958 O   0  0  0  0  0  0  0  0  0  0  0  0
    2.2779    6.4319   34.3049 C   0  0  1  0  0  0  0  0  0  0  0  0
    2.5016    7.5142   33.2983 N   0  3  0  0  0  0  0  0  0  0  0  0
    2.0160    5.0941   33.5742 C   0  0  0  0  0  0  0  0  0  0  0  0
    1.8788    3.9543   34.5751 C   0  0  0  0  0  0  0  0  0  0  0  0
    1.8005    2.6211   33.8346 C   0  0  0  0  0  0  0  0  0  0  0  0
    2.6275    1.6098   34.5640 N   0  0  0  0  0  0  0  0  0  0  0  0
    2.3903    1.3375   35.8192 C   0  0  0  0  0  0  0  0  0  0  0  0
    3.2888    1.3990   36.6557 O   0  0  0  0  0  0  0  0  0  0  0  0
    1.1948    0.9819   36.1898 N   0  0  0  0  0  0  0  0  0  0  0  0
  1  2  1  0  0  0  0
  1  3  2  0  0  0  0
  4  1  1  1  0  0  0
  4  6  1  0  0  0  0
  4  5  1  0  0  0  0
  6  7  1  0  0  0  0
  7  8  1  0  0  0  0
  8  9  1  0  0  0  0
  9 10  1  0  0  0  0
 10 12  1  0  0  0  0
 10 11  2  0  0  0  0
M  CHG  2   2  -1   5   1
M  END
>  <CHROM.1>
126.85861745,55.51403312,72.19325548,-172.78057286,138.47551452,-122.75756742
2.63413158,4.17032644,34.93283875,-1.30692741,0.91486662,2.69236354

>  <Name>
1kod cryst

>  <RI>
0

>  <Rbt.Current_Directory>
/home/itssahil/PROJECTS/Mol_Feturizer/New_Systems/rnas/1kod

>  <Rbt.Executable>
rbdock ($Id: //depot/dev/client3/rdock/2013.1/src/exe/rbdock.cxx#4 $)

>  <Rbt.Library>
libRbt.so (2013.1, Build901 2013/11/27)

>  <Rbt.Parameter_File>
/export/apps/rDock/src/rDock_2013.1_src/data/scripts/dock_solv.prm

>  <Rbt.Receptor>
prm/pocket_docking_6.prm

>  <SCORE>
-25.1843

>  <SCORE.INTER>
-21.886

>  <SCORE.INTER.CONST>
1

>  <SCORE.INTER.POLAR>
-4.0757

>  <SCORE.INTER.ROT>
5

>  <SCORE.INTER.SOLV>
14.1878

>  <SCORE.INTER.VDW>
-12.6676

>  <SCORE.INTER.norm>
-1.82384

>  <SCORE.INTRA>
-3.29829

>  <SCORE.INTRA.DIHEDRAL>
-0.57413

>  <SCORE.INTRA.DIHEDRAL.0>
7.7847

>  <SCORE.INTRA.POLAR>
0

>  <SCORE.INTRA.POLAR.0>
0

>  <SCORE.INTRA.REPUL>
0

>  <SCORE.INTRA.REPUL.0>
0

>  <SCORE.INTRA.SOLV>
-2.29924

>  <SCORE.INTRA.SOLV.lig_0>
-57.5465

>  <SCORE.INTRA.VDW>
-1.8616

>  <SCORE.INTRA.VDW.0>
1.39369

>  <SCORE.INTRA.norm>
-0.274857

>  <SCORE.RESTR>
0

>  <SCORE.RESTR.CAVITY>
0

>  <SCORE.RESTR.norm>
0

>  <SCORE.SYSTEM>
0

>  <SCORE.SYSTEM.CONST>
0

>  <SCORE.SYSTEM.DIHEDRAL>
0

>  <SCORE.SYSTEM.SOLV>
0

>  <SCORE.SYSTEM.norm>
0

>  <SCORE.heavy>
12

>  <SCORE.norm>
-2.09869

>  <SYMMETRIC_BONDS>
4 1 2

>  <RMSD>
2.763

$$$$
1kod cryst
 OpenBabel11021811393D
libRbt.so/2013.1/901 2013/11/27
 12 11  0  0  0  0  0  0  0  0999 V2000
    3.3445    7.1781   35.6118 C   0  0  0  0  0  0  0  0  0  0  0  0
    2.9374    7.3841   36.7455 O   0  5  0  0  0  0  0  0  0  0  0  0
    4.5261    7.2239   35.2936 O   0  0  0  0  0  0  0  0  0  0  0  0
    2.3071    6.8389   34.5233 C   0  0  1  0  0  0  0  0  0  0  0  0
    2.4794    7.7714   33.3677 N   0  3  0  0  0  0  0  0  0  0  0  0
    2.4786    5.3801   34.0387 C   0  0  0  0  0  0  0  0  0  0  0  0
    2.3952    4.4122   35.2118 C   0  0  0  0  0  0  0  0  0  0  0  0
    2.9666    3.0556   34.8057 C   0  0  0  0  0  0  0  0  0  0  0  0
    1.8396    2.1435   34.4363 N   0  0  0  0  0  0  0  0  0  0  0  0
    1.8504    0.8903   34.8044 C   0  0  0  0  0  0  0  0  0  0  0  0
    1.7026   -0.0079   33.9786 O   0  0  0  0  0  0  0  0  0  0  0  0
    2.0038    0.5856   36.0601 N   0  0  0  0  0  0  0  0  0  0  0  0
  1  2  1  0  0  0  0
  1  3  2  0  0  0  0
  4  1  1  1  0  0  0
  4  6  1  0  0  0  0
  4  5  1  0  0  0  0
  6  7  1  0  0  0  0
  7  8  1  0  0  0  0
  8  9  1  0  0  0  0
  9 10  1  0  0  0  0
 10 12  1  0  0  0  0
 10 11  2  0  0  0  0
M  CHG  2   2  -1   5   1
M  END
>  <CHROM.1>
126.45013143,55.81525714,-33.44917066,-163.28644539,-98.28499429,40.91517709
2.57132230,4.42053551,34.89847395,-1.01049010,1.21382369,2.63670433

>  <Name>
1kod cryst

>  <RI>
0

>  <Rbt.Current_Directory>
/home/itssahil/PROJECTS/Mol_Feturizer/New_Systems/rnas/1kod

>  <Rbt.Executable>
rbdock ($Id: //depot/dev/client3/rdock/2013.1/src/exe/rbdock.cxx#4 $)

>  <Rbt.Library>
libRbt.so (2013.1, Build901 2013/11/27)

>  <Rbt.Parameter_File>
/export/apps/rDock/src/rDock_2013.1_src/data/scripts/dock_solv.prm

>  <Rbt.Receptor>
prm/pocket_docking_4.prm

>  <SCORE>
-24.1788

>  <SCORE.INTER>
-21.7173

>  <SCORE.INTER.CONST>
1

>  <SCORE.INTER.POLAR>
-4.40162

>  <SCORE.INTER.ROT>
5

>  <SCORE.INTER.SOLV>
13.4604

>  <SCORE.INTER.VDW>
-11.2263

>  <SCORE.INTER.norm>
-1.80978

>  <SCORE.INTRA>
-2.71364

>  <SCORE.INTRA.DIHEDRAL>
1.01318

>  <SCORE.INTRA.DIHEDRAL.0>
7.7847

>  <SCORE.INTRA.POLAR>
0

>  <SCORE.INTRA.POLAR.0>
0

>  <SCORE.INTRA.REPUL>
0

>  <SCORE.INTRA.REPUL.0>
0

>  <SCORE.INTRA.SOLV>
-2.48844

>  <SCORE.INTRA.SOLV.lig_0>
-57.5465

>  <SCORE.INTRA.VDW>
-1.97601

>  <SCORE.INTRA.VDW.0>
1.39369

>  <SCORE.INTRA.norm>
-0.226137

>  <SCORE.RESTR>
0.25218

>  <SCORE.RESTR.CAVITY>
0.25218

>  <SCORE.RESTR.norm>
0.021015

>  <SCORE.SYSTEM>
0

>  <SCORE.SYSTEM.CONST>
0

>  <SCORE.SYSTEM.DIHEDRAL>
0

>  <SCORE.SYSTEM.SOLV>
0

>  <SCORE.SYSTEM.norm>
0

>  <SCORE.heavy>
12

>  <SCORE.norm>
-2.0149

>  <SYMMETRIC_BONDS>
4 1 2

>  <RMSD>
2.768

$$$$
1kod cryst
 OpenBabel11021811393D
libRbt.so/2013.1/901 2013/11/27
 12 11  0  0  0  0  0  0  0  0999 V2000
    2.7794    7.2759   35.6015 C   0  0  0  0  0  0  0  0  0  0  0  0
    3.9556    7.6062   35.5760 O   0  5  0  0  0  0  0  0  0  0  0  0
    2.1042    7.2391   36.6225 O   0  0  0  0  0  0  0  0  0  0  0  0
    2.1103    6.8862   34.2686 C   0  0  1  0  0  0  0  0  0  0  0  0
    2.5375    7.8427   33.2022 N   0  3  0  0  0  0  0  0  0  0  0  0
    2.5032    5.4475   33.8585 C   0  0  0  0  0  0  0  0  0  0  0  0
    1.9253    4.4341   34.8377 C   0  0  0  0  0  0  0  0  0  0  0  0
    2.5931    3.0762   34.6323 C   0  0  0  0  0  0  0  0  0  0  0  0
    1.5400    2.0559   34.3349 N   0  0  0  0  0  0  0  0  0  0  0  0
    1.6734    0.8233   34.7461 C   0  0  0  0  0  0  0  0  0  0  0  0
    1.5794   -0.1151   33.9580 O   0  0  0  0  0  0  0  0  0  0  0  0
    1.8931    0.5812   36.0056 N   0  0  0  0  0  0  0  0  0  0  0  0
  1  2  1  0  0  0  0
  1  3  2  0  0  0  0
  4  1  1  1  0  0  0
  4  6  1  0  0  0  0
  4  5  1  0  0  0  0
  6  7  1  0  0  0  0
  7  8  1  0  0  0  0
  8  9  1  0  0  0  0
  9 10  1  0  0  0  0
 10 12  1  0  0  0  0
 10 11  2  0  0  0  0
M  CHG  2   2  -1   5   1
M  END
>  <CHROM.1>
-42.18415248,66.59491259,-142.55455071,-166.02219584,-122.85966665,33.85570501
2.27168362,4.44571786,34.79993055,-0.58753515,1.38389923,2.18931337

>  <Name>
1kod cryst

>  <RI>
0

>  <Rbt.Current_Directory>
/home/itssahil/PROJECTS/Mol_Feturizer/New_Systems/rnas/1kod

>  <Rbt.Executable>
rbdock ($Id: //depot/dev/client3/rdock/2013.1/src/exe/rbdock.cxx#4 $)

>  <Rbt.Library>
libRbt.so (2013.1, Build901 2013/11/27)

>  <Rbt.Parameter_File>
/export/apps/rDock/src/rDock_2013.1_src/data/scripts/dock_solv.prm

>  <Rbt.Receptor>
prm/pocket_docking_6.prm

>  <SCORE>
-24.5692

>  <SCORE.INTER>
-23.0059

>  <SCORE.INTER.CONST>
1

>  <SCORE.INTER.POLAR>
-4.54569

>  <SCORE.INTER.ROT>
5

>  <SCORE.INTER.SOLV>
14.5719

>  <SCORE.INTER.VDW>
-11.9756

>  <SCORE.INTER.norm>
-1.91716

>  <SCORE.INTRA>
-1.56327

>  <SCORE.INTRA.DIHEDRAL>
3.36216

>  <SCORE.INTRA.DIHEDRAL.0>
7.7847

>  <SCORE.INTRA.POLAR>
0

>  <SCORE.INTRA.POLAR.0>
0

>  <SCORE.INTRA.REPUL>
0

>  <SCORE.INTRA.REPUL.0>
0

>  <SCORE.INTRA.SOLV>
-2.69178

>  <SCORE.INTRA.SOLV.lig_0>
-57.5465

>  <SCORE.INTRA.VDW>
-1.89846

>  <SCORE.INTRA.VDW.0>
1.39369

>  <SCORE.INTRA.norm>
-0.130273

>  <SCORE.RESTR>
0

>  <SCORE.RESTR.CAVITY>
0

>  <SCORE.RESTR.norm>
0

>  <SCORE.SYSTEM>
0

>  <SCORE.SYSTEM.CONST>
0

>  <SCORE.SYSTEM.DIHEDRAL>
0

>  <SCORE.SYSTEM.SOLV>
0

>  <SCORE.SYSTEM.norm>
0

>  <SCORE.heavy>
12

>  <SCORE.norm>
-2.04743

>  <SYMMETRIC_BONDS>
4 1 2

>  <RMSD>
2.768

$$$$
1kod cryst
 OpenBabel11021811393D
libRbt.so/2013.1/901 2013/11/27
 12 11  0  0  0  0  0  0  0  0999 V2000
    2.1457    7.2872   35.9130 C   0  0  0  0  0  0  0  0  0  0  0  0
    3.2198    7.4914   36.4588 O   0  5  0  0  0  0  0  0  0  0  0  0
    1.0668    7.3442   36.4896 O   0  0  0  0  0  0  0  0  0  0  0  0
    2.1539    6.9406   34.4110 C   0  0  1  0  0  0  0  0  0  0  0  0
    2.9574    7.9617   33.6719 N   0  3  0  0  0  0  0  0  0  0  0  0
    2.7612    5.5377   34.1759 C   0  0  0  0  0  0  0  0  0  0  0  0
    1.7909    4.4517   34.6221 C   0  0  0  0  0  0  0  0  0  0  0  0
    2.5075    3.1040   34.6689 C   0  0  0  0  0  0  0  0  0  0  0  0
    1.4912    2.0092   34.5835 N   0  0  0  0  0  0  0  0  0  0  0  0
    1.7566    0.8179   35.0486 C   0  0  0  0  0  0  0  0  0  0  0  0
    1.6182   -0.1775   34.3412 O   0  0  0  0  0  0  0  0  0  0  0  0
    2.1576    0.6776   36.2785 N   0  0  0  0  0  0  0  0  0  0  0  0
  1  2  1  0  0  0  0
  1  3  2  0  0  0  0
  4  1  1  1  0  0  0
  4  6  1  0  0  0  0
  4  5  1  0  0  0  0
  6  7  1  0  0  0  0
  7  8  1  0  0  0  0
  8  9  1  0  0  0  0
  9 10  1  0  0  0  0
 10 12  1  0  0  0  0
 10 11  2  0  0  0  0
M  CHG  2   2  -1   5   1
M  END
>  <CHROM.1>
-51.35690493,73.18242757,61.75700404,-167.82049564,-158.44488481,23.62623308
2.14451055,4.47106042,35.06083386,1.10174136,1.36779289,0.49263612

>  <Name>
1kod cryst

>  <RI>
0

>  <Rbt.Current_Directory>
/home/itssahil/PROJECTS/Mol_Feturizer/New_Systems/rnas/1kod

>  <Rbt.Executable>
rbdock ($Id: //depot/dev/client3/rdock/2013.1/src/exe/rbdock.cxx#4 $)

>  <Rbt.Library>
libRbt.so (2013.1, Build901 2013/11/27)

>  <Rbt.Parameter_File>
/export/apps/rDock/src/rDock_2013.1_src/data/scripts/dock_solv.prm

>  <Rbt.Receptor>
prm/pocket_docking_6.prm

>  <SCORE>
-22.9227

>  <SCORE.INTER>
-17.7082

>  <SCORE.INTER.CONST>
1

>  <SCORE.INTER.POLAR>
-3.48786

>  <SCORE.INTER.ROT>
5

>  <SCORE.INTER.SOLV>
11.6468

>  <SCORE.INTER.VDW>
-10.9948

>  <SCORE.INTER.norm>
-1.47568

>  <SCORE.INTRA>
-5.21454

>  <SCORE.INTRA.DIHEDRAL>
-2.76661

>  <SCORE.INTRA.DIHEDRAL.0>
7.7847

>  <SCORE.INTRA.POLAR>
0

>  <SCORE.INTRA.POLAR.0>
0

>  <SCORE.INTRA.REPUL>
0

>  <SCORE.INTRA.REPUL.0>
0

>  <SCORE.INTRA.SOLV>
-2.85349

>  <SCORE.INTRA.SOLV.lig_0>
-57.5465

>  <SCORE.INTRA.VDW>
-2.40449

>  <SCORE.INTRA.VDW.0>
1.39369

>  <SCORE.INTRA.norm>
-0.434545

>  <SCORE.RESTR>
0

>  <SCORE.RESTR.CAVITY>
0

>  <SCORE.RESTR.norm>
0

>  <SCORE.SYSTEM>
0

>  <SCORE.SYSTEM.CONST>
0

>  <SCORE.SYSTEM.DIHEDRAL>
0

>  <SCORE.SYSTEM.SOLV>
0

>  <SCORE.SYSTEM.norm>
0

>  <SCORE.heavy>
12

>  <SCORE.norm>
-1.91023

>  <SYMMETRIC_BONDS>
4 1 2

>  <RMSD>
2.776

$$$$
1kod cryst
 OpenBabel11021811393D
libRbt.so/2013.1/901 2013/11/27
 12 11  0  0  0  0  0  0  0  0999 V2000
    4.2827    5.9238   34.4879 C   0  0  0  0  0  0  0  0  0  0  0  0
    4.9291    6.5389   33.6529 O   0  5  0  0  0  0  0  0  0  0  0  0
    4.7803    5.1697   35.3145 O   0  0  0  0  0  0  0  0  0  0  0  0
    2.7530    6.1134   34.4992 C   0  0  1  0  0  0  0  0  0  0  0  0
    2.4036    7.3628   33.7565 N   0  3  0  0  0  0  0  0  0  0  0  0
    2.0465    4.9064   33.8388 C   0  0  0  0  0  0  0  0  0  0  0  0
    2.3490    3.6241   34.6031 C   0  0  0  0  0  0  0  0  0  0  0  0
    1.6166    2.4505   33.9566 C   0  0  0  0  0  0  0  0  0  0  0  0
    2.4220    1.2053   34.1548 N   0  0  0  0  0  0  0  0  0  0  0  0
    2.3485    0.5370   35.2746 C   0  0  0  0  0  0  0  0  0  0  0  0
    3.3646    0.2583   35.9073 O   0  0  0  0  0  0  0  0  0  0  0  0
    1.1901    0.1470   35.7209 N   0  0  0  0  0  0  0  0  0  0  0  0
  1  2  1  0  0  0  0
  1  3  2  0  0  0  0
  4  1  1  6  0  0  0
  4  6  1  0  0  0  0
  4  5  1  0  0  0  0
  6  7  1  0  0  0  0
  7  8  1  0  0  0  0
  8  9  1  0  0  0  0
  9 10  1  0  0  0  0
 10 12  1  0  0  0  0
 10 11  2  0  0  0  0
M  CHG  2   2  -1   5   1
M  END
>  <CHROM.1>
-18.35193759,61.20279737,75.07040803,178.64210990,149.15171494,-97.66585011
2.88168768,3.70311737,34.59426126,-1.32110129,0.29894716,2.87105888

>  <Name>
1kod cryst

>  <RI>
0

>  <Rbt.Current_Directory>
/home/itssahil/PROJECTS/Mol_Feturizer/New_Systems/rnas/1kod

>  <Rbt.Executable>
rbdock ($Id: //depot/dev/client3/rdock/2013.1/src/exe/rbdock.cxx#4 $)

>  <Rbt.Library>
libRbt.so (2013.1, Build901 2013/11/27)

>  <Rbt.Parameter_File>
/export/apps/rDock/src/rDock_2013.1_src/data/scripts/dock_solv.prm

>  <Rbt.Receptor>
prm/pocket_docking_8.prm

>  <SCORE>
-24.6711

>  <SCORE.INTER>
-20.6273

>  <SCORE.INTER.CONST>
1

>  <SCORE.INTER.POLAR>
-3.81214

>  <SCORE.INTER.ROT>
5

>  <SCORE.INTER.SOLV>
16.8085

>  <SCORE.INTER.VDW>
-13.5805

>  <SCORE.INTER.norm>
-1.71894

>  <SCORE.INTRA>
-4.0438

>  <SCORE.INTRA.DIHEDRAL>
-2.11346

>  <SCORE.INTRA.DIHEDRAL.0>
7.7847

>  <SCORE.INTRA.POLAR>
0

>  <SCORE.INTRA.POLAR.0>
0

>  <SCORE.INTRA.REPUL>
0

>  <SCORE.INTRA.REPUL.0>
0

>  <SCORE.INTRA.SOLV>
-2.14697

>  <SCORE.INTRA.SOLV.lig_0>
-57.5465

>  <SCORE.INTRA.VDW>
-1.91359

>  <SCORE.INTRA.VDW.0>
1.39369

>  <SCORE.INTRA.norm>
-0.336984

>  <SCORE.RESTR>
0

>  <SCORE.RESTR.CAVITY>
0

>  <SCORE.RESTR.norm>
0

>  <SCORE.SYSTEM>
0

>  <SCORE.SYSTEM.CONST>
0

>  <SCORE.SYSTEM.DIHEDRAL>
0

>  <SCORE.SYSTEM.SOLV>
0

>  <SCORE.SYSTEM.norm>
0

>  <SCORE.heavy>
12

>  <SCORE.norm>
-2.05592

>  <SYMMETRIC_BONDS>
4 1 2

>  <RMSD>
2.779

$$$$
1kod cryst
 OpenBabel11021811393D
libRbt.so/2013.1/901 2013/11/27
 12 11  0  0  0  0  0  0  0  0999 V2000
    3.3939    7.1854   35.4774 C   0  0  0  0  0  0  0  0  0  0  0  0
    3.0315    7.2920   36.6395 O   0  5  0  0  0  0  0  0  0  0  0  0
    4.5592    7.2880   35.1151 O   0  0  0  0  0  0  0  0  0  0  0  0
    2.3188    6.9029   34.4094 C   0  0  1  0  0  0  0  0  0  0  0  0
    2.5258    7.8170   33.2448 N   0  3  0  0  0  0  0  0  0  0  0  0
    2.3941    5.4338   33.9316 C   0  0  0  0  0  0  0  0  0  0  0  0
    2.1818    4.4787   35.0990 C   0  0  0  0  0  0  0  0  0  0  0  0
    2.7874    3.1160   34.7703 C   0  0  0  0  0  0  0  0  0  0  0  0
    1.6837    2.1553   34.4584 N   0  0  0  0  0  0  0  0  0  0  0  0
    1.7679    0.9042   34.8243 C   0  0  0  0  0  0  0  0  0  0  0  0
    1.6172   -0.0006   34.0064 O   0  0  0  0  0  0  0  0  0  0  0  0
    1.9987    0.6083   36.0702 N   0  0  0  0  0  0  0  0  0  0  0  0
  1  2  1  0  0  0  0
  1  3  2  0  0  0  0
  4  1  1  1  0  0  0
  4  6  1  0  0  0  0
  4  5  1  0  0  0  0
  6  7  1  0  0  0  0
  7  8  1  0  0  0  0
  8  9  1  0  0  0  0
  9 10  1  0  0  0  0
 10 12  1  0  0  0  0
 10 11  2  0  0  0  0
M  CHG  2   2  -1   5   1
M  END
>  <CHROM.1>
133.46967881,59.55616023,-155.03342817,-157.59343731,-105.34089220,36.47216644
2.52646478,4.44659492,34.82929071,-1.00938845,1.17648062,2.61434474

>  <Name>
1kod cryst

>  <RI>
0

>  <Rbt.Current_Directory>
/home/itssahil/PROJECTS/Mol_Feturizer/New_Systems/rnas/1kod

>  <Rbt.Executable>
rbdock ($Id: //depot/dev/client3/rdock/2013.1/src/exe/rbdock.cxx#4 $)

>  <Rbt.Library>
libRbt.so (2013.1, Build901 2013/11/27)

>  <Rbt.Parameter_File>
/export/apps/rDock/src/rDock_2013.1_src/data/scripts/dock_solv.prm

>  <Rbt.Receptor>
prm/pocket_docking_8.prm

>  <SCORE>
-24.9914

>  <SCORE.INTER>
-22.8724

>  <SCORE.INTER.CONST>
1

>  <SCORE.INTER.POLAR>
-4.58188

>  <SCORE.INTER.ROT>
5

>  <SCORE.INTER.SOLV>
13.9447

>  <SCORE.INTER.VDW>
-11.5569

>  <SCORE.INTER.norm>
-1.90603

>  <SCORE.INTRA>
-2.11903

>  <SCORE.INTRA.DIHEDRAL>
2.4084

>  <SCORE.INTRA.DIHEDRAL.0>
7.7847

>  <SCORE.INTRA.POLAR>
0

>  <SCORE.INTRA.POLAR.0>
0

>  <SCORE.INTRA.REPUL>
0

>  <SCORE.INTRA.REPUL.0>
0

>  <SCORE.INTRA.SOLV>
-2.45412

>  <SCORE.INTRA.SOLV.lig_0>
-57.5465

>  <SCORE.INTRA.VDW>
-2.09617

>  <SCORE.INTRA.VDW.0>
1.39369

>  <SCORE.INTRA.norm>
-0.176586

>  <SCORE.RESTR>
0

>  <SCORE.RESTR.CAVITY>
0

>  <SCORE.RESTR.norm>
0

>  <SCORE.SYSTEM>
0

>  <SCORE.SYSTEM.CONST>
0

>  <SCORE.SYSTEM.DIHEDRAL>
0

>  <SCORE.SYSTEM.SOLV>
0

>  <SCORE.SYSTEM.norm>
0

>  <SCORE.heavy>
12

>  <SCORE.norm>
-2.08262

>  <SYMMETRIC_BONDS>
4 1 2

>  <RMSD>
2.785

$$$$
1kod cryst
 OpenBabel11021811393D
libRbt.so/2013.1/901 2013/11/27
 12 11  0  0  0  0  0  0  0  0999 V2000
    3.1517    6.8353   35.4311 C   0  0  0  0  0  0  0  0  0  0  0  0
    2.7002    6.7823   36.5654 O   0  5  0  0  0  0  0  0  0  0  0  0
    4.3456    6.9340   35.1771 O   0  0  0  0  0  0  0  0  0  0  0  0
    2.1572    6.7714   34.2550 C   0  0  1  0  0  0  0  0  0  0  0  0
    2.4887    7.8437   33.2677 N   0  3  0  0  0  0  0  0  0  0  0  0
    2.2205    5.3918   33.5586 C   0  0  0  0  0  0  0  0  0  0  0  0
    1.7836    4.2885   34.5135 C   0  0  0  0  0  0  0  0  0  0  0  0
    2.0384    2.9232   33.8790 C   0  0  0  0  0  0  0  0  0  0  0  0
    1.6975    1.8548   34.8696 N   0  0  0  0  0  0  0  0  0  0  0  0
    2.6239    1.0615   35.3370 C   0  0  0  0  0  0  0  0  0  0  0  0
    2.4931   -0.1592   35.2787 O   0  0  0  0  0  0  0  0  0  0  0  0
    3.6914    1.5648   35.8849 N   0  0  0  0  0  0  0  0  0  0  0  0
  1  2  1  0  0  0  0
  1  3  2  0  0  0  0
  4  1  1  1  0  0  0
  4  6  1  0  0  0  0
  4  5  1  0  0  0  0
  6  7  1  0  0  0  0
  7  8  1  0  0  0  0
  8  9  1  0  0  0  0
  9 10  1  0  0  0  0
 10 12  1  0  0  0  0
 10 11  2  0  0  0  0
M  CHG  2   2  -1   5   1
M  END
>  <CHROM.1>
133.23290276,63.69214430,-160.89775646,-172.05831007,175.88026207,64.74238923
2.63686025,4.36224698,34.83954220,-1.47565168,0.95984566,2.96407288

>  <Name>
1kod cryst

>  <RI>
0

>  <Rbt.Current_Directory>
/home/itssahil/PROJECTS/Mol_Feturizer/New_Systems/rnas/1kod

>  <Rbt.Executable>
rbdock ($Id: //depot/dev/client3/rdock/2013.1/src/exe/rbdock.cxx#4 $)

>  <Rbt.Library>
libRbt.so (2013.1, Build901 2013/11/27)

>  <Rbt.Parameter_File>
/export/apps/rDock/src/rDock_2013.1_src/data/scripts/dock_solv.prm

>  <Rbt.Receptor>
prm/pocket_docking_6.prm

>  <SCORE>
-26.8256

>  <SCORE.INTER>
-20.8803

>  <SCORE.INTER.CONST>
1

>  <SCORE.INTER.POLAR>
-3.98325

>  <SCORE.INTER.ROT>
5

>  <SCORE.INTER.SOLV>
13.9497

>  <SCORE.INTER.VDW>
-12.2259

>  <SCORE.INTER.norm>
-1.74003

>  <SCORE.INTRA>
-5.94523

>  <SCORE.INTRA.DIHEDRAL>
-4.34454

>  <SCORE.INTRA.DIHEDRAL.0>
7.7847

>  <SCORE.INTRA.POLAR>
0

>  <SCORE.INTRA.POLAR.0>
0

>  <SCORE.INTRA.REPUL>
0

>  <SCORE.INTRA.REPUL.0>
0

>  <SCORE.INTRA.SOLV>
-2.65541

>  <SCORE.INTRA.SOLV.lig_0>
-57.5465

>  <SCORE.INTRA.VDW>
-2.44526

>  <SCORE.INTRA.VDW.0>
1.39369

>  <SCORE.INTRA.norm>
-0.495436

>  <SCORE.RESTR>
0

>  <SCORE.RESTR.CAVITY>
0

>  <SCORE.RESTR.norm>
0

>  <SCORE.SYSTEM>
0

>  <SCORE.SYSTEM.CONST>
0

>  <SCORE.SYSTEM.DIHEDRAL>
0

>  <SCORE.SYSTEM.SOLV>
0

>  <SCORE.SYSTEM.norm>
0

>  <SCORE.heavy>
12

>  <SCORE.norm>
-2.23546

>  <SYMMETRIC_BONDS>
4 1 2

>  <RMSD>
2.786

$$$$
1kod cryst
 OpenBabel11021811393D
libRbt.so/2013.1/901 2013/11/27
 12 11  0  0  0  0  0  0  0  0999 V2000
    1.9428    7.2775   35.8782 C   0  0  0  0  0  0  0  0  0  0  0  0
    2.9116    7.7370   36.4645 O   0  5  0  0  0  0  0  0  0  0  0  0
    0.8552    7.0844   36.4069 O   0  0  0  0  0  0  0  0  0  0  0  0
    2.1031    6.9246   34.3862 C   0  0  1  0  0  0  0  0  0  0  0  0
    2.9533    7.9589   33.7215 N   0  3  0  0  0  0  0  0  0  0  0  0
    2.7585    5.5336   34.2198 C   0  0  0  0  0  0  0  0  0  0  0  0
    1.7668    4.4292   34.5615 C   0  0  0  0  0  0  0  0  0  0  0  0
    2.5013    3.0975   34.6987 C   0  0  0  0  0  0  0  0  0  0  0  0
    1.5069    1.9825   34.6174 N   0  0  0  0  0  0  0  0  0  0  0  0
    1.7582    0.8259   35.1699 C   0  0  0  0  0  0  0  0  0  0  0  0
    1.6776   -0.2124   34.5172 O   0  0  0  0  0  0  0  0  0  0  0  0
    2.0828    0.7665   36.4286 N   0  0  0  0  0  0  0  0  0  0  0  0
  1  2  1  0  0  0  0
  1  3  2  0  0  0  0
  4  1  1  1  0  0  0
  4  6  1  0  0  0  0
  4  5  1  0  0  0  0
  6  7  1  0  0  0  0
  7  8  1  0  0  0  0
  8  9  1  0  0  0  0
  9 10  1  0  0  0  0
 10 12  1  0  0  0  0
 10 11  2  0  0  0  0
M  CHG  2   2  -1   5   1
M  END
>  <CHROM.1>
-38.49318553,73.84767162,-178.70489250,-167.33819742,-162.96569873,25.07323765
2.07631461,4.46834787,35.09651327,1.29919675,1.28698391,0.27226882

>  <Name>
1kod cryst

>  <RI>
0

>  <Rbt.Current_Directory>
/home/itssahil/PROJECTS/Mol_Feturizer/New_Systems/rnas/1kod

>  <Rbt.Executable>
rbdock ($Id: //depot/dev/client3/rdock/2013.1/src/exe/rbdock.cxx#4 $)

>  <Rbt.Library>
libRbt.so (2013.1, Build901 2013/11/27)

>  <Rbt.Parameter_File>
/export/apps/rDock/src/rDock_2013.1_src/data/scripts/dock_solv.prm

>  <Rbt.Receptor>
prm/pocket_docking_5.prm

>  <SCORE>
-23.3528

>  <SCORE.INTER>
-17.9743

>  <SCORE.INTER.CONST>
1

>  <SCORE.INTER.POLAR>
-3.48408

>  <SCORE.INTER.ROT>
5

>  <SCORE.INTER.SOLV>
11.5835

>  <SCORE.INTER.VDW>
-11.1638

>  <SCORE.INTER.norm>
-1.49786

>  <SCORE.INTRA>
-5.37849

>  <SCORE.INTRA.DIHEDRAL>
-3.21656

>  <SCORE.INTRA.DIHEDRAL.0>
7.7847

>  <SCORE.INTRA.POLAR>
0

>  <SCORE.INTRA.POLAR.0>
0

>  <SCORE.INTRA.REPUL>
0

>  <SCORE.INTRA.REPUL.0>
0

>  <SCORE.INTRA.SOLV>
-2.70517

>  <SCORE.INTRA.SOLV.lig_0>
-57.5465

>  <SCORE.INTRA.VDW>
-2.41762

>  <SCORE.INTRA.VDW.0>
1.39369

>  <SCORE.INTRA.norm>
-0.448207

>  <SCORE.RESTR>
0

>  <SCORE.RESTR.CAVITY>
0

>  <SCORE.RESTR.norm>
0

>  <SCORE.SYSTEM>
0

>  <SCORE.SYSTEM.CONST>
0

>  <SCORE.SYSTEM.DIHEDRAL>
0

>  <SCORE.SYSTEM.SOLV>
0

>  <SCORE.SYSTEM.norm>
0

>  <SCORE.heavy>
12

>  <SCORE.norm>
-1.94607

>  <SYMMETRIC_BONDS>
4 1 2

>  <RMSD>
2.797

$$$$
1kod cryst
 OpenBabel11021811393D
libRbt.so/2013.1/901 2013/11/27
 12 11  0  0  0  0  0  0  0  0999 V2000
    2.0142    6.4706   35.6846 C   0  0  0  0  0  0  0  0  0  0  0  0
    3.0133    6.6274   36.3706 O   0  5  0  0  0  0  0  0  0  0  0  0
    0.8751    6.6802   36.0823 O   0  0  0  0  0  0  0  0  0  0  0  0
    2.2039    5.9833   34.2345 C   0  0  1  0  0  0  0  0  0  0  0  0
    2.5285    7.1503   33.3586 N   0  3  0  0  0  0  0  0  0  0  0  0
    3.3451    4.9427   34.1512 C   0  0  0  0  0  0  0  0  0  0  0  0
    2.9820    3.6850   34.9299 C   0  0  0  0  0  0  0  0  0  0  0  0
    4.1107    2.6626   34.8183 C   0  0  0  0  0  0  0  0  0  0  0  0
    3.7747    1.4728   35.6610 N   0  0  0  0  0  0  0  0  0  0  0  0
    2.5358    1.0818   35.7955 C   0  0  0  0  0  0  0  0  0  0  0  0
    2.0443    0.9258   36.9112 O   0  0  0  0  0  0  0  0  0  0  0  0
    1.8152    0.8390   34.7396 N   0  0  0  0  0  0  0  0  0  0  0  0
  1  2  1  0  0  0  0
  1  3  2  0  0  0  0
  4  1  1  1  0  0  0
  4  6  1  0  0  0  0
  4  5  1  0  0  0  0
  6  7  1  0  0  0  0
  7  8  1  0  0  0  0
  8  9  1  0  0  0  0
  9 10  1  0  0  0  0
 10 12  1  0  0  0  0
 10 11  2  0  0  0  0
M  CHG  2   2  -1   5   1
M  END
>  <CHROM.1>
-82.85453140,64.71712169,144.97131209,179.14385737,176.34962044,-145.89406985
2.59088945,4.06491660,35.22290124,1.71574769,0.97642644,-0.25813193

>  <Name>
1kod cryst

>  <RI>
0

>  <Rbt.Current_Directory>
/home/itssahil/PROJECTS/Mol_Feturizer/New_Systems/rnas/1kod

>  <Rbt.Executable>
rbdock ($Id: //depot/dev/client3/rdock/2013.1/src/exe/rbdock.cxx#4 $)

>  <Rbt.Library>
libRbt.so (2013.1, Build901 2013/11/27)

>  <Rbt.Parameter_File>
/export/apps/rDock/src/rDock_2013.1_src/data/scripts/dock_solv.prm

>  <Rbt.Receptor>
prm/pocket_docking_3.prm

>  <SCORE>
-19.049

>  <SCORE.INTER>
-16.1603

>  <SCORE.INTER.CONST>
1

>  <SCORE.INTER.POLAR>
-3.54069

>  <SCORE.INTER.ROT>
5

>  <SCORE.INTER.SOLV>
14.9954

>  <SCORE.INTER.VDW>
-10.903

>  <SCORE.INTER.norm>
-1.34669

>  <SCORE.INTRA>
-2.95817

>  <SCORE.INTRA.DIHEDRAL>
-3.14654

>  <SCORE.INTRA.DIHEDRAL.0>
7.7847

>  <SCORE.INTRA.POLAR>
0

>  <SCORE.INTRA.POLAR.0>
0

>  <SCORE.INTRA.REPUL>
0

>  <SCORE.INTRA.REPUL.0>
0

>  <SCORE.INTRA.SOLV>
-2.27814

>  <SCORE.INTRA.SOLV.lig_0>
-57.5465

>  <SCORE.INTRA.VDW>
-0.245832

>  <SCORE.INTRA.VDW.0>
1.39369

>  <SCORE.INTRA.norm>
-0.246515

>  <SCORE.RESTR>
0.0694156

>  <SCORE.RESTR.CAVITY>
0.0694156

>  <SCORE.RESTR.norm>
0.00578463

>  <SCORE.SYSTEM>
0

>  <SCORE.SYSTEM.CONST>
0

>  <SCORE.SYSTEM.DIHEDRAL>
0

>  <SCORE.SYSTEM.SOLV>
0

>  <SCORE.SYSTEM.norm>
0

>  <SCORE.heavy>
12

>  <SCORE.norm>
-1.58742

>  <SYMMETRIC_BONDS>
4 1 2

>  <RMSD>
2.799

$$$$
1kod cryst
 OpenBabel11021811393D
libRbt.so/2013.1/901 2013/11/27
 12 11  0  0  0  0  0  0  0  0999 V2000
    2.5931    7.6034   35.6132 C   0  0  0  0  0  0  0  0  0  0  0  0
    2.0057    7.1687   36.5927 O   0  5  0  0  0  0  0  0  0  0  0  0
    3.5086    8.4146   35.6723 O   0  0  0  0  0  0  0  0  0  0  0  0
    2.1544    7.0965   34.2251 C   0  0  1  0  0  0  0  0  0  0  0  0
    2.4991    8.1209   33.1924 N   0  3  0  0  0  0  0  0  0  0  0  0
    2.8569    5.7619   33.8822 C   0  0  0  0  0  0  0  0  0  0  0  0
    2.4351    4.6685   34.8550 C   0  0  0  0  0  0  0  0  0  0  0  0
    1.3581    3.7942   34.2166 C   0  0  0  0  0  0  0  0  0  0  0  0
    1.3980    2.4366   34.8442 N   0  0  0  0  0  0  0  0  0  0  0  0
    2.1125    1.4800   34.3146 C   0  0  0  0  0  0  0  0  0  0  0  0
    1.6067    0.3917   34.0494 O   0  0  0  0  0  0  0  0  0  0  0  0
    3.3775    1.6720   34.0776 N   0  0  0  0  0  0  0  0  0  0  0  0
  1  2  1  0  0  0  0
  1  3  2  0  0  0  0
  4  1  1  1  0  0  0
  4  6  1  0  0  0  0
  4  5  1  0  0  0  0
  6  7  1  0  0  0  0
  7  8  1  0  0  0  0
  8  9  1  0  0  0  0
  9 10  1  0  0  0  0
 10 12  1  0  0  0  0
 10 11  2  0  0  0  0
M  CHG  2   2  -1   5   1
M  END
>  <CHROM.1>
154.61443698,63.91159336,-62.40322248,99.60461545,154.30451571,87.35183502
2.34112802,4.90299755,34.61998882,1.06200349,1.36852974,0.61232687

>  <Name>
1kod cryst

>  <RI>
0

>  <Rbt.Current_Directory>
/home/itssahil/PROJECTS/Mol_Feturizer/New_Systems/rnas/1kod

>  <Rbt.Executable>
rbdock ($Id: //depot/dev/client3/rdock/2013.1/src/exe/rbdock.cxx#4 $)

>  <Rbt.Library>
libRbt.so (2013.1, Build901 2013/11/27)

>  <Rbt.Parameter_File>
/export/apps/rDock/src/rDock_2013.1_src/data/scripts/dock_solv.prm

>  <Rbt.Receptor>
prm/pocket_docking_6.prm

>  <SCORE>
-20.8571

>  <SCORE.INTER>
-18.3156

>  <SCORE.INTER.CONST>
1

>  <SCORE.INTER.POLAR>
-3.74165

>  <SCORE.INTER.ROT>
5

>  <SCORE.INTER.SOLV>
13.6825

>  <SCORE.INTER.VDW>
-11.2324

>  <SCORE.INTER.norm>
-1.5263

>  <SCORE.INTRA>
-2.54155

>  <SCORE.INTRA.DIHEDRAL>
1.2031

>  <SCORE.INTRA.DIHEDRAL.0>
7.7847

>  <SCORE.INTRA.POLAR>
0

>  <SCORE.INTRA.POLAR.0>
0

>  <SCORE.INTRA.REPUL>
0

>  <SCORE.INTRA.REPUL.0>
0

>  <SCORE.INTRA.SOLV>
-1.95898

>  <SCORE.INTRA.SOLV.lig_0>
-57.5465

>  <SCORE.INTRA.VDW>
-2.16361

>  <SCORE.INTRA.VDW.0>
1.39369

>  <SCORE.INTRA.norm>
-0.211796

>  <SCORE.RESTR>
0

>  <SCORE.RESTR.CAVITY>
0

>  <SCORE.RESTR.norm>
0

>  <SCORE.SYSTEM>
0

>  <SCORE.SYSTEM.CONST>
0

>  <SCORE.SYSTEM.DIHEDRAL>
0

>  <SCORE.SYSTEM.SOLV>
0

>  <SCORE.SYSTEM.norm>
0

>  <SCORE.heavy>
12

>  <SCORE.norm>
-1.73809

>  <SYMMETRIC_BONDS>
4 1 2

>  <RMSD>
2.801

$$$$
1kod cryst
 OpenBabel11021811393D
libRbt.so/2013.1/901 2013/11/27
 12 11  0  0  0  0  0  0  0  0999 V2000
    3.7204    6.4710   35.1984 C   0  0  0  0  0  0  0  0  0  0  0  0
    4.7403    6.2302   34.5697 O   0  5  0  0  0  0  0  0  0  0  0  0
    3.6890    6.6237   36.4130 O   0  0  0  0  0  0  0  0  0  0  0  0
    2.3998    6.5912   34.4124 C   0  0  1  0  0  0  0  0  0  0  0  0
    2.5579    7.6125   33.3323 N   0  3  0  0  0  0  0  0  0  0  0  0
    2.0107    5.2324   33.7843 C   0  0  0  0  0  0  0  0  0  0  0  0
    1.9027    4.1569   34.8574 C   0  0  0  0  0  0  0  0  0  0  0  0
    1.4028    2.8543   34.2369 C   0  0  0  0  0  0  0  0  0  0  0  0
    2.4891    1.8285   34.3171 N   0  0  0  0  0  0  0  0  0  0  0  0
    2.6137    1.0734   35.3755 C   0  0  0  0  0  0  0  0  0  0  0  0
    3.6867    0.9977   35.9700 O   0  0  0  0  0  0  0  0  0  0  0  0
    1.5974    0.3801   35.7994 N   0  0  0  0  0  0  0  0  0  0  0  0
  1  2  1  0  0  0  0
  1  3  2  0  0  0  0
  4  1  1  6  0  0  0
  4  6  1  0  0  0  0
  4  5  1  0  0  0  0
  6  7  1  0  0  0  0
  7  8  1  0  0  0  0
  8  9  1  0  0  0  0
  9 10  1  0  0  0  0
 10 12  1  0  0  0  0
 10 11  2  0  0  0  0
M  CHG  2   2  -1   5   1
M  END
>  <CHROM.1>
-54.83476149,56.88200677,-53.41305619,175.18739545,113.87460801,-92.32756542
2.75267872,4.18417189,34.84989550,-1.38028147,0.68642501,2.87014308

>  <Name>
1kod cryst

>  <RI>
0

>  <Rbt.Current_Directory>
/home/itssahil/PROJECTS/Mol_Feturizer/New_Systems/rnas/1kod

>  <Rbt.Executable>
rbdock ($Id: //depot/dev/client3/rdock/2013.1/src/exe/rbdock.cxx#4 $)

>  <Rbt.Library>
libRbt.so (2013.1, Build901 2013/11/27)

>  <Rbt.Parameter_File>
/export/apps/rDock/src/rDock_2013.1_src/data/scripts/dock_solv.prm

>  <Rbt.Receptor>
prm/pocket_docking_6.prm

>  <SCORE>
-24.9146

>  <SCORE.INTER>
-21.4255

>  <SCORE.INTER.CONST>
1

>  <SCORE.INTER.POLAR>
-4.06054

>  <SCORE.INTER.ROT>
5

>  <SCORE.INTER.SOLV>
14.6151

>  <SCORE.INTER.VDW>
-12.5536

>  <SCORE.INTER.norm>
-1.78546

>  <SCORE.INTRA>
-3.48911

>  <SCORE.INTRA.DIHEDRAL>
0.0765884

>  <SCORE.INTRA.DIHEDRAL.0>
7.7847

>  <SCORE.INTRA.POLAR>
0

>  <SCORE.INTRA.POLAR.0>
0

>  <SCORE.INTRA.REPUL>
0

>  <SCORE.INTRA.REPUL.0>
0

>  <SCORE.INTRA.SOLV>
-2.44902

>  <SCORE.INTRA.SOLV.lig_0>
-57.5465

>  <SCORE.INTRA.VDW>
-2.3029

>  <SCORE.INTRA.VDW.0>
1.39369

>  <SCORE.INTRA.norm>
-0.290759

>  <SCORE.RESTR>
0

>  <SCORE.RESTR.CAVITY>
0

>  <SCORE.RESTR.norm>
0

>  <SCORE.SYSTEM>
0

>  <SCORE.SYSTEM.CONST>
0

>  <SCORE.SYSTEM.DIHEDRAL>
0

>  <SCORE.SYSTEM.SOLV>
0

>  <SCORE.SYSTEM.norm>
0

>  <SCORE.heavy>
12

>  <SCORE.norm>
-2.07622

>  <SYMMETRIC_BONDS>
4 1 2

>  <RMSD>
2.806

$$$$
1kod cryst
 OpenBabel11021811393D
libRbt.so/2013.1/901 2013/11/27
 12 11  0  0  0  0  0  0  0  0999 V2000
    2.5282    7.5471   35.7737 C   0  0  0  0  0  0  0  0  0  0  0  0
    1.9843    7.1087   36.7764 O   0  5  0  0  0  0  0  0  0  0  0  0
    3.3616    8.4443   35.7879 O   0  0  0  0  0  0  0  0  0  0  0  0
    2.1416    6.9302   34.4150 C   0  0  1  0  0  0  0  0  0  0  0  0
    2.5817    7.8413   33.3146 N   0  3  0  0  0  0  0  0  0  0  0  0
    2.8051    5.5449   34.2338 C   0  0  0  0  0  0  0  0  0  0  0  0
    1.7695    4.4345   34.3537 C   0  0  0  0  0  0  0  0  0  0  0  0
    2.4561    3.1243   34.7328 C   0  0  0  0  0  0  0  0  0  0  0  0
    1.4621    2.0097   34.6416 N   0  0  0  0  0  0  0  0  0  0  0  0
    1.7362    0.8323   35.1362 C   0  0  0  0  0  0  0  0  0  0  0  0
    1.6343   -0.1785   34.4444 O   0  0  0  0  0  0  0  0  0  0  0  0
    2.1066    0.7223   36.3787 N   0  0  0  0  0  0  0  0  0  0  0  0
  1  2  1  0  0  0  0
  1  3  2  0  0  0  0
  4  1  1  1  0  0  0
  4  6  1  0  0  0  0
  4  5  1  0  0  0  0
  6  7  1  0  0  0  0
  7  8  1  0  0  0  0
  8  9  1  0  0  0  0
  9 10  1  0  0  0  0
 10 12  1  0  0  0  0
 10 11  2  0  0  0  0
M  CHG  2   2  -1   5   1
M  END
>  <CHROM.1>
163.29679102,107.84122147,-169.57084391,-157.40523350,-171.44648700,11.96961777
2.21913395,4.54731348,34.99809674,-0.29119855,1.44118108,1.85930201

>  <Name>
1kod cryst

>  <RI>
0

>  <Rbt.Current_Directory>
/home/itssahil/PROJECTS/Mol_Feturizer/New_Systems/rnas/1kod

>  <Rbt.Executable>
rbdock ($Id: //depot/dev/client3/rdock/2013.1/src/exe/rbdock.cxx#4 $)

>  <Rbt.Library>
libRbt.so (2013.1, Build901 2013/11/27)

>  <Rbt.Parameter_File>
/export/apps/rDock/src/rDock_2013.1_src/data/scripts/dock_solv.prm

>  <Rbt.Receptor>
prm/pocket_docking_5.prm

>  <SCORE>
-22.6495

>  <SCORE.INTER>
-19.7311

>  <SCORE.INTER.CONST>
1

>  <SCORE.INTER.POLAR>
-3.85762

>  <SCORE.INTER.ROT>
5

>  <SCORE.INTER.SOLV>
13.9891

>  <SCORE.INTER.VDW>
-11.8917

>  <SCORE.INTER.norm>
-1.64426

>  <SCORE.INTRA>
-2.91834

>  <SCORE.INTRA.DIHEDRAL>
1.51984

>  <SCORE.INTRA.DIHEDRAL.0>
7.7847

>  <SCORE.INTRA.POLAR>
0

>  <SCORE.INTRA.POLAR.0>
0

>  <SCORE.INTRA.REPUL>
0

>  <SCORE.INTRA.REPUL.0>
0

>  <SCORE.INTRA.SOLV>
-2.76307

>  <SCORE.INTRA.SOLV.lig_0>
-57.5465

>  <SCORE.INTRA.VDW>
-2.29672

>  <SCORE.INTRA.VDW.0>
1.39369

>  <SCORE.INTRA.norm>
-0.243195

>  <SCORE.RESTR>
0

>  <SCORE.RESTR.CAVITY>
0

>  <SCORE.RESTR.norm>
0

>  <SCORE.SYSTEM>
0

>  <SCORE.SYSTEM.CONST>
0

>  <SCORE.SYSTEM.DIHEDRAL>
0

>  <SCORE.SYSTEM.SOLV>
0

>  <SCORE.SYSTEM.norm>
0

>  <SCORE.heavy>
12

>  <SCORE.norm>
-1.88745

>  <SYMMETRIC_BONDS>
4 1 2

>  <RMSD>
2.808

$$$$
1kod cryst
 OpenBabel11021811393D
libRbt.so/2013.1/901 2013/11/27
 12 11  0  0  0  0  0  0  0  0999 V2000
    3.7120    6.2704   35.0805 C   0  0  0  0  0  0  0  0  0  0  0  0
    3.6964    6.3938   36.2961 O   0  5  0  0  0  0  0  0  0  0  0  0
    4.7212    6.0180   34.4343 O   0  0  0  0  0  0  0  0  0  0  0  0
    2.3815    6.4407   34.3209 C   0  0  1  0  0  0  0  0  0  0  0  0
    2.5198    7.5437   33.3215 N   0  3  0  0  0  0  0  0  0  0  0  0
    1.9944    5.1315   33.5938 C   0  0  0  0  0  0  0  0  0  0  0  0
    2.0845    3.9440   34.5434 C   0  0  0  0  0  0  0  0  0  0  0  0
    1.8455    2.6465   33.7745 C   0  0  0  0  0  0  0  0  0  0  0  0
    2.6199    1.5447   34.4263 N   0  0  0  0  0  0  0  0  0  0  0  0
    2.4922    1.3082   35.7045 C   0  0  0  0  0  0  0  0  0  0  0  0
    3.4787    1.2628   36.4362 O   0  0  0  0  0  0  0  0  0  0  0  0
    1.3110    1.1028   36.2100 N   0  0  0  0  0  0  0  0  0  0  0  0
  1  2  1  0  0  0  0
  1  3  2  0  0  0  0
  4  1  1  6  0  0  0
  4  6  1  0  0  0  0
  4  5  1  0  0  0  0
  6  7  1  0  0  0  0
  7  8  1  0  0  0  0
  8  9  1  0  0  0  0
  9 10  1  0  0  0  0
 10 12  1  0  0  0  0
 10 11  2  0  0  0  0
M  CHG  2   2  -1   5   1
M  END
>  <CHROM.1>
121.59237085,49.45239237,-175.73582780,-173.97655368,149.44237090,-126.95939603
2.75144040,4.15235328,34.84747973,-1.33640486,0.82758573,2.73658769

>  <Name>
1kod cryst

>  <RI>
0

>  <Rbt.Current_Directory>
/home/itssahil/PROJECTS/Mol_Feturizer/New_Systems/rnas/1kod

>  <Rbt.Executable>
rbdock ($Id: //depot/dev/client3/rdock/2013.1/src/exe/rbdock.cxx#4 $)

>  <Rbt.Library>
libRbt.so (2013.1, Build901 2013/11/27)

>  <Rbt.Parameter_File>
/export/apps/rDock/src/rDock_2013.1_src/data/scripts/dock_solv.prm

>  <Rbt.Receptor>
prm/pocket_docking_6.prm

>  <SCORE>
-25.3351

>  <SCORE.INTER>
-21.6653

>  <SCORE.INTER.CONST>
1

>  <SCORE.INTER.POLAR>
-4.03546

>  <SCORE.INTER.ROT>
5

>  <SCORE.INTER.SOLV>
14.3938

>  <SCORE.INTER.VDW>
-12.7233

>  <SCORE.INTER.norm>
-1.80544

>  <SCORE.INTRA>
-3.66982

>  <SCORE.INTRA.DIHEDRAL>
-2.1212

>  <SCORE.INTRA.DIHEDRAL.0>
7.7847

>  <SCORE.INTRA.POLAR>
0

>  <SCORE.INTRA.POLAR.0>
0

>  <SCORE.INTRA.REPUL>
0

>  <SCORE.INTRA.REPUL.0>
0

>  <SCORE.INTRA.SOLV>
-2.18495

>  <SCORE.INTRA.SOLV.lig_0>
-57.5465

>  <SCORE.INTRA.VDW>
-1.51675

>  <SCORE.INTRA.VDW.0>
1.39369

>  <SCORE.INTRA.norm>
-0.305819

>  <SCORE.RESTR>
0

>  <SCORE.RESTR.CAVITY>
0

>  <SCORE.RESTR.norm>
0

>  <SCORE.SYSTEM>
0

>  <SCORE.SYSTEM.CONST>
0

>  <SCORE.SYSTEM.DIHEDRAL>
0

>  <SCORE.SYSTEM.SOLV>
0

>  <SCORE.SYSTEM.norm>
0

>  <SCORE.heavy>
12

>  <SCORE.norm>
-2.11126

>  <SYMMETRIC_BONDS>
4 1 2

>  <RMSD>
2.808

$$$$
1kod cryst
 OpenBabel11021811393D
libRbt.so/2013.1/901 2013/11/27
 12 11  0  0  0  0  0  0  0  0999 V2000
    3.0103    7.2852   35.6047 C   0  0  0  0  0  0  0  0  0  0  0  0
    4.1951    7.5562   35.4774 O   0  5  0  0  0  0  0  0  0  0  0  0
    2.4196    7.2997   36.6773 O   0  0  0  0  0  0  0  0  0  0  0  0
    2.2168    6.9063   34.3386 C   0  0  1  0  0  0  0  0  0  0  0  0
    2.5361    7.8752   33.2459 N   0  3  0  0  0  0  0  0  0  0  0  0
    2.5725    5.4734   33.8776 C   0  0  0  0  0  0  0  0  0  0  0  0
    1.8370    4.4405   34.7214 C   0  0  0  0  0  0  0  0  0  0  0  0
    2.5237    3.0827   34.5930 C   0  0  0  0  0  0  0  0  0  0  0  0
    1.4795    2.0206   34.4510 N   0  0  0  0  0  0  0  0  0  0  0  0
    1.7126    0.8006   34.8552 C   0  0  0  0  0  0  0  0  0  0  0  0
    1.5499   -0.1536   34.0978 O   0  0  0  0  0  0  0  0  0  0  0  0
    2.1069    0.5876   36.0768 N   0  0  0  0  0  0  0  0  0  0  0  0
  1  2  1  0  0  0  0
  1  3  2  0  0  0  0
  4  1  1  1  0  0  0
  4  6  1  0  0  0  0
  4  5  1  0  0  0  0
  6  7  1  0  0  0  0
  7  8  1  0  0  0  0
  8  9  1  0  0  0  0
  9 10  1  0  0  0  0
 10 12  1  0  0  0  0
 10 11  2  0  0  0  0
M  CHG  2   2  -1   5   1
M  END
>  <CHROM.1>
-45.74427246,79.17294293,-144.58649887,-161.06880447,-137.46600463,27.90752688
2.35323161,4.44752262,34.83175143,-0.90235728,1.28929796,2.50283058

>  <Name>
1kod cryst

>  <RI>
0

>  <Rbt.Current_Directory>
/home/itssahil/PROJECTS/Mol_Feturizer/New_Systems/rnas/1kod

>  <Rbt.Executable>
rbdock ($Id: //depot/dev/client3/rdock/2013.1/src/exe/rbdock.cxx#4 $)

>  <Rbt.Library>
libRbt.so (2013.1, Build901 2013/11/27)

>  <Rbt.Parameter_File>
/export/apps/rDock/src/rDock_2013.1_src/data/scripts/dock_solv.prm

>  <Rbt.Receptor>
prm/pocket_docking_5.prm

>  <SCORE>
-24.3877

>  <SCORE.INTER>
-22.7848

>  <SCORE.INTER.CONST>
1

>  <SCORE.INTER.POLAR>
-4.52329

>  <SCORE.INTER.ROT>
5

>  <SCORE.INTER.SOLV>
14.2476

>  <SCORE.INTER.VDW>
-11.7948

>  <SCORE.INTER.norm>
-1.89873

>  <SCORE.INTRA>
-1.60291

>  <SCORE.INTRA.DIHEDRAL>
3.77129

>  <SCORE.INTRA.DIHEDRAL.0>
7.7847

>  <SCORE.INTRA.POLAR>
0

>  <SCORE.INTRA.POLAR.0>
0

>  <SCORE.INTRA.REPUL>
0

>  <SCORE.INTRA.REPUL.0>
0

>  <SCORE.INTRA.SOLV>
-2.89741

>  <SCORE.INTRA.SOLV.lig_0>
-57.5465

>  <SCORE.INTRA.VDW>
-2.03985

>  <SCORE.INTRA.VDW.0>
1.39369

>  <SCORE.INTRA.norm>
-0.133576

>  <SCORE.RESTR>
0

>  <SCORE.RESTR.CAVITY>
0

>  <SCORE.RESTR.norm>
0

>  <SCORE.SYSTEM>
0

>  <SCORE.SYSTEM.CONST>
0

>  <SCORE.SYSTEM.DIHEDRAL>
0

>  <SCORE.SYSTEM.SOLV>
0

>  <SCORE.SYSTEM.norm>
0

>  <SCORE.heavy>
12

>  <SCORE.norm>
-2.03231

>  <SYMMETRIC_BONDS>
4 1 2

>  <RMSD>
2.812

$$$$
1kod cryst
 OpenBabel11021811393D
libRbt.so/2013.1/901 2013/11/27
 12 11  0  0  0  0  0  0  0  0999 V2000
    2.7990    7.9277   35.6589 C   0  0  0  0  0  0  0  0  0  0  0  0
    3.7867    8.6203   35.4637 O   0  5  0  0  0  0  0  0  0  0  0  0
    2.3100    7.7350   36.7650 O   0  0  0  0  0  0  0  0  0  0  0  0
    2.1319    7.2621   34.4390 C   0  0  1  0  0  0  0  0  0  0  0  0
    2.5867    7.9477   33.1909 N   0  3  0  0  0  0  0  0  0  0  0  0
    2.4980    5.7612   34.3655 C   0  0  0  0  0  0  0  0  0  0  0  0
    1.5634    5.0273   33.4127 C   0  0  0  0  0  0  0  0  0  0  0  0
    1.1063    3.7142   34.0442 C   0  0  0  0  0  0  0  0  0  0  0  0
    1.8102    2.5790   33.3702 N   0  0  0  0  0  0  0  0  0  0  0  0
    1.2085    1.4328   33.1961 C   0  0  0  0  0  0  0  0  0  0  0  0
    1.7257    0.3871   33.5826 O   0  0  0  0  0  0  0  0  0  0  0  0
    0.0558    1.3918   32.5939 N   0  0  0  0  0  0  0  0  0  0  0  0
  1  2  1  0  0  0  0
  1  3  2  0  0  0  0
  4  1  1  1  0  0  0
  4  6  1  0  0  0  0
  4  5  1  0  0  0  0
  6  7  1  0  0  0  0
  7  8  1  0  0  0  0
  8  9  1  0  0  0  0
  9 10  1  0  0  0  0
 10 12  1  0  0  0  0
 10 11  2  0  0  0  0
M  CHG  2   2  -1   5   1
M  END
>  <CHROM.1>
-17.74722687,164.61840333,-136.12500554,-135.18010356,-106.20807434,34.36893533
1.97514312,4.99576169,34.15445740,-0.50620381,1.28209634,2.39304189

>  <Name>
1kod cryst

>  <RI>
0

>  <Rbt.Current_Directory>
/home/itssahil/PROJECTS/Mol_Feturizer/New_Systems/rnas/1kod

>  <Rbt.Executable>
rbdock ($Id: //depot/dev/client3/rdock/2013.1/src/exe/rbdock.cxx#4 $)

>  <Rbt.Library>
libRbt.so (2013.1, Build901 2013/11/27)

>  <Rbt.Parameter_File>
/export/apps/rDock/src/rDock_2013.1_src/data/scripts/dock_solv.prm

>  <Rbt.Receptor>
prm/pocket_docking_8.prm

>  <SCORE>
-24.2366

>  <SCORE.INTER>
-25.3453

>  <SCORE.INTER.CONST>
1

>  <SCORE.INTER.POLAR>
-4.24831

>  <SCORE.INTER.ROT>
5

>  <SCORE.INTER.SOLV>
16.1845

>  <SCORE.INTER.VDW>
-15.064

>  <SCORE.INTER.norm>
-2.11211

>  <SCORE.INTRA>
1.10867

>  <SCORE.INTRA.DIHEDRAL>
8.27523

>  <SCORE.INTRA.DIHEDRAL.0>
7.7847

>  <SCORE.INTRA.POLAR>
0

>  <SCORE.INTRA.POLAR.0>
0

>  <SCORE.INTRA.REPUL>
0

>  <SCORE.INTRA.REPUL.0>
0

>  <SCORE.INTRA.SOLV>
-2.43716

>  <SCORE.INTRA.SOLV.lig_0>
-57.5465

>  <SCORE.INTRA.VDW>
-1.81036

>  <SCORE.INTRA.VDW.0>
1.39369

>  <SCORE.INTRA.norm>
0.0923893

>  <SCORE.RESTR>
0

>  <SCORE.RESTR.CAVITY>
0

>  <SCORE.RESTR.norm>
0

>  <SCORE.SYSTEM>
0

>  <SCORE.SYSTEM.CONST>
0

>  <SCORE.SYSTEM.DIHEDRAL>
0

>  <SCORE.SYSTEM.SOLV>
0

>  <SCORE.SYSTEM.norm>
0

>  <SCORE.heavy>
12

>  <SCORE.norm>
-2.01972

>  <SYMMETRIC_BONDS>
4 1 2

>  <RMSD>
2.812

$$$$
1kod cryst
 OpenBabel11021811393D
libRbt.so/2013.1/901 2013/11/27
 12 11  0  0  0  0  0  0  0  0999 V2000
    3.3941    6.4391   35.3000 C   0  0  0  0  0  0  0  0  0  0  0  0
    4.5320    6.4233   34.8546 O   0  5  0  0  0  0  0  0  0  0  0  0
    3.1298    6.3991   36.4951 O   0  0  0  0  0  0  0  0  0  0  0  0
    2.2272    6.5167   34.2957 C   0  0  1  0  0  0  0  0  0  0  0  0
    2.4909    7.6131   33.3144 N   0  3  0  0  0  0  0  0  0  0  0  0
    2.0646    5.1768   33.5405 C   0  0  0  0  0  0  0  0  0  0  0  0
    2.0120    4.0119   34.5204 C   0  0  0  0  0  0  0  0  0  0  0  0
    1.9570    2.6923   33.7540 C   0  0  0  0  0  0  0  0  0  0  0  0
    2.7256    1.6565   34.5123 N   0  0  0  0  0  0  0  0  0  0  0  0
    2.4412    1.3991   35.7608 C   0  0  0  0  0  0  0  0  0  0  0  0
    3.3154    1.4335   36.6240 O   0  0  0  0  0  0  0  0  0  0  0  0
    1.2232    1.0873   36.0963 N   0  0  0  0  0  0  0  0  0  0  0  0
  1  2  1  0  0  0  0
  1  3  2  0  0  0  0
  4  1  1  1  0  0  0
  4  6  1  0  0  0  0
  4  5  1  0  0  0  0
  6  7  1  0  0  0  0
  7  8  1  0  0  0  0
  8  9  1  0  0  0  0
  9 10  1  0  0  0  0
 10 12  1  0  0  0  0
 10 11  2  0  0  0  0
M  CHG  2   2  -1   5   1
M  END
>  <CHROM.1>
-48.82873261,50.55271760,-46.05550281,-175.77586209,144.85718664,-125.03858097
2.63869936,4.25638659,34.92664129,-1.31829389,1.00451912,2.71013213

>  <Name>
1kod cryst

>  <RI>
0

>  <Rbt.Current_Directory>
/home/itssahil/PROJECTS/Mol_Feturizer/New_Systems/rnas/1kod

>  <Rbt.Executable>
rbdock ($Id: //depot/dev/client3/rdock/2013.1/src/exe/rbdock.cxx#4 $)

>  <Rbt.Library>
libRbt.so (2013.1, Build901 2013/11/27)

>  <Rbt.Parameter_File>
/export/apps/rDock/src/rDock_2013.1_src/data/scripts/dock_solv.prm

>  <Rbt.Receptor>
prm/pocket_docking_8.prm

>  <SCORE>
-25.031

>  <SCORE.INTER>
-21.7502

>  <SCORE.INTER.CONST>
1

>  <SCORE.INTER.POLAR>
-4.0491

>  <SCORE.INTER.ROT>
5

>  <SCORE.INTER.SOLV>
13.6624

>  <SCORE.INTER.VDW>
-12.4906

>  <SCORE.INTER.norm>
-1.81252

>  <SCORE.INTRA>
-3.2808

>  <SCORE.INTRA.DIHEDRAL>
-1.20424

>  <SCORE.INTRA.DIHEDRAL.0>
7.7847

>  <SCORE.INTRA.POLAR>
0

>  <SCORE.INTRA.POLAR.0>
0

>  <SCORE.INTRA.REPUL>
0

>  <SCORE.INTRA.REPUL.0>
0

>  <SCORE.INTRA.SOLV>
-2.21082

>  <SCORE.INTRA.SOLV.lig_0>
-57.5465

>  <SCORE.INTRA.VDW>
-1.57327

>  <SCORE.INTRA.VDW.0>
1.39369

>  <SCORE.INTRA.norm>
-0.2734

>  <SCORE.RESTR>
0

>  <SCORE.RESTR.CAVITY>
0

>  <SCORE.RESTR.norm>
0

>  <SCORE.SYSTEM>
0

>  <SCORE.SYSTEM.CONST>
0

>  <SCORE.SYSTEM.DIHEDRAL>
0

>  <SCORE.SYSTEM.SOLV>
0

>  <SCORE.SYSTEM.norm>
0

>  <SCORE.heavy>
12

>  <SCORE.norm>
-2.08592

>  <SYMMETRIC_BONDS>
4 1 2

>  <RMSD>
2.820

$$$$
1kod cryst
 OpenBabel11021811393D
libRbt.so/2013.1/901 2013/11/27
 12 11  0  0  0  0  0  0  0  0999 V2000
    1.4234    6.0294   35.5870 C   0  0  0  0  0  0  0  0  0  0  0  0
    2.3380    6.5094   36.2399 O   0  5  0  0  0  0  0  0  0  0  0  0
    0.3635    5.6544   36.0726 O   0  0  0  0  0  0  0  0  0  0  0  0
    1.6185    5.8923   34.0641 C   0  0  1  0  0  0  0  0  0  0  0  0
    2.1594    7.1740   33.5171 N   0  3  0  0  0  0  0  0  0  0  0  0
    2.5967    4.7392   33.7388 C   0  0  0  0  0  0  0  0  0  0  0  0
    1.8752    3.3983   33.7729 C   0  0  0  0  0  0  0  0  0  0  0  0
    2.8876    2.2697   33.9551 C   0  0  0  0  0  0  0  0  0  0  0  0
    3.3591    2.2632   35.3751 N   0  0  0  0  0  0  0  0  0  0  0  0
    2.7706    1.5128   36.2676 C   0  0  0  0  0  0  0  0  0  0  0  0
    2.3531    1.9963   37.3176 O   0  0  0  0  0  0  0  0  0  0  0  0
    2.6367    0.2363   36.0535 N   0  0  0  0  0  0  0  0  0  0  0  0
  1  2  1  0  0  0  0
  1  3  2  0  0  0  0
  4  1  1  1  0  0  0
  4  6  1  0  0  0  0
  4  5  1  0  0  0  0
  6  7  1  0  0  0  0
  7  8  1  0  0  0  0
  8  9  1  0  0  0  0
  9 10  1  0  0  0  0
 10 12  1  0  0  0  0
 10 11  2  0  0  0  0
M  CHG  2   2  -1   5   1
M  END
>  <CHROM.1>
-47.15026166,81.55972907,69.43995958,-159.69557593,74.70959249,-87.06703484
2.20366509,3.99708897,35.18042457,2.13590022,1.22459258,-0.78570025

>  <Name>
1kod cryst

>  <RI>
0

>  <Rbt.Current_Directory>
/home/itssahil/PROJECTS/Mol_Feturizer/New_Systems/rnas/1kod

>  <Rbt.Executable>
rbdock ($Id: //depot/dev/client3/rdock/2013.1/src/exe/rbdock.cxx#4 $)

>  <Rbt.Library>
libRbt.so (2013.1, Build901 2013/11/27)

>  <Rbt.Parameter_File>
/export/apps/rDock/src/rDock_2013.1_src/data/scripts/dock_solv.prm

>  <Rbt.Receptor>
prm/pocket_docking_4.prm

>  <SCORE>
-20.9468

>  <SCORE.INTER>
-16.0635

>  <SCORE.INTER.CONST>
1

>  <SCORE.INTER.POLAR>
-2.72116

>  <SCORE.INTER.ROT>
5

>  <SCORE.INTER.SOLV>
14.7059

>  <SCORE.INTER.VDW>
-13.4737

>  <SCORE.INTER.norm>
-1.33862

>  <SCORE.INTRA>
-4.88329

>  <SCORE.INTRA.DIHEDRAL>
-1.50861

>  <SCORE.INTRA.DIHEDRAL.0>
7.7847

>  <SCORE.INTRA.POLAR>
0

>  <SCORE.INTRA.POLAR.0>
0

>  <SCORE.INTRA.REPUL>
0

>  <SCORE.INTRA.REPUL.0>
0

>  <SCORE.INTRA.SOLV>
-2.31658

>  <SCORE.INTRA.SOLV.lig_0>
-57.5465

>  <SCORE.INTRA.VDW>
-2.97069

>  <SCORE.INTRA.VDW.0>
1.39369

>  <SCORE.INTRA.norm>
-0.406941

>  <SCORE.RESTR>
0

>  <SCORE.RESTR.CAVITY>
0

>  <SCORE.RESTR.norm>
0

>  <SCORE.SYSTEM>
0

>  <SCORE.SYSTEM.CONST>
0

>  <SCORE.SYSTEM.DIHEDRAL>
0

>  <SCORE.SYSTEM.SOLV>
0

>  <SCORE.SYSTEM.norm>
0

>  <SCORE.heavy>
12

>  <SCORE.norm>
-1.74556

>  <SYMMETRIC_BONDS>
4 1 2

>  <RMSD>
2.827

$$$$
1kod cryst
 OpenBabel11021811393D
libRbt.so/2013.1/901 2013/11/27
 12 11  0  0  0  0  0  0  0  0999 V2000
    2.5763    7.7454   35.7394 C   0  0  0  0  0  0  0  0  0  0  0  0
    1.8920    7.6098   36.7428 O   0  5  0  0  0  0  0  0  0  0  0  0
    3.5579    8.4751   35.6779 O   0  0  0  0  0  0  0  0  0  0  0  0
    2.1787    6.9478   34.4817 C   0  0  1  0  0  0  0  0  0  0  0  0
    2.5724    7.7177   33.2624 N   0  3  0  0  0  0  0  0  0  0  0  0
    2.8746    5.5665   34.4664 C   0  0  0  0  0  0  0  0  0  0  0  0
    1.8580    4.4565   34.2336 C   0  0  0  0  0  0  0  0  0  0  0  0
    2.4568    3.1119   34.6403 C   0  0  0  0  0  0  0  0  0  0  0  0
    1.4506    2.0341   34.3861 N   0  0  0  0  0  0  0  0  0  0  0  0
    1.6677    0.8123   34.7935 C   0  0  0  0  0  0  0  0  0  0  0  0
    1.5947   -0.1327   34.0112 O   0  0  0  0  0  0  0  0  0  0  0  0
    1.9497    0.5872   36.0438 N   0  0  0  0  0  0  0  0  0  0  0  0
  1  2  1  0  0  0  0
  1  3  2  0  0  0  0
  4  1  1  1  0  0  0
  4  6  1  0  0  0  0
  4  5  1  0  0  0  0
  6  7  1  0  0  0  0
  7  8  1  0  0  0  0
  8  9  1  0  0  0  0
  9 10  1  0  0  0  0
 10 12  1  0  0  0  0
 10 11  2  0  0  0  0
M  CHG  2   2  -1   5   1
M  END
>  <CHROM.1>
149.61898221,128.86529123,121.22362441,-162.70457960,-179.20782244,7.81427435
2.22246094,4.59312657,34.86784497,0.07007107,1.43522558,1.55444510

>  <Name>
1kod cryst

>  <RI>
0

>  <Rbt.Current_Directory>
/home/itssahil/PROJECTS/Mol_Feturizer/New_Systems/rnas/1kod

>  <Rbt.Executable>
rbdock ($Id: //depot/dev/client3/rdock/2013.1/src/exe/rbdock.cxx#4 $)

>  <Rbt.Library>
libRbt.so (2013.1, Build901 2013/11/27)

>  <Rbt.Parameter_File>
/export/apps/rDock/src/rDock_2013.1_src/data/scripts/dock_solv.prm

>  <Rbt.Receptor>
prm/pocket_docking_8.prm

>  <SCORE>
-23.4655

>  <SCORE.INTER>
-22.4522

>  <SCORE.INTER.CONST>
1

>  <SCORE.INTER.POLAR>
-4.5152

>  <SCORE.INTER.ROT>
5

>  <SCORE.INTER.SOLV>
14.552

>  <SCORE.INTER.VDW>
-11.7015

>  <SCORE.INTER.norm>
-1.87102

>  <SCORE.INTRA>
-1.01323

>  <SCORE.INTRA.DIHEDRAL>
4.08169

>  <SCORE.INTRA.DIHEDRAL.0>
7.7847

>  <SCORE.INTRA.POLAR>
0

>  <SCORE.INTRA.POLAR.0>
0

>  <SCORE.INTRA.REPUL>
0

>  <SCORE.INTRA.REPUL.0>
0

>  <SCORE.INTRA.SOLV>
-2.98632

>  <SCORE.INTRA.SOLV.lig_0>
-57.5465

>  <SCORE.INTRA.VDW>
-1.56091

>  <SCORE.INTRA.VDW.0>
1.39369

>  <SCORE.INTRA.norm>
-0.0844354

>  <SCORE.RESTR>
0

>  <SCORE.RESTR.CAVITY>
0

>  <SCORE.RESTR.norm>
0

>  <SCORE.SYSTEM>
0

>  <SCORE.SYSTEM.CONST>
0

>  <SCORE.SYSTEM.DIHEDRAL>
0

>  <SCORE.SYSTEM.SOLV>
0

>  <SCORE.SYSTEM.norm>
0

>  <SCORE.heavy>
12

>  <SCORE.norm>
-1.95545

>  <SYMMETRIC_BONDS>
4 1 2

>  <RMSD>
2.827

$$$$
1kod cryst
 OpenBabel11021811393D
libRbt.so/2013.1/901 2013/11/27
 12 11  0  0  0  0  0  0  0  0999 V2000
    3.2454    7.2089   35.4563 C   0  0  0  0  0  0  0  0  0  0  0  0
    4.4324    7.2292   35.1666 O   0  5  0  0  0  0  0  0  0  0  0  0
    2.8159    7.4165   36.5842 O   0  0  0  0  0  0  0  0  0  0  0  0
    2.2337    6.9066   34.3332 C   0  0  1  0  0  0  0  0  0  0  0  0
    2.4725    7.8376   33.1883 N   0  3  0  0  0  0  0  0  0  0  0  0
    2.3751    5.4450   33.8475 C   0  0  0  0  0  0  0  0  0  0  0  0
    2.0137    4.4722   34.9623 C   0  0  0  0  0  0  0  0  0  0  0  0
    2.6581    3.1140   34.6939 C   0  0  0  0  0  0  0  0  0  0  0  0
    1.5817    2.1055   34.4432 N   0  0  0  0  0  0  0  0  0  0  0  0
    1.7301    0.8655   34.8258 C   0  0  0  0  0  0  0  0  0  0  0  0
    1.5826   -0.0591   34.0296 O   0  0  0  0  0  0  0  0  0  0  0  0
    2.0223    0.6012   36.0659 N   0  0  0  0  0  0  0  0  0  0  0  0
  1  2  1  0  0  0  0
  1  3  2  0  0  0  0
  4  1  1  1  0  0  0
  4  6  1  0  0  0  0
  4  5  1  0  0  0  0
  6  7  1  0  0  0  0
  7  8  1  0  0  0  0
  8  9  1  0  0  0  0
  9 10  1  0  0  0  0
 10 12  1  0  0  0  0
 10 11  2  0  0  0  0
M  CHG  2   2  -1   5   1
M  END
>  <CHROM.1>
-52.98600369,64.49072353,-152.88960618,-157.73204007,-114.45078148,33.93044550
2.43605823,4.44377558,34.79328677,-1.02119270,1.20022709,2.61795271

>  <Name>
1kod cryst

>  <RI>
0

>  <Rbt.Current_Directory>
/home/itssahil/PROJECTS/Mol_Feturizer/New_Systems/rnas/1kod

>  <Rbt.Executable>
rbdock ($Id: //depot/dev/client3/rdock/2013.1/src/exe/rbdock.cxx#4 $)

>  <Rbt.Library>
libRbt.so (2013.1, Build901 2013/11/27)

>  <Rbt.Parameter_File>
/export/apps/rDock/src/rDock_2013.1_src/data/scripts/dock_solv.prm

>  <Rbt.Receptor>
prm/pocket_docking_6.prm

>  <SCORE>
-24.8539

>  <SCORE.INTER>
-23.0868

>  <SCORE.INTER.CONST>
1

>  <SCORE.INTER.POLAR>
-4.62925

>  <SCORE.INTER.ROT>
5

>  <SCORE.INTER.SOLV>
14.5554

>  <SCORE.INTER.VDW>
-11.7455

>  <SCORE.INTER.norm>
-1.9239

>  <SCORE.INTRA>
-1.76713

>  <SCORE.INTRA.DIHEDRAL>
3.31378

>  <SCORE.INTRA.DIHEDRAL.0>
7.7847

>  <SCORE.INTRA.POLAR>
0

>  <SCORE.INTRA.POLAR.0>
0

>  <SCORE.INTRA.REPUL>
0

>  <SCORE.INTRA.REPUL.0>
0

>  <SCORE.INTRA.SOLV>
-2.62226

>  <SCORE.INTRA.SOLV.lig_0>
-57.5465

>  <SCORE.INTRA.VDW>
-2.11288

>  <SCORE.INTRA.VDW.0>
1.39369

>  <SCORE.INTRA.norm>
-0.14726

>  <SCORE.RESTR>
0

>  <SCORE.RESTR.CAVITY>
0

>  <SCORE.RESTR.norm>
0

>  <SCORE.SYSTEM>
0

>  <SCORE.SYSTEM.CONST>
0

>  <SCORE.SYSTEM.DIHEDRAL>
0

>  <SCORE.SYSTEM.SOLV>
0

>  <SCORE.SYSTEM.norm>
0

>  <SCORE.heavy>
12

>  <SCORE.norm>
-2.07116

>  <SYMMETRIC_BONDS>
4 1 2

>  <RMSD>
2.828

$$$$
1kod cryst
 OpenBabel11021811393D
libRbt.so/2013.1/901 2013/11/27
 12 11  0  0  0  0  0  0  0  0999 V2000
    1.2041    6.2752   35.4983 C   0  0  0  0  0  0  0  0  0  0  0  0
    1.8711    7.2827   35.6812 O   0  5  0  0  0  0  0  0  0  0  0  0
    0.3125    5.9027   36.2506 O   0  0  0  0  0  0  0  0  0  0  0  0
    1.5045    5.4286   34.2456 C   0  0  1  0  0  0  0  0  0  0  0  0
    2.1348    6.2944   33.2027 N   0  3  0  0  0  0  0  0  0  0  0  0
    2.4570    4.2596   34.5900 C   0  0  0  0  0  0  0  0  0  0  0  0
    2.5870    3.3078   33.4080 C   0  0  0  0  0  0  0  0  0  0  0  0
    1.9407    1.9670   33.7490 C   0  0  0  0  0  0  0  0  0  0  0  0
    2.7333    1.3061   34.8323 N   0  0  0  0  0  0  0  0  0  0  0  0
    2.4224    1.4863   36.0880 C   0  0  0  0  0  0  0  0  0  0  0  0
    3.2666    1.8686   36.8952 O   0  0  0  0  0  0  0  0  0  0  0  0
    1.2106    1.2448   36.4960 N   0  0  0  0  0  0  0  0  0  0  0  0
  1  2  1  0  0  0  0
  1  3  2  0  0  0  0
  4  1  1  1  0  0  0
  4  6  1  0  0  0  0
  4  5  1  0  0  0  0
  6  7  1  0  0  0  0
  7  8  1  0  0  0  0
  8  9  1  0  0  0  0
  9 10  1  0  0  0  0
 10 12  1  0  0  0  0
 10 11  2  0  0  0  0
M  CHG  2   2  -1   5   1
M  END
>  <CHROM.1>
-24.59679162,171.53582660,71.36782598,-112.24015591,-66.75763560,-87.99198411
1.97149539,3.91037310,35.08587288,2.07987891,1.22902275,-0.64047712

>  <Name>
1kod cryst

>  <RI>
0

>  <Rbt.Current_Directory>
/home/itssahil/PROJECTS/Mol_Feturizer/New_Systems/rnas/1kod

>  <Rbt.Executable>
rbdock ($Id: //depot/dev/client3/rdock/2013.1/src/exe/rbdock.cxx#4 $)

>  <Rbt.Library>
libRbt.so (2013.1, Build901 2013/11/27)

>  <Rbt.Parameter_File>
/export/apps/rDock/src/rDock_2013.1_src/data/scripts/dock_solv.prm

>  <Rbt.Receptor>
prm/pocket_docking_3.prm

>  <SCORE>
-20.8425

>  <SCORE.INTER>
-18.1005

>  <SCORE.INTER.CONST>
1

>  <SCORE.INTER.POLAR>
-3.5944

>  <SCORE.INTER.ROT>
5

>  <SCORE.INTER.SOLV>
16.8868

>  <SCORE.INTER.VDW>
-12.6479

>  <SCORE.INTER.norm>
-1.50838

>  <SCORE.INTRA>
-2.76049

>  <SCORE.INTRA.DIHEDRAL>
1.06129

>  <SCORE.INTRA.DIHEDRAL.0>
7.7847

>  <SCORE.INTRA.POLAR>
0

>  <SCORE.INTRA.POLAR.0>
0

>  <SCORE.INTRA.REPUL>
0

>  <SCORE.INTRA.REPUL.0>
0

>  <SCORE.INTRA.SOLV>
-1.52145

>  <SCORE.INTRA.SOLV.lig_0>
-57.5465

>  <SCORE.INTRA.VDW>
-2.53041

>  <SCORE.INTRA.VDW.0>
1.39369

>  <SCORE.INTRA.norm>
-0.230041

>  <SCORE.RESTR>
0.0185023

>  <SCORE.RESTR.CAVITY>
0.0185023

>  <SCORE.RESTR.norm>
0.00154185

>  <SCORE.SYSTEM>
0

>  <SCORE.SYSTEM.CONST>
0

>  <SCORE.SYSTEM.DIHEDRAL>
0

>  <SCORE.SYSTEM.SOLV>
0

>  <SCORE.SYSTEM.norm>
0

>  <SCORE.heavy>
12

>  <SCORE.norm>
-1.73688

>  <SYMMETRIC_BONDS>
4 1 2

>  <RMSD>
2.840

$$$$
1kod cryst
 OpenBabel11021811393D
libRbt.so/2013.1/901 2013/11/27
 12 11  0  0  0  0  0  0  0  0999 V2000
    3.6543    6.3426   35.1149 C   0  0  0  0  0  0  0  0  0  0  0  0
    4.6940    6.2668   34.4772 O   0  5  0  0  0  0  0  0  0  0  0  0
    3.6016    6.3113   36.3380 O   0  0  0  0  0  0  0  0  0  0  0  0
    2.3356    6.4886   34.3301 C   0  0  1  0  0  0  0  0  0  0  0  0
    2.4818    7.5760   33.3147 N   0  3  0  0  0  0  0  0  0  0  0  0
    1.9721    5.1643   33.6186 C   0  0  0  0  0  0  0  0  0  0  0  0
    2.0597    3.9931   34.5884 C   0  0  0  0  0  0  0  0  0  0  0  0
    1.8560    2.6804   33.8353 C   0  0  0  0  0  0  0  0  0  0  0  0
    2.6298    1.5998   34.5224 N   0  0  0  0  0  0  0  0  0  0  0  0
    2.3939    1.3055   35.7729 C   0  0  0  0  0  0  0  0  0  0  0  0
    3.3059    1.2877   36.5966 O   0  0  0  0  0  0  0  0  0  0  0  0
    1.1841    1.0124   36.1519 N   0  0  0  0  0  0  0  0  0  0  0  0
  1  2  1  0  0  0  0
  1  3  2  0  0  0  0
  4  1  1  6  0  0  0
  4  6  1  0  0  0  0
  4  5  1  0  0  0  0
  6  7  1  0  0  0  0
  7  8  1  0  0  0  0
  8  9  1  0  0  0  0
  9 10  1  0  0  0  0
 10 12  1  0  0  0  0
 10 11  2  0  0  0  0
M  CHG  2   2  -1   5   1
M  END
>  <CHROM.1>
-48.96708773,49.29251389,-174.82430641,-173.51558581,149.59205406,-121.08083104
2.69341854,4.18689037,34.88997609,-1.31669979,0.83826833,2.70970161

>  <Name>
1kod cryst

>  <RI>
0

>  <Rbt.Current_Directory>
/home/itssahil/PROJECTS/Mol_Feturizer/New_Systems/rnas/1kod

>  <Rbt.Executable>
rbdock ($Id: //depot/dev/client3/rdock/2013.1/src/exe/rbdock.cxx#4 $)

>  <Rbt.Library>
libRbt.so (2013.1, Build901 2013/11/27)

>  <Rbt.Parameter_File>
/export/apps/rDock/src/rDock_2013.1_src/data/scripts/dock_solv.prm

>  <Rbt.Receptor>
prm/pocket_docking_5.prm

>  <SCORE>
-25.3225

>  <SCORE.INTER>
-21.4999

>  <SCORE.INTER.CONST>
1

>  <SCORE.INTER.POLAR>
-4.04371

>  <SCORE.INTER.ROT>
5

>  <SCORE.INTER.SOLV>
14.4482

>  <SCORE.INTER.VDW>
-12.6037

>  <SCORE.INTER.norm>
-1.79166

>  <SCORE.INTRA>
-3.82262

>  <SCORE.INTRA.DIHEDRAL>
-2.08573

>  <SCORE.INTRA.DIHEDRAL.0>
7.7847

>  <SCORE.INTRA.POLAR>
0

>  <SCORE.INTRA.POLAR.0>
0

>  <SCORE.INTRA.REPUL>
0

>  <SCORE.INTRA.REPUL.0>
0

>  <SCORE.INTRA.SOLV>
-2.17034

>  <SCORE.INTRA.SOLV.lig_0>
-57.5465

>  <SCORE.INTRA.VDW>
-1.69458

>  <SCORE.INTRA.VDW.0>
1.39369

>  <SCORE.INTRA.norm>
-0.318551

>  <SCORE.RESTR>
0

>  <SCORE.RESTR.CAVITY>
0

>  <SCORE.RESTR.norm>
0

>  <SCORE.SYSTEM>
0

>  <SCORE.SYSTEM.CONST>
0

>  <SCORE.SYSTEM.DIHEDRAL>
0

>  <SCORE.SYSTEM.SOLV>
0

>  <SCORE.SYSTEM.norm>
0

>  <SCORE.heavy>
12

>  <SCORE.norm>
-2.11021

>  <SYMMETRIC_BONDS>
4 1 2

>  <RMSD>
2.840

$$$$
1kod cryst
 OpenBabel11021811393D
libRbt.so/2013.1/901 2013/11/27
 12 11  0  0  0  0  0  0  0  0999 V2000
    4.1710    6.2201   34.6309 C   0  0  0  0  0  0  0  0  0  0  0  0
    4.7133    7.2375   35.0362 O   0  5  0  0  0  0  0  0  0  0  0  0
    4.7675    5.1756   34.4009 O   0  0  0  0  0  0  0  0  0  0  0  0
    2.6474    6.2576   34.3999 C   0  0  1  0  0  0  0  0  0  0  0  0
    2.3016    7.4540   33.5730 N   0  3  0  0  0  0  0  0  0  0  0  0
    2.1713    4.9759   33.6768 C   0  0  0  0  0  0  0  0  0  0  0  0
    2.2739    3.7695   34.6008 C   0  0  0  0  0  0  0  0  0  0  0  0
    1.6694    2.5431   33.9207 C   0  0  0  0  0  0  0  0  0  0  0  0
    2.5739    1.3711   34.1371 N   0  0  0  0  0  0  0  0  0  0  0  0
    2.5286    0.6932   35.2527 C   0  0  0  0  0  0  0  0  0  0  0  0
    3.5477    0.5001   35.9118 O   0  0  0  0  0  0  0  0  0  0  0  0
    1.3967    0.2023   35.6663 N   0  0  0  0  0  0  0  0  0  0  0  0
  1  2  1  0  0  0  0
  1  3  2  0  0  0  0
  4  1  1  6  0  0  0
  4  6  1  0  0  0  0
  4  5  1  0  0  0  0
  6  7  1  0  0  0  0
  7  8  1  0  0  0  0
  8  9  1  0  0  0  0
  9 10  1  0  0  0  0
 10 12  1  0  0  0  0
 10 11  2  0  0  0  0
M  CHG  2   2  -1   5   1
M  END
>  <CHROM.1>
50.07592885,69.85092184,-145.21300468,174.29557495,135.88106389,-98.16515650
2.90496096,3.88371659,34.59771840,-1.35814318,0.40868515,2.90114100

>  <Name>
1kod cryst

>  <RI>
0

>  <Rbt.Current_Directory>
/home/itssahil/PROJECTS/Mol_Feturizer/New_Systems/rnas/1kod

>  <Rbt.Executable>
rbdock ($Id: //depot/dev/client3/rdock/2013.1/src/exe/rbdock.cxx#4 $)

>  <Rbt.Library>
libRbt.so (2013.1, Build901 2013/11/27)

>  <Rbt.Parameter_File>
/export/apps/rDock/src/rDock_2013.1_src/data/scripts/dock_solv.prm

>  <Rbt.Receptor>
prm/pocket_docking_4.prm

>  <SCORE>
-22.0622

>  <SCORE.INTER>
-21.2119

>  <SCORE.INTER.CONST>
1

>  <SCORE.INTER.POLAR>
-3.86207

>  <SCORE.INTER.ROT>
5

>  <SCORE.INTER.SOLV>
16.3141

>  <SCORE.INTER.VDW>
-13.6391

>  <SCORE.INTER.norm>
-1.76766

>  <SCORE.INTRA>
-0.869595

>  <SCORE.INTRA.DIHEDRAL>
1.78681

>  <SCORE.INTRA.DIHEDRAL.0>
7.7847

>  <SCORE.INTRA.POLAR>
0

>  <SCORE.INTRA.POLAR.0>
0

>  <SCORE.INTRA.REPUL>
0

>  <SCORE.INTRA.REPUL.0>
0

>  <SCORE.INTRA.SOLV>
-2.12735

>  <SCORE.INTRA.SOLV.lig_0>
-57.5465

>  <SCORE.INTRA.VDW>
-0.699324

>  <SCORE.INTRA.VDW.0>
1.39369

>  <SCORE.INTRA.norm>
-0.0724663

>  <SCORE.RESTR>
0.0193125

>  <SCORE.RESTR.CAVITY>
0.0193125

>  <SCORE.RESTR.norm>
0.00160938

>  <SCORE.SYSTEM>
0

>  <SCORE.SYSTEM.CONST>
0

>  <SCORE.SYSTEM.DIHEDRAL>
0

>  <SCORE.SYSTEM.SOLV>
0

>  <SCORE.SYSTEM.norm>
0

>  <SCORE.heavy>
12

>  <SCORE.norm>
-1.83852

>  <SYMMETRIC_BONDS>
4 1 2

>  <RMSD>
2.845

$$$$
1kod cryst
 OpenBabel11021811393D
libRbt.so/2013.1/901 2013/11/27
 12 11  0  0  0  0  0  0  0  0999 V2000
    2.6324    7.3924   35.3154 C   0  0  0  0  0  0  0  0  0  0  0  0
    2.2204    7.4967   36.4612 O   0  5  0  0  0  0  0  0  0  0  0  0
    3.4689    8.1382   34.8217 O   0  0  0  0  0  0  0  0  0  0  0  0
    2.0653    6.2529   34.4457 C   0  0  1  0  0  0  0  0  0  0  0  0
    2.1954    6.6201   33.0026 N   0  3  0  0  0  0  0  0  0  0  0  0
    2.8236    4.9314   34.7120 C   0  0  0  0  0  0  0  0  0  0  0  0
    2.0071    3.7386   34.2318 C   0  0  0  0  0  0  0  0  0  0  0  0
    2.5792    2.4497   34.8175 C   0  0  0  0  0  0  0  0  0  0  0  0
    1.5676    1.3571   34.6703 N   0  0  0  0  0  0  0  0  0  0  0  0
    1.5081    0.3844   35.5399 C   0  0  0  0  0  0  0  0  0  0  0  0
    1.5516   -0.7882   35.1742 O   0  0  0  0  0  0  0  0  0  0  0  0
    1.3860    0.6551   36.8068 N   0  0  0  0  0  0  0  0  0  0  0  0
  1  2  1  0  0  0  0
  1  3  2  0  0  0  0
  4  1  1  1  0  0  0
  4  6  1  0  0  0  0
  4  5  1  0  0  0  0
  6  7  1  0  0  0  0
  7  8  1  0  0  0  0
  8  9  1  0  0  0  0
  9 10  1  0  0  0  0
 10 12  1  0  0  0  0
 10 11  2  0  0  0  0
M  CHG  2   2  -1   5   1
M  END
>  <CHROM.1>
155.46793681,161.32747373,-62.84924055,-165.25436053,163.96379933,30.47681988
2.16271801,4.06661402,34.98973394,0.18128852,1.41522032,1.28976580

>  <Name>
1kod cryst

>  <RI>
0

>  <Rbt.Current_Directory>
/home/itssahil/PROJECTS/Mol_Feturizer/New_Systems/rnas/1kod

>  <Rbt.Executable>
rbdock ($Id: //depot/dev/client3/rdock/2013.1/src/exe/rbdock.cxx#4 $)

>  <Rbt.Library>
libRbt.so (2013.1, Build901 2013/11/27)

>  <Rbt.Parameter_File>
/export/apps/rDock/src/rDock_2013.1_src/data/scripts/dock_solv.prm

>  <Rbt.Receptor>
prm/pocket_docking_6.prm

>  <SCORE>
-20.3487

>  <SCORE.INTER>
-15.3509

>  <SCORE.INTER.CONST>
1

>  <SCORE.INTER.POLAR>
-3.66547

>  <SCORE.INTER.ROT>
5

>  <SCORE.INTER.SOLV>
18.8722

>  <SCORE.INTER.VDW>
-11.2398

>  <SCORE.INTER.norm>
-1.27924

>  <SCORE.INTRA>
-4.99777

>  <SCORE.INTRA.DIHEDRAL>
-2.60186

>  <SCORE.INTRA.DIHEDRAL.0>
7.7847

>  <SCORE.INTRA.POLAR>
0

>  <SCORE.INTRA.POLAR.0>
0

>  <SCORE.INTRA.REPUL>
0

>  <SCORE.INTRA.REPUL.0>
0

>  <SCORE.INTRA.SOLV>
-2.57023

>  <SCORE.INTRA.SOLV.lig_0>
-57.5465

>  <SCORE.INTRA.VDW>
-2.41173

>  <SCORE.INTRA.VDW.0>
1.39369

>  <SCORE.INTRA.norm>
-0.416481

>  <SCORE.RESTR>
0

>  <SCORE.RESTR.CAVITY>
0

>  <SCORE.RESTR.norm>
0

>  <SCORE.SYSTEM>
0

>  <SCORE.SYSTEM.CONST>
0

>  <SCORE.SYSTEM.DIHEDRAL>
0

>  <SCORE.SYSTEM.SOLV>
0

>  <SCORE.SYSTEM.norm>
0

>  <SCORE.heavy>
12

>  <SCORE.norm>
-1.69572

>  <SYMMETRIC_BONDS>
4 1 2

>  <RMSD>
2.858

$$$$
1kod cryst
 OpenBabel11021811393D
libRbt.so/2013.1/901 2013/11/27
 12 11  0  0  0  0  0  0  0  0999 V2000
    3.7081    6.4781   35.1157 C   0  0  0  0  0  0  0  0  0  0  0  0
    3.6172    6.4510   36.3341 O   0  5  0  0  0  0  0  0  0  0  0  0
    4.7708    6.4145   34.5104 O   0  0  0  0  0  0  0  0  0  0  0  0
    2.4070    6.5966   34.2976 C   0  0  1  0  0  0  0  0  0  0  0  0
    2.5454    7.7064   33.3058 N   0  3  0  0  0  0  0  0  0  0  0  0
    2.1056    5.2746   33.5534 C   0  0  0  0  0  0  0  0  0  0  0  0
    2.1910    4.0906   34.5077 C   0  0  0  0  0  0  0  0  0  0  0  0
    1.9323    2.7922   33.7468 C   0  0  0  0  0  0  0  0  0  0  0  0
    2.6671    1.6775   34.4222 N   0  0  0  0  0  0  0  0  0  0  0  0
    2.4842    1.4340   35.6924 C   0  0  0  0  0  0  0  0  0  0  0  0
    3.4391    1.3728   36.4638 O   0  0  0  0  0  0  0  0  0  0  0  0
    1.2809    1.2384   36.1473 N   0  0  0  0  0  0  0  0  0  0  0  0
  1  2  1  0  0  0  0
  1  3  2  0  0  0  0
  4  1  1  6  0  0  0
  4  6  1  0  0  0  0
  4  5  1  0  0  0  0
  6  7  1  0  0  0  0
  7  8  1  0  0  0  0
  8  9  1  0  0  0  0
  9 10  1  0  0  0  0
 10 12  1  0  0  0  0
 10 11  2  0  0  0  0
M  CHG  2   2  -1   5   1
M  END
>  <CHROM.1>
129.45051831,49.86020369,66.20461979,-178.29782319,151.14997963,-125.10539237
2.77437134,4.31279216,34.84428946,-1.31563486,0.87028770,2.71918487

>  <Name>
1kod cryst

>  <RI>
0

>  <Rbt.Current_Directory>
/home/itssahil/PROJECTS/Mol_Feturizer/New_Systems/rnas/1kod

>  <Rbt.Executable>
rbdock ($Id: //depot/dev/client3/rdock/2013.1/src/exe/rbdock.cxx#4 $)

>  <Rbt.Library>
libRbt.so (2013.1, Build901 2013/11/27)

>  <Rbt.Parameter_File>
/export/apps/rDock/src/rDock_2013.1_src/data/scripts/dock_solv.prm

>  <Rbt.Receptor>
prm/pocket_docking_5.prm

>  <SCORE>
-25.4468

>  <SCORE.INTER>
-21.4853

>  <SCORE.INTER.CONST>
1

>  <SCORE.INTER.POLAR>
-4.04212

>  <SCORE.INTER.ROT>
5

>  <SCORE.INTER.SOLV>
13.7551

>  <SCORE.INTER.VDW>
-12.3682

>  <SCORE.INTER.norm>
-1.79044

>  <SCORE.INTRA>
-3.96152

>  <SCORE.INTRA.DIHEDRAL>
-2.48631

>  <SCORE.INTRA.DIHEDRAL.0>
7.7847

>  <SCORE.INTRA.POLAR>
0

>  <SCORE.INTRA.POLAR.0>
0

>  <SCORE.INTRA.REPUL>
0

>  <SCORE.INTRA.REPUL.0>
0

>  <SCORE.INTRA.SOLV>
-2.21933

>  <SCORE.INTRA.SOLV.lig_0>
-57.5465

>  <SCORE.INTRA.VDW>
-1.6087

>  <SCORE.INTRA.VDW.0>
1.39369

>  <SCORE.INTRA.norm>
-0.330127

>  <SCORE.RESTR>
0

>  <SCORE.RESTR.CAVITY>
0

>  <SCORE.RESTR.norm>
0

>  <SCORE.SYSTEM>
0

>  <SCORE.SYSTEM.CONST>
0

>  <SCORE.SYSTEM.DIHEDRAL>
0

>  <SCORE.SYSTEM.SOLV>
0

>  <SCORE.SYSTEM.norm>
0

>  <SCORE.heavy>
12

>  <SCORE.norm>
-2.12057

>  <SYMMETRIC_BONDS>
4 1 2

>  <RMSD>
2.863

$$$$
1kod cryst
 OpenBabel11021811393D
libRbt.so/2013.1/901 2013/11/27
 12 11  0  0  0  0  0  0  0  0999 V2000
    2.7331    7.2526   35.3549 C   0  0  0  0  0  0  0  0  0  0  0  0
    3.5463    8.0119   34.8496 O   0  5  0  0  0  0  0  0  0  0  0  0
    2.3930    7.3027   36.5303 O   0  0  0  0  0  0  0  0  0  0  0  0
    2.0991    6.1724   34.4562 C   0  0  1  0  0  0  0  0  0  0  0  0
    2.2095    6.5916   33.0256 N   0  3  0  0  0  0  0  0  0  0  0  0
    2.8088    4.8120   34.6512 C   0  0  0  0  0  0  0  0  0  0  0  0
    1.8457    3.6620   34.3869 C   0  0  0  0  0  0  0  0  0  0  0  0
    2.5231    2.3332   34.7146 C   0  0  0  0  0  0  0  0  0  0  0  0
    1.5183    1.2315   34.5920 N   0  0  0  0  0  0  0  0  0  0  0  0
    1.4395    0.2991   35.5033 C   0  0  0  0  0  0  0  0  0  0  0  0
    1.4951   -0.8888   35.1926 O   0  0  0  0  0  0  0  0  0  0  0  0
    1.2850    0.6267   36.7531 N   0  0  0  0  0  0  0  0  0  0  0  0
  1  2  1  0  0  0  0
  1  3  2  0  0  0  0
  4  1  1  1  0  0  0
  4  6  1  0  0  0  0
  4  5  1  0  0  0  0
  6  7  1  0  0  0  0
  7  8  1  0  0  0  0
  8  9  1  0  0  0  0
  9 10  1  0  0  0  0
 10 12  1  0  0  0  0
 10 11  2  0  0  0  0
M  CHG  2   2  -1   5   1
M  END
>  <CHROM.1>
-21.83447612,151.00354560,-65.34193445,-174.54538721,173.90057539,44.68850877
2.15431344,3.96581500,34.99106933,-0.00379355,1.39558641,1.48535447

>  <Name>
1kod cryst

>  <RI>
0

>  <Rbt.Current_Directory>
/home/itssahil/PROJECTS/Mol_Feturizer/New_Systems/rnas/1kod

>  <Rbt.Executable>
rbdock ($Id: //depot/dev/client3/rdock/2013.1/src/exe/rbdock.cxx#4 $)

>  <Rbt.Library>
libRbt.so (2013.1, Build901 2013/11/27)

>  <Rbt.Parameter_File>
/export/apps/rDock/src/rDock_2013.1_src/data/scripts/dock_solv.prm

>  <Rbt.Receptor>
prm/pocket_docking_8.prm

>  <SCORE>
-20.0092

>  <SCORE.INTER>
-14.7512

>  <SCORE.INTER.CONST>
1

>  <SCORE.INTER.POLAR>
-3.53694

>  <SCORE.INTER.ROT>
5

>  <SCORE.INTER.SOLV>
18.8405

>  <SCORE.INTER.VDW>
-11.2578

>  <SCORE.INTER.norm>
-1.22927

>  <SCORE.INTRA>
-5.25795

>  <SCORE.INTRA.DIHEDRAL>
-2.77046

>  <SCORE.INTRA.DIHEDRAL.0>
7.7847

>  <SCORE.INTRA.POLAR>
0

>  <SCORE.INTRA.POLAR.0>
0

>  <SCORE.INTRA.REPUL>
0

>  <SCORE.INTRA.REPUL.0>
0

>  <SCORE.INTRA.SOLV>
-2.63569

>  <SCORE.INTRA.SOLV.lig_0>
-57.5465

>  <SCORE.INTRA.VDW>
-2.55488

>  <SCORE.INTRA.VDW.0>
1.39369

>  <SCORE.INTRA.norm>
-0.438163

>  <SCORE.RESTR>
0

>  <SCORE.RESTR.CAVITY>
0

>  <SCORE.RESTR.norm>
0

>  <SCORE.SYSTEM>
0

>  <SCORE.SYSTEM.CONST>
0

>  <SCORE.SYSTEM.DIHEDRAL>
0

>  <SCORE.SYSTEM.SOLV>
0

>  <SCORE.SYSTEM.norm>
0

>  <SCORE.heavy>
12

>  <SCORE.norm>
-1.66743

>  <SYMMETRIC_BONDS>
4 1 2

>  <RMSD>
2.868

$$$$
1kod cryst
 OpenBabel11021811393D
libRbt.so/2013.1/901 2013/11/27
 12 11  0  0  0  0  0  0  0  0999 V2000
    2.5107    7.4987   35.7399 C   0  0  0  0  0  0  0  0  0  0  0  0
    3.6626    7.3001   36.0966 O   0  5  0  0  0  0  0  0  0  0  0  0
    1.6875    8.1131   36.4065 O   0  0  0  0  0  0  0  0  0  0  0  0
    2.0740    6.9439   34.3696 C   0  0  1  0  0  0  0  0  0  0  0  0
    2.5280    7.8744   33.2914 N   0  3  0  0  0  0  0  0  0  0  0  0
    2.6790    5.5410   34.1286 C   0  0  0  0  0  0  0  0  0  0  0  0
    1.7597    4.4587   34.6793 C   0  0  0  0  0  0  0  0  0  0  0  0
    2.4865    3.1157   34.6861 C   0  0  0  0  0  0  0  0  0  0  0  0
    1.4761    2.0150   34.6066 N   0  0  0  0  0  0  0  0  0  0  0  0
    1.7588    0.8196   35.0505 C   0  0  0  0  0  0  0  0  0  0  0  0
    1.6128   -0.1674   34.3328 O   0  0  0  0  0  0  0  0  0  0  0  0
    2.1853    0.6660   36.2702 N   0  0  0  0  0  0  0  0  0  0  0  0
  1  2  1  0  0  0  0
  1  3  2  0  0  0  0
  4  1  1  1  0  0  0
  4  6  1  0  0  0  0
  4  5  1  0  0  0  0
  6  7  1  0  0  0  0
  7  8  1  0  0  0  0
  8  9  1  0  0  0  0
  9 10  1  0  0  0  0
 10 12  1  0  0  0  0
 10 11  2  0  0  0  0
M  CHG  2   2  -1   5   1
M  END
>  <CHROM.1>
-81.06332346,88.73498613,-178.27566961,-168.81289216,-154.18521425,23.93648966
2.20779076,4.53187391,34.96973388,-0.83148133,1.42101979,2.41639987

>  <Name>
1kod cryst

>  <RI>
0

>  <Rbt.Current_Directory>
/home/itssahil/PROJECTS/Mol_Feturizer/New_Systems/rnas/1kod

>  <Rbt.Executable>
rbdock ($Id: //depot/dev/client3/rdock/2013.1/src/exe/rbdock.cxx#4 $)

>  <Rbt.Library>
libRbt.so (2013.1, Build901 2013/11/27)

>  <Rbt.Parameter_File>
/export/apps/rDock/src/rDock_2013.1_src/data/scripts/dock_solv.prm

>  <Rbt.Receptor>
prm/pocket_docking_7.prm

>  <SCORE>
-23.1159

>  <SCORE.INTER>
-19.229

>  <SCORE.INTER.CONST>
1

>  <SCORE.INTER.POLAR>
-3.83269

>  <SCORE.INTER.ROT>
5

>  <SCORE.INTER.SOLV>
15.1238

>  <SCORE.INTER.VDW>
-12.0183

>  <SCORE.INTER.norm>
-1.60242

>  <SCORE.INTRA>
-3.88685

>  <SCORE.INTRA.DIHEDRAL>
-0.47258

>  <SCORE.INTRA.DIHEDRAL.0>
7.7847

>  <SCORE.INTRA.POLAR>
0

>  <SCORE.INTRA.POLAR.0>
0

>  <SCORE.INTRA.REPUL>
0

>  <SCORE.INTRA.REPUL.0>
0

>  <SCORE.INTRA.SOLV>
-3.05624

>  <SCORE.INTRA.SOLV.lig_0>
-57.5465

>  <SCORE.INTRA.VDW>
-2.12245

>  <SCORE.INTRA.VDW.0>
1.39369

>  <SCORE.INTRA.norm>
-0.323904

>  <SCORE.RESTR>
0

>  <SCORE.RESTR.CAVITY>
0

>  <SCORE.RESTR.norm>
0

>  <SCORE.SYSTEM>
0

>  <SCORE.SYSTEM.CONST>
0

>  <SCORE.SYSTEM.DIHEDRAL>
0

>  <SCORE.SYSTEM.SOLV>
0

>  <SCORE.SYSTEM.norm>
0

>  <SCORE.heavy>
12

>  <SCORE.norm>
-1.92632

>  <SYMMETRIC_BONDS>
4 1 2

>  <RMSD>
2.871

$$$$
1kod cryst
 OpenBabel11021811393D
libRbt.so/2013.1/901 2013/11/27
 12 11  0  0  0  0  0  0  0  0999 V2000
    4.3154    6.0993   34.0811 C   0  0  0  0  0  0  0  0  0  0  0  0
    4.8638    5.1170   34.5582 O   0  5  0  0  0  0  0  0  0  0  0  0
    4.9082    6.9840   33.4764 O   0  0  0  0  0  0  0  0  0  0  0  0
    2.7885    6.2267   34.2504 C   0  0  1  0  0  0  0  0  0  0  0  0
    2.3091    7.4396   33.5200 N   0  3  0  0  0  0  0  0  0  0  0  0
    2.0697    4.9739   33.6972 C   0  0  0  0  0  0  0  0  0  0  0  0
    2.4525    3.7376   34.5003 C   0  0  0  0  0  0  0  0  0  0  0  0
    1.6676    2.5287   33.9960 C   0  0  0  0  0  0  0  0  0  0  0  0
    2.4989    1.2981   34.1781 N   0  0  0  0  0  0  0  0  0  0  0  0
    2.4166    0.5967   35.2769 C   0  0  0  0  0  0  0  0  0  0  0  0
    3.4247    0.3246   35.9251 O   0  0  0  0  0  0  0  0  0  0  0  0
    1.2584    0.1662   35.6849 N   0  0  0  0  0  0  0  0  0  0  0  0
  1  2  1  0  0  0  0
  1  3  2  0  0  0  0
  4  1  1  6  0  0  0
  4  6  1  0  0  0  0
  4  5  1  0  0  0  0
  6  7  1  0  0  0  0
  7  8  1  0  0  0  0
  8  9  1  0  0  0  0
  9 10  1  0  0  0  0
 10 12  1  0  0  0  0
 10 11  2  0  0  0  0
M  CHG  2   2  -1   5   1
M  END
>  <CHROM.1>
-176.16485405,64.06812490,-37.64757337,176.47448163,148.82023844,-89.01181447
2.91994199,3.80737949,34.42366133,-1.34471990,0.18368824,2.85548943

>  <Name>
1kod cryst

>  <RI>
0

>  <Rbt.Current_Directory>
/home/itssahil/PROJECTS/Mol_Feturizer/New_Systems/rnas/1kod

>  <Rbt.Executable>
rbdock ($Id: //depot/dev/client3/rdock/2013.1/src/exe/rbdock.cxx#4 $)

>  <Rbt.Library>
libRbt.so (2013.1, Build901 2013/11/27)

>  <Rbt.Parameter_File>
/export/apps/rDock/src/rDock_2013.1_src/data/scripts/dock_solv.prm

>  <Rbt.Receptor>
prm/pocket_docking_5.prm

>  <SCORE>
-24.999

>  <SCORE.INTER>
-22.0775

>  <SCORE.INTER.CONST>
1

>  <SCORE.INTER.POLAR>
-4.04316

>  <SCORE.INTER.ROT>
5

>  <SCORE.INTER.SOLV>
19.0221

>  <SCORE.INTER.VDW>
-14.5152

>  <SCORE.INTER.norm>
-1.83979

>  <SCORE.INTRA>
-2.92149

>  <SCORE.INTRA.DIHEDRAL>
-1.40508

>  <SCORE.INTRA.DIHEDRAL.0>
7.7847

>  <SCORE.INTRA.POLAR>
0

>  <SCORE.INTRA.POLAR.0>
0

>  <SCORE.INTRA.REPUL>
0

>  <SCORE.INTRA.REPUL.0>
0

>  <SCORE.INTRA.SOLV>
-2.04001

>  <SCORE.INTRA.SOLV.lig_0>
-57.5465

>  <SCORE.INTRA.VDW>
-1.19894

>  <SCORE.INTRA.VDW.0>
1.39369

>  <SCORE.INTRA.norm>
-0.243457

>  <SCORE.RESTR>
0

>  <SCORE.RESTR.CAVITY>
0

>  <SCORE.RESTR.norm>
0

>  <SCORE.SYSTEM>
0

>  <SCORE.SYSTEM.CONST>
0

>  <SCORE.SYSTEM.DIHEDRAL>
0

>  <SCORE.SYSTEM.SOLV>
0

>  <SCORE.SYSTEM.norm>
0

>  <SCORE.heavy>
12

>  <SCORE.norm>
-2.08325

>  <SYMMETRIC_BONDS>
4 1 2

>  <RMSD>
2.892

$$$$
1kod cryst
 OpenBabel11021811393D
libRbt.so/2013.1/901 2013/11/27
 12 11  0  0  0  0  0  0  0  0999 V2000
    3.4740    5.9529   35.0629 C   0  0  0  0  0  0  0  0  0  0  0  0
    3.5301    6.0790   36.2771 O   0  5  0  0  0  0  0  0  0  0  0  0
    4.3867    5.5025   34.3820 O   0  0  0  0  0  0  0  0  0  0  0  0
    2.1761    6.3846   34.3519 C   0  0  1  0  0  0  0  0  0  0  0  0
    2.4941    7.4338   33.3357 N   0  3  0  0  0  0  0  0  0  0  0  0
    1.5060    5.1776   33.6546 C   0  0  0  0  0  0  0  0  0  0  0  0
    0.9020    4.2312   34.6839 C   0  0  0  0  0  0  0  0  0  0  0  0
    1.9561    3.2279   35.1467 C   0  0  0  0  0  0  0  0  0  0  0  0
    1.5357    2.6522   36.4622 N   0  0  0  0  0  0  0  0  0  0  0  0
    1.4460    1.3592   36.6240 C   0  0  0  0  0  0  0  0  0  0  0  0
    0.4126    0.8502   37.0523 O   0  0  0  0  0  0  0  0  0  0  0  0
    2.4648    0.5996   36.3442 N   0  0  0  0  0  0  0  0  0  0  0  0
  1  2  1  0  0  0  0
  1  3  2  0  0  0  0
  4  1  1  6  0  0  0
  4  6  1  0  0  0  0
  4  5  1  0  0  0  0
  6  7  1  0  0  0  0
  7  8  1  0  0  0  0
  8  9  1  0  0  0  0
  9 10  1  0  0  0  0
 10 12  1  0  0  0  0
 10 11  2  0  0  0  0
M  CHG  2   2  -1   5   1
M  END
>  <CHROM.1>
121.70938588,71.58437471,58.16824073,-87.24070900,159.69896883,-54.31222841
2.21320792,4.13194026,35.27955559,-1.28840570,0.40032295,2.60777189

>  <Name>
1kod cryst

>  <RI>
0

>  <Rbt.Current_Directory>
/home/itssahil/PROJECTS/Mol_Feturizer/New_Systems/rnas/1kod

>  <Rbt.Executable>
rbdock ($Id: //depot/dev/client3/rdock/2013.1/src/exe/rbdock.cxx#4 $)

>  <Rbt.Library>
libRbt.so (2013.1, Build901 2013/11/27)

>  <Rbt.Parameter_File>
/export/apps/rDock/src/rDock_2013.1_src/data/scripts/dock_solv.prm

>  <Rbt.Receptor>
prm/pocket_docking_5.prm

>  <SCORE>
-24.8185

>  <SCORE.INTER>
-21.1401

>  <SCORE.INTER.CONST>
1

>  <SCORE.INTER.POLAR>
-3.93547

>  <SCORE.INTER.ROT>
5

>  <SCORE.INTER.SOLV>
15.2325

>  <SCORE.INTER.VDW>
-12.986

>  <SCORE.INTER.norm>
-1.76168

>  <SCORE.INTRA>
-3.67835

>  <SCORE.INTRA.DIHEDRAL>
-1.03937

>  <SCORE.INTRA.DIHEDRAL.0>
7.7847

>  <SCORE.INTRA.POLAR>
0

>  <SCORE.INTRA.POLAR.0>
0

>  <SCORE.INTRA.REPUL>
0

>  <SCORE.INTRA.REPUL.0>
0

>  <SCORE.INTRA.SOLV>
-1.1749

>  <SCORE.INTRA.SOLV.lig_0>
-57.5465

>  <SCORE.INTRA.VDW>
-2.57121

>  <SCORE.INTRA.VDW.0>
1.39369

>  <SCORE.INTRA.norm>
-0.306529

>  <SCORE.RESTR>
0

>  <SCORE.RESTR.CAVITY>
0

>  <SCORE.RESTR.norm>
0

>  <SCORE.SYSTEM>
0

>  <SCORE.SYSTEM.CONST>
0

>  <SCORE.SYSTEM.DIHEDRAL>
0

>  <SCORE.SYSTEM.SOLV>
0

>  <SCORE.SYSTEM.norm>
0

>  <SCORE.heavy>
12

>  <SCORE.norm>
-2.0682

>  <SYMMETRIC_BONDS>
4 1 2

>  <RMSD>
2.924

$$$$
1kod cryst
 OpenBabel11021811393D
libRbt.so/2013.1/901 2013/11/27
 12 11  0  0  0  0  0  0  0  0999 V2000
    2.5131    7.4421   35.9084 C   0  0  0  0  0  0  0  0  0  0  0  0
    1.6727    7.6833   36.7622 O   0  5  0  0  0  0  0  0  0  0  0  0
    3.6981    7.7309   36.0183 O   0  0  0  0  0  0  0  0  0  0  0  0
    2.0506    6.7309   34.6214 C   0  0  1  0  0  0  0  0  0  0  0  0
    2.5140    7.5090   33.4321 N   0  3  0  0  0  0  0  0  0  0  0  0
    2.6224    5.2954   34.5532 C   0  0  0  0  0  0  0  0  0  0  0  0
    1.7860    4.4288   33.6208 C   0  0  0  0  0  0  0  0  0  0  0  0
    2.3229    2.9992   33.6216 C   0  0  0  0  0  0  0  0  0  0  0  0
    1.9831    2.3524   34.9272 N   0  0  0  0  0  0  0  0  0  0  0  0
    2.7186    1.3820   35.3998 C   0  0  0  0  0  0  0  0  0  0  0  0
    2.2112    0.3111   35.7259 O   0  0  0  0  0  0  0  0  0  0  0  0
    4.0007    1.5520   35.5428 N   0  0  0  0  0  0  0  0  0  0  0  0
  1  2  1  0  0  0  0
  1  3  2  0  0  0  0
  4  1  1  1  0  0  0
  4  6  1  0  0  0  0
  4  5  1  0  0  0  0
  6  7  1  0  0  0  0
  7  8  1  0  0  0  0
  8  9  1  0  0  0  0
  9 10  1  0  0  0  0
 10 12  1  0  0  0  0
 10 11  2  0  0  0  0
M  CHG  2   2  -1   5   1
M  END
>  <CHROM.1>
127.82271248,158.37202673,-121.13257464,-177.13864131,72.06640243,26.54037300
2.52564239,4.63918363,35.01524215,-1.67760706,1.33355956,-3.02326018

>  <Name>
1kod cryst

>  <RI>
0

>  <Rbt.Current_Directory>
/home/itssahil/PROJECTS/Mol_Feturizer/New_Systems/rnas/1kod

>  <Rbt.Executable>
rbdock ($Id: //depot/dev/client3/rdock/2013.1/src/exe/rbdock.cxx#4 $)

>  <Rbt.Library>
libRbt.so (2013.1, Build901 2013/11/27)

>  <Rbt.Parameter_File>
/export/apps/rDock/src/rDock_2013.1_src/data/scripts/dock_solv.prm

>  <Rbt.Receptor>
prm/pocket_docking_4.prm

>  <SCORE>
-18.9975

>  <SCORE.INTER>
-16.1114

>  <SCORE.INTER.CONST>
1

>  <SCORE.INTER.POLAR>
-2.96974

>  <SCORE.INTER.ROT>
5

>  <SCORE.INTER.SOLV>
12.9915

>  <SCORE.INTER.VDW>
-12.1056

>  <SCORE.INTER.norm>
-1.34262

>  <SCORE.INTRA>
-2.88604

>  <SCORE.INTRA.DIHEDRAL>
0.0960919

>  <SCORE.INTRA.DIHEDRAL.0>
7.7847

>  <SCORE.INTRA.POLAR>
0

>  <SCORE.INTRA.POLAR.0>
0

>  <SCORE.INTRA.REPUL>
0

>  <SCORE.INTRA.REPUL.0>
0

>  <SCORE.INTRA.SOLV>
-2.35656

>  <SCORE.INTRA.SOLV.lig_0>
-57.5465

>  <SCORE.INTRA.VDW>
-1.7558

>  <SCORE.INTRA.VDW.0>
1.39369

>  <SCORE.INTRA.norm>
-0.240503

>  <SCORE.RESTR>
0

>  <SCORE.RESTR.CAVITY>
0

>  <SCORE.RESTR.norm>
0

>  <SCORE.SYSTEM>
0

>  <SCORE.SYSTEM.CONST>
0

>  <SCORE.SYSTEM.DIHEDRAL>
0

>  <SCORE.SYSTEM.SOLV>
0

>  <SCORE.SYSTEM.norm>
0

>  <SCORE.heavy>
12

>  <SCORE.norm>
-1.58312

>  <SYMMETRIC_BONDS>
4 1 2

>  <RMSD>
2.926

$$$$
1kod cryst
 OpenBabel11021811393D
libRbt.so/2013.1/901 2013/11/27
 12 11  0  0  0  0  0  0  0  0999 V2000
    3.8752    6.4266   34.9935 C   0  0  0  0  0  0  0  0  0  0  0  0
    4.8699    6.3717   34.2858 O   0  5  0  0  0  0  0  0  0  0  0  0
    3.9063    6.3812   36.2169 O   0  0  0  0  0  0  0  0  0  0  0  0
    2.5043    6.5634   34.3020 C   0  0  1  0  0  0  0  0  0  0  0  0
    2.5588    7.6823   33.3122 N   0  3  0  0  0  0  0  0  0  0  0  0
    2.1233    5.2515   33.5768 C   0  0  0  0  0  0  0  0  0  0  0  0
    2.3323    4.0524   34.4925 C   0  0  0  0  0  0  0  0  0  0  0  0
    1.9801    2.7656   33.7497 C   0  0  0  0  0  0  0  0  0  0  0  0
    2.6797    1.6175   34.4062 N   0  0  0  0  0  0  0  0  0  0  0  0
    2.4921    1.3611   35.6732 C   0  0  0  0  0  0  0  0  0  0  0  0
    3.4463    1.2572   36.4407 O   0  0  0  0  0  0  0  0  0  0  0  0
    1.2841    1.1981   36.1287 N   0  0  0  0  0  0  0  0  0  0  0  0
  1  2  1  0  0  0  0
  1  3  2  0  0  0  0
  4  1  1  6  0  0  0
  4  6  1  0  0  0  0
  4  5  1  0  0  0  0
  6  7  1  0  0  0  0
  7  8  1  0  0  0  0
  8  9  1  0  0  0  0
  9 10  1  0  0  0  0
 10 12  1  0  0  0  0
 10 11  2  0  0  0  0
M  CHG  2   2  -1   5   1
M  END
>  <CHROM.1>
-50.13542681,47.94695878,61.87174482,-178.77605309,157.47602541,-122.64271500
2.84846056,4.26283307,34.80000072,-1.31242324,0.79464915,2.72071716

>  <Name>
1kod cryst

>  <RI>
0

>  <Rbt.Current_Directory>
/home/itssahil/PROJECTS/Mol_Feturizer/New_Systems/rnas/1kod

>  <Rbt.Executable>
rbdock ($Id: //depot/dev/client3/rdock/2013.1/src/exe/rbdock.cxx#4 $)

>  <Rbt.Library>
libRbt.so (2013.1, Build901 2013/11/27)

>  <Rbt.Parameter_File>
/export/apps/rDock/src/rDock_2013.1_src/data/scripts/dock_solv.prm

>  <Rbt.Receptor>
prm/pocket_docking_8.prm

>  <SCORE>
-25.4282

>  <SCORE.INTER>
-21.0829

>  <SCORE.INTER.CONST>
1

>  <SCORE.INTER.POLAR>
-4.01072

>  <SCORE.INTER.ROT>
5

>  <SCORE.INTER.SOLV>
14.2103

>  <SCORE.INTER.VDW>
-12.3563

>  <SCORE.INTER.norm>
-1.75691

>  <SCORE.INTRA>
-4.34531

>  <SCORE.INTRA.DIHEDRAL>
-3.32128

>  <SCORE.INTRA.DIHEDRAL.0>
7.7847

>  <SCORE.INTRA.POLAR>
0

>  <SCORE.INTRA.POLAR.0>
0

>  <SCORE.INTRA.REPUL>
0

>  <SCORE.INTRA.REPUL.0>
0

>  <SCORE.INTRA.SOLV>
-2.18231

>  <SCORE.INTRA.SOLV.lig_0>
-57.5465

>  <SCORE.INTRA.VDW>
-1.59351

>  <SCORE.INTRA.VDW.0>
1.39369

>  <SCORE.INTRA.norm>
-0.362109

>  <SCORE.RESTR>
0

>  <SCORE.RESTR.CAVITY>
0

>  <SCORE.RESTR.norm>
0

>  <SCORE.SYSTEM>
0

>  <SCORE.SYSTEM.CONST>
0

>  <SCORE.SYSTEM.DIHEDRAL>
0

>  <SCORE.SYSTEM.SOLV>
0

>  <SCORE.SYSTEM.norm>
0

>  <SCORE.heavy>
12

>  <SCORE.norm>
-2.11902

>  <SYMMETRIC_BONDS>
4 1 2

>  <RMSD>
2.932

$$$$
1kod cryst
 OpenBabel11021811393D
libRbt.so/2013.1/901 2013/11/27
 12 11  0  0  0  0  0  0  0  0999 V2000
    0.6059    5.1027   35.1927 C   0  0  0  0  0  0  0  0  0  0  0  0
   -0.4885    4.7008   35.5587 O   0  5  0  0  0  0  0  0  0  0  0  0
    1.3798    5.7217   35.9122 O   0  0  0  0  0  0  0  0  0  0  0  0
    1.0340    4.8089   33.7412 C   0  0  1  0  0  0  0  0  0  0  0  0
    2.0856    5.7876   33.3277 N   0  3  0  0  0  0  0  0  0  0  0  0
    1.5893    3.3710   33.6144 C   0  0  0  0  0  0  0  0  0  0  0  0
    2.5497    3.0643   34.7561 C   0  0  0  0  0  0  0  0  0  0  0  0
    2.9893    1.6037   34.6852 C   0  0  0  0  0  0  0  0  0  0  0  0
    3.3830    1.1468   36.0545 N   0  0  0  0  0  0  0  0  0  0  0  0
    2.4996    1.0863   37.0148 C   0  0  0  0  0  0  0  0  0  0  0  0
    2.6997    1.6504   38.0882 O   0  0  0  0  0  0  0  0  0  0  0  0
    1.4015    0.4099   36.8426 N   0  0  0  0  0  0  0  0  0  0  0  0
  1  2  1  0  0  0  0
  1  3  2  0  0  0  0
  4  1  1  1  0  0  0
  4  6  1  0  0  0  0
  4  5  1  0  0  0  0
  6  7  1  0  0  0  0
  7  8  1  0  0  0  0
  8  9  1  0  0  0  0
  9 10  1  0  0  0  0
 10 12  1  0  0  0  0
 10 11  2  0  0  0  0
M  CHG  2   2  -1   5   1
M  END
>  <CHROM.1>
158.01750309,-45.17662824,76.91738626,174.94159347,-154.52160241,-115.49561011
1.81400998,3.22562417,35.41353762,2.01249759,0.86817544,-0.86953006

>  <Name>
1kod cryst

>  <RI>
0

>  <Rbt.Current_Directory>
/home/itssahil/PROJECTS/Mol_Feturizer/New_Systems/rnas/1kod

>  <Rbt.Executable>
rbdock ($Id: //depot/dev/client3/rdock/2013.1/src/exe/rbdock.cxx#4 $)

>  <Rbt.Library>
libRbt.so (2013.1, Build901 2013/11/27)

>  <Rbt.Parameter_File>
/export/apps/rDock/src/rDock_2013.1_src/data/scripts/dock_solv.prm

>  <Rbt.Receptor>
prm/pocket_docking_4.prm

>  <SCORE>
-20.9384

>  <SCORE.INTER>
-18.0579

>  <SCORE.INTER.CONST>
1

>  <SCORE.INTER.POLAR>
-3.05015

>  <SCORE.INTER.ROT>
5

>  <SCORE.INTER.SOLV>
19.4978

>  <SCORE.INTER.VDW>
-15.304

>  <SCORE.INTER.norm>
-1.50482

>  <SCORE.INTRA>
-2.88053

>  <SCORE.INTRA.DIHEDRAL>
-1.93154

>  <SCORE.INTRA.DIHEDRAL.0>
7.7847

>  <SCORE.INTRA.POLAR>
0

>  <SCORE.INTRA.POLAR.0>
0

>  <SCORE.INTRA.REPUL>
0

>  <SCORE.INTRA.REPUL.0>
0

>  <SCORE.INTRA.SOLV>
-0.983503

>  <SCORE.INTRA.SOLV.lig_0>
-57.5465

>  <SCORE.INTRA.VDW>
-1.42301

>  <SCORE.INTRA.VDW.0>
1.39369

>  <SCORE.INTRA.norm>
-0.240044

>  <SCORE.RESTR>
0

>  <SCORE.RESTR.CAVITY>
0

>  <SCORE.RESTR.norm>
0

>  <SCORE.SYSTEM>
0

>  <SCORE.SYSTEM.CONST>
0

>  <SCORE.SYSTEM.DIHEDRAL>
0

>  <SCORE.SYSTEM.SOLV>
0

>  <SCORE.SYSTEM.norm>
0

>  <SCORE.heavy>
12

>  <SCORE.norm>
-1.74487

>  <SYMMETRIC_BONDS>
4 1 2

>  <RMSD>
2.948

$$$$
1kod cryst
 OpenBabel11021811393D
libRbt.so/2013.1/901 2013/11/27
 12 11  0  0  0  0  0  0  0  0999 V2000
    3.3167    7.7610   35.8061 C   0  0  0  0  0  0  0  0  0  0  0  0
    4.0541    7.1800   36.5884 O   0  5  0  0  0  0  0  0  0  0  0  0
    3.1854    8.9780   35.7697 O   0  0  0  0  0  0  0  0  0  0  0  0
    2.5088    6.9086   34.8075 C   0  0  1  0  0  0  0  0  0  0  0  0
    2.4765    7.5978   33.4814 N   0  3  0  0  0  0  0  0  0  0  0  0
    3.1430    5.5073   34.6451 C   0  0  0  0  0  0  0  0  0  0  0  0
    2.0681    4.4584   34.3916 C   0  0  0  0  0  0  0  0  0  0  0  0
    2.6465    3.0615   34.6059 C   0  0  0  0  0  0  0  0  0  0  0  0
    1.5817    2.0465   34.3325 N   0  0  0  0  0  0  0  0  0  0  0  0
    1.7130    0.8160   34.7503 C   0  0  0  0  0  0  0  0  0  0  0  0
    1.6000   -0.1272   33.9705 O   0  0  0  0  0  0  0  0  0  0  0  0
    1.9510    0.5812   36.0078 N   0  0  0  0  0  0  0  0  0  0  0  0
  1  2  1  0  0  0  0
  1  3  2  0  0  0  0
  4  1  1  1  0  0  0
  4  6  1  0  0  0  0
  4  5  1  0  0  0  0
  6  7  1  0  0  0  0
  7  8  1  0  0  0  0
  8  9  1  0  0  0  0
  9 10  1  0  0  0  0
 10 12  1  0  0  0  0
 10 11  2  0  0  0  0
M  CHG  2   2  -1   5   1
M  END
>  <CHROM.1>
-140.68906031,146.95885172,-23.24771648,-164.86821024,-179.16886221,16.78378700
2.51862074,4.57886998,34.92135650,-1.07984781,1.14685194,2.76893042

>  <Name>
1kod cryst

>  <RI>
0

>  <Rbt.Current_Directory>
/home/itssahil/PROJECTS/Mol_Feturizer/New_Systems/rnas/1kod

>  <Rbt.Executable>
rbdock ($Id: //depot/dev/client3/rdock/2013.1/src/exe/rbdock.cxx#4 $)

>  <Rbt.Library>
libRbt.so (2013.1, Build901 2013/11/27)

>  <Rbt.Parameter_File>
/export/apps/rDock/src/rDock_2013.1_src/data/scripts/dock_solv.prm

>  <Rbt.Receptor>
prm/pocket_docking_4.prm

>  <SCORE>
-21.4036

>  <SCORE.INTER>
-19.3609

>  <SCORE.INTER.CONST>
1

>  <SCORE.INTER.POLAR>
-4.01012

>  <SCORE.INTER.ROT>
5

>  <SCORE.INTER.SOLV>
13.4409

>  <SCORE.INTER.VDW>
-10.9539

>  <SCORE.INTER.norm>
-1.61341

>  <SCORE.INTRA>
-2.0524

>  <SCORE.INTRA.DIHEDRAL>
0.768166

>  <SCORE.INTRA.DIHEDRAL.0>
7.7847

>  <SCORE.INTRA.POLAR>
0

>  <SCORE.INTRA.POLAR.0>
0

>  <SCORE.INTRA.REPUL>
0

>  <SCORE.INTRA.REPUL.0>
0

>  <SCORE.INTRA.SOLV>
-2.75122

>  <SCORE.INTRA.SOLV.lig_0>
-57.5465

>  <SCORE.INTRA.VDW>
-1.06087

>  <SCORE.INTRA.VDW.0>
1.39369

>  <SCORE.INTRA.norm>
-0.171033

>  <SCORE.RESTR>
0.00973638

>  <SCORE.RESTR.CAVITY>
0.00973638

>  <SCORE.RESTR.norm>
0.000811365

>  <SCORE.SYSTEM>
0

>  <SCORE.SYSTEM.CONST>
0

>  <SCORE.SYSTEM.DIHEDRAL>
0

>  <SCORE.SYSTEM.SOLV>
0

>  <SCORE.SYSTEM.norm>
0

>  <SCORE.heavy>
12

>  <SCORE.norm>
-1.78363

>  <SYMMETRIC_BONDS>
4 1 2

>  <RMSD>
2.964

$$$$
1kod cryst
 OpenBabel11021811393D
libRbt.so/2013.1/901 2013/11/27
 12 11  0  0  0  0  0  0  0  0999 V2000
    2.6115    7.5766   35.2511 C   0  0  0  0  0  0  0  0  0  0  0  0
    2.5310    8.6980   34.7723 O   0  5  0  0  0  0  0  0  0  0  0  0
    3.1460    7.3313   36.3253 O   0  0  0  0  0  0  0  0  0  0  0  0
    2.0012    6.4064   34.4545 C   0  0  1  0  0  0  0  0  0  0  0  0
    2.1937    6.6496   32.9922 N   0  3  0  0  0  0  0  0  0  0  0  0
    2.6704    5.0685   34.8473 C   0  0  0  0  0  0  0  0  0  0  0  0
    1.8098    3.8900   34.4108 C   0  0  0  0  0  0  0  0  0  0  0  0
    2.4369    2.5838   34.8929 C   0  0  0  0  0  0  0  0  0  0  0  0
    1.4622    1.4686   34.6808 N   0  0  0  0  0  0  0  0  0  0  0  0
    1.4268    0.4518   35.4999 C   0  0  0  0  0  0  0  0  0  0  0  0
    1.5111   -0.6989   35.0763 O   0  0  0  0  0  0  0  0  0  0  0  0
    1.2854    0.6542   36.7775 N   0  0  0  0  0  0  0  0  0  0  0  0
  1  2  1  0  0  0  0
  1  3  2  0  0  0  0
  4  1  1  1  0  0  0
  4  6  1  0  0  0  0
  4  5  1  0  0  0  0
  6  7  1  0  0  0  0
  7  8  1  0  0  0  0
  8  9  1  0  0  0  0
  9 10  1  0  0  0  0
 10 12  1  0  0  0  0
 10 11  2  0  0  0  0
M  CHG  2   2  -1   5   1
M  END
>  <CHROM.1>
35.48018211,162.41773550,56.96959378,-176.03692901,169.63580211,32.39786817
2.08846387,4.18490278,34.98574530,-0.78601008,1.35750121,2.26928873

>  <Name>
1kod cryst

>  <RI>
0

>  <Rbt.Current_Directory>
/home/itssahil/PROJECTS/Mol_Feturizer/New_Systems/rnas/1kod

>  <Rbt.Executable>
rbdock ($Id: //depot/dev/client3/rdock/2013.1/src/exe/rbdock.cxx#4 $)

>  <Rbt.Library>
libRbt.so (2013.1, Build901 2013/11/27)

>  <Rbt.Parameter_File>
/export/apps/rDock/src/rDock_2013.1_src/data/scripts/dock_solv.prm

>  <Rbt.Receptor>
prm/pocket_docking_5.prm

>  <SCORE>
-19.4453

>  <SCORE.INTER>
-14.4981

>  <SCORE.INTER.CONST>
1

>  <SCORE.INTER.POLAR>
-3.68311

>  <SCORE.INTER.ROT>
5

>  <SCORE.INTER.SOLV>
19.4283

>  <SCORE.INTER.VDW>
-10.7978

>  <SCORE.INTER.norm>
-1.20818

>  <SCORE.INTRA>
-4.94712

>  <SCORE.INTRA.DIHEDRAL>
-4.04095

>  <SCORE.INTRA.DIHEDRAL.0>
7.7847

>  <SCORE.INTRA.POLAR>
0

>  <SCORE.INTRA.POLAR.0>
0

>  <SCORE.INTRA.REPUL>
0

>  <SCORE.INTRA.REPUL.0>
0

>  <SCORE.INTRA.SOLV>
-2.47709

>  <SCORE.INTRA.SOLV.lig_0>
-57.5465

>  <SCORE.INTRA.VDW>
-1.6881

>  <SCORE.INTRA.VDW.0>
1.39369

>  <SCORE.INTRA.norm>
-0.41226

>  <SCORE.RESTR>
0

>  <SCORE.RESTR.CAVITY>
0

>  <SCORE.RESTR.norm>
0

>  <SCORE.SYSTEM>
0

>  <SCORE.SYSTEM.CONST>
0

>  <SCORE.SYSTEM.DIHEDRAL>
0

>  <SCORE.SYSTEM.SOLV>
0

>  <SCORE.SYSTEM.norm>
0

>  <SCORE.heavy>
12

>  <SCORE.norm>
-1.62044

>  <SYMMETRIC_BONDS>
4 1 2

>  <RMSD>
2.964

$$$$
1kod cryst
 OpenBabel11021811393D
libRbt.so/2013.1/901 2013/11/27
 12 11  0  0  0  0  0  0  0  0999 V2000
    4.0288    6.0128   34.8483 C   0  0  0  0  0  0  0  0  0  0  0  0
    4.2961    5.8171   36.0246 O   0  5  0  0  0  0  0  0  0  0  0  0
    4.7521    6.6337   34.0796 O   0  0  0  0  0  0  0  0  0  0  0  0
    2.7046    5.4409   34.3045 C   0  0  1  0  0  0  0  0  0  0  0  0
    2.2343    6.2824   33.1620 N   0  3  0  0  0  0  0  0  0  0  0  0
    2.8931    3.9819   33.8271 C   0  0  0  0  0  0  0  0  0  0  0  0
    1.5559    3.2539   33.7868 C   0  0  0  0  0  0  0  0  0  0  0  0
    1.7776    1.7816   33.4477 C   0  0  0  0  0  0  0  0  0  0  0  0
    2.6152    1.1563   34.5182 N   0  0  0  0  0  0  0  0  0  0  0  0
    2.4468    1.4847   35.7712 C   0  0  0  0  0  0  0  0  0  0  0  0
    3.3962    1.8619   36.4544 O   0  0  0  0  0  0  0  0  0  0  0  0
    1.2654    1.3984   36.3098 N   0  0  0  0  0  0  0  0  0  0  0  0
  1  2  1  0  0  0  0
  1  3  2  0  0  0  0
  4  1  1  6  0  0  0
  4  6  1  0  0  0  0
  4  5  1  0  0  0  0
  6  7  1  0  0  0  0
  7  8  1  0  0  0  0
  8  9  1  0  0  0  0
  9 10  1  0  0  0  0
 10 12  1  0  0  0  0
 10 11  2  0  0  0  0
M  CHG  2   2  -1   5   1
M  END
>  <CHROM.1>
152.50543857,158.81607980,-92.21725532,-174.43369084,61.74801655,-141.82890792
2.83405244,3.78421258,34.71419806,-1.05891110,0.88082123,2.51956541

>  <Name>
1kod cryst

>  <RI>
0

>  <Rbt.Current_Directory>
/home/itssahil/PROJECTS/Mol_Feturizer/New_Systems/rnas/1kod

>  <Rbt.Executable>
rbdock ($Id: //depot/dev/client3/rdock/2013.1/src/exe/rbdock.cxx#4 $)

>  <Rbt.Library>
libRbt.so (2013.1, Build901 2013/11/27)

>  <Rbt.Parameter_File>
/export/apps/rDock/src/rDock_2013.1_src/data/scripts/dock_solv.prm

>  <Rbt.Receptor>
prm/pocket_docking_5.prm

>  <SCORE>
-22.3031

>  <SCORE.INTER>
-19.5661

>  <SCORE.INTER.CONST>
1

>  <SCORE.INTER.POLAR>
-3.82899

>  <SCORE.INTER.ROT>
5

>  <SCORE.INTER.SOLV>
16.0819

>  <SCORE.INTER.VDW>
-12.5747

>  <SCORE.INTER.norm>
-1.63051

>  <SCORE.INTRA>
-2.73695

>  <SCORE.INTRA.DIHEDRAL>
-1.96954

>  <SCORE.INTRA.DIHEDRAL.0>
7.7847

>  <SCORE.INTRA.POLAR>
0

>  <SCORE.INTRA.POLAR.0>
0

>  <SCORE.INTRA.REPUL>
0

>  <SCORE.INTRA.REPUL.0>
0

>  <SCORE.INTRA.SOLV>
-1.25329

>  <SCORE.INTRA.SOLV.lig_0>
-57.5465

>  <SCORE.INTRA.VDW>
-1.12553

>  <SCORE.INTRA.VDW.0>
1.39369

>  <SCORE.INTRA.norm>
-0.228079

>  <SCORE.RESTR>
0

>  <SCORE.RESTR.CAVITY>
0

>  <SCORE.RESTR.norm>
0

>  <SCORE.SYSTEM>
0

>  <SCORE.SYSTEM.CONST>
0

>  <SCORE.SYSTEM.DIHEDRAL>
0

>  <SCORE.SYSTEM.SOLV>
0

>  <SCORE.SYSTEM.norm>
0

>  <SCORE.heavy>
12

>  <SCORE.norm>
-1.85859

>  <SYMMETRIC_BONDS>
4 1 2

>  <RMSD>
2.970

$$$$
1kod cryst
 OpenBabel11021811393D
libRbt.so/2013.1/901 2013/11/27
 12 11  0  0  0  0  0  0  0  0999 V2000
    3.8250    7.1028   35.5683 C   0  0  0  0  0  0  0  0  0  0  0  0
    4.8583    7.3865   34.9807 O   0  5  0  0  0  0  0  0  0  0  0  0
    3.6882    7.1821   36.7826 O   0  0  0  0  0  0  0  0  0  0  0  0
    2.6263    6.6202   34.7278 C   0  0  1  0  0  0  0  0  0  0  0  0
    2.5675    7.4020   33.4550 N   0  3  0  0  0  0  0  0  0  0  0  0
    2.7568    5.1138   34.4021 C   0  0  0  0  0  0  0  0  0  0  0  0
    2.8029    4.2904   35.6826 C   0  0  0  0  0  0  0  0  0  0  0  0
    2.9925    2.8138   35.3426 C   0  0  0  0  0  0  0  0  0  0  0  0
    1.7283    2.2867   34.7406 N   0  0  0  0  0  0  0  0  0  0  0  0
    1.6523    2.0449   33.4593 C   0  0  0  0  0  0  0  0  0  0  0  0
    0.7510    2.5325   32.7807 O   0  0  0  0  0  0  0  0  0  0  0  0
    2.5295    1.2676   32.8940 N   0  0  0  0  0  0  0  0  0  0  0  0
  1  2  1  0  0  0  0
  1  3  2  0  0  0  0
  4  1  1  1  0  0  0
  4  6  1  0  0  0  0
  4  5  1  0  0  0  0
  6  7  1  0  0  0  0
  7  8  1  0  0  0  0
  8  9  1  0  0  0  0
  9 10  1  0  0  0  0
 10 12  1  0  0  0  0
 10 11  2  0  0  0  0
M  CHG  2   2  -1   5   1
M  END
>  <CHROM.1>
-38.51690079,60.02648395,-41.07485739,-177.56174394,-71.39888987,-73.99359039
2.73270241,4.68928568,34.53654049,-0.81441769,1.07864168,2.76669342

>  <Name>
1kod cryst

>  <RI>
0

>  <Rbt.Current_Directory>
/home/itssahil/PROJECTS/Mol_Feturizer/New_Systems/rnas/1kod

>  <Rbt.Executable>
rbdock ($Id: //depot/dev/client3/rdock/2013.1/src/exe/rbdock.cxx#4 $)

>  <Rbt.Library>
libRbt.so (2013.1, Build901 2013/11/27)

>  <Rbt.Parameter_File>
/export/apps/rDock/src/rDock_2013.1_src/data/scripts/dock_solv.prm

>  <Rbt.Receptor>
prm/pocket_docking_4.prm

>  <SCORE>
-22.1707

>  <SCORE.INTER>
-16.6812

>  <SCORE.INTER.CONST>
1

>  <SCORE.INTER.POLAR>
-3.57456

>  <SCORE.INTER.ROT>
5

>  <SCORE.INTER.SOLV>
14.0056

>  <SCORE.INTER.VDW>
-10.8075

>  <SCORE.INTER.norm>
-1.3901

>  <SCORE.INTRA>
-5.49155

>  <SCORE.INTRA.DIHEDRAL>
-4.22541

>  <SCORE.INTRA.DIHEDRAL.0>
7.7847

>  <SCORE.INTRA.POLAR>
0

>  <SCORE.INTRA.POLAR.0>
0

>  <SCORE.INTRA.REPUL>
0

>  <SCORE.INTRA.REPUL.0>
0

>  <SCORE.INTRA.SOLV>
-1.98832

>  <SCORE.INTRA.SOLV.lig_0>
-57.5465

>  <SCORE.INTRA.VDW>
-2.38468

>  <SCORE.INTRA.VDW.0>
1.39369

>  <SCORE.INTRA.norm>
-0.457629

>  <SCORE.RESTR>
0.00208764

>  <SCORE.RESTR.CAVITY>
0.00208764

>  <SCORE.RESTR.norm>
0.00017397

>  <SCORE.SYSTEM>
0

>  <SCORE.SYSTEM.CONST>
0

>  <SCORE.SYSTEM.DIHEDRAL>
0

>  <SCORE.SYSTEM.SOLV>
0

>  <SCORE.SYSTEM.norm>
0

>  <SCORE.heavy>
12

>  <SCORE.norm>
-1.84756

>  <SYMMETRIC_BONDS>
4 1 2

>  <RMSD>
2.977

$$$$
1kod cryst
 OpenBabel11021811393D
libRbt.so/2013.1/901 2013/11/27
 12 11  0  0  0  0  0  0  0  0999 V2000
    4.6158    6.3215   34.4016 C   0  0  0  0  0  0  0  0  0  0  0  0
    5.2786    5.6619   35.1884 O   0  5  0  0  0  0  0  0  0  0  0  0
    5.0967    7.1230   33.6104 O   0  0  0  0  0  0  0  0  0  0  0  0
    3.0865    6.1282   34.4073 C   0  0  1  0  0  0  0  0  0  0  0  0
    2.4357    7.3110   33.7654 N   0  3  0  0  0  0  0  0  0  0  0  0
    2.6938    4.8440   33.6400 C   0  0  0  0  0  0  0  0  0  0  0  0
    1.3379    4.3326   34.1089 C   0  0  0  0  0  0  0  0  0  0  0  0
    0.9583    3.0778   33.3257 C   0  0  0  0  0  0  0  0  0  0  0  0
    2.0810    2.0924   33.4112 N   0  0  0  0  0  0  0  0  0  0  0  0
    2.4373    1.5887   34.5624 C   0  0  0  0  0  0  0  0  0  0  0  0
    3.6067    1.6434   34.9367 O   0  0  0  0  0  0  0  0  0  0  0  0
    1.5506    1.0082   35.3174 N   0  0  0  0  0  0  0  0  0  0  0  0
  1  2  1  0  0  0  0
  1  3  2  0  0  0  0
  4  1  1  6  0  0  0
  4  6  1  0  0  0  0
  4  5  1  0  0  0  0
  6  7  1  0  0  0  0
  7  8  1  0  0  0  0
  8  9  1  0  0  0  0
  9 10  1  0  0  0  0
 10 12  1  0  0  0  0
 10 11  2  0  0  0  0
M  CHG  2   2  -1   5   1
M  END
>  <CHROM.1>
160.22695452,156.34120217,79.22916678,179.13975345,52.65224811,-116.93729035
2.94271184,4.27927264,34.22404882,-1.14178454,0.34224327,2.91838585

>  <Name>
1kod cryst

>  <RI>
0

>  <Rbt.Current_Directory>
/home/itssahil/PROJECTS/Mol_Feturizer/New_Systems/rnas/1kod

>  <Rbt.Executable>
rbdock ($Id: //depot/dev/client3/rdock/2013.1/src/exe/rbdock.cxx#4 $)

>  <Rbt.Library>
libRbt.so (2013.1, Build901 2013/11/27)

>  <Rbt.Parameter_File>
/export/apps/rDock/src/rDock_2013.1_src/data/scripts/dock_solv.prm

>  <Rbt.Receptor>
prm/pocket_docking_7.prm

>  <SCORE>
-19.1381

>  <SCORE.INTER>
-14.8329

>  <SCORE.INTER.CONST>
1

>  <SCORE.INTER.POLAR>
-2.42398

>  <SCORE.INTER.ROT>
5

>  <SCORE.INTER.SOLV>
14.0034

>  <SCORE.INTER.VDW>
-13.4098

>  <SCORE.INTER.norm>
-1.23607

>  <SCORE.INTRA>
-4.30519

>  <SCORE.INTRA.DIHEDRAL>
-2.76897

>  <SCORE.INTRA.DIHEDRAL.0>
7.7847

>  <SCORE.INTRA.POLAR>
0

>  <SCORE.INTRA.POLAR.0>
0

>  <SCORE.INTRA.REPUL>
0

>  <SCORE.INTRA.REPUL.0>
0

>  <SCORE.INTRA.SOLV>
-1.77026

>  <SCORE.INTRA.SOLV.lig_0>
-57.5465

>  <SCORE.INTRA.VDW>
-2.03558

>  <SCORE.INTRA.VDW.0>
1.39369

>  <SCORE.INTRA.norm>
-0.358766

>  <SCORE.RESTR>
0

>  <SCORE.RESTR.CAVITY>
0

>  <SCORE.RESTR.norm>
0

>  <SCORE.SYSTEM>
0

>  <SCORE.SYSTEM.CONST>
0

>  <SCORE.SYSTEM.DIHEDRAL>
0

>  <SCORE.SYSTEM.SOLV>
0

>  <SCORE.SYSTEM.norm>
0

>  <SCORE.heavy>
12

>  <SCORE.norm>
-1.59484

>  <SYMMETRIC_BONDS>
4 1 2

>  <RMSD>
2.999

$$$$
1kod cryst
 OpenBabel11021811393D
libRbt.so/2013.1/901 2013/11/27
 12 11  0  0  0  0  0  0  0  0999 V2000
    0.7940    4.8789   34.8343 C   0  0  0  0  0  0  0  0  0  0  0  0
    0.4895    5.6159   35.7603 O   0  5  0  0  0  0  0  0  0  0  0  0
    0.0288    4.0663   34.3306 O   0  0  0  0  0  0  0  0  0  0  0  0
    2.2243    4.9836   34.2692 C   0  0  1  0  0  0  0  0  0  0  0  0
    2.2858    6.1049   33.2825 N   0  3  0  0  0  0  0  0  0  0  0  0
    3.2442    5.2385   35.4037 C   0  0  0  0  0  0  0  0  0  0  0  0
    3.0687    4.2189   36.5215 C   0  0  0  0  0  0  0  0  0  0  0  0
    3.4519    2.8286   36.0196 C   0  0  0  0  0  0  0  0  0  0  0  0
    2.8160    1.8005   36.9012 N   0  0  0  0  0  0  0  0  0  0  0  0
    1.6291    1.3302   36.6252 C   0  0  0  0  0  0  0  0  0  0  0  0
    0.7343    1.3503   37.4675 O   0  0  0  0  0  0  0  0  0  0  0  0
    1.3916    0.8201   35.4519 N   0  0  0  0  0  0  0  0  0  0  0  0
  1  2  1  0  0  0  0
  1  3  2  0  0  0  0
  4  1  1  1  0  0  0
  4  6  1  0  0  0  0
  4  5  1  0  0  0  0
  6  7  1  0  0  0  0
  7  8  1  0  0  0  0
  8  9  1  0  0  0  0
  9 10  1  0  0  0  0
 10 12  1  0  0  0  0
 10 11  2  0  0  0  0
M  CHG  2   2  -1   5   1
M  END
>  <CHROM.1>
-83.32320421,51.39797017,48.95143151,66.91987064,-159.10506123,-89.75357931
1.82049392,3.61027147,35.54814638,1.56547533,-0.25728906,-0.50834516

>  <Name>
1kod cryst

>  <RI>
0

>  <Rbt.Current_Directory>
/home/itssahil/PROJECTS/Mol_Feturizer/New_Systems/rnas/1kod

>  <Rbt.Executable>
rbdock ($Id: //depot/dev/client3/rdock/2013.1/src/exe/rbdock.cxx#4 $)

>  <Rbt.Library>
libRbt.so (2013.1, Build901 2013/11/27)

>  <Rbt.Parameter_File>
/export/apps/rDock/src/rDock_2013.1_src/data/scripts/dock_solv.prm

>  <Rbt.Receptor>
prm/pocket_docking_6.prm

>  <SCORE>
-13.1439

>  <SCORE.INTER>
-9.57946

>  <SCORE.INTER.CONST>
1

>  <SCORE.INTER.POLAR>
-2.80915

>  <SCORE.INTER.ROT>
5

>  <SCORE.INTER.SOLV>
18.7718

>  <SCORE.INTER.VDW>
-10.2131

>  <SCORE.INTER.norm>
-0.798288

>  <SCORE.INTRA>
-3.56443

>  <SCORE.INTRA.DIHEDRAL>
-3.29859

>  <SCORE.INTRA.DIHEDRAL.0>
7.7847

>  <SCORE.INTRA.POLAR>
0

>  <SCORE.INTRA.POLAR.0>
0

>  <SCORE.INTRA.REPUL>
0

>  <SCORE.INTRA.REPUL.0>
0

>  <SCORE.INTRA.SOLV>
-0.556226

>  <SCORE.INTRA.SOLV.lig_0>
-57.5465

>  <SCORE.INTRA.VDW>
-1.63702

>  <SCORE.INTRA.VDW.0>
1.39369

>  <SCORE.INTRA.norm>
-0.297036

>  <SCORE.RESTR>
0

>  <SCORE.RESTR.CAVITY>
0

>  <SCORE.RESTR.norm>
0

>  <SCORE.SYSTEM>
0

>  <SCORE.SYSTEM.CONST>
0

>  <SCORE.SYSTEM.DIHEDRAL>
0

>  <SCORE.SYSTEM.SOLV>
0

>  <SCORE.SYSTEM.norm>
0

>  <SCORE.heavy>
12

>  <SCORE.norm>
-1.09532

>  <SYMMETRIC_BONDS>
4 1 2

>  <RMSD>
3.010

$$$$
1kod cryst
 OpenBabel11021811393D
libRbt.so/2013.1/901 2013/11/27
 12 11  0  0  0  0  0  0  0  0999 V2000
    0.6782    2.6999   37.9002 C   0  0  0  0  0  0  0  0  0  0  0  0
   -0.2137    2.2374   38.5959 O   0  5  0  0  0  0  0  0  0  0  0  0
    0.6108    3.7867   37.3398 O   0  0  0  0  0  0  0  0  0  0  0  0
    1.9615    1.8646   37.7228 C   0  0  1  0  0  0  0  0  0  0  0  0
    1.9514    0.7292   38.6951 N   0  3  0  0  0  0  0  0  0  0  0  0
    2.0589    1.3093   36.2825 C   0  0  0  0  0  0  0  0  0  0  0  0
    3.0866    2.0911   35.4747 C   0  0  0  0  0  0  0  0  0  0  0  0
    2.5533    2.3470   34.0669 C   0  0  0  0  0  0  0  0  0  0  0  0
    2.3744    1.0360   33.3684 N   0  0  0  0  0  0  0  0  0  0  0  0
    1.1861    0.5105   33.2348 C   0  0  0  0  0  0  0  0  0  0  0  0
    0.9634   -0.6404   33.6039 O   0  0  0  0  0  0  0  0  0  0  0  0
    0.2287    1.2044   32.6914 N   0  0  0  0  0  0  0  0  0  0  0  0
  1  2  1  0  0  0  0
  1  3  2  0  0  0  0
  4  1  1  6  0  0  0
  4  6  1  0  0  0  0
  4  5  1  0  0  0  0
  6  7  1  0  0  0  0
  7  8  1  0  0  0  0
  8  9  1  0  0  0  0
  9 10  1  0  0  0  0
 10 12  1  0  0  0  0
 10 11  2  0  0  0  0
M  CHG  2   2  -1   5   1
M  END
>  <CHROM.1>
-11.31607991,104.55256719,97.73790766,-138.25342821,-63.76197753,-77.30276555
1.42866983,1.57624121,35.76817777,1.67151496,-0.68219528,1.35066138

>  <Name>
1kod cryst

>  <RI>
0

>  <Rbt.Current_Directory>
/home/itssahil/PROJECTS/Mol_Feturizer/New_Systems/rnas/1kod

>  <Rbt.Executable>
rbdock ($Id: //depot/dev/client3/rdock/2013.1/src/exe/rbdock.cxx#4 $)

>  <Rbt.Library>
libRbt.so (2013.1, Build901 2013/11/27)

>  <Rbt.Parameter_File>
/export/apps/rDock/src/rDock_2013.1_src/data/scripts/dock_solv.prm

>  <Rbt.Receptor>
prm/pocket_docking_6.prm

>  <SCORE>
-26.1262

>  <SCORE.INTER>
-26.1936

>  <SCORE.INTER.CONST>
1

>  <SCORE.INTER.POLAR>
-5.02266

>  <SCORE.INTER.ROT>
5

>  <SCORE.INTER.SOLV>
20.025

>  <SCORE.INTER.VDW>
-14.3285

>  <SCORE.INTER.norm>
-2.1828

>  <SCORE.INTRA>
0.0673303

>  <SCORE.INTRA.DIHEDRAL>
6.17627

>  <SCORE.INTRA.DIHEDRAL.0>
7.7847

>  <SCORE.INTRA.POLAR>
0

>  <SCORE.INTRA.POLAR.0>
0

>  <SCORE.INTRA.REPUL>
0

>  <SCORE.INTRA.REPUL.0>
0

>  <SCORE.INTRA.SOLV>
-1.7878

>  <SCORE.INTRA.SOLV.lig_0>
-57.5465

>  <SCORE.INTRA.VDW>
-2.1269

>  <SCORE.INTRA.VDW.0>
1.39369

>  <SCORE.INTRA.norm>
0.00561086

>  <SCORE.RESTR>
0

>  <SCORE.RESTR.CAVITY>
0

>  <SCORE.RESTR.norm>
0

>  <SCORE.SYSTEM>
0

>  <SCORE.SYSTEM.CONST>
0

>  <SCORE.SYSTEM.DIHEDRAL>
0

>  <SCORE.SYSTEM.SOLV>
0

>  <SCORE.SYSTEM.norm>
0

>  <SCORE.heavy>
12

>  <SCORE.norm>
-2.17719

>  <SYMMETRIC_BONDS>
4 1 2

>  <RMSD>
3.033

$$$$
1kod cryst
 OpenBabel11021811393D
libRbt.so/2013.1/901 2013/11/27
 12 11  0  0  0  0  0  0  0  0999 V2000
    3.7715    6.1790   35.0587 C   0  0  0  0  0  0  0  0  0  0  0  0
    3.7417    6.2150   36.2798 O   0  5  0  0  0  0  0  0  0  0  0  0
    4.7054    6.5995   34.3873 O   0  0  0  0  0  0  0  0  0  0  0  0
    2.5624    5.5654   34.3253 C   0  0  1  0  0  0  0  0  0  0  0  0
    2.2306    6.4023   33.1319 N   0  3  0  0  0  0  0  0  0  0  0  0
    2.8730    4.1199   33.8711 C   0  0  0  0  0  0  0  0  0  0  0  0
    2.9674    3.1889   35.0729 C   0  0  0  0  0  0  0  0  0  0  0  0
    3.1977    1.7551   34.6006 C   0  0  0  0  0  0  0  0  0  0  0  0
    3.3171    0.8623   35.7954 N   0  0  0  0  0  0  0  0  0  0  0  0
    2.2677    0.5744   36.5177 C   0  0  0  0  0  0  0  0  0  0  0  0
    2.2731    0.7559   37.7333 O   0  0  0  0  0  0  0  0  0  0  0  0
    1.2083    0.0754   35.9503 N   0  0  0  0  0  0  0  0  0  0  0  0
  1  2  1  0  0  0  0
  1  3  2  0  0  0  0
  4  1  1  6  0  0  0
  4  6  1  0  0  0  0
  4  5  1  0  0  0  0
  6  7  1  0  0  0  0
  7  8  1  0  0  0  0
  8  9  1  0  0  0  0
  9 10  1  0  0  0  0
 10 12  1  0  0  0  0
 10 11  2  0  0  0  0
M  CHG  2   2  -1   5   1
M  END
>  <CHROM.1>
138.11948085,69.58328523,158.25201234,176.89950756,178.78143578,-107.96136666
2.91797062,3.54367735,35.21973859,-1.16659142,1.05142545,2.45126319

>  <Name>
1kod cryst

>  <RI>
0

>  <Rbt.Current_Directory>
/home/itssahil/PROJECTS/Mol_Feturizer/New_Systems/rnas/1kod

>  <Rbt.Executable>
rbdock ($Id: //depot/dev/client3/rdock/2013.1/src/exe/rbdock.cxx#4 $)

>  <Rbt.Library>
libRbt.so (2013.1, Build901 2013/11/27)

>  <Rbt.Parameter_File>
/export/apps/rDock/src/rDock_2013.1_src/data/scripts/dock_solv.prm

>  <Rbt.Receptor>
prm/pocket_docking_7.prm

>  <SCORE>
-17.6256

>  <SCORE.INTER>
-12.0971

>  <SCORE.INTER.CONST>
1

>  <SCORE.INTER.POLAR>
-3.09569

>  <SCORE.INTER.ROT>
5

>  <SCORE.INTER.SOLV>
19.0616

>  <SCORE.INTER.VDW>
-11.033

>  <SCORE.INTER.norm>
-1.00809

>  <SCORE.INTRA>
-5.5285

>  <SCORE.INTRA.DIHEDRAL>
-4.13567

>  <SCORE.INTRA.DIHEDRAL.0>
7.7847

>  <SCORE.INTRA.POLAR>
0

>  <SCORE.INTRA.POLAR.0>
0

>  <SCORE.INTRA.REPUL>
0

>  <SCORE.INTRA.REPUL.0>
0

>  <SCORE.INTRA.SOLV>
-2.47409

>  <SCORE.INTRA.SOLV.lig_0>
-57.5465

>  <SCORE.INTRA.VDW>
-2.22362

>  <SCORE.INTRA.VDW.0>
1.39369

>  <SCORE.INTRA.norm>
-0.460708

>  <SCORE.RESTR>
0

>  <SCORE.RESTR.CAVITY>
0

>  <SCORE.RESTR.norm>
0

>  <SCORE.SYSTEM>
0

>  <SCORE.SYSTEM.CONST>
0

>  <SCORE.SYSTEM.DIHEDRAL>
0

>  <SCORE.SYSTEM.SOLV>
0

>  <SCORE.SYSTEM.norm>
0

>  <SCORE.heavy>
12

>  <SCORE.norm>
-1.4688

>  <SYMMETRIC_BONDS>
4 1 2

>  <RMSD>
3.038

$$$$
1kod cryst
 OpenBabel11021811393D
libRbt.so/2013.1/901 2013/11/27
 12 11  0  0  0  0  0  0  0  0999 V2000
    4.3218    6.5285   34.8095 C   0  0  0  0  0  0  0  0  0  0  0  0
    5.0965    6.6244   33.8693 O   0  5  0  0  0  0  0  0  0  0  0  0
    4.6756    6.3483   35.9680 O   0  0  0  0  0  0  0  0  0  0  0  0
    2.8130    6.6444   34.5159 C   0  0  1  0  0  0  0  0  0  0  0  0
    2.5631    7.8593   33.6814 N   0  3  0  0  0  0  0  0  0  0  0  0
    2.3027    5.3908   33.7674 C   0  0  0  0  0  0  0  0  0  0  0  0
    2.1960    4.2053   34.7176 C   0  0  0  0  0  0  0  0  0  0  0  0
    1.9825    2.9202   33.9209 C   0  0  0  0  0  0  0  0  0  0  0  0
    1.6461    1.8110   34.8671 N   0  0  0  0  0  0  0  0  0  0  0  0
    2.5783    1.0130   35.3144 C   0  0  0  0  0  0  0  0  0  0  0  0
    2.4647   -0.2063   35.2091 O   0  0  0  0  0  0  0  0  0  0  0  0
    3.6332    1.5095   35.8922 N   0  0  0  0  0  0  0  0  0  0  0  0
  1  2  1  0  0  0  0
  1  3  2  0  0  0  0
  4  1  1  6  0  0  0
  4  6  1  0  0  0  0
  4  5  1  0  0  0  0
  6  7  1  0  0  0  0
  7  8  1  0  0  0  0
  8  9  1  0  0  0  0
  9 10  1  0  0  0  0
 10 12  1  0  0  0  0
 10 11  2  0  0  0  0
M  CHG  2   2  -1   5   1
M  END
>  <CHROM.1>
-49.44261297,74.53099478,-166.56917265,-168.02334160,-170.34759287,85.04581771
3.03937740,4.24233086,34.71213483,-1.34580566,0.49107255,2.89141425

>  <Name>
1kod cryst

>  <RI>
0

>  <Rbt.Current_Directory>
/home/itssahil/PROJECTS/Mol_Feturizer/New_Systems/rnas/1kod

>  <Rbt.Executable>
rbdock ($Id: //depot/dev/client3/rdock/2013.1/src/exe/rbdock.cxx#4 $)

>  <Rbt.Library>
libRbt.so (2013.1, Build901 2013/11/27)

>  <Rbt.Parameter_File>
/export/apps/rDock/src/rDock_2013.1_src/data/scripts/dock_solv.prm

>  <Rbt.Receptor>
prm/pocket_docking_8.prm

>  <SCORE>
-21.135

>  <SCORE.INTER>
-15.5943

>  <SCORE.INTER.CONST>
1

>  <SCORE.INTER.POLAR>
-3.25983

>  <SCORE.INTER.ROT>
5

>  <SCORE.INTER.SOLV>
13.7699

>  <SCORE.INTER.VDW>
-11.0534

>  <SCORE.INTER.norm>
-1.29952

>  <SCORE.INTRA>
-5.54073

>  <SCORE.INTRA.DIHEDRAL>
-3.48253

>  <SCORE.INTRA.DIHEDRAL.0>
7.7847

>  <SCORE.INTRA.POLAR>
0

>  <SCORE.INTRA.POLAR.0>
0

>  <SCORE.INTRA.REPUL>
0

>  <SCORE.INTRA.REPUL.0>
0

>  <SCORE.INTRA.SOLV>
-2.64551

>  <SCORE.INTRA.SOLV.lig_0>
-57.5465

>  <SCORE.INTRA.VDW>
-2.47671

>  <SCORE.INTRA.VDW.0>
1.39369

>  <SCORE.INTRA.norm>
-0.461727

>  <SCORE.RESTR>
0

>  <SCORE.RESTR.CAVITY>
0

>  <SCORE.RESTR.norm>
0

>  <SCORE.SYSTEM>
0

>  <SCORE.SYSTEM.CONST>
0

>  <SCORE.SYSTEM.DIHEDRAL>
0

>  <SCORE.SYSTEM.SOLV>
0

>  <SCORE.SYSTEM.norm>
0

>  <SCORE.heavy>
12

>  <SCORE.norm>
-1.76125

>  <SYMMETRIC_BONDS>
4 1 2

>  <RMSD>
3.039

$$$$
1kod cryst
 OpenBabel11021811393D
libRbt.so/2013.1/901 2013/11/27
 12 11  0  0  0  0  0  0  0  0999 V2000
    1.4322    1.4787   38.1414 C   0  0  0  0  0  0  0  0  0  0  0  0
    2.1764    1.5133   39.1100 O   0  5  0  0  0  0  0  0  0  0  0  0
    0.2102    1.4758   38.2211 O   0  0  0  0  0  0  0  0  0  0  0  0
    2.0732    1.4391   36.7400 C   0  0  1  0  0  0  0  0  0  0  0  0
    1.4986    0.2972   35.9651 N   0  3  0  0  0  0  0  0  0  0  0  0
    1.8119    2.7610   35.9807 C   0  0  0  0  0  0  0  0  0  0  0  0
    2.7309    2.8754   34.7714 C   0  0  0  0  0  0  0  0  0  0  0  0
    1.9002    2.9072   33.4905 C   0  0  0  0  0  0  0  0  0  0  0  0
    1.9805    1.5696   32.8250 N   0  0  0  0  0  0  0  0  0  0  0  0
    0.9721    0.7408   32.8741 C   0  0  0  0  0  0  0  0  0  0  0  0
    1.1259   -0.4123   33.2706 O   0  0  0  0  0  0  0  0  0  0  0  0
   -0.2067    1.1317   32.4856 N   0  0  0  0  0  0  0  0  0  0  0  0
  1  2  1  0  0  0  0
  1  3  2  0  0  0  0
  4  1  1  1  0  0  0
  4  6  1  0  0  0  0
  4  5  1  0  0  0  0
  6  7  1  0  0  0  0
  7  8  1  0  0  0  0
  8  9  1  0  0  0  0
  9 10  1  0  0  0  0
 10 12  1  0  0  0  0
 10 11  2  0  0  0  0
M  CHG  2   2  -1   5   1
M  END
>  <CHROM.1>
127.84863081,165.13531672,67.38950622,117.17122017,-103.52271485,-75.09086919
1.44941511,1.44118902,35.31974321,1.42753732,0.97680299,1.61913208

>  <Name>
1kod cryst

>  <RI>
0

>  <Rbt.Current_Directory>
/home/itssahil/PROJECTS/Mol_Feturizer/New_Systems/rnas/1kod

>  <Rbt.Executable>
rbdock ($Id: //depot/dev/client3/rdock/2013.1/src/exe/rbdock.cxx#4 $)

>  <Rbt.Library>
libRbt.so (2013.1, Build901 2013/11/27)

>  <Rbt.Parameter_File>
/export/apps/rDock/src/rDock_2013.1_src/data/scripts/dock_solv.prm

>  <Rbt.Receptor>
prm/pocket_docking_5.prm

>  <SCORE>
-30.1454

>  <SCORE.INTER>
-31.0816

>  <SCORE.INTER.CONST>
1

>  <SCORE.INTER.POLAR>
-5.55185

>  <SCORE.INTER.ROT>
5

>  <SCORE.INTER.SOLV>
20.4371

>  <SCORE.INTER.VDW>
-15.9606

>  <SCORE.INTER.norm>
-2.59013

>  <SCORE.INTRA>
0.936148

>  <SCORE.INTRA.DIHEDRAL>
5.97449

>  <SCORE.INTRA.DIHEDRAL.0>
7.7847

>  <SCORE.INTRA.POLAR>
0

>  <SCORE.INTRA.POLAR.0>
0

>  <SCORE.INTRA.REPUL>
0

>  <SCORE.INTRA.REPUL.0>
0

>  <SCORE.INTRA.SOLV>
3.11816

>  <SCORE.INTRA.SOLV.lig_0>
-57.5465

>  <SCORE.INTRA.VDW>
-3.61018

>  <SCORE.INTRA.VDW.0>
1.39369

>  <SCORE.INTRA.norm>
0.0780123

>  <SCORE.RESTR>
0

>  <SCORE.RESTR.CAVITY>
0

>  <SCORE.RESTR.norm>
0

>  <SCORE.SYSTEM>
0

>  <SCORE.SYSTEM.CONST>
0

>  <SCORE.SYSTEM.DIHEDRAL>
0

>  <SCORE.SYSTEM.SOLV>
0

>  <SCORE.SYSTEM.norm>
0

>  <SCORE.heavy>
12

>  <SCORE.norm>
-2.51212

>  <SYMMETRIC_BONDS>
4 1 2

>  <RMSD>
3.044

$$$$
1kod cryst
 OpenBabel11021811393D
libRbt.so/2013.1/901 2013/11/27
 12 11  0  0  0  0  0  0  0  0999 V2000
    2.6684    2.8442   38.4501 C   0  0  0  0  0  0  0  0  0  0  0  0
    1.6656    3.2428   39.0235 O   0  5  0  0  0  0  0  0  0  0  0  0
    3.7171    3.4742   38.3944 O   0  0  0  0  0  0  0  0  0  0  0  0
    2.6059    1.4669   37.7607 C   0  0  1  0  0  0  0  0  0  0  0  0
    1.8379    0.5167   38.6220 N   0  3  0  0  0  0  0  0  0  0  0  0
    1.9222    1.5771   36.3777 C   0  0  0  0  0  0  0  0  0  0  0  0
    2.7704    2.4096   35.4251 C   0  0  0  0  0  0  0  0  0  0  0  0
    2.0953    2.4801   34.0572 C   0  0  0  0  0  0  0  0  0  0  0  0
    2.1298    1.1236   33.4269 N   0  0  0  0  0  0  0  0  0  0  0  0
    1.0262    0.4528   33.2316 C   0  0  0  0  0  0  0  0  0  0  0  0
    0.9076   -0.6965   33.6506 O   0  0  0  0  0  0  0  0  0  0  0  0
    0.0450    0.9981   32.5736 N   0  0  0  0  0  0  0  0  0  0  0  0
  1  2  1  0  0  0  0
  1  3  2  0  0  0  0
  4  1  1  1  0  0  0
  4  6  1  0  0  0  0
  4  5  1  0  0  0  0
  6  7  1  0  0  0  0
  7  8  1  0  0  0  0
  8  9  1  0  0  0  0
  9 10  1  0  0  0  0
 10 12  1  0  0  0  0
 10 11  2  0  0  0  0
M  CHG  2   2  -1   5   1
M  END
>  <CHROM.1>
-39.91456028,66.00975560,-72.20145427,178.70421673,-68.25231950,-67.00221209
1.92796016,1.63690707,35.93769870,-0.99302752,-1.07077931,-1.39151951

>  <Name>
1kod cryst

>  <RI>
0

>  <Rbt.Current_Directory>
/home/itssahil/PROJECTS/Mol_Feturizer/New_Systems/rnas/1kod

>  <Rbt.Executable>
rbdock ($Id: //depot/dev/client3/rdock/2013.1/src/exe/rbdock.cxx#4 $)

>  <Rbt.Library>
libRbt.so (2013.1, Build901 2013/11/27)

>  <Rbt.Parameter_File>
/export/apps/rDock/src/rDock_2013.1_src/data/scripts/dock_solv.prm

>  <Rbt.Receptor>
prm/pocket_docking_5.prm

>  <SCORE>
-34.5577

>  <SCORE.INTER>
-28.5843

>  <SCORE.INTER.CONST>
1

>  <SCORE.INTER.POLAR>
-5.29461

>  <SCORE.INTER.ROT>
5

>  <SCORE.INTER.SOLV>
15.8147

>  <SCORE.INTER.VDW>
-13.6124

>  <SCORE.INTER.norm>
-2.38202

>  <SCORE.INTRA>
-5.9734

>  <SCORE.INTRA.DIHEDRAL>
-4.79808

>  <SCORE.INTRA.DIHEDRAL.0>
7.7847

>  <SCORE.INTRA.POLAR>
0

>  <SCORE.INTRA.POLAR.0>
0

>  <SCORE.INTRA.REPUL>
0

>  <SCORE.INTRA.REPUL.0>
0

>  <SCORE.INTRA.SOLV>
-2.06095

>  <SCORE.INTRA.SOLV.lig_0>
-57.5465

>  <SCORE.INTRA.VDW>
-2.54389

>  <SCORE.INTRA.VDW.0>
1.39369

>  <SCORE.INTRA.norm>
-0.497783

>  <SCORE.RESTR>
0

>  <SCORE.RESTR.CAVITY>
0

>  <SCORE.RESTR.norm>
0

>  <SCORE.SYSTEM>
0

>  <SCORE.SYSTEM.CONST>
0

>  <SCORE.SYSTEM.DIHEDRAL>
0

>  <SCORE.SYSTEM.SOLV>
0

>  <SCORE.SYSTEM.norm>
0

>  <SCORE.heavy>
12

>  <SCORE.norm>
-2.87981

>  <SYMMETRIC_BONDS>
4 1 2

>  <RMSD>
3.045

$$$$
1kod cryst
 OpenBabel11021811393D
libRbt.so/2013.1/901 2013/11/27
 12 11  0  0  0  0  0  0  0  0999 V2000
    2.7266    2.8333   38.4629 C   0  0  0  0  0  0  0  0  0  0  0  0
    1.7051    3.3445   38.8970 O   0  5  0  0  0  0  0  0  0  0  0  0
    3.8361    3.3432   38.5557 O   0  0  0  0  0  0  0  0  0  0  0  0
    2.6072    1.4660   37.7610 C   0  0  1  0  0  0  0  0  0  0  0  0
    1.8389    0.5269   38.6342 N   0  3  0  0  0  0  0  0  0  0  0  0
    1.8872    1.6102   36.3998 C   0  0  0  0  0  0  0  0  0  0  0  0
    2.7198    2.4490   35.4390 C   0  0  0  0  0  0  0  0  0  0  0  0
    2.0375    2.5034   34.0739 C   0  0  0  0  0  0  0  0  0  0  0  0
    2.1139    1.1516   33.4373 N   0  0  0  0  0  0  0  0  0  0  0  0
    1.0289    0.4597   33.2136 C   0  0  0  0  0  0  0  0  0  0  0  0
    0.9244   -0.6942   33.6237 O   0  0  0  0  0  0  0  0  0  0  0  0
    0.0518    0.9888   32.5366 N   0  0  0  0  0  0  0  0  0  0  0  0
  1  2  1  0  0  0  0
  1  3  2  0  0  0  0
  4  1  1  1  0  0  0
  4  6  1  0  0  0  0
  4  5  1  0  0  0  0
  6  7  1  0  0  0  0
  7  8  1  0  0  0  0
  8  9  1  0  0  0  0
  9 10  1  0  0  0  0
 10 12  1  0  0  0  0
 10 11  2  0  0  0  0
M  CHG  2   2  -1   5   1
M  END
>  <CHROM.1>
-50.60483562,65.11844569,170.08211524,176.30108463,-69.48967078,-65.34059252
1.93621491,1.64438922,35.94107283,-0.94030905,-1.08882408,-1.33381335

>  <Name>
1kod cryst

>  <RI>
0

>  <Rbt.Current_Directory>
/home/itssahil/PROJECTS/Mol_Feturizer/New_Systems/rnas/1kod

>  <Rbt.Executable>
rbdock ($Id: //depot/dev/client3/rdock/2013.1/src/exe/rbdock.cxx#4 $)

>  <Rbt.Library>
libRbt.so (2013.1, Build901 2013/11/27)

>  <Rbt.Parameter_File>
/export/apps/rDock/src/rDock_2013.1_src/data/scripts/dock_solv.prm

>  <Rbt.Receptor>
prm/pocket_docking_4.prm

>  <SCORE>
-34.6358

>  <SCORE.INTER>
-28.5655

>  <SCORE.INTER.CONST>
1

>  <SCORE.INTER.POLAR>
-5.2997

>  <SCORE.INTER.ROT>
5

>  <SCORE.INTER.SOLV>
15.9948

>  <SCORE.INTER.VDW>
-13.6429

>  <SCORE.INTER.norm>
-2.38046

>  <SCORE.INTRA>
-6.0703

>  <SCORE.INTRA.DIHEDRAL>
-4.82033

>  <SCORE.INTRA.DIHEDRAL.0>
7.7847

>  <SCORE.INTRA.POLAR>
0

>  <SCORE.INTRA.POLAR.0>
0

>  <SCORE.INTRA.REPUL>
0

>  <SCORE.INTRA.REPUL.0>
0

>  <SCORE.INTRA.SOLV>
-2.17662

>  <SCORE.INTRA.SOLV.lig_0>
-57.5465

>  <SCORE.INTRA.VDW>
-2.57183

>  <SCORE.INTRA.VDW.0>
1.39369

>  <SCORE.INTRA.norm>
-0.505858

>  <SCORE.RESTR>
0

>  <SCORE.RESTR.CAVITY>
0

>  <SCORE.RESTR.norm>
0

>  <SCORE.SYSTEM>
0

>  <SCORE.SYSTEM.CONST>
0

>  <SCORE.SYSTEM.DIHEDRAL>
0

>  <SCORE.SYSTEM.SOLV>
0

>  <SCORE.SYSTEM.norm>
0

>  <SCORE.heavy>
12

>  <SCORE.norm>
-2.88632

>  <SYMMETRIC_BONDS>
4 1 2

>  <RMSD>
3.049

$$$$
1kod cryst
 OpenBabel11021811393D
libRbt.so/2013.1/901 2013/11/27
 12 11  0  0  0  0  0  0  0  0999 V2000
    3.8226    7.4326   35.2075 C   0  0  0  0  0  0  0  0  0  0  0  0
    4.4498    7.3161   36.2499 O   0  5  0  0  0  0  0  0  0  0  0  0
    3.8082    8.4537   34.5317 O   0  0  0  0  0  0  0  0  0  0  0  0
    3.0058    6.2205   34.7176 C   0  0  1  0  0  0  0  0  0  0  0  0
    2.0518    6.6634   33.6554 N   0  3  0  0  0  0  0  0  0  0  0  0
    3.9383    5.1253   34.1492 C   0  0  0  0  0  0  0  0  0  0  0  0
    3.1376    3.8914   33.7540 C   0  0  0  0  0  0  0  0  0  0  0  0
    2.6850    3.1442   35.0065 C   0  0  0  0  0  0  0  0  0  0  0  0
    1.6362    2.1472   34.6263 N   0  0  0  0  0  0  0  0  0  0  0  0
    1.7818    0.8834   34.9224 C   0  0  0  0  0  0  0  0  0  0  0  0
    1.6870    0.0199   34.0530 O   0  0  0  0  0  0  0  0  0  0  0  0
    2.0145    0.5294   36.1527 N   0  0  0  0  0  0  0  0  0  0  0  0
  1  2  1  0  0  0  0
  1  3  2  0  0  0  0
  4  1  1  6  0  0  0
  4  6  1  0  0  0  0
  4  5  1  0  0  0  0
  6  7  1  0  0  0  0
  7  8  1  0  0  0  0
  8  9  1  0  0  0  0
  9 10  1  0  0  0  0
 10 12  1  0  0  0  0
 10 11  2  0  0  0  0
M  CHG  2   2  -1   5   1
M  END
>  <CHROM.1>
165.39556845,176.13688818,-175.90609336,-73.29604183,166.22490659,-55.53407638
2.81391831,4.33024526,34.74667601,-1.03799188,1.02887716,2.66687826

>  <Name>
1kod cryst

>  <RI>
0

>  <Rbt.Current_Directory>
/home/itssahil/PROJECTS/Mol_Feturizer/New_Systems/rnas/1kod

>  <Rbt.Executable>
rbdock ($Id: //depot/dev/client3/rdock/2013.1/src/exe/rbdock.cxx#4 $)

>  <Rbt.Library>
libRbt.so (2013.1, Build901 2013/11/27)

>  <Rbt.Parameter_File>
/export/apps/rDock/src/rDock_2013.1_src/data/scripts/dock_solv.prm

>  <Rbt.Receptor>
prm/pocket_docking_4.prm

>  <SCORE>
-22.9196

>  <SCORE.INTER>
-17.9775

>  <SCORE.INTER.CONST>
1

>  <SCORE.INTER.POLAR>
-3.74851

>  <SCORE.INTER.ROT>
5

>  <SCORE.INTER.SOLV>
13.7544

>  <SCORE.INTER.VDW>
-11.0081

>  <SCORE.INTER.norm>
-1.49812

>  <SCORE.INTRA>
-4.94215

>  <SCORE.INTRA.DIHEDRAL>
-4.04809

>  <SCORE.INTRA.DIHEDRAL.0>
7.7847

>  <SCORE.INTRA.POLAR>
0

>  <SCORE.INTRA.POLAR.0>
0

>  <SCORE.INTRA.REPUL>
0

>  <SCORE.INTRA.REPUL.0>
0

>  <SCORE.INTRA.SOLV>
-1.82229

>  <SCORE.INTRA.SOLV.lig_0>
-57.5465

>  <SCORE.INTRA.VDW>
-2.00696

>  <SCORE.INTRA.VDW.0>
1.39369

>  <SCORE.INTRA.norm>
-0.411846

>  <SCORE.RESTR>
0

>  <SCORE.RESTR.CAVITY>
0

>  <SCORE.RESTR.norm>
0

>  <SCORE.SYSTEM>
0

>  <SCORE.SYSTEM.CONST>
0

>  <SCORE.SYSTEM.DIHEDRAL>
0

>  <SCORE.SYSTEM.SOLV>
0

>  <SCORE.SYSTEM.norm>
0

>  <SCORE.heavy>
12

>  <SCORE.norm>
-1.90997

>  <SYMMETRIC_BONDS>
4 1 2

>  <RMSD>
3.055

$$$$
1kod cryst
 OpenBabel11021811393D
libRbt.so/2013.1/901 2013/11/27
 12 11  0  0  0  0  0  0  0  0999 V2000
    2.8020    2.8021   38.5257 C   0  0  0  0  0  0  0  0  0  0  0  0
    1.8396    3.2627   39.1216 O   0  5  0  0  0  0  0  0  0  0  0  0
    3.8900    3.3597   38.4548 O   0  0  0  0  0  0  0  0  0  0  0  0
    2.6327    1.4387   37.8266 C   0  0  1  0  0  0  0  0  0  0  0  0
    1.8664    0.5165   38.7193 N   0  3  0  0  0  0  0  0  0  0  0  0
    1.8805    1.6008   36.4849 C   0  0  0  0  0  0  0  0  0  0  0  0
    2.7066    2.4212   35.5028 C   0  0  0  0  0  0  0  0  0  0  0  0
    1.9914    2.4902   34.1554 C   0  0  0  0  0  0  0  0  0  0  0  0
    2.0814    1.1543   33.4875 N   0  0  0  0  0  0  0  0  0  0  0  0
    1.0015    0.4676   33.2262 C   0  0  0  0  0  0  0  0  0  0  0  0
    0.8903   -0.6961   33.6058 O   0  0  0  0  0  0  0  0  0  0  0  0
    0.0371    1.0125   32.5435 N   0  0  0  0  0  0  0  0  0  0  0  0
  1  2  1  0  0  0  0
  1  3  2  0  0  0  0
  4  1  1  1  0  0  0
  4  6  1  0  0  0  0
  4  5  1  0  0  0  0
  6  7  1  0  0  0  0
  7  8  1  0  0  0  0
  8  9  1  0  0  0  0
  9 10  1  0  0  0  0
 10 12  1  0  0  0  0
 10 11  2  0  0  0  0
M  CHG  2   2  -1   5   1
M  END
>  <CHROM.1>
-42.24488810,65.12571428,49.91696742,176.17935430,-72.27122521,-62.62487959
1.94883326,1.63216587,35.99254152,-0.93861395,-1.07049045,-1.32746218

>  <Name>
1kod cryst

>  <RI>
0

>  <Rbt.Current_Directory>
/home/itssahil/PROJECTS/Mol_Feturizer/New_Systems/rnas/1kod

>  <Rbt.Executable>
rbdock ($Id: //depot/dev/client3/rdock/2013.1/src/exe/rbdock.cxx#4 $)

>  <Rbt.Library>
libRbt.so (2013.1, Build901 2013/11/27)

>  <Rbt.Parameter_File>
/export/apps/rDock/src/rDock_2013.1_src/data/scripts/dock_solv.prm

>  <Rbt.Receptor>
prm/pocket_docking_6.prm

>  <SCORE>
-34.435

>  <SCORE.INTER>
-28.4985

>  <SCORE.INTER.CONST>
1

>  <SCORE.INTER.POLAR>
-5.3343

>  <SCORE.INTER.ROT>
5

>  <SCORE.INTER.SOLV>
16.0358

>  <SCORE.INTER.VDW>
-13.4966

>  <SCORE.INTER.norm>
-2.37488

>  <SCORE.INTRA>
-5.93653

>  <SCORE.INTRA.DIHEDRAL>
-4.59137

>  <SCORE.INTRA.DIHEDRAL.0>
7.7847

>  <SCORE.INTRA.POLAR>
0

>  <SCORE.INTRA.POLAR.0>
0

>  <SCORE.INTRA.REPUL>
0

>  <SCORE.INTRA.REPUL.0>
0

>  <SCORE.INTRA.SOLV>
-2.15597

>  <SCORE.INTRA.SOLV.lig_0>
-57.5465

>  <SCORE.INTRA.VDW>
-2.56286

>  <SCORE.INTRA.VDW.0>
1.39369

>  <SCORE.INTRA.norm>
-0.494711

>  <SCORE.RESTR>
0

>  <SCORE.RESTR.CAVITY>
0

>  <SCORE.RESTR.norm>
0

>  <SCORE.SYSTEM>
0

>  <SCORE.SYSTEM.CONST>
0

>  <SCORE.SYSTEM.DIHEDRAL>
0

>  <SCORE.SYSTEM.SOLV>
0

>  <SCORE.SYSTEM.norm>
0

>  <SCORE.heavy>
12

>  <SCORE.norm>
-2.86959

>  <SYMMETRIC_BONDS>
4 1 2

>  <RMSD>
3.098

$$$$
1kod cryst
 OpenBabel11021811393D
libRbt.so/2013.1/901 2013/11/27
 12 11  0  0  0  0  0  0  0  0999 V2000
    3.8191    6.7664   35.5020 C   0  0  0  0  0  0  0  0  0  0  0  0
    3.9048    6.2004   36.5817 O   0  5  0  0  0  0  0  0  0  0  0  0
    4.6093    7.6182   35.1148 O   0  0  0  0  0  0  0  0  0  0  0  0
    2.6485    6.3809   34.5762 C   0  0  1  0  0  0  0  0  0  0  0  0
    2.5554    7.3690   33.4584 N   0  3  0  0  0  0  0  0  0  0  0  0
    2.8542    4.9625   33.9948 C   0  0  0  0  0  0  0  0  0  0  0  0
    2.8454    3.9209   35.1060 C   0  0  0  0  0  0  0  0  0  0  0  0
    1.5104    3.1795   35.1107 C   0  0  0  0  0  0  0  0  0  0  0  0
    1.2758    2.6079   36.4734 N   0  0  0  0  0  0  0  0  0  0  0  0
    1.3115    1.3169   36.6680 C   0  0  0  0  0  0  0  0  0  0  0  0
    0.3732    0.7376   37.2108 O   0  0  0  0  0  0  0  0  0  0  0  0
    2.3564    0.6351   36.2986 N   0  0  0  0  0  0  0  0  0  0  0  0
  1  2  1  0  0  0  0
  1  3  2  0  0  0  0
  4  1  1  1  0  0  0
  4  6  1  0  0  0  0
  4  5  1  0  0  0  0
  6  7  1  0  0  0  0
  7  8  1  0  0  0  0
  8  9  1  0  0  0  0
  9 10  1  0  0  0  0
 10 12  1  0  0  0  0
 10 11  2  0  0  0  0
M  CHG  2   2  -1   5   1
M  END
>  <CHROM.1>
168.19262575,63.72746189,80.06519790,103.69020869,-156.58593899,69.04690442
2.51401611,4.32590943,35.50466665,-1.02587341,0.83200521,2.40900171

>  <Name>
1kod cryst

>  <RI>
0

>  <Rbt.Current_Directory>
/home/itssahil/PROJECTS/Mol_Feturizer/New_Systems/rnas/1kod

>  <Rbt.Executable>
rbdock ($Id: //depot/dev/client3/rdock/2013.1/src/exe/rbdock.cxx#4 $)

>  <Rbt.Library>
libRbt.so (2013.1, Build901 2013/11/27)

>  <Rbt.Parameter_File>
/export/apps/rDock/src/rDock_2013.1_src/data/scripts/dock_solv.prm

>  <Rbt.Receptor>
prm/pocket_docking_5.prm

>  <SCORE>
-19.0809

>  <SCORE.INTER>
-17.24

>  <SCORE.INTER.CONST>
1

>  <SCORE.INTER.POLAR>
-3.7329

>  <SCORE.INTER.ROT>
5

>  <SCORE.INTER.SOLV>
13.7172

>  <SCORE.INTER.VDW>
-10.556

>  <SCORE.INTER.norm>
-1.43666

>  <SCORE.INTRA>
-1.84094

>  <SCORE.INTRA.DIHEDRAL>
2.30638

>  <SCORE.INTRA.DIHEDRAL.0>
7.7847

>  <SCORE.INTRA.POLAR>
0

>  <SCORE.INTRA.POLAR.0>
0

>  <SCORE.INTRA.REPUL>
0

>  <SCORE.INTRA.REPUL.0>
0

>  <SCORE.INTRA.SOLV>
-2.08248

>  <SCORE.INTRA.SOLV.lig_0>
-57.5465

>  <SCORE.INTRA.VDW>
-1.95289

>  <SCORE.INTRA.VDW.0>
1.39369

>  <SCORE.INTRA.norm>
-0.153412

>  <SCORE.RESTR>
0

>  <SCORE.RESTR.CAVITY>
0

>  <SCORE.RESTR.norm>
0

>  <SCORE.SYSTEM>
0

>  <SCORE.SYSTEM.CONST>
0

>  <SCORE.SYSTEM.DIHEDRAL>
0

>  <SCORE.SYSTEM.SOLV>
0

>  <SCORE.SYSTEM.norm>
0

>  <SCORE.heavy>
12

>  <SCORE.norm>
-1.59008

>  <SYMMETRIC_BONDS>
4 1 2

>  <RMSD>
3.116

$$$$
1kod cryst
 OpenBabel11021811393D
libRbt.so/2013.1/901 2013/11/27
 12 11  0  0  0  0  0  0  0  0999 V2000
    3.1562    6.7739   35.3758 C   0  0  0  0  0  0  0  0  0  0  0  0
    4.0690    7.4694   34.9559 O   0  5  0  0  0  0  0  0  0  0  0  0
    2.7166    6.8427   36.5167 O   0  0  0  0  0  0  0  0  0  0  0  0
    2.5227    5.7540   34.4089 C   0  0  1  0  0  0  0  0  0  0  0  0
    2.2228    6.4259   33.1077 N   0  3  0  0  0  0  0  0  0  0  0  0
    3.4788    4.5627   34.1658 C   0  0  0  0  0  0  0  0  0  0  0  0
    2.7013    3.3365   33.7056 C   0  0  0  0  0  0  0  0  0  0  0  0
    1.7464    2.8846   34.8082 C   0  0  0  0  0  0  0  0  0  0  0  0
    2.5456    2.4372   35.9912 N   0  0  0  0  0  0  0  0  0  0  0  0
    2.2178    1.3545   36.6442 C   0  0  0  0  0  0  0  0  0  0  0  0
    2.0474    1.3826   37.8611 O   0  0  0  0  0  0  0  0  0  0  0  0
    2.0840    0.2288   36.0055 N   0  0  0  0  0  0  0  0  0  0  0  0
  1  2  1  0  0  0  0
  1  3  2  0  0  0  0
  4  1  1  1  0  0  0
  4  6  1  0  0  0  0
  4  5  1  0  0  0  0
  6  7  1  0  0  0  0
  7  8  1  0  0  0  0
  8  9  1  0  0  0  0
  9 10  1  0  0  0  0
 10 12  1  0  0  0  0
 10 11  2  0  0  0  0
M  CHG  2   2  -1   5   1
M  END
>  <CHROM.1>
-47.81401230,157.25354206,-59.38389846,-63.59450199,-64.62173539,42.74211644
2.62497639,4.13684042,35.29133842,-0.60875558,1.37480428,1.87312068

>  <Name>
1kod cryst

>  <RI>
0

>  <Rbt.Current_Directory>
/home/itssahil/PROJECTS/Mol_Feturizer/New_Systems/rnas/1kod

>  <Rbt.Executable>
rbdock ($Id: //depot/dev/client3/rdock/2013.1/src/exe/rbdock.cxx#4 $)

>  <Rbt.Library>
libRbt.so (2013.1, Build901 2013/11/27)

>  <Rbt.Parameter_File>
/export/apps/rDock/src/rDock_2013.1_src/data/scripts/dock_solv.prm

>  <Rbt.Receptor>
prm/pocket_docking_8.prm

>  <SCORE>
-18.3128

>  <SCORE.INTER>
-13.5131

>  <SCORE.INTER.CONST>
1

>  <SCORE.INTER.POLAR>
-3.05914

>  <SCORE.INTER.ROT>
5

>  <SCORE.INTER.SOLV>
15.0273

>  <SCORE.INTER.VDW>
-10.754

>  <SCORE.INTER.norm>
-1.12609

>  <SCORE.INTRA>
-4.79969

>  <SCORE.INTRA.DIHEDRAL>
-3.78583

>  <SCORE.INTRA.DIHEDRAL.0>
7.7847

>  <SCORE.INTRA.POLAR>
0

>  <SCORE.INTRA.POLAR.0>
0

>  <SCORE.INTRA.REPUL>
0

>  <SCORE.INTRA.REPUL.0>
0

>  <SCORE.INTRA.SOLV>
-1.74385

>  <SCORE.INTRA.SOLV.lig_0>
-57.5465

>  <SCORE.INTRA.VDW>
-2.03485

>  <SCORE.INTRA.VDW.0>
1.39369

>  <SCORE.INTRA.norm>
-0.399974

>  <SCORE.RESTR>
0

>  <SCORE.RESTR.CAVITY>
0

>  <SCORE.RESTR.norm>
0

>  <SCORE.SYSTEM>
0

>  <SCORE.SYSTEM.CONST>
0

>  <SCORE.SYSTEM.DIHEDRAL>
0

>  <SCORE.SYSTEM.SOLV>
0

>  <SCORE.SYSTEM.norm>
0

>  <SCORE.heavy>
12

>  <SCORE.norm>
-1.52606

>  <SYMMETRIC_BONDS>
4 1 2

>  <RMSD>
3.142

$$$$
1kod cryst
 OpenBabel11021811393D
libRbt.so/2013.1/901 2013/11/27
 12 11  0  0  0  0  0  0  0  0999 V2000
    2.1813    7.1030   35.7012 C   0  0  0  0  0  0  0  0  0  0  0  0
    3.3233    7.3991   36.0198 O   0  5  0  0  0  0  0  0  0  0  0  0
    1.2370    7.0950   36.4809 O   0  0  0  0  0  0  0  0  0  0  0  0
    1.9185    6.7207   34.2312 C   0  0  1  0  0  0  0  0  0  0  0  0
    2.5050    7.7643   33.3359 N   0  3  0  0  0  0  0  0  0  0  0  0
    2.5471    5.3464   33.9019 C   0  0  0  0  0  0  0  0  0  0  0  0
    1.6242    4.2161   34.3386 C   0  0  0  0  0  0  0  0  0  0  0  0
    2.4033    2.9040   34.3961 C   0  0  0  0  0  0  0  0  0  0  0  0
    2.8892    2.6873   35.7945 N   0  0  0  0  0  0  0  0  0  0  0  0
    2.5502    1.6142   36.4574 C   0  0  0  0  0  0  0  0  0  0  0  0
    2.0386    1.7000   37.5716 O   0  0  0  0  0  0  0  0  0  0  0  0
    2.7687    0.4392   35.9428 N   0  0  0  0  0  0  0  0  0  0  0  0
  1  2  1  0  0  0  0
  1  3  2  0  0  0  0
  4  1  1  1  0  0  0
  4  6  1  0  0  0  0
  4  5  1  0  0  0  0
  6  7  1  0  0  0  0
  7  8  1  0  0  0  0
  8  9  1  0  0  0  0
  9 10  1  0  0  0  0
 10 12  1  0  0  0  0
 10 11  2  0  0  0  0
M  CHG  2   2  -1   5   1
M  END
>  <CHROM.1>
-50.12541234,82.72975443,68.10514723,-163.30661505,94.40341698,-58.36783309
2.34709640,4.60228142,35.35418882,1.91550685,1.47295146,-0.58916199

>  <Name>
1kod cryst

>  <RI>
0

>  <Rbt.Current_Directory>
/home/itssahil/PROJECTS/Mol_Feturizer/New_Systems/rnas/1kod

>  <Rbt.Executable>
rbdock ($Id: //depot/dev/client3/rdock/2013.1/src/exe/rbdock.cxx#4 $)

>  <Rbt.Library>
libRbt.so (2013.1, Build901 2013/11/27)

>  <Rbt.Parameter_File>
/export/apps/rDock/src/rDock_2013.1_src/data/scripts/dock_solv.prm

>  <Rbt.Receptor>
prm/pocket_docking_7.prm

>  <SCORE>
-21.3452

>  <SCORE.INTER>
-17.5677

>  <SCORE.INTER.CONST>
1

>  <SCORE.INTER.POLAR>
-3.20274

>  <SCORE.INTER.ROT>
5

>  <SCORE.INTER.SOLV>
13.1942

>  <SCORE.INTER.VDW>
-12.3674

>  <SCORE.INTER.norm>
-1.46398

>  <SCORE.INTRA>
-3.77749

>  <SCORE.INTRA.DIHEDRAL>
0.714834

>  <SCORE.INTRA.DIHEDRAL.0>
7.7847

>  <SCORE.INTRA.POLAR>
0

>  <SCORE.INTRA.POLAR.0>
0

>  <SCORE.INTRA.REPUL>
0

>  <SCORE.INTRA.REPUL.0>
0

>  <SCORE.INTRA.SOLV>
-2.71172

>  <SCORE.INTRA.SOLV.lig_0>
-57.5465

>  <SCORE.INTRA.VDW>
-2.77904

>  <SCORE.INTRA.VDW.0>
1.39369

>  <SCORE.INTRA.norm>
-0.314791

>  <SCORE.RESTR>
0

>  <SCORE.RESTR.CAVITY>
0

>  <SCORE.RESTR.norm>
0

>  <SCORE.SYSTEM>
0

>  <SCORE.SYSTEM.CONST>
0

>  <SCORE.SYSTEM.DIHEDRAL>
0

>  <SCORE.SYSTEM.SOLV>
0

>  <SCORE.SYSTEM.norm>
0

>  <SCORE.heavy>
12

>  <SCORE.norm>
-1.77877

>  <SYMMETRIC_BONDS>
4 1 2

>  <RMSD>
3.149

$$$$
1kod cryst
 OpenBabel11021811393D
libRbt.so/2013.1/901 2013/11/27
 12 11  0  0  0  0  0  0  0  0999 V2000
    2.9221    4.3362   38.2644 C   0  0  0  0  0  0  0  0  0  0  0  0
    1.7143    4.3324   38.0784 O   0  5  0  0  0  0  0  0  0  0  0  0
    3.6040    5.3531   38.2913 O   0  0  0  0  0  0  0  0  0  0  0  0
    3.6232    2.9804   38.4798 C   0  0  1  0  0  0  0  0  0  0  0  0
    2.6785    2.0357   39.1504 N   0  3  0  0  0  0  0  0  0  0  0  0
    4.0813    2.3801   37.1300 C   0  0  0  0  0  0  0  0  0  0  0  0
    2.9086    2.2764   36.1637 C   0  0  0  0  0  0  0  0  0  0  0  0
    3.3349    1.5136   34.9114 C   0  0  0  0  0  0  0  0  0  0  0  0
    2.3786    1.8238   33.8033 N   0  0  0  0  0  0  0  0  0  0  0  0
    1.6101    0.8910   33.3077 C   0  0  0  0  0  0  0  0  0  0  0  0
    1.5898    0.6710   32.0987 O   0  0  0  0  0  0  0  0  0  0  0  0
    0.8449    0.1953   34.0973 N   0  0  0  0  0  0  0  0  0  0  0  0
  1  2  1  0  0  0  0
  1  3  2  0  0  0  0
  4  1  1  6  0  0  0
  4  6  1  0  0  0  0
  4  5  1  0  0  0  0
  6  7  1  0  0  0  0
  7  8  1  0  0  0  0
  8  9  1  0  0  0  0
  9 10  1  0  0  0  0
 10 12  1  0  0  0  0
 10 11  2  0  0  0  0
M  CHG  2   2  -1   5   1
M  END
>  <CHROM.1>
-31.20063440,-54.87193295,178.09840519,-172.44583887,-160.31691065,65.45202186
2.57169001,2.39041685,36.16210106,-0.54139510,-1.30641370,-1.08781831

>  <Name>
1kod cryst

>  <RI>
0

>  <Rbt.Current_Directory>
/home/itssahil/PROJECTS/Mol_Feturizer/New_Systems/rnas/1kod

>  <Rbt.Executable>
rbdock ($Id: //depot/dev/client3/rdock/2013.1/src/exe/rbdock.cxx#4 $)

>  <Rbt.Library>
libRbt.so (2013.1, Build901 2013/11/27)

>  <Rbt.Parameter_File>
/export/apps/rDock/src/rDock_2013.1_src/data/scripts/dock_solv.prm

>  <Rbt.Receptor>
prm/pocket_docking_6.prm

>  <SCORE>
-14.6218

>  <SCORE.INTER>
-10.0586

>  <SCORE.INTER.CONST>
1

>  <SCORE.INTER.POLAR>
-2.54675

>  <SCORE.INTER.ROT>
5

>  <SCORE.INTER.SOLV>
9.93837

>  <SCORE.INTER.VDW>
-8.46267

>  <SCORE.INTER.norm>
-0.838213

>  <SCORE.INTRA>
-4.56323

>  <SCORE.INTRA.DIHEDRAL>
-3.86196

>  <SCORE.INTRA.DIHEDRAL.0>
7.7847

>  <SCORE.INTRA.POLAR>
0

>  <SCORE.INTRA.POLAR.0>
0

>  <SCORE.INTRA.REPUL>
0

>  <SCORE.INTRA.REPUL.0>
0

>  <SCORE.INTRA.SOLV>
-1.1914

>  <SCORE.INTRA.SOLV.lig_0>
-57.5465

>  <SCORE.INTRA.VDW>
-2.03655

>  <SCORE.INTRA.VDW.0>
1.39369

>  <SCORE.INTRA.norm>
-0.380269

>  <SCORE.RESTR>
0

>  <SCORE.RESTR.CAVITY>
0

>  <SCORE.RESTR.norm>
0

>  <SCORE.SYSTEM>
0

>  <SCORE.SYSTEM.CONST>
0

>  <SCORE.SYSTEM.DIHEDRAL>
0

>  <SCORE.SYSTEM.SOLV>
0

>  <SCORE.SYSTEM.norm>
0

>  <SCORE.heavy>
12

>  <SCORE.norm>
-1.21848

>  <SYMMETRIC_BONDS>
4 1 2

>  <RMSD>
3.163

$$$$
1kod cryst
 OpenBabel11021811393D
libRbt.so/2013.1/901 2013/11/27
 12 11  0  0  0  0  0  0  0  0999 V2000
    5.6639    5.4683   34.1317 C   0  0  0  0  0  0  0  0  0  0  0  0
    6.4845    4.8765   33.4463 O   0  5  0  0  0  0  0  0  0  0  0  0
    5.3465    6.6380   33.9563 O   0  0  0  0  0  0  0  0  0  0  0  0
    4.9898    4.6926   35.2807 C   0  0  1  0  0  0  0  0  0  0  0  0
    4.9764    5.5425   36.5104 N   0  3  0  0  0  0  0  0  0  0  0  0
    3.5400    4.3069   34.9046 C   0  0  0  0  0  0  0  0  0  0  0  0
    3.5314    3.1203   33.9496 C   0  0  0  0  0  0  0  0  0  0  0  0
    2.0962    2.7915   33.5447 C   0  0  0  0  0  0  0  0  0  0  0  0
    2.0815    1.4785   32.8275 N   0  0  0  0  0  0  0  0  0  0  0  0
    1.0271    0.7088   32.8712 C   0  0  0  0  0  0  0  0  0  0  0  0
    1.1214   -0.4659   33.2200 O   0  0  0  0  0  0  0  0  0  0  0  0
   -0.1351    1.1827   32.5279 N   0  0  0  0  0  0  0  0  0  0  0  0
  1  2  1  0  0  0  0
  1  3  2  0  0  0  0
  4  1  1  6  0  0  0
  4  6  1  0  0  0  0
  4  5  1  0  0  0  0
  6  7  1  0  0  0  0
  7  8  1  0  0  0  0
  8  9  1  0  0  0  0
  9 10  1  0  0  0  0
 10 12  1  0  0  0  0
 10 11  2  0  0  0  0
M  CHG  2   2  -1   5   1
M  END
>  <CHROM.1>
134.81474352,76.95346530,61.33117238,-177.65974685,-169.23293313,-29.12625416
3.39572922,3.37685278,33.94210695,-0.58154827,-0.66079017,-2.02634117

>  <Name>
1kod cryst

>  <RI>
0

>  <Rbt.Current_Directory>
/home/itssahil/PROJECTS/Mol_Feturizer/New_Systems/rnas/1kod

>  <Rbt.Executable>
rbdock ($Id: //depot/dev/client3/rdock/2013.1/src/exe/rbdock.cxx#4 $)

>  <Rbt.Library>
libRbt.so (2013.1, Build901 2013/11/27)

>  <Rbt.Parameter_File>
/export/apps/rDock/src/rDock_2013.1_src/data/scripts/dock_solv.prm

>  <Rbt.Receptor>
prm/pocket_docking_6.prm

>  <SCORE>
-18.9275

>  <SCORE.INTER>
-12.9547

>  <SCORE.INTER.CONST>
1

>  <SCORE.INTER.POLAR>
-2.34742

>  <SCORE.INTER.ROT>
5

>  <SCORE.INTER.SOLV>
12.7947

>  <SCORE.INTER.VDW>
-12.01

>  <SCORE.INTER.norm>
-1.07956

>  <SCORE.INTRA>
-5.97284

>  <SCORE.INTRA.DIHEDRAL>
-4.1444

>  <SCORE.INTRA.DIHEDRAL.0>
7.7847

>  <SCORE.INTRA.POLAR>
0

>  <SCORE.INTRA.POLAR.0>
0

>  <SCORE.INTRA.REPUL>
0

>  <SCORE.INTRA.REPUL.0>
0

>  <SCORE.INTRA.SOLV>
-2.88568

>  <SCORE.INTRA.SOLV.lig_0>
-57.5465

>  <SCORE.INTRA.VDW>
-2.4578

>  <SCORE.INTRA.VDW.0>
1.39369

>  <SCORE.INTRA.norm>
-0.497737

>  <SCORE.RESTR>
0

>  <SCORE.RESTR.CAVITY>
0

>  <SCORE.RESTR.norm>
0

>  <SCORE.SYSTEM>
0

>  <SCORE.SYSTEM.CONST>
0

>  <SCORE.SYSTEM.DIHEDRAL>
0

>  <SCORE.SYSTEM.SOLV>
0

>  <SCORE.SYSTEM.norm>
0

>  <SCORE.heavy>
12

>  <SCORE.norm>
-1.57729

>  <SYMMETRIC_BONDS>
4 1 2

>  <RMSD>
3.170

$$$$
1kod cryst
 OpenBabel11021811393D
libRbt.so/2013.1/901 2013/11/27
 12 11  0  0  0  0  0  0  0  0999 V2000
    3.2452    7.5004   35.4345 C   0  0  0  0  0  0  0  0  0  0  0  0
    4.4088    7.4026   35.0743 O   0  5  0  0  0  0  0  0  0  0  0  0
    2.9056    7.7024   36.5937 O   0  0  0  0  0  0  0  0  0  0  0  0
    2.1445    7.3633   34.3640 C   0  0  1  0  0  0  0  0  0  0  0  0
    2.5289    8.1539   33.1550 N   0  3  0  0  0  0  0  0  0  0  0  0
    1.9459    5.8811   33.9692 C   0  0  0  0  0  0  0  0  0  0  0  0
    1.0628    5.1692   34.9857 C   0  0  0  0  0  0  0  0  0  0  0  0
    1.1515    3.6585   34.7809 C   0  0  0  0  0  0  0  0  0  0  0  0
    2.4763    3.1763   35.2818 N   0  0  0  0  0  0  0  0  0  0  0  0
    2.9350    2.0057   34.9278 C   0  0  0  0  0  0  0  0  0  0  0  0
    3.2922    1.1892   35.7742 O   0  0  0  0  0  0  0  0  0  0  0  0
    3.0307    1.7024   33.6661 N   0  0  0  0  0  0  0  0  0  0  0  0
  1  2  1  0  0  0  0
  1  3  2  0  0  0  0
  4  1  1  1  0  0  0
  4  6  1  0  0  0  0
  4  5  1  0  0  0  0
  6  7  1  0  0  0  0
  7  8  1  0  0  0  0
  8  9  1  0  0  0  0
  9 10  1  0  0  0  0
 10 12  1  0  0  0  0
 10 11  2  0  0  0  0
M  CHG  2   2  -1   5   1
M  END
>  <CHROM.1>
-44.38640861,81.28418108,72.11996591,-166.28334928,73.69645284,17.13700959
2.62520836,5.09042378,34.81540218,-1.53035714,0.92385495,3.08761486

>  <Name>
1kod cryst

>  <RI>
0

>  <Rbt.Current_Directory>
/home/itssahil/PROJECTS/Mol_Feturizer/New_Systems/rnas/1kod

>  <Rbt.Executable>
rbdock ($Id: //depot/dev/client3/rdock/2013.1/src/exe/rbdock.cxx#4 $)

>  <Rbt.Library>
libRbt.so (2013.1, Build901 2013/11/27)

>  <Rbt.Parameter_File>
/export/apps/rDock/src/rDock_2013.1_src/data/scripts/dock_solv.prm

>  <Rbt.Receptor>
prm/pocket_docking_7.prm

>  <SCORE>
-22.5471

>  <SCORE.INTER>
-17.5896

>  <SCORE.INTER.CONST>
1

>  <SCORE.INTER.POLAR>
-3.45744

>  <SCORE.INTER.ROT>
5

>  <SCORE.INTER.SOLV>
12.0383

>  <SCORE.INTER.VDW>
-11.1477

>  <SCORE.INTER.norm>
-1.4658

>  <SCORE.INTRA>
-4.95759

>  <SCORE.INTRA.DIHEDRAL>
-2.32294

>  <SCORE.INTRA.DIHEDRAL.0>
7.7847

>  <SCORE.INTRA.POLAR>
0

>  <SCORE.INTRA.POLAR.0>
0

>  <SCORE.INTRA.REPUL>
0

>  <SCORE.INTRA.REPUL.0>
0

>  <SCORE.INTRA.SOLV>
-2.49753

>  <SCORE.INTRA.SOLV.lig_0>
-57.5465

>  <SCORE.INTRA.VDW>
-2.54736

>  <SCORE.INTRA.VDW.0>
1.39369

>  <SCORE.INTRA.norm>
-0.413133

>  <SCORE.RESTR>
8.35743e-05

>  <SCORE.RESTR.CAVITY>
8.35743e-05

>  <SCORE.RESTR.norm>
6.96452e-06

>  <SCORE.SYSTEM>
0

>  <SCORE.SYSTEM.CONST>
0

>  <SCORE.SYSTEM.DIHEDRAL>
0

>  <SCORE.SYSTEM.SOLV>
0

>  <SCORE.SYSTEM.norm>
0

>  <SCORE.heavy>
12

>  <SCORE.norm>
-1.87893

>  <SYMMETRIC_BONDS>
4 1 2

>  <RMSD>
3.197

$$$$
1kod cryst
 OpenBabel11021811393D
libRbt.so/2013.1/901 2013/11/27
 12 11  0  0  0  0  0  0  0  0999 V2000
    2.7723    7.3190   35.7923 C   0  0  0  0  0  0  0  0  0  0  0  0
    3.9890    7.2443   35.7065 O   0  5  0  0  0  0  0  0  0  0  0  0
    2.1808    7.6596   36.8090 O   0  0  0  0  0  0  0  0  0  0  0  0
    1.9381    6.9656   34.5451 C   0  0  1  0  0  0  0  0  0  0  0  0
    2.4989    7.6777   33.3565 N   0  3  0  0  0  0  0  0  0  0  0  0
    1.9559    5.4405   34.2884 C   0  0  0  0  0  0  0  0  0  0  0  0
    1.3256    4.6927   35.4561 C   0  0  0  0  0  0  0  0  0  0  0  0
    1.6596    3.2058   35.3600 C   0  0  0  0  0  0  0  0  0  0  0  0
    1.3309    2.5479   36.6630 N   0  0  0  0  0  0  0  0  0  0  0  0
    1.2889    1.2459   36.7585 C   0  0  0  0  0  0  0  0  0  0  0  0
    0.2967    0.6815   37.2140 O   0  0  0  0  0  0  0  0  0  0  0  0
    2.3125    0.5359   36.3828 N   0  0  0  0  0  0  0  0  0  0  0  0
  1  2  1  0  0  0  0
  1  3  2  0  0  0  0
  4  1  1  1  0  0  0
  4  6  1  0  0  0  0
  4  5  1  0  0  0  0
  6  7  1  0  0  0  0
  7  8  1  0  0  0  0
  8  9  1  0  0  0  0
  9 10  1  0  0  0  0
 10 12  1  0  0  0  0
 10 11  2  0  0  0  0
M  CHG  2   2  -1   5   1
M  END
>  <CHROM.1>
-48.25567439,62.18717827,93.07641779,-165.83478551,166.25236332,-12.90461965
1.98279657,4.61284521,35.68900969,-0.53367974,1.32347188,1.85172754

>  <Name>
1kod cryst

>  <RI>
0

>  <Rbt.Current_Directory>
/home/itssahil/PROJECTS/Mol_Feturizer/New_Systems/rnas/1kod

>  <Rbt.Executable>
rbdock ($Id: //depot/dev/client3/rdock/2013.1/src/exe/rbdock.cxx#4 $)

>  <Rbt.Library>
libRbt.so (2013.1, Build901 2013/11/27)

>  <Rbt.Parameter_File>
/export/apps/rDock/src/rDock_2013.1_src/data/scripts/dock_solv.prm

>  <Rbt.Receptor>
prm/pocket_docking_4.prm

>  <SCORE>
-23.1737

>  <SCORE.INTER>
-19.266

>  <SCORE.INTER.CONST>
1

>  <SCORE.INTER.POLAR>
-3.92486

>  <SCORE.INTER.ROT>
5

>  <SCORE.INTER.SOLV>
14.5037

>  <SCORE.INTER.VDW>
-11.529

>  <SCORE.INTER.norm>
-1.6055

>  <SCORE.INTRA>
-4.09867

>  <SCORE.INTRA.DIHEDRAL>
-1.95147

>  <SCORE.INTRA.DIHEDRAL.0>
7.7847

>  <SCORE.INTRA.POLAR>
0

>  <SCORE.INTRA.POLAR.0>
0

>  <SCORE.INTRA.REPUL>
0

>  <SCORE.INTRA.REPUL.0>
0

>  <SCORE.INTRA.SOLV>
-2.80024

>  <SCORE.INTRA.SOLV.lig_0>
-57.5465

>  <SCORE.INTRA.VDW>
-1.72281

>  <SCORE.INTRA.VDW.0>
1.39369

>  <SCORE.INTRA.norm>
-0.341556

>  <SCORE.RESTR>
0.191026

>  <SCORE.RESTR.CAVITY>
0.191026

>  <SCORE.RESTR.norm>
0.0159188

>  <SCORE.SYSTEM>
0

>  <SCORE.SYSTEM.CONST>
0

>  <SCORE.SYSTEM.DIHEDRAL>
0

>  <SCORE.SYSTEM.SOLV>
0

>  <SCORE.SYSTEM.norm>
0

>  <SCORE.heavy>
12

>  <SCORE.norm>
-1.93114

>  <SYMMETRIC_BONDS>
4 1 2

>  <RMSD>
3.247

$$$$
1kod cryst
 OpenBabel11021811393D
libRbt.so/2013.1/901 2013/11/27
 12 11  0  0  0  0  0  0  0  0999 V2000
    2.0430    3.7010   38.9969 C   0  0  0  0  0  0  0  0  0  0  0  0
    2.5763    4.1102   40.0174 O   0  5  0  0  0  0  0  0  0  0  0  0
    1.0618    4.2245   38.4841 O   0  0  0  0  0  0  0  0  0  0  0  0
    2.6452    2.4551   38.3178 C   0  0  1  0  0  0  0  0  0  0  0  0
    2.0210    1.2260   38.8959 N   0  3  0  0  0  0  0  0  0  0  0  0
    2.3981    2.4899   36.7914 C   0  0  0  0  0  0  0  0  0  0  0  0
    3.6903    2.2176   36.0326 C   0  0  0  0  0  0  0  0  0  0  0  0
    3.5347    2.6440   34.5746 C   0  0  0  0  0  0  0  0  0  0  0  0
    3.0284    1.4823   33.7791 N   0  0  0  0  0  0  0  0  0  0  0  0
    1.7464    1.3066   33.6010 C   0  0  0  0  0  0  0  0  0  0  0  0
    1.2145    0.2348   33.8820 O   0  0  0  0  0  0  0  0  0  0  0  0
    1.0235    2.2691   33.1068 N   0  0  0  0  0  0  0  0  0  0  0  0
  1  2  1  0  0  0  0
  1  3  2  0  0  0  0
  4  1  1  1  0  0  0
  4  6  1  0  0  0  0
  4  5  1  0  0  0  0
  6  7  1  0  0  0  0
  7  8  1  0  0  0  0
  8  9  1  0  0  0  0
  9 10  1  0  0  0  0
 10 12  1  0  0  0  0
 10 11  2  0  0  0  0
M  CHG  2   2  -1   5   1
M  END
>  <CHROM.1>
88.60251289,130.69880953,-18.80085756,-163.77897713,-90.39834845,-88.10952481
2.21777958,2.34651928,36.38967992,-1.26310687,-1.48335006,-1.59713900

>  <Name>
1kod cryst

>  <RI>
0

>  <Rbt.Current_Directory>
/home/itssahil/PROJECTS/Mol_Feturizer/New_Systems/rnas/1kod

>  <Rbt.Executable>
rbdock ($Id: //depot/dev/client3/rdock/2013.1/src/exe/rbdock.cxx#4 $)

>  <Rbt.Library>
libRbt.so (2013.1, Build901 2013/11/27)

>  <Rbt.Parameter_File>
/export/apps/rDock/src/rDock_2013.1_src/data/scripts/dock_solv.prm

>  <Rbt.Receptor>
prm/pocket_docking_4.prm

>  <SCORE>
-16.8423

>  <SCORE.INTER>
-16.6606

>  <SCORE.INTER.CONST>
1

>  <SCORE.INTER.POLAR>
-3.4426

>  <SCORE.INTER.ROT>
5

>  <SCORE.INTER.SOLV>
10.9864

>  <SCORE.INTER.VDW>
-10.2272

>  <SCORE.INTER.norm>
-1.38838

>  <SCORE.INTRA>
-0.18175

>  <SCORE.INTRA.DIHEDRAL>
5.84774

>  <SCORE.INTRA.DIHEDRAL.0>
7.7847

>  <SCORE.INTRA.POLAR>
0

>  <SCORE.INTRA.POLAR.0>
0

>  <SCORE.INTRA.REPUL>
0

>  <SCORE.INTRA.REPUL.0>
0

>  <SCORE.INTRA.SOLV>
-2.57037

>  <SCORE.INTRA.SOLV.lig_0>
-57.5465

>  <SCORE.INTRA.VDW>
-1.82043

>  <SCORE.INTRA.VDW.0>
1.39369

>  <SCORE.INTRA.norm>
-0.0151458

>  <SCORE.RESTR>
0

>  <SCORE.RESTR.CAVITY>
0

>  <SCORE.RESTR.norm>
0

>  <SCORE.SYSTEM>
0

>  <SCORE.SYSTEM.CONST>
0

>  <SCORE.SYSTEM.DIHEDRAL>
0

>  <SCORE.SYSTEM.SOLV>
0

>  <SCORE.SYSTEM.norm>
0

>  <SCORE.heavy>
12

>  <SCORE.norm>
-1.40353

>  <SYMMETRIC_BONDS>
4 1 2

>  <RMSD>
3.281

$$$$
1kod cryst
 OpenBabel11021811393D
libRbt.so/2013.1/901 2013/11/27
 12 11  0  0  0  0  0  0  0  0999 V2000
    3.1957    7.2191   35.7864 C   0  0  0  0  0  0  0  0  0  0  0  0
    4.3721    7.1109   35.4740 O   0  5  0  0  0  0  0  0  0  0  0  0
    2.8151    7.5669   36.8972 O   0  0  0  0  0  0  0  0  0  0  0  0
    2.1328    6.9007   34.7163 C   0  0  1  0  0  0  0  0  0  0  0  0
    2.4983    7.5828   33.4374 N   0  3  0  0  0  0  0  0  0  0  0  0
    2.0354    5.3756   34.4778 C   0  0  0  0  0  0  0  0  0  0  0  0
    1.6285    4.6575   35.7579 C   0  0  0  0  0  0  0  0  0  0  0  0
    1.5805    3.1509   35.5140 C   0  0  0  0  0  0  0  0  0  0  0  0
    1.2234    2.4618   36.7932 N   0  0  0  0  0  0  0  0  0  0  0  0
    1.1882    1.1577   36.8586 C   0  0  0  0  0  0  0  0  0  0  0  0
    0.1887    0.5768   37.2758 O   0  0  0  0  0  0  0  0  0  0  0  0
    2.2260    0.4629   36.4934 N   0  0  0  0  0  0  0  0  0  0  0  0
  1  2  1  0  0  0  0
  1  3  2  0  0  0  0
  4  1  1  1  0  0  0
  4  6  1  0  0  0  0
  4  5  1  0  0  0  0
  6  7  1  0  0  0  0
  7  8  1  0  0  0  0
  8  9  1  0  0  0  0
  9 10  1  0  0  0  0
 10 12  1  0  0  0  0
 10 11  2  0  0  0  0
M  CHG  2   2  -1   5   1
M  END
>  <CHROM.1>
-47.00392376,60.83716720,-153.61142958,-178.23361956,178.15537142,3.59643361
2.10870396,4.52907100,35.78120007,-0.92459400,1.10398628,2.27438244

>  <Name>
1kod cryst

>  <RI>
0

>  <Rbt.Current_Directory>
/home/itssahil/PROJECTS/Mol_Feturizer/New_Systems/rnas/1kod

>  <Rbt.Executable>
rbdock ($Id: //depot/dev/client3/rdock/2013.1/src/exe/rbdock.cxx#4 $)

>  <Rbt.Library>
libRbt.so (2013.1, Build901 2013/11/27)

>  <Rbt.Parameter_File>
/export/apps/rDock/src/rDock_2013.1_src/data/scripts/dock_solv.prm

>  <Rbt.Receptor>
prm/pocket_docking_4.prm

>  <SCORE>
-23.2011

>  <SCORE.INTER>
-17.9973

>  <SCORE.INTER.CONST>
1

>  <SCORE.INTER.POLAR>
-3.86041

>  <SCORE.INTER.ROT>
5

>  <SCORE.INTER.SOLV>
14.326

>  <SCORE.INTER.VDW>
-10.8389

>  <SCORE.INTER.norm>
-1.49978

>  <SCORE.INTRA>
-5.24288

>  <SCORE.INTRA.DIHEDRAL>
-4.05345

>  <SCORE.INTRA.DIHEDRAL.0>
7.7847

>  <SCORE.INTRA.POLAR>
0

>  <SCORE.INTRA.POLAR.0>
0

>  <SCORE.INTRA.REPUL>
0

>  <SCORE.INTRA.REPUL.0>
0

>  <SCORE.INTRA.SOLV>
-2.83454

>  <SCORE.INTRA.SOLV.lig_0>
-57.5465

>  <SCORE.INTRA.VDW>
-1.79888

>  <SCORE.INTRA.VDW.0>
1.39369

>  <SCORE.INTRA.norm>
-0.436907

>  <SCORE.RESTR>
0.0390628

>  <SCORE.RESTR.CAVITY>
0.0390628

>  <SCORE.RESTR.norm>
0.00325523

>  <SCORE.SYSTEM>
0

>  <SCORE.SYSTEM.CONST>
0

>  <SCORE.SYSTEM.DIHEDRAL>
0

>  <SCORE.SYSTEM.SOLV>
0

>  <SCORE.SYSTEM.norm>
0

>  <SCORE.heavy>
12

>  <SCORE.norm>
-1.93343

>  <SYMMETRIC_BONDS>
4 1 2

>  <RMSD>
3.291

$$$$
1kod cryst
 OpenBabel11021811393D
libRbt.so/2013.1/901 2013/11/27
 12 11  0  0  0  0  0  0  0  0999 V2000
    2.4157    8.0566   35.4263 C   0  0  0  0  0  0  0  0  0  0  0  0
    2.9517    8.9136   34.7396 O   0  5  0  0  0  0  0  0  0  0  0  0
    2.2050    8.1788   36.6265 O   0  0  0  0  0  0  0  0  0  0  0  0
    1.9787    6.7488   34.7371 C   0  0  1  0  0  0  0  0  0  0  0  0
    2.5479    6.7033   33.3556 N   0  3  0  0  0  0  0  0  0  0  0  0
    2.4672    5.5185   35.5369 C   0  0  0  0  0  0  0  0  0  0  0  0
    1.7845    4.2506   35.0405 C   0  0  0  0  0  0  0  0  0  0  0  0
    2.2735    3.0493   35.8464 C   0  0  0  0  0  0  0  0  0  0  0  0
    1.4128    1.8673   35.5291 N   0  0  0  0  0  0  0  0  0  0  0  0
    1.7171    0.6817   35.9849 C   0  0  0  0  0  0  0  0  0  0  0  0
    1.8157   -0.2776   35.2229 O   0  0  0  0  0  0  0  0  0  0  0  0
    1.9038    0.5069   37.2607 N   0  0  0  0  0  0  0  0  0  0  0  0
  1  2  1  0  0  0  0
  1  3  2  0  0  0  0
  4  1  1  1  0  0  0
  4  6  1  0  0  0  0
  4  5  1  0  0  0  0
  6  7  1  0  0  0  0
  7  8  1  0  0  0  0
  8  9  1  0  0  0  0
  9 10  1  0  0  0  0
 10 12  1  0  0  0  0
 10 11  2  0  0  0  0
M  CHG  2   2  -1   5   1
M  END
>  <CHROM.1>
10.47383678,167.41454234,-80.70266949,-179.69543729,169.34362674,-7.33371500
2.13082038,4.52039358,35.42562264,0.24845302,1.46799558,1.18773445

>  <Name>
1kod cryst

>  <RI>
0

>  <Rbt.Current_Directory>
/home/itssahil/PROJECTS/Mol_Feturizer/New_Systems/rnas/1kod

>  <Rbt.Executable>
rbdock ($Id: //depot/dev/client3/rdock/2013.1/src/exe/rbdock.cxx#4 $)

>  <Rbt.Library>
libRbt.so (2013.1, Build901 2013/11/27)

>  <Rbt.Parameter_File>
/export/apps/rDock/src/rDock_2013.1_src/data/scripts/dock_solv.prm

>  <Rbt.Receptor>
prm/pocket_docking_4.prm

>  <SCORE>
-18.9605

>  <SCORE.INTER>
-14.5058

>  <SCORE.INTER.CONST>
1

>  <SCORE.INTER.POLAR>
-3.32402

>  <SCORE.INTER.ROT>
5

>  <SCORE.INTER.SOLV>
15.7875

>  <SCORE.INTER.VDW>
-10.7863

>  <SCORE.INTER.norm>
-1.20882

>  <SCORE.INTRA>
-4.45467

>  <SCORE.INTRA.DIHEDRAL>
-3.62541

>  <SCORE.INTRA.DIHEDRAL.0>
7.7847

>  <SCORE.INTRA.POLAR>
0

>  <SCORE.INTRA.POLAR.0>
0

>  <SCORE.INTRA.REPUL>
0

>  <SCORE.INTRA.REPUL.0>
0

>  <SCORE.INTRA.SOLV>
-2.34467

>  <SCORE.INTRA.SOLV.lig_0>
-57.5465

>  <SCORE.INTRA.VDW>
-1.46963

>  <SCORE.INTRA.VDW.0>
1.39369

>  <SCORE.INTRA.norm>
-0.371223

>  <SCORE.RESTR>
0

>  <SCORE.RESTR.CAVITY>
0

>  <SCORE.RESTR.norm>
0

>  <SCORE.SYSTEM>
0

>  <SCORE.SYSTEM.CONST>
0

>  <SCORE.SYSTEM.DIHEDRAL>
0

>  <SCORE.SYSTEM.SOLV>
0

>  <SCORE.SYSTEM.norm>
0

>  <SCORE.heavy>
12

>  <SCORE.norm>
-1.58004

>  <SYMMETRIC_BONDS>
4 1 2

>  <RMSD>
3.379

$$$$
1kod cryst
 OpenBabel11021811393D
libRbt.so/2013.1/901 2013/11/27
 12 11  0  0  0  0  0  0  0  0999 V2000
    3.0740    8.2538   36.3339 C   0  0  0  0  0  0  0  0  0  0  0  0
    4.1805    7.9850   36.7774 O   0  5  0  0  0  0  0  0  0  0  0  0
    2.7192    9.3853   36.0281 O   0  0  0  0  0  0  0  0  0  0  0  0
    2.0710    7.0982   36.1479 C   0  0  1  0  0  0  0  0  0  0  0  0
    0.7130    7.5466   36.5831 N   0  3  0  0  0  0  0  0  0  0  0  0
    2.0171    6.6524   34.6679 C   0  0  0  0  0  0  0  0  0  0  0  0
    3.0786    5.5969   34.3868 C   0  0  0  0  0  0  0  0  0  0  0  0
    2.5539    4.2173   34.7785 C   0  0  0  0  0  0  0  0  0  0  0  0
    2.2319    3.4482   33.5362 N   0  0  0  0  0  0  0  0  0  0  0  0
    0.9924    3.2828   33.1591 C   0  0  0  0  0  0  0  0  0  0  0  0
    0.5504    2.1590   32.9302 O   0  0  0  0  0  0  0  0  0  0  0  0
    0.2181    4.3175   33.0080 N   0  0  0  0  0  0  0  0  0  0  0  0
  1  2  1  0  0  0  0
  1  3  2  0  0  0  0
  4  1  1  6  0  0  0
  4  6  1  0  0  0  0
  4  5  1  0  0  0  0
  6  7  1  0  0  0  0
  7  8  1  0  0  0  0
  8  9  1  0  0  0  0
  9 10  1  0  0  0  0
 10 12  1  0  0  0  0
 10 11  2  0  0  0  0
M  CHG  2   2  -1   5   1
M  END
>  <CHROM.1>
138.86112934,87.62277323,76.55179508,83.95957269,106.26634065,75.70497172
2.00168617,5.84857949,34.86838161,-1.28969555,0.12854740,-2.62608091

>  <Name>
1kod cryst

>  <RI>
0

>  <Rbt.Current_Directory>
/home/itssahil/PROJECTS/Mol_Feturizer/New_Systems/rnas/1kod

>  <Rbt.Executable>
rbdock ($Id: //depot/dev/client3/rdock/2013.1/src/exe/rbdock.cxx#4 $)

>  <Rbt.Library>
libRbt.so (2013.1, Build901 2013/11/27)

>  <Rbt.Parameter_File>
/export/apps/rDock/src/rDock_2013.1_src/data/scripts/dock_solv.prm

>  <Rbt.Receptor>
prm/pocket_docking_5.prm

>  <SCORE>
-14.5709

>  <SCORE.INTER>
-13.2078

>  <SCORE.INTER.CONST>
1

>  <SCORE.INTER.POLAR>
-2.05279

>  <SCORE.INTER.ROT>
5

>  <SCORE.INTER.SOLV>
11.1442

>  <SCORE.INTER.VDW>
-12.6106

>  <SCORE.INTER.norm>
-1.10065

>  <SCORE.INTRA>
-1.36312

>  <SCORE.INTRA.DIHEDRAL>
4.27823

>  <SCORE.INTRA.DIHEDRAL.0>
7.7847

>  <SCORE.INTRA.POLAR>
0

>  <SCORE.INTRA.POLAR.0>
0

>  <SCORE.INTRA.REPUL>
0

>  <SCORE.INTRA.REPUL.0>
0

>  <SCORE.INTRA.SOLV>
-2.09067

>  <SCORE.INTRA.SOLV.lig_0>
-57.5465

>  <SCORE.INTRA.VDW>
-2.4569

>  <SCORE.INTRA.VDW.0>
1.39369

>  <SCORE.INTRA.norm>
-0.113593

>  <SCORE.RESTR>
0

>  <SCORE.RESTR.CAVITY>
0

>  <SCORE.RESTR.norm>
0

>  <SCORE.SYSTEM>
0

>  <SCORE.SYSTEM.CONST>
0

>  <SCORE.SYSTEM.DIHEDRAL>
0

>  <SCORE.SYSTEM.SOLV>
0

>  <SCORE.SYSTEM.norm>
0

>  <SCORE.heavy>
12

>  <SCORE.norm>
-1.21424

>  <SYMMETRIC_BONDS>
4 1 2

>  <RMSD>
3.416

$$$$
1kod cryst
 OpenBabel11021811393D
libRbt.so/2013.1/901 2013/11/27
 12 11  0  0  0  0  0  0  0  0999 V2000
    3.4717    6.2704   35.1834 C   0  0  0  0  0  0  0  0  0  0  0  0
    4.4500    5.8273   34.6004 O   0  5  0  0  0  0  0  0  0  0  0  0
    3.4417    6.5006   36.3858 O   0  0  0  0  0  0  0  0  0  0  0  0
    2.2052    6.5570   34.3528 C   0  0  1  0  0  0  0  0  0  0  0  0
    2.5268    7.5566   33.2888 N   0  3  0  0  0  0  0  0  0  0  0  0
    1.6742    5.2601   33.6983 C   0  0  0  0  0  0  0  0  0  0  0  0
    0.8516    4.4543   34.6953 C   0  0  0  0  0  0  0  0  0  0  0  0
    1.7792    3.7492   35.6823 C   0  0  0  0  0  0  0  0  0  0  0  0
    0.9568    3.1445   36.7763 N   0  0  0  0  0  0  0  0  0  0  0  0
    1.3004    2.0048   37.3139 C   0  0  0  0  0  0  0  0  0  0  0  0
    0.5001    1.0742   37.3780 O   0  0  0  0  0  0  0  0  0  0  0  0
    2.4971    1.8539   37.8021 N   0  0  0  0  0  0  0  0  0  0  0  0
  1  2  1  0  0  0  0
  1  3  2  0  0  0  0
  4  1  1  6  0  0  0
  4  6  1  0  0  0  0
  4  5  1  0  0  0  0
  6  7  1  0  0  0  0
  7  8  1  0  0  0  0
  8  9  1  0  0  0  0
  9 10  1  0  0  0  0
 10 12  1  0  0  0  0
 10 11  2  0  0  0  0
M  CHG  2   2  -1   5   1
M  END
>  <CHROM.1>
-59.41003826,81.32575904,63.67587376,-75.91168653,171.11722365,-35.44992289
2.16000093,4.53618695,35.59848258,-1.23440215,0.52692014,2.40037122

>  <Name>
1kod cryst

>  <RI>
0

>  <Rbt.Current_Directory>
/home/itssahil/PROJECTS/Mol_Feturizer/New_Systems/rnas/1kod

>  <Rbt.Executable>
rbdock ($Id: //depot/dev/client3/rdock/2013.1/src/exe/rbdock.cxx#4 $)

>  <Rbt.Library>
libRbt.so (2013.1, Build901 2013/11/27)

>  <Rbt.Parameter_File>
/export/apps/rDock/src/rDock_2013.1_src/data/scripts/dock_solv.prm

>  <Rbt.Receptor>
prm/pocket_docking_8.prm

>  <SCORE>
-19.3347

>  <SCORE.INTER>
-14.9531

>  <SCORE.INTER.CONST>
1

>  <SCORE.INTER.POLAR>
-3.00772

>  <SCORE.INTER.ROT>
5

>  <SCORE.INTER.SOLV>
13.8779

>  <SCORE.INTER.VDW>
-11.5023

>  <SCORE.INTER.norm>
-1.24609

>  <SCORE.INTRA>
-4.38164

>  <SCORE.INTRA.DIHEDRAL>
-2.77628

>  <SCORE.INTRA.DIHEDRAL.0>
7.7847

>  <SCORE.INTRA.POLAR>
0

>  <SCORE.INTRA.POLAR.0>
0

>  <SCORE.INTRA.REPUL>
0

>  <SCORE.INTRA.REPUL.0>
0

>  <SCORE.INTRA.SOLV>
-1.56313

>  <SCORE.INTRA.SOLV.lig_0>
-57.5465

>  <SCORE.INTRA.VDW>
-2.21194

>  <SCORE.INTRA.VDW.0>
1.39369

>  <SCORE.INTRA.norm>
-0.365137

>  <SCORE.RESTR>
0

>  <SCORE.RESTR.CAVITY>
0

>  <SCORE.RESTR.norm>
0

>  <SCORE.SYSTEM>
0

>  <SCORE.SYSTEM.CONST>
0

>  <SCORE.SYSTEM.DIHEDRAL>
0

>  <SCORE.SYSTEM.SOLV>
0

>  <SCORE.SYSTEM.norm>
0

>  <SCORE.heavy>
12

>  <SCORE.norm>
-1.61123

>  <SYMMETRIC_BONDS>
4 1 2

>  <RMSD>
3.430

$$$$
1kod cryst
 OpenBabel11021811393D
libRbt.so/2013.1/901 2013/11/27
 12 11  0  0  0  0  0  0  0  0999 V2000
    6.1450    4.9491   36.0884 C   0  0  0  0  0  0  0  0  0  0  0  0
    5.3550    5.6066   36.7494 O   0  5  0  0  0  0  0  0  0  0  0  0
    7.2574    5.3456   35.7641 O   0  0  0  0  0  0  0  0  0  0  0  0
    5.7131    3.5384   35.6415 C   0  0  1  0  0  0  0  0  0  0  0  0
    5.6549    2.6379   36.8333 N   0  3  0  0  0  0  0  0  0  0  0  0
    4.3258    3.5809   34.9590 C   0  0  0  0  0  0  0  0  0  0  0  0
    4.0299    2.2588   34.2630 C   0  0  0  0  0  0  0  0  0  0  0  0
    2.6160    2.2816   33.6868 C   0  0  0  0  0  0  0  0  0  0  0  0
    2.3583    0.9895   32.9779 N   0  0  0  0  0  0  0  0  0  0  0  0
    1.1671    0.4536   32.9843 C   0  0  0  0  0  0  0  0  0  0  0  0
    1.0042   -0.7102   33.3440 O   0  0  0  0  0  0  0  0  0  0  0  0
    0.1413    1.1513   32.5918 N   0  0  0  0  0  0  0  0  0  0  0  0
  1  2  1  0  0  0  0
  1  3  2  0  0  0  0
  4  1  1  1  0  0  0
  4  6  1  0  0  0  0
  4  5  1  0  0  0  0
  6  7  1  0  0  0  0
  7  8  1  0  0  0  0
  8  9  1  0  0  0  0
  9 10  1  0  0  0  0
 10 12  1  0  0  0  0
 10 11  2  0  0  0  0
M  CHG  2   2  -1   5   1
M  END
>  <CHROM.1>
-69.85410466,168.12140286,-44.61720339,175.72464245,178.54888450,-34.50407842
3.81223402,2.66247438,34.67970302,0.52252636,-0.64954968,-0.15380368

>  <Name>
1kod cryst

>  <RI>
0

>  <Rbt.Current_Directory>
/home/itssahil/PROJECTS/Mol_Feturizer/New_Systems/rnas/1kod

>  <Rbt.Executable>
rbdock ($Id: //depot/dev/client3/rdock/2013.1/src/exe/rbdock.cxx#4 $)

>  <Rbt.Library>
libRbt.so (2013.1, Build901 2013/11/27)

>  <Rbt.Parameter_File>
/export/apps/rDock/src/rDock_2013.1_src/data/scripts/dock_solv.prm

>  <Rbt.Receptor>
prm/pocket_docking_7.prm

>  <SCORE>
-22.0403

>  <SCORE.INTER>
-16.2647

>  <SCORE.INTER.CONST>
1

>  <SCORE.INTER.POLAR>
-3.08754

>  <SCORE.INTER.ROT>
5

>  <SCORE.INTER.SOLV>
13.1716

>  <SCORE.INTER.VDW>
-11.8752

>  <SCORE.INTER.norm>
-1.35539

>  <SCORE.INTRA>
-5.7756

>  <SCORE.INTRA.DIHEDRAL>
-4.42351

>  <SCORE.INTRA.DIHEDRAL.0>
7.7847

>  <SCORE.INTRA.POLAR>
0

>  <SCORE.INTRA.POLAR.0>
0

>  <SCORE.INTRA.REPUL>
0

>  <SCORE.INTRA.REPUL.0>
0

>  <SCORE.INTRA.SOLV>
-2.79069

>  <SCORE.INTRA.SOLV.lig_0>
-57.5465

>  <SCORE.INTRA.VDW>
-2.1685

>  <SCORE.INTRA.VDW.0>
1.39369

>  <SCORE.INTRA.norm>
-0.4813

>  <SCORE.RESTR>
0

>  <SCORE.RESTR.CAVITY>
0

>  <SCORE.RESTR.norm>
0

>  <SCORE.SYSTEM>
0

>  <SCORE.SYSTEM.CONST>
0

>  <SCORE.SYSTEM.DIHEDRAL>
0

>  <SCORE.SYSTEM.SOLV>
0

>  <SCORE.SYSTEM.norm>
0

>  <SCORE.heavy>
12

>  <SCORE.norm>
-1.83669

>  <SYMMETRIC_BONDS>
4 1 2

>  <RMSD>
3.447

$$$$
1kod cryst
 OpenBabel11021811393D
libRbt.so/2013.1/901 2013/11/27
 12 11  0  0  0  0  0  0  0  0999 V2000
    2.9243    3.6186   38.7294 C   0  0  0  0  0  0  0  0  0  0  0  0
    2.2614    3.9672   39.6950 O   0  5  0  0  0  0  0  0  0  0  0  0
    3.6172    4.3813   38.0678 O   0  0  0  0  0  0  0  0  0  0  0  0
    2.8848    2.1313   38.3261 C   0  0  1  0  0  0  0  0  0  0  0  0
    2.3148    1.3285   39.4509 N   0  3  0  0  0  0  0  0  0  0  0  0
    2.0207    1.9300   37.0593 C   0  0  0  0  0  0  0  0  0  0  0  0
    2.2252    0.5334   36.4871 C   0  0  0  0  0  0  0  0  0  0  0  0
    1.2158    0.2782   35.3700 C   0  0  0  0  0  0  0  0  0  0  0  0
    1.5718    1.1254   34.1893 N   0  0  0  0  0  0  0  0  0  0  0  0
    1.4675    0.6528   32.9762 C   0  0  0  0  0  0  0  0  0  0  0  0
    2.4206    0.6962   32.2014 O   0  0  0  0  0  0  0  0  0  0  0  0
    0.3394    0.1435   32.5745 N   0  0  0  0  0  0  0  0  0  0  0  0
  1  2  1  0  0  0  0
  1  3  2  0  0  0  0
  4  1  1  1  0  0  0
  4  6  1  0  0  0  0
  4  5  1  0  0  0  0
  6  7  1  0  0  0  0
  7  8  1  0  0  0  0
  8  9  1  0  0  0  0
  9 10  1  0  0  0  0
 10 12  1  0  0  0  0
 10 11  2  0  0  0  0
M  CHG  2   2  -1   5   1
M  END
>  <CHROM.1>
-15.59150244,167.59962722,-97.59596364,171.50185103,70.20595795,-39.61916677
2.09614372,1.73557298,36.27579158,-1.08437579,-1.11692175,-1.55048512

>  <Name>
1kod cryst

>  <RI>
0

>  <Rbt.Current_Directory>
/home/itssahil/PROJECTS/Mol_Feturizer/New_Systems/rnas/1kod

>  <Rbt.Executable>
rbdock ($Id: //depot/dev/client3/rdock/2013.1/src/exe/rbdock.cxx#4 $)

>  <Rbt.Library>
libRbt.so (2013.1, Build901 2013/11/27)

>  <Rbt.Parameter_File>
/export/apps/rDock/src/rDock_2013.1_src/data/scripts/dock_solv.prm

>  <Rbt.Receptor>
prm/pocket_docking_8.prm

>  <SCORE>
-17.0376

>  <SCORE.INTER>
-13.9595

>  <SCORE.INTER.CONST>
1

>  <SCORE.INTER.POLAR>
-2.96616

>  <SCORE.INTER.ROT>
5

>  <SCORE.INTER.SOLV>
13.9015

>  <SCORE.INTER.VDW>
-10.9863

>  <SCORE.INTER.norm>
-1.1633

>  <SCORE.INTRA>
-3.44288

>  <SCORE.INTRA.DIHEDRAL>
-1.83876

>  <SCORE.INTRA.DIHEDRAL.0>
7.7847

>  <SCORE.INTRA.POLAR>
0

>  <SCORE.INTRA.POLAR.0>
0

>  <SCORE.INTRA.REPUL>
0

>  <SCORE.INTRA.REPUL.0>
0

>  <SCORE.INTRA.SOLV>
-2.01105

>  <SCORE.INTRA.SOLV.lig_0>
-57.5465

>  <SCORE.INTRA.VDW>
-1.51797

>  <SCORE.INTRA.VDW.0>
1.39369

>  <SCORE.INTRA.norm>
-0.286907

>  <SCORE.RESTR>
0.364778

>  <SCORE.RESTR.CAVITY>
0.364778

>  <SCORE.RESTR.norm>
0.0303982

>  <SCORE.SYSTEM>
0

>  <SCORE.SYSTEM.CONST>
0

>  <SCORE.SYSTEM.DIHEDRAL>
0

>  <SCORE.SYSTEM.SOLV>
0

>  <SCORE.SYSTEM.norm>
0

>  <SCORE.heavy>
12

>  <SCORE.norm>
-1.4198

>  <SYMMETRIC_BONDS>
4 1 2

>  <RMSD>
3.455

$$$$
1kod cryst
 OpenBabel11021811393D
libRbt.so/2013.1/901 2013/11/27
 12 11  0  0  0  0  0  0  0  0999 V2000
    2.9495    3.8284   38.4339 C   0  0  0  0  0  0  0  0  0  0  0  0
    3.8430    4.4382   37.8654 O   0  5  0  0  0  0  0  0  0  0  0  0
    1.8908    4.3373   38.7800 O   0  0  0  0  0  0  0  0  0  0  0  0
    3.1713    2.3315   38.7278 C   0  0  1  0  0  0  0  0  0  0  0  0
    2.8098    2.0476   40.1502 N   0  3  0  0  0  0  0  0  0  0  0  0
    2.3067    1.4554   37.7913 C   0  0  0  0  0  0  0  0  0  0  0  0
    2.7387    1.6322   36.3415 C   0  0  0  0  0  0  0  0  0  0  0  0
    1.8365    0.8060   35.4276 C   0  0  0  0  0  0  0  0  0  0  0  0
    2.3554    0.8891   34.0267 N   0  0  0  0  0  0  0  0  0  0  0  0
    1.5968    1.3362   33.0621 C   0  0  0  0  0  0  0  0  0  0  0  0
    1.4281    0.6765   32.0389 O   0  0  0  0  0  0  0  0  0  0  0  0
    1.0238    2.4990   33.1750 N   0  0  0  0  0  0  0  0  0  0  0  0
  1  2  1  0  0  0  0
  1  3  2  0  0  0  0
  4  1  1  6  0  0  0
  4  6  1  0  0  0  0
  4  5  1  0  0  0  0
  6  7  1  0  0  0  0
  7  8  1  0  0  0  0
  8  9  1  0  0  0  0
  9 10  1  0  0  0  0
 10 12  1  0  0  0  0
 10 11  2  0  0  0  0
M  CHG  2   2  -1   5   1
M  END
>  <CHROM.1>
132.11982335,64.40971000,65.73476651,-177.61797385,-174.67565405,57.73257166
2.32259180,2.20855191,36.33638587,0.21041638,-1.36126322,-0.10380724

>  <Name>
1kod cryst

>  <RI>
0

>  <Rbt.Current_Directory>
/home/itssahil/PROJECTS/Mol_Feturizer/New_Systems/rnas/1kod

>  <Rbt.Executable>
rbdock ($Id: //depot/dev/client3/rdock/2013.1/src/exe/rbdock.cxx#4 $)

>  <Rbt.Library>
libRbt.so (2013.1, Build901 2013/11/27)

>  <Rbt.Parameter_File>
/export/apps/rDock/src/rDock_2013.1_src/data/scripts/dock_solv.prm

>  <Rbt.Receptor>
prm/pocket_docking_7.prm

>  <SCORE>
-21.6686

>  <SCORE.INTER>
-15.1556

>  <SCORE.INTER.CONST>
1

>  <SCORE.INTER.POLAR>
-2.7687

>  <SCORE.INTER.ROT>
5

>  <SCORE.INTER.SOLV>
11.7038

>  <SCORE.INTER.VDW>
-11.7093

>  <SCORE.INTER.norm>
-1.26297

>  <SCORE.INTRA>
-6.51298

>  <SCORE.INTRA.DIHEDRAL>
-5.26356

>  <SCORE.INTRA.DIHEDRAL.0>
7.7847

>  <SCORE.INTRA.POLAR>
0

>  <SCORE.INTRA.POLAR.0>
0

>  <SCORE.INTRA.REPUL>
0

>  <SCORE.INTRA.REPUL.0>
0

>  <SCORE.INTRA.SOLV>
-2.68803

>  <SCORE.INTRA.SOLV.lig_0>
-57.5465

>  <SCORE.INTRA.VDW>
-2.53718

>  <SCORE.INTRA.VDW.0>
1.39369

>  <SCORE.INTRA.norm>
-0.542748

>  <SCORE.RESTR>
0

>  <SCORE.RESTR.CAVITY>
0

>  <SCORE.RESTR.norm>
0

>  <SCORE.SYSTEM>
0

>  <SCORE.SYSTEM.CONST>
0

>  <SCORE.SYSTEM.DIHEDRAL>
0

>  <SCORE.SYSTEM.SOLV>
0

>  <SCORE.SYSTEM.norm>
0

>  <SCORE.heavy>
12

>  <SCORE.norm>
-1.80572

>  <SYMMETRIC_BONDS>
4 1 2

>  <RMSD>
3.564

$$$$
1kod cryst
 OpenBabel11021811393D
libRbt.so/2013.1/901 2013/11/27
 12 11  0  0  0  0  0  0  0  0999 V2000
    0.7274    2.3051   38.2246 C   0  0  0  0  0  0  0  0  0  0  0  0
   -0.2106    1.5235   38.2745 O   0  5  0  0  0  0  0  0  0  0  0  0
    0.6612    3.4171   37.7160 O   0  0  0  0  0  0  0  0  0  0  0  0
    2.0690    1.8623   38.8413 C   0  0  1  0  0  0  0  0  0  0  0  0
    1.9660    0.4366   39.2788 N   0  3  0  0  0  0  0  0  0  0  0  0
    3.2173    2.0051   37.8150 C   0  0  0  0  0  0  0  0  0  0  0  0
    2.9098    1.2107   36.5523 C   0  0  0  0  0  0  0  0  0  0  0  0
    2.8222    2.1543   35.3550 C   0  0  0  0  0  0  0  0  0  0  0  0
    2.7699    1.3432   34.0988 N   0  0  0  0  0  0  0  0  0  0  0  0
    1.6466    1.1959   33.4487 C   0  0  0  0  0  0  0  0  0  0  0  0
    1.2296    0.0760   33.1615 O   0  0  0  0  0  0  0  0  0  0  0  0
    0.9663    2.2442   33.0859 N   0  0  0  0  0  0  0  0  0  0  0  0
  1  2  1  0  0  0  0
  1  3  2  0  0  0  0
  4  1  1  6  0  0  0
  4  6  1  0  0  0  0
  4  5  1  0  0  0  0
  6  7  1  0  0  0  0
  7  8  1  0  0  0  0
  8  9  1  0  0  0  0
  9 10  1  0  0  0  0
 10 12  1  0  0  0  0
 10 11  2  0  0  0  0
M  CHG  2   2  -1   5   1
M  END
>  <CHROM.1>
5.67694727,-56.57398850,-44.25461999,118.14556186,169.78837740,-75.47305288
1.70479024,1.62597594,36.31917241,1.62100407,-0.39570360,1.50445860

>  <Name>
1kod cryst

>  <RI>
0

>  <Rbt.Current_Directory>
/home/itssahil/PROJECTS/Mol_Feturizer/New_Systems/rnas/1kod

>  <Rbt.Executable>
rbdock ($Id: //depot/dev/client3/rdock/2013.1/src/exe/rbdock.cxx#4 $)

>  <Rbt.Library>
libRbt.so (2013.1, Build901 2013/11/27)

>  <Rbt.Parameter_File>
/export/apps/rDock/src/rDock_2013.1_src/data/scripts/dock_solv.prm

>  <Rbt.Receptor>
prm/pocket_docking_5.prm

>  <SCORE>
-24.8231

>  <SCORE.INTER>
-23.8435

>  <SCORE.INTER.CONST>
1

>  <SCORE.INTER.POLAR>
-5.18514

>  <SCORE.INTER.ROT>
5

>  <SCORE.INTER.SOLV>
19.9431

>  <SCORE.INTER.VDW>
-12.1929

>  <SCORE.INTER.norm>
-1.98696

>  <SCORE.INTRA>
-0.979606

>  <SCORE.INTRA.DIHEDRAL>
1.56663

>  <SCORE.INTRA.DIHEDRAL.0>
7.7847

>  <SCORE.INTRA.POLAR>
0

>  <SCORE.INTRA.POLAR.0>
0

>  <SCORE.INTRA.REPUL>
0

>  <SCORE.INTRA.REPUL.0>
0

>  <SCORE.INTRA.SOLV>
-0.347692

>  <SCORE.INTRA.SOLV.lig_0>
-57.5465

>  <SCORE.INTRA.VDW>
-1.58907

>  <SCORE.INTRA.VDW.0>
1.39369

>  <SCORE.INTRA.norm>
-0.0816339

>  <SCORE.RESTR>
0

>  <SCORE.RESTR.CAVITY>
0

>  <SCORE.RESTR.norm>
0

>  <SCORE.SYSTEM>
0

>  <SCORE.SYSTEM.CONST>
0

>  <SCORE.SYSTEM.DIHEDRAL>
0

>  <SCORE.SYSTEM.SOLV>
0

>  <SCORE.SYSTEM.norm>
0

>  <SCORE.heavy>
12

>  <SCORE.norm>
-2.06859

>  <SYMMETRIC_BONDS>
4 1 2

>  <RMSD>
3.598

$$$$
1kod cryst
 OpenBabel11021811393D
libRbt.so/2013.1/901 2013/11/27
 12 11  0  0  0  0  0  0  0  0999 V2000
    2.0351    2.6452   37.6736 C   0  0  0  0  0  0  0  0  0  0  0  0
    3.0770    3.2788   37.7530 O   0  5  0  0  0  0  0  0  0  0  0  0
    0.9230    3.1578   37.6919 O   0  0  0  0  0  0  0  0  0  0  0  0
    2.1311    1.1125   37.5402 C   0  0  1  0  0  0  0  0  0  0  0  0
    1.2874    0.4702   38.5939 N   0  3  0  0  0  0  0  0  0  0  0  0
    1.6504    0.6531   36.1437 C   0  0  0  0  0  0  0  0  0  0  0  0
    2.6213    1.1134   35.0642 C   0  0  0  0  0  0  0  0  0  0  0  0
    2.2063    2.4887   34.5464 C   0  0  0  0  0  0  0  0  0  0  0  0
    1.6119    2.3360   33.1818 N   0  0  0  0  0  0  0  0  0  0  0  0
    0.4358    2.8345   32.9093 C   0  0  0  0  0  0  0  0  0  0  0  0
   -0.4484    2.1300   32.4273 O   0  0  0  0  0  0  0  0  0  0  0  0
    0.1984    4.0939   33.1349 N   0  0  0  0  0  0  0  0  0  0  0  0
  1  2  1  0  0  0  0
  1  3  2  0  0  0  0
  4  1  1  6  0  0  0
  4  6  1  0  0  0  0
  4  5  1  0  0  0  0
  6  7  1  0  0  0  0
  7  8  1  0  0  0  0
  8  9  1  0  0  0  0
  9 10  1  0  0  0  0
 10 12  1  0  0  0  0
 10 11  2  0  0  0  0
M  CHG  2   2  -1   5   1
M  END
>  <CHROM.1>
127.11854389,68.26721048,-56.73557012,-90.23694114,-106.45191246,-52.67924990
1.45084719,2.20208018,35.57536925,-0.02002417,-1.29464153,0.18878988

>  <Name>
1kod cryst

>  <RI>
0

>  <Rbt.Current_Directory>
/home/itssahil/PROJECTS/Mol_Feturizer/New_Systems/rnas/1kod

>  <Rbt.Executable>
rbdock ($Id: //depot/dev/client3/rdock/2013.1/src/exe/rbdock.cxx#4 $)

>  <Rbt.Library>
libRbt.so (2013.1, Build901 2013/11/27)

>  <Rbt.Parameter_File>
/export/apps/rDock/src/rDock_2013.1_src/data/scripts/dock_solv.prm

>  <Rbt.Receptor>
prm/pocket_docking_4.prm

>  <SCORE>
-18.7436

>  <SCORE.INTER>
-16.6905

>  <SCORE.INTER.CONST>
1

>  <SCORE.INTER.POLAR>
-2.33915

>  <SCORE.INTER.ROT>
5

>  <SCORE.INTER.SOLV>
17.0968

>  <SCORE.INTER.VDW>
-15.9621

>  <SCORE.INTER.norm>
-1.39088

>  <SCORE.INTRA>
-2.05311

>  <SCORE.INTRA.DIHEDRAL>
2.6722

>  <SCORE.INTRA.DIHEDRAL.0>
7.7847

>  <SCORE.INTRA.POLAR>
0

>  <SCORE.INTRA.POLAR.0>
0

>  <SCORE.INTRA.REPUL>
0

>  <SCORE.INTRA.REPUL.0>
0

>  <SCORE.INTRA.SOLV>
-1.44786

>  <SCORE.INTRA.SOLV.lig_0>
-57.5465

>  <SCORE.INTRA.VDW>
-2.66528

>  <SCORE.INTRA.VDW.0>
1.39369

>  <SCORE.INTRA.norm>
-0.171093

>  <SCORE.RESTR>
0

>  <SCORE.RESTR.CAVITY>
0

>  <SCORE.RESTR.norm>
0

>  <SCORE.SYSTEM>
0

>  <SCORE.SYSTEM.CONST>
0

>  <SCORE.SYSTEM.DIHEDRAL>
0

>  <SCORE.SYSTEM.SOLV>
0

>  <SCORE.SYSTEM.norm>
0

>  <SCORE.heavy>
12

>  <SCORE.norm>
-1.56197

>  <SYMMETRIC_BONDS>
4 1 2

>  <RMSD>
3.603

$$$$
1kod cryst
 OpenBabel11021811393D
libRbt.so/2013.1/901 2013/11/27
 12 11  0  0  0  0  0  0  0  0999 V2000
    1.0772    6.7332   38.0545 C   0  0  0  0  0  0  0  0  0  0  0  0
    1.6251    7.7768   37.7319 O   0  5  0  0  0  0  0  0  0  0  0  0
    1.5155    5.9680   38.9042 O   0  0  0  0  0  0  0  0  0  0  0  0
   -0.2434    6.3640   37.3501 C   0  0  1  0  0  0  0  0  0  0  0  0
   -0.9415    7.6141   36.9207 N   0  3  0  0  0  0  0  0  0  0  0  0
    0.0253    5.4730   36.1148 C   0  0  0  0  0  0  0  0  0  0  0  0
    0.4435    4.0728   36.5443 C   0  0  0  0  0  0  0  0  0  0  0  0
    1.5603    3.5640   35.6356 C   0  0  0  0  0  0  0  0  0  0  0  0
    1.0364    3.4480   34.2388 N   0  0  0  0  0  0  0  0  0  0  0  0
    1.1552    4.4416   33.3995 C   0  0  0  0  0  0  0  0  0  0  0  0
    0.1734    4.8836   32.8067 O   0  0  0  0  0  0  0  0  0  0  0  0
    2.3263    4.9622   33.1740 N   0  0  0  0  0  0  0  0  0  0  0  0
  1  2  1  0  0  0  0
  1  3  2  0  0  0  0
  4  1  1  6  0  0  0
  4  6  1  0  0  0  0
  4  5  1  0  0  0  0
  6  7  1  0  0  0  0
  7  8  1  0  0  0  0
  8  9  1  0  0  0  0
  9 10  1  0  0  0  0
 10 12  1  0  0  0  0
 10 11  2  0  0  0  0
M  CHG  2   2  -1   5   1
M  END
>  <CHROM.1>
-28.10901521,72.13029818,78.10302010,-140.03709776,-63.38776403,-87.90934117
0.81007861,5.48187006,35.89395030,1.76622026,-1.01924457,1.19481022

>  <Name>
1kod cryst

>  <RI>
0

>  <Rbt.Current_Directory>
/home/itssahil/PROJECTS/Mol_Feturizer/New_Systems/rnas/1kod

>  <Rbt.Executable>
rbdock ($Id: //depot/dev/client3/rdock/2013.1/src/exe/rbdock.cxx#4 $)

>  <Rbt.Library>
libRbt.so (2013.1, Build901 2013/11/27)

>  <Rbt.Parameter_File>
/export/apps/rDock/src/rDock_2013.1_src/data/scripts/dock_solv.prm

>  <Rbt.Receptor>
prm/pocket_docking_5.prm

>  <SCORE>
-19.9758

>  <SCORE.INTER>
-16.9915

>  <SCORE.INTER.CONST>
1

>  <SCORE.INTER.POLAR>
-2.98973

>  <SCORE.INTER.ROT>
5

>  <SCORE.INTER.SOLV>
19.9249

>  <SCORE.INTER.VDW>
-14.9369

>  <SCORE.INTER.norm>
-1.41596

>  <SCORE.INTRA>
-2.98434

>  <SCORE.INTRA.DIHEDRAL>
0.33513

>  <SCORE.INTRA.DIHEDRAL.0>
7.7847

>  <SCORE.INTRA.POLAR>
0

>  <SCORE.INTRA.POLAR.0>
0

>  <SCORE.INTRA.REPUL>
0

>  <SCORE.INTRA.REPUL.0>
0

>  <SCORE.INTRA.SOLV>
-1.50515

>  <SCORE.INTRA.SOLV.lig_0>
-57.5465

>  <SCORE.INTRA.VDW>
-2.39933

>  <SCORE.INTRA.VDW.0>
1.39369

>  <SCORE.INTRA.norm>
-0.248695

>  <SCORE.RESTR>
0

>  <SCORE.RESTR.CAVITY>
0

>  <SCORE.RESTR.norm>
0

>  <SCORE.SYSTEM>
0

>  <SCORE.SYSTEM.CONST>
0

>  <SCORE.SYSTEM.DIHEDRAL>
0

>  <SCORE.SYSTEM.SOLV>
0

>  <SCORE.SYSTEM.norm>
0

>  <SCORE.heavy>
12

>  <SCORE.norm>
-1.66465

>  <SYMMETRIC_BONDS>
4 1 2

>  <RMSD>
3.751

$$$$
1kod cryst
 OpenBabel11021811393D
libRbt.so/2013.1/901 2013/11/27
 12 11  0  0  0  0  0  0  0  0999 V2000
    2.3711    2.7929   39.7059 C   0  0  0  0  0  0  0  0  0  0  0  0
    2.6286    2.4149   40.8391 O   0  5  0  0  0  0  0  0  0  0  0  0
    2.2367    3.9695   39.3943 O   0  0  0  0  0  0  0  0  0  0  0  0
    2.2097    1.7231   38.6078 C   0  0  1  0  0  0  0  0  0  0  0  0
    1.7152    0.4535   39.2226 N   0  3  0  0  0  0  0  0  0  0  0  0
    1.2106    2.1955   37.5257 C   0  0  0  0  0  0  0  0  0  0  0  0
    1.8734    2.2120   36.1544 C   0  0  0  0  0  0  0  0  0  0  0  0
    1.7477    0.8372   35.5017 C   0  0  0  0  0  0  0  0  0  0  0  0
    2.3279    0.8977   34.1238 N   0  0  0  0  0  0  0  0  0  0  0  0
    1.6038    1.3018   33.1147 C   0  0  0  0  0  0  0  0  0  0  0  0
    1.4972    0.6127   32.1026 O   0  0  0  0  0  0  0  0  0  0  0  0
    0.9995    2.4528   33.1712 N   0  0  0  0  0  0  0  0  0  0  0  0
  1  2  1  0  0  0  0
  1  3  2  0  0  0  0
  4  1  1  1  0  0  0
  4  6  1  0  0  0  0
  4  5  1  0  0  0  0
  6  7  1  0  0  0  0
  7  8  1  0  0  0  0
  8  9  1  0  0  0  0
  9 10  1  0  0  0  0
 10 12  1  0  0  0  0
 10 11  2  0  0  0  0
M  CHG  2   2  -1   5   1
M  END
>  <CHROM.1>
28.99350295,121.97854488,176.88429370,87.25609017,176.49457676,94.79726903
1.86322518,1.81173210,36.63617380,0.52256048,-1.45507243,0.35479955

>  <Name>
1kod cryst

>  <RI>
0

>  <Rbt.Current_Directory>
/home/itssahil/PROJECTS/Mol_Feturizer/New_Systems/rnas/1kod

>  <Rbt.Executable>
rbdock ($Id: //depot/dev/client3/rdock/2013.1/src/exe/rbdock.cxx#4 $)

>  <Rbt.Library>
libRbt.so (2013.1, Build901 2013/11/27)

>  <Rbt.Parameter_File>
/export/apps/rDock/src/rDock_2013.1_src/data/scripts/dock_solv.prm

>  <Rbt.Receptor>
prm/pocket_docking_8.prm

>  <SCORE>
-22.6623

>  <SCORE.INTER>
-21.3953

>  <SCORE.INTER.CONST>
1

>  <SCORE.INTER.POLAR>
-4.01147

>  <SCORE.INTER.ROT>
5

>  <SCORE.INTER.SOLV>
15.8947

>  <SCORE.INTER.VDW>
-13.1235

>  <SCORE.INTER.norm>
-1.78294

>  <SCORE.INTRA>
-1.267

>  <SCORE.INTRA.DIHEDRAL>
2.26692

>  <SCORE.INTRA.DIHEDRAL.0>
7.7847

>  <SCORE.INTRA.POLAR>
0

>  <SCORE.INTRA.POLAR.0>
0

>  <SCORE.INTRA.REPUL>
0

>  <SCORE.INTRA.REPUL.0>
0

>  <SCORE.INTRA.SOLV>
-2.04368

>  <SCORE.INTRA.SOLV.lig_0>
-57.5465

>  <SCORE.INTRA.VDW>
-1.37862

>  <SCORE.INTRA.VDW.0>
1.39369

>  <SCORE.INTRA.norm>
-0.105584

>  <SCORE.RESTR>
0

>  <SCORE.RESTR.CAVITY>
0

>  <SCORE.RESTR.norm>
0

>  <SCORE.SYSTEM>
0

>  <SCORE.SYSTEM.CONST>
0

>  <SCORE.SYSTEM.DIHEDRAL>
0

>  <SCORE.SYSTEM.SOLV>
0

>  <SCORE.SYSTEM.norm>
0

>  <SCORE.heavy>
12

>  <SCORE.norm>
-1.88853

>  <SYMMETRIC_BONDS>
4 1 2

>  <RMSD>
3.781

$$$$
1kod cryst
 OpenBabel11021811393D
libRbt.so/2013.1/901 2013/11/27
 12 11  0  0  0  0  0  0  0  0999 V2000
    2.6777    2.9840   38.5398 C   0  0  0  0  0  0  0  0  0  0  0  0
    3.6967    3.6557   38.4787 O   0  5  0  0  0  0  0  0  0  0  0  0
    1.7289    3.2502   39.2669 O   0  0  0  0  0  0  0  0  0  0  0  0
    2.5846    1.7314   37.6461 C   0  0  1  0  0  0  0  0  0  0  0  0
    1.9559    0.6173   38.4195 N   0  3  0  0  0  0  0  0  0  0  0  0
    1.7416    2.0216   36.3823 C   0  0  0  0  0  0  0  0  0  0  0  0
    2.0251    0.9884   35.2997 C   0  0  0  0  0  0  0  0  0  0  0  0
    2.4852    1.6886   34.0230 C   0  0  0  0  0  0  0  0  0  0  0  0
    1.3235    2.4129   33.4193 N   0  0  0  0  0  0  0  0  0  0  0  0
    1.1350    3.6830   33.6582 C   0  0  0  0  0  0  0  0  0  0  0  0
    0.0554    4.0884   34.0835 O   0  0  0  0  0  0  0  0  0  0  0  0
    2.0928    4.5338   33.4303 N   0  0  0  0  0  0  0  0  0  0  0  0
  1  2  1  0  0  0  0
  1  3  2  0  0  0  0
  4  1  1  1  0  0  0
  4  6  1  0  0  0  0
  4  5  1  0  0  0  0
  6  7  1  0  0  0  0
  7  8  1  0  0  0  0
  8  9  1  0  0  0  0
  9 10  1  0  0  0  0
 10 12  1  0  0  0  0
 10 11  2  0  0  0  0
M  CHG  2   2  -1   5   1
M  END
>  <CHROM.1>
139.20283481,160.94360075,58.81905294,-123.46545360,-70.53199093,-84.10092469
1.94770967,2.64414812,36.07939765,-0.12270953,-1.35130101,0.06961367

>  <Name>
1kod cryst

>  <RI>
0

>  <Rbt.Current_Directory>
/home/itssahil/PROJECTS/Mol_Feturizer/New_Systems/rnas/1kod

>  <Rbt.Executable>
rbdock ($Id: //depot/dev/client3/rdock/2013.1/src/exe/rbdock.cxx#4 $)

>  <Rbt.Library>
libRbt.so (2013.1, Build901 2013/11/27)

>  <Rbt.Parameter_File>
/export/apps/rDock/src/rDock_2013.1_src/data/scripts/dock_solv.prm

>  <Rbt.Receptor>
prm/pocket_docking_4.prm

>  <SCORE>
-19.4018

>  <SCORE.INTER>
-16.6702

>  <SCORE.INTER.CONST>
1

>  <SCORE.INTER.POLAR>
-2.46779

>  <SCORE.INTER.ROT>
5

>  <SCORE.INTER.SOLV>
13.4888

>  <SCORE.INTER.VDW>
-14.3171

>  <SCORE.INTER.norm>
-1.38918

>  <SCORE.INTRA>
-2.73163

>  <SCORE.INTRA.DIHEDRAL>
2.11895

>  <SCORE.INTRA.DIHEDRAL.0>
7.7847

>  <SCORE.INTRA.POLAR>
0

>  <SCORE.INTRA.POLAR.0>
0

>  <SCORE.INTRA.REPUL>
0

>  <SCORE.INTRA.REPUL.0>
0

>  <SCORE.INTRA.SOLV>
-1.94172

>  <SCORE.INTRA.SOLV.lig_0>
-57.5465

>  <SCORE.INTRA.VDW>
-2.82024

>  <SCORE.INTRA.VDW.0>
1.39369

>  <SCORE.INTRA.norm>
-0.227636

>  <SCORE.RESTR>
0

>  <SCORE.RESTR.CAVITY>
0

>  <SCORE.RESTR.norm>
0

>  <SCORE.SYSTEM>
0

>  <SCORE.SYSTEM.CONST>
0

>  <SCORE.SYSTEM.DIHEDRAL>
0

>  <SCORE.SYSTEM.SOLV>
0

>  <SCORE.SYSTEM.norm>
0

>  <SCORE.heavy>
12

>  <SCORE.norm>
-1.61682

>  <SYMMETRIC_BONDS>
4 1 2

>  <RMSD>
3.837

$$$$
1kod cryst
 OpenBabel11021811393D
libRbt.so/2013.1/901 2013/11/27
 12 11  0  0  0  0  0  0  0  0999 V2000
    1.1471    5.2155   35.4437 C   0  0  0  0  0  0  0  0  0  0  0  0
    1.8191    6.1212   35.9144 O   0  5  0  0  0  0  0  0  0  0  0  0
    0.4511    4.4640   36.1149 O   0  0  0  0  0  0  0  0  0  0  0  0
    1.1785    5.0127   33.9159 C   0  0  1  0  0  0  0  0  0  0  0  0
    2.0849    6.0295   33.3002 N   0  3  0  0  0  0  0  0  0  0  0  0
    1.6801    3.5931   33.5621 C   0  0  0  0  0  0  0  0  0  0  0  0
    3.1869    3.4918   33.7604 C   0  0  0  0  0  0  0  0  0  0  0  0
    3.5075    3.3872   35.2497 C   0  0  0  0  0  0  0  0  0  0  0  0
    4.9832    3.5424   35.4420 N   0  0  0  0  0  0  0  0  0  0  0  0
    5.7155    2.5273   35.8152 C   0  0  0  0  0  0  0  0  0  0  0  0
    6.4539    2.6119   36.7940 O   0  0  0  0  0  0  0  0  0  0  0  0
    5.6774    1.4175   35.1369 N   0  0  0  0  0  0  0  0  0  0  0  0
  1  2  1  0  0  0  0
  1  3  2  0  0  0  0
  4  1  1  1  0  0  0
  4  6  1  0  0  0  0
  4  5  1  0  0  0  0
  6  7  1  0  0  0  0
  7  8  1  0  0  0  0
  8  9  1  0  0  0  0
  9 10  1  0  0  0  0
 10 12  1  0  0  0  0
 10 11  2  0  0  0  0
M  CHG  2   2  -1   5   1
M  END
>  <CHROM.1>
0.17989541,-75.11574966,-63.48317312,76.09352215,-169.68338819,69.56520078
3.18026068,3.97065510,35.03937584,3.07763981,0.60474768,-1.83015567

>  <Name>
1kod cryst

>  <RI>
0

>  <Rbt.Current_Directory>
/home/itssahil/PROJECTS/Mol_Feturizer/New_Systems/rnas/1kod

>  <Rbt.Executable>
rbdock ($Id: //depot/dev/client3/rdock/2013.1/src/exe/rbdock.cxx#4 $)

>  <Rbt.Library>
libRbt.so (2013.1, Build901 2013/11/27)

>  <Rbt.Parameter_File>
/export/apps/rDock/src/rDock_2013.1_src/data/scripts/dock_solv.prm

>  <Rbt.Receptor>
prm/pocket_docking_6.prm

>  <SCORE>
-18.2

>  <SCORE.INTER>
-15.9022

>  <SCORE.INTER.CONST>
1

>  <SCORE.INTER.POLAR>
-3.08153

>  <SCORE.INTER.ROT>
5

>  <SCORE.INTER.SOLV>
14.8738

>  <SCORE.INTER.VDW>
-12.221

>  <SCORE.INTER.norm>
-1.32519

>  <SCORE.INTRA>
-2.29774

>  <SCORE.INTRA.DIHEDRAL>
-3.32857

>  <SCORE.INTRA.DIHEDRAL.0>
7.7847

>  <SCORE.INTRA.POLAR>
0

>  <SCORE.INTRA.POLAR.0>
0

>  <SCORE.INTRA.REPUL>
0

>  <SCORE.INTRA.REPUL.0>
0

>  <SCORE.INTRA.SOLV>
1.13201

>  <SCORE.INTRA.SOLV.lig_0>
-57.5465

>  <SCORE.INTRA.VDW>
-1.19946

>  <SCORE.INTRA.VDW.0>
1.39369

>  <SCORE.INTRA.norm>
-0.191479

>  <SCORE.RESTR>
0

>  <SCORE.RESTR.CAVITY>
0

>  <SCORE.RESTR.norm>
0

>  <SCORE.SYSTEM>
0

>  <SCORE.SYSTEM.CONST>
0

>  <SCORE.SYSTEM.DIHEDRAL>
0

>  <SCORE.SYSTEM.SOLV>
0

>  <SCORE.SYSTEM.norm>
0

>  <SCORE.heavy>
12

>  <SCORE.norm>
-1.51667

>  <SYMMETRIC_BONDS>
4 1 2

>  <RMSD>
3.855

$$$$
1kod cryst
 OpenBabel11021811393D
libRbt.so/2013.1/901 2013/11/27
 12 11  0  0  0  0  0  0  0  0999 V2000
    3.4874    6.9223   35.3945 C   0  0  0  0  0  0  0  0  0  0  0  0
    3.2945    7.7336   36.2877 O   0  5  0  0  0  0  0  0  0  0  0  0
    4.4883    6.2212   35.3155 O   0  0  0  0  0  0  0  0  0  0  0  0
    2.4041    6.7744   34.3078 C   0  0  1  0  0  0  0  0  0  0  0  0
    2.5595    7.8693   33.3019 N   0  3  0  0  0  0  0  0  0  0  0  0
    2.5212    5.4040   33.6005 C   0  0  0  0  0  0  0  0  0  0  0  0
    2.3252    4.2682   34.5962 C   0  0  0  0  0  0  0  0  0  0  0  0
    3.2325    3.0957   34.2300 C   0  0  0  0  0  0  0  0  0  0  0  0
    4.6515    3.4678   34.5244 N   0  0  0  0  0  0  0  0  0  0  0  0
    5.5621    2.5446   34.6808 C   0  0  0  0  0  0  0  0  0  0  0  0
    6.2688    2.5237   35.6862 O   0  0  0  0  0  0  0  0  0  0  0  0
    5.7368    1.6445   33.7575 N   0  0  0  0  0  0  0  0  0  0  0  0
  1  2  1  0  0  0  0
  1  3  2  0  0  0  0
  4  1  1  1  0  0  0
  4  6  1  0  0  0  0
  4  5  1  0  0  0  0
  6  7  1  0  0  0  0
  7  8  1  0  0  0  0
  8  9  1  0  0  0  0
  9 10  1  0  0  0  0
 10 12  1  0  0  0  0
 10 11  2  0  0  0  0
M  CHG  2   2  -1   5   1
M  END
>  <CHROM.1>
80.82617165,61.05667222,80.96583713,-144.36022730,71.02679155,-20.47337623
3.90430894,4.89816965,34.62972527,-2.21092123,0.67754304,-2.69301606

>  <Name>
1kod cryst

>  <RI>
0

>  <Rbt.Current_Directory>
/home/itssahil/PROJECTS/Mol_Feturizer/New_Systems/rnas/1kod

>  <Rbt.Executable>
rbdock ($Id: //depot/dev/client3/rdock/2013.1/src/exe/rbdock.cxx#4 $)

>  <Rbt.Library>
libRbt.so (2013.1, Build901 2013/11/27)

>  <Rbt.Parameter_File>
/export/apps/rDock/src/rDock_2013.1_src/data/scripts/dock_solv.prm

>  <Rbt.Receptor>
prm/pocket_docking_6.prm

>  <SCORE>
-19.6941

>  <SCORE.INTER>
-14.072

>  <SCORE.INTER.CONST>
1

>  <SCORE.INTER.POLAR>
-3.07521

>  <SCORE.INTER.ROT>
5

>  <SCORE.INTER.SOLV>
11.6615

>  <SCORE.INTER.VDW>
-9.95113

>  <SCORE.INTER.norm>
-1.17267

>  <SCORE.INTRA>
-5.62211

>  <SCORE.INTRA.DIHEDRAL>
-0.160656

>  <SCORE.INTRA.DIHEDRAL.0>
7.7847

>  <SCORE.INTRA.POLAR>
-1.18595

>  <SCORE.INTRA.POLAR.0>
0

>  <SCORE.INTRA.REPUL>
0

>  <SCORE.INTRA.REPUL.0>
0

>  <SCORE.INTRA.SOLV>
-0.0482399

>  <SCORE.INTRA.SOLV.lig_0>
-57.5465

>  <SCORE.INTRA.VDW>
-1.48543

>  <SCORE.INTRA.VDW.0>
1.39369

>  <SCORE.INTRA.norm>
-0.468509

>  <SCORE.RESTR>
0

>  <SCORE.RESTR.CAVITY>
0

>  <SCORE.RESTR.norm>
0

>  <SCORE.SYSTEM>
0

>  <SCORE.SYSTEM.CONST>
0

>  <SCORE.SYSTEM.DIHEDRAL>
0

>  <SCORE.SYSTEM.SOLV>
0

>  <SCORE.SYSTEM.norm>
0

>  <SCORE.heavy>
12

>  <SCORE.norm>
-1.64117

>  <SYMMETRIC_BONDS>
4 1 2

>  <RMSD>
3.912

$$$$
1kod cryst
 OpenBabel11021811393D
libRbt.so/2013.1/901 2013/11/27
 12 11  0  0  0  0  0  0  0  0999 V2000
    6.0517    4.0890   38.2101 C   0  0  0  0  0  0  0  0  0  0  0  0
    5.8468    4.8164   39.1704 O   0  5  0  0  0  0  0  0  0  0  0  0
    6.8720    4.3323   37.3340 O   0  0  0  0  0  0  0  0  0  0  0  0
    5.2294    2.7897   38.1007 C   0  0  1  0  0  0  0  0  0  0  0  0
    4.8560    2.3235   39.4710 N   0  3  0  0  0  0  0  0  0  0  0  0
    3.9470    3.0216   37.2676 C   0  0  0  0  0  0  0  0  0  0  0  0
    3.8286    1.9784   36.1641 C   0  0  0  0  0  0  0  0  0  0  0  0
    2.6893    2.3518   35.2183 C   0  0  0  0  0  0  0  0  0  0  0  0
    2.6522    1.3703   34.0896 N   0  0  0  0  0  0  0  0  0  0  0  0
    1.5420    1.1471   33.4387 C   0  0  0  0  0  0  0  0  0  0  0  0
    1.1125    0.0035   33.3036 O   0  0  0  0  0  0  0  0  0  0  0  0
    0.8885    2.1420   32.9131 N   0  0  0  0  0  0  0  0  0  0  0  0
  1  2  1  0  0  0  0
  1  3  2  0  0  0  0
  4  1  1  1  0  0  0
  4  6  1  0  0  0  0
  4  5  1  0  0  0  0
  6  7  1  0  0  0  0
  7  8  1  0  0  0  0
  8  9  1  0  0  0  0
  9 10  1  0  0  0  0
 10 12  1  0  0  0  0
 10 11  2  0  0  0  0
M  CHG  2   2  -1   5   1
M  END
>  <CHROM.1>
-28.67765476,128.54907827,175.25916025,-170.89760411,176.00623349,-25.38600538
3.79142651,2.52979127,36.24201096,-0.46437078,-0.83247065,-1.07013741

>  <Name>
1kod cryst

>  <RI>
0

>  <Rbt.Current_Directory>
/home/itssahil/PROJECTS/Mol_Feturizer/New_Systems/rnas/1kod

>  <Rbt.Executable>
rbdock ($Id: //depot/dev/client3/rdock/2013.1/src/exe/rbdock.cxx#4 $)

>  <Rbt.Library>
libRbt.so (2013.1, Build901 2013/11/27)

>  <Rbt.Parameter_File>
/export/apps/rDock/src/rDock_2013.1_src/data/scripts/dock_solv.prm

>  <Rbt.Receptor>
prm/pocket_docking_6.prm

>  <SCORE>
-23.5325

>  <SCORE.INTER>
-19.509

>  <SCORE.INTER.CONST>
1

>  <SCORE.INTER.POLAR>
-3.80755

>  <SCORE.INTER.ROT>
5

>  <SCORE.INTER.SOLV>
14.1236

>  <SCORE.INTER.VDW>
-11.9554

>  <SCORE.INTER.norm>
-1.62575

>  <SCORE.INTRA>
-4.02346

>  <SCORE.INTRA.DIHEDRAL>
-0.20332

>  <SCORE.INTRA.DIHEDRAL.0>
7.7847

>  <SCORE.INTRA.POLAR>
0

>  <SCORE.INTRA.POLAR.0>
0

>  <SCORE.INTRA.REPUL>
0

>  <SCORE.INTRA.REPUL.0>
0

>  <SCORE.INTRA.SOLV>
-2.94807

>  <SCORE.INTRA.SOLV.lig_0>
-57.5465

>  <SCORE.INTRA.VDW>
-2.44777

>  <SCORE.INTRA.VDW.0>
1.39369

>  <SCORE.INTRA.norm>
-0.335289

>  <SCORE.RESTR>
0

>  <SCORE.RESTR.CAVITY>
0

>  <SCORE.RESTR.norm>
0

>  <SCORE.SYSTEM>
0

>  <SCORE.SYSTEM.CONST>
0

>  <SCORE.SYSTEM.DIHEDRAL>
0

>  <SCORE.SYSTEM.SOLV>
0

>  <SCORE.SYSTEM.norm>
0

>  <SCORE.heavy>
12

>  <SCORE.norm>
-1.96104

>  <SYMMETRIC_BONDS>
4 1 2

>  <RMSD>
3.970

$$$$
1kod cryst
 OpenBabel11021811393D
libRbt.so/2013.1/901 2013/11/27
 12 11  0  0  0  0  0  0  0  0999 V2000
    1.6072    5.9909   35.7450 C   0  0  0  0  0  0  0  0  0  0  0  0
    0.7455    5.2826   36.2441 O   0  5  0  0  0  0  0  0  0  0  0  0
    2.2748    6.7996   36.3774 O   0  0  0  0  0  0  0  0  0  0  0  0
    1.8671    5.8532   34.2318 C   0  0  1  0  0  0  0  0  0  0  0  0
    2.2017    7.1945   33.6630 N   0  3  0  0  0  0  0  0  0  0  0  0
    3.0335    4.8736   33.9633 C   0  0  0  0  0  0  0  0  0  0  0  0
    4.3576    5.4821   34.4064 C   0  0  0  0  0  0  0  0  0  0  0  0
    5.2636    4.3928   34.9760 C   0  0  0  0  0  0  0  0  0  0  0  0
    5.5016    3.3575   33.9224 N   0  0  0  0  0  0  0  0  0  0  0  0
    6.1482    2.2582   34.2044 C   0  0  0  0  0  0  0  0  0  0  0  0
    7.1214    1.9137   33.5376 O   0  0  0  0  0  0  0  0  0  0  0  0
    5.7517    1.5091   35.1916 N   0  0  0  0  0  0  0  0  0  0  0  0
  1  2  1  0  0  0  0
  1  3  2  0  0  0  0
  4  1  1  1  0  0  0
  4  6  1  0  0  0  0
  4  5  1  0  0  0  0
  6  7  1  0  0  0  0
  7  8  1  0  0  0  0
  8  9  1  0  0  0  0
  9 10  1  0  0  0  0
 10 12  1  0  0  0  0
 10 11  2  0  0  0  0
M  CHG  2   2  -1   5   1
M  END
>  <CHROM.1>
144.44425647,-69.99642956,-176.18153707,144.30416950,59.34977286,6.28240973
3.81910328,4.58750793,34.70480933,2.75248729,0.65535258,-0.73375107

>  <Name>
1kod cryst

>  <RI>
0

>  <Rbt.Current_Directory>
/home/itssahil/PROJECTS/Mol_Feturizer/New_Systems/rnas/1kod

>  <Rbt.Executable>
rbdock ($Id: //depot/dev/client3/rdock/2013.1/src/exe/rbdock.cxx#4 $)

>  <Rbt.Library>
libRbt.so (2013.1, Build901 2013/11/27)

>  <Rbt.Parameter_File>
/export/apps/rDock/src/rDock_2013.1_src/data/scripts/dock_solv.prm

>  <Rbt.Receptor>
prm/pocket_docking_7.prm

>  <SCORE>
-15.1159

>  <SCORE.INTER>
-13.0293

>  <SCORE.INTER.CONST>
1

>  <SCORE.INTER.POLAR>
-2.77436

>  <SCORE.INTER.ROT>
5

>  <SCORE.INTER.SOLV>
12.917

>  <SCORE.INTER.VDW>
-10.6773

>  <SCORE.INTER.norm>
-1.08577

>  <SCORE.INTRA>
-2.08666

>  <SCORE.INTRA.DIHEDRAL>
-1.19995

>  <SCORE.INTRA.DIHEDRAL.0>
7.7847

>  <SCORE.INTRA.POLAR>
0

>  <SCORE.INTRA.POLAR.0>
0

>  <SCORE.INTRA.REPUL>
0

>  <SCORE.INTRA.REPUL.0>
0

>  <SCORE.INTRA.SOLV>
-0.750839

>  <SCORE.INTRA.SOLV.lig_0>
-57.5465

>  <SCORE.INTRA.VDW>
-1.11126

>  <SCORE.INTRA.VDW.0>
1.39369

>  <SCORE.INTRA.norm>
-0.173888

>  <SCORE.RESTR>
0

>  <SCORE.RESTR.CAVITY>
0

>  <SCORE.RESTR.norm>
0

>  <SCORE.SYSTEM>
0

>  <SCORE.SYSTEM.CONST>
0

>  <SCORE.SYSTEM.DIHEDRAL>
0

>  <SCORE.SYSTEM.SOLV>
0

>  <SCORE.SYSTEM.norm>
0

>  <SCORE.heavy>
12

>  <SCORE.norm>
-1.25966

>  <SYMMETRIC_BONDS>
4 1 2

>  <RMSD>
3.981

$$$$
1kod cryst
 OpenBabel11021811393D
libRbt.so/2013.1/901 2013/11/27
 12 11  0  0  0  0  0  0  0  0999 V2000
    2.1783    2.5371   39.2791 C   0  0  0  0  0  0  0  0  0  0  0  0
    3.2634    3.0764   39.1212 O   0  5  0  0  0  0  0  0  0  0  0  0
    1.1625    3.1348   39.6117 O   0  0  0  0  0  0  0  0  0  0  0  0
    2.0870    1.0165   39.0424 C   0  0  1  0  0  0  0  0  0  0  0  0
    1.4949    0.3625   40.2492 N   0  3  0  0  0  0  0  0  0  0  0  0
    1.2114    0.7063   37.8058 C   0  0  0  0  0  0  0  0  0  0  0  0
    1.9105    1.1523   36.5282 C   0  0  0  0  0  0  0  0  0  0  0  0
    1.2965    0.4392   35.3256 C   0  0  0  0  0  0  0  0  0  0  0  0
    1.6584    1.1854   34.0803 N   0  0  0  0  0  0  0  0  0  0  0  0
    1.5014    0.6353   32.9061 C   0  0  0  0  0  0  0  0  0  0  0  0
    2.4347    0.5812   32.1083 O   0  0  0  0  0  0  0  0  0  0  0  0
    0.3418    0.1516   32.5676 N   0  0  0  0  0  0  0  0  0  0  0  0
  1  2  1  0  0  0  0
  1  3  2  0  0  0  0
  4  1  1  1  0  0  0
  4  6  1  0  0  0  0
  4  5  1  0  0  0  0
  6  7  1  0  0  0  0
  7  8  1  0  0  0  0
  8  9  1  0  0  0  0
  9 10  1  0  0  0  0
 10 12  1  0  0  0  0
 10 11  2  0  0  0  0
M  CHG  2   2  -1   5   1
M  END
>  <CHROM.1>
126.34814786,69.12737581,-86.60107202,160.81179263,161.75675778,-14.67757447
1.70109984,1.24874912,36.56930640,-1.43841346,-0.98967783,-1.66972679

>  <Name>
1kod cryst

>  <RI>
0

>  <Rbt.Current_Directory>
/home/itssahil/PROJECTS/Mol_Feturizer/New_Systems/rnas/1kod

>  <Rbt.Executable>
rbdock ($Id: //depot/dev/client3/rdock/2013.1/src/exe/rbdock.cxx#4 $)

>  <Rbt.Library>
libRbt.so (2013.1, Build901 2013/11/27)

>  <Rbt.Parameter_File>
/export/apps/rDock/src/rDock_2013.1_src/data/scripts/dock_solv.prm

>  <Rbt.Receptor>
prm/pocket_docking_6.prm

>  <SCORE>
-20.4451

>  <SCORE.INTER>
-16.9856

>  <SCORE.INTER.CONST>
1

>  <SCORE.INTER.POLAR>
-3.40319

>  <SCORE.INTER.ROT>
5

>  <SCORE.INTER.SOLV>
18.1809

>  <SCORE.INTER.VDW>
-12.9734

>  <SCORE.INTER.norm>
-1.41546

>  <SCORE.INTRA>
-3.94827

>  <SCORE.INTRA.DIHEDRAL>
-1.19053

>  <SCORE.INTRA.DIHEDRAL.0>
7.7847

>  <SCORE.INTRA.POLAR>
0

>  <SCORE.INTRA.POLAR.0>
0

>  <SCORE.INTRA.REPUL>
0

>  <SCORE.INTRA.REPUL.0>
0

>  <SCORE.INTRA.SOLV>
-2.86294

>  <SCORE.INTRA.SOLV.lig_0>
-57.5465

>  <SCORE.INTRA.VDW>
-1.92154

>  <SCORE.INTRA.VDW.0>
1.39369

>  <SCORE.INTRA.norm>
-0.329023

>  <SCORE.RESTR>
0.488732

>  <SCORE.RESTR.CAVITY>
0.488732

>  <SCORE.RESTR.norm>
0.0407277

>  <SCORE.SYSTEM>
0

>  <SCORE.SYSTEM.CONST>
0

>  <SCORE.SYSTEM.DIHEDRAL>
0

>  <SCORE.SYSTEM.SOLV>
0

>  <SCORE.SYSTEM.norm>
0

>  <SCORE.heavy>
12

>  <SCORE.norm>
-1.70376

>  <SYMMETRIC_BONDS>
4 1 2

>  <RMSD>
4.037

$$$$
1kod cryst
 OpenBabel11021811393D
libRbt.so/2013.1/901 2013/11/27
 12 11  0  0  0  0  0  0  0  0999 V2000
    1.6817    2.3166   40.4989 C   0  0  0  0  0  0  0  0  0  0  0  0
    0.5579    2.1135   40.9338 O   0  5  0  0  0  0  0  0  0  0  0  0
    2.4417    3.1667   40.9455 O   0  0  0  0  0  0  0  0  0  0  0  0
    2.1675    1.4483   39.3215 C   0  0  1  0  0  0  0  0  0  0  0  0
    1.5690    0.0831   39.4335 N   0  3  0  0  0  0  0  0  0  0  0  0
    1.7604    2.0806   37.9700 C   0  0  0  0  0  0  0  0  0  0  0  0
    2.3678    1.3032   36.8096 C   0  0  0  0  0  0  0  0  0  0  0  0
    2.1136    2.0452   35.4994 C   0  0  0  0  0  0  0  0  0  0  0  0
    2.4002    1.1247   34.3552 N   0  0  0  0  0  0  0  0  0  0  0  0
    1.4589    0.8030   33.5087 C   0  0  0  0  0  0  0  0  0  0  0  0
    1.2088   -0.3756   33.2660 O   0  0  0  0  0  0  0  0  0  0  0  0
    0.7866    1.7375   32.9022 N   0  0  0  0  0  0  0  0  0  0  0  0
  1  2  1  0  0  0  0
  1  3  2  0  0  0  0
  4  1  1  1  0  0  0
  4  6  1  0  0  0  0
  4  5  1  0  0  0  0
  6  7  1  0  0  0  0
  7  8  1  0  0  0  0
  8  9  1  0  0  0  0
  9 10  1  0  0  0  0
 10 12  1  0  0  0  0
 10 11  2  0  0  0  0
M  CHG  2   2  -1   5   1
M  END
>  <CHROM.1>
-32.71379197,173.93611946,49.87022041,-172.42234460,-165.88291582,-61.32499986
1.69070273,1.46418424,37.12601739,-1.43134125,-1.35326980,-1.60382393

>  <Name>
1kod cryst

>  <RI>
0

>  <Rbt.Current_Directory>
/home/itssahil/PROJECTS/Mol_Feturizer/New_Systems/rnas/1kod

>  <Rbt.Executable>
rbdock ($Id: //depot/dev/client3/rdock/2013.1/src/exe/rbdock.cxx#4 $)

>  <Rbt.Library>
libRbt.so (2013.1, Build901 2013/11/27)

>  <Rbt.Parameter_File>
/export/apps/rDock/src/rDock_2013.1_src/data/scripts/dock_solv.prm

>  <Rbt.Receptor>
prm/pocket_docking_6.prm

>  <SCORE>
-25.8054

>  <SCORE.INTER>
-20.4075

>  <SCORE.INTER.CONST>
1

>  <SCORE.INTER.POLAR>
-3.69073

>  <SCORE.INTER.ROT>
5

>  <SCORE.INTER.SOLV>
16.3747

>  <SCORE.INTER.VDW>
-13.6941

>  <SCORE.INTER.norm>
-1.70062

>  <SCORE.INTRA>
-5.3979

>  <SCORE.INTRA.DIHEDRAL>
-4.20361

>  <SCORE.INTRA.DIHEDRAL.0>
7.7847

>  <SCORE.INTRA.POLAR>
0

>  <SCORE.INTRA.POLAR.0>
0

>  <SCORE.INTRA.REPUL>
0

>  <SCORE.INTRA.REPUL.0>
0

>  <SCORE.INTRA.SOLV>
-2.26113

>  <SCORE.INTRA.SOLV.lig_0>
-57.5465

>  <SCORE.INTRA.VDW>
-2.16553

>  <SCORE.INTRA.VDW.0>
1.39369

>  <SCORE.INTRA.norm>
-0.449825

>  <SCORE.RESTR>
0

>  <SCORE.RESTR.CAVITY>
0

>  <SCORE.RESTR.norm>
0

>  <SCORE.SYSTEM>
0

>  <SCORE.SYSTEM.CONST>
0

>  <SCORE.SYSTEM.DIHEDRAL>
0

>  <SCORE.SYSTEM.SOLV>
0

>  <SCORE.SYSTEM.norm>
0

>  <SCORE.heavy>
12

>  <SCORE.norm>
-2.15045

>  <SYMMETRIC_BONDS>
4 1 2

>  <RMSD>
4.102

$$$$
1kod cryst
 OpenBabel11021811393D
libRbt.so/2013.1/901 2013/11/27
 12 11  0  0  0  0  0  0  0  0999 V2000
    2.2007    4.9108   34.2590 C   0  0  0  0  0  0  0  0  0  0  0  0
    1.9255    6.0955   34.3781 O   0  5  0  0  0  0  0  0  0  0  0  0
    3.3001    4.4985   33.9110 O   0  0  0  0  0  0  0  0  0  0  0  0
    1.0978    3.8793   34.5684 C   0  0  1  0  0  0  0  0  0  0  0  0
    0.8931    3.0010   33.3762 N   0  3  0  0  0  0  0  0  0  0  0  0
    1.4864    3.0110   35.7879 C   0  0  0  0  0  0  0  0  0  0  0  0
    1.5914    3.8666   37.0437 C   0  0  0  0  0  0  0  0  0  0  0  0
    2.0653    3.0104   38.2159 C   0  0  0  0  0  0  0  0  0  0  0  0
    0.9116    2.2086   38.7307 N   0  0  0  0  0  0  0  0  0  0  0  0
    0.8371    0.9256   38.4979 C   0  0  0  0  0  0  0  0  0  0  0  0
   -0.1695    0.4372   37.9892 O   0  0  0  0  0  0  0  0  0  0  0  0
    1.8311    0.1503   38.8207 N   0  0  0  0  0  0  0  0  0  0  0  0
  1  2  1  0  0  0  0
  1  3  2  0  0  0  0
  4  1  1  6  0  0  0
  4  6  1  0  0  0  0
  4  5  1  0  0  0  0
  6  7  1  0  0  0  0
  7  8  1  0  0  0  0
  8  9  1  0  0  0  0
  9 10  1  0  0  0  0
 10 12  1  0  0  0  0
 10 11  2  0  0  0  0
M  CHG  2   2  -1   5   1
M  END
>  <CHROM.1>
123.60541523,63.94464066,-62.68444890,-176.26558043,-78.26487429,-73.54456964
1.49527308,2.97809816,36.26908245,-1.20277229,1.06373488,1.93760584

>  <Name>
1kod cryst

>  <RI>
0

>  <Rbt.Current_Directory>
/home/itssahil/PROJECTS/Mol_Feturizer/New_Systems/rnas/1kod

>  <Rbt.Executable>
rbdock ($Id: //depot/dev/client3/rdock/2013.1/src/exe/rbdock.cxx#4 $)

>  <Rbt.Library>
libRbt.so (2013.1, Build901 2013/11/27)

>  <Rbt.Parameter_File>
/export/apps/rDock/src/rDock_2013.1_src/data/scripts/dock_solv.prm

>  <Rbt.Receptor>
prm/pocket_docking_6.prm

>  <SCORE>
-25.1514

>  <SCORE.INTER>
-19.2647

>  <SCORE.INTER.CONST>
1

>  <SCORE.INTER.POLAR>
-3.94135

>  <SCORE.INTER.ROT>
5

>  <SCORE.INTER.SOLV>
18.2539

>  <SCORE.INTER.VDW>
-12.7233

>  <SCORE.INTER.norm>
-1.60539

>  <SCORE.INTRA>
-5.88667

>  <SCORE.INTRA.DIHEDRAL>
-4.24141

>  <SCORE.INTRA.DIHEDRAL.0>
7.7847

>  <SCORE.INTRA.POLAR>
0

>  <SCORE.INTRA.POLAR.0>
0

>  <SCORE.INTRA.REPUL>
0

>  <SCORE.INTRA.REPUL.0>
0

>  <SCORE.INTRA.SOLV>
-2.1984

>  <SCORE.INTRA.SOLV.lig_0>
-57.5465

>  <SCORE.INTRA.VDW>
-2.66677

>  <SCORE.INTRA.VDW.0>
1.39369

>  <SCORE.INTRA.norm>
-0.490556

>  <SCORE.RESTR>
0

>  <SCORE.RESTR.CAVITY>
0

>  <SCORE.RESTR.norm>
0

>  <SCORE.SYSTEM>
0

>  <SCORE.SYSTEM.CONST>
0

>  <SCORE.SYSTEM.DIHEDRAL>
0

>  <SCORE.SYSTEM.SOLV>
0

>  <SCORE.SYSTEM.norm>
0

>  <SCORE.heavy>
12

>  <SCORE.norm>
-2.09595

>  <SYMMETRIC_BONDS>
4 1 2

>  <RMSD>
4.146

$$$$
1kod cryst
 OpenBabel11021811393D
libRbt.so/2013.1/901 2013/11/27
 12 11  0  0  0  0  0  0  0  0999 V2000
    1.9533    8.3808   36.6442 C   0  0  0  0  0  0  0  0  0  0  0  0
    1.4910    9.3189   36.0121 O   0  5  0  0  0  0  0  0  0  0  0  0
    3.1531    8.1747   36.7778 O   0  0  0  0  0  0  0  0  0  0  0  0
    0.9653    7.4043   37.3125 C   0  0  1  0  0  0  0  0  0  0  0  0
   -0.4303    7.9047   37.1219 N   0  3  0  0  0  0  0  0  0  0  0  0
    1.0942    5.9899   36.7000 C   0  0  0  0  0  0  0  0  0  0  0  0
    0.2956    4.9789   37.5124 C   0  0  0  0  0  0  0  0  0  0  0  0
    0.3433    3.6132   36.8309 C   0  0  0  0  0  0  0  0  0  0  0  0
    1.6939    3.0074   37.0487 N   0  0  0  0  0  0  0  0  0  0  0  0
    1.8114    1.7600   37.4179 C   0  0  0  0  0  0  0  0  0  0  0  0
    2.4719    1.4582   38.4094 O   0  0  0  0  0  0  0  0  0  0  0  0
    1.2372    0.8221   36.7223 N   0  0  0  0  0  0  0  0  0  0  0  0
  1  2  1  0  0  0  0
  1  3  2  0  0  0  0
  4  1  1  6  0  0  0
  4  6  1  0  0  0  0
  4  5  1  0  0  0  0
  6  7  1  0  0  0  0
  7  8  1  0  0  0  0
  8  9  1  0  0  0  0
  9 10  1  0  0  0  0
 10 12  1  0  0  0  0
 10 11  2  0  0  0  0
M  CHG  2   2  -1   5   1
M  END
>  <CHROM.1>
-4.66154336,170.40647316,179.78554040,175.48734610,74.53031191,-46.03055573
1.33179124,5.24620563,37.03512620,-1.60331707,0.02927225,3.03591736

>  <Name>
1kod cryst

>  <RI>
0

>  <Rbt.Current_Directory>
/home/itssahil/PROJECTS/Mol_Feturizer/New_Systems/rnas/1kod

>  <Rbt.Executable>
rbdock ($Id: //depot/dev/client3/rdock/2013.1/src/exe/rbdock.cxx#4 $)

>  <Rbt.Library>
libRbt.so (2013.1, Build901 2013/11/27)

>  <Rbt.Parameter_File>
/export/apps/rDock/src/rDock_2013.1_src/data/scripts/dock_solv.prm

>  <Rbt.Receptor>
prm/pocket_docking_5.prm

>  <SCORE>
-19.8293

>  <SCORE.INTER>
-14.4938

>  <SCORE.INTER.CONST>
1

>  <SCORE.INTER.POLAR>
-2.96447

>  <SCORE.INTER.ROT>
5

>  <SCORE.INTER.SOLV>
14.981

>  <SCORE.INTER.VDW>
-11.7079

>  <SCORE.INTER.norm>
-1.20781

>  <SCORE.INTRA>
-5.33554

>  <SCORE.INTRA.DIHEDRAL>
-4.37509

>  <SCORE.INTRA.DIHEDRAL.0>
7.7847

>  <SCORE.INTRA.POLAR>
0

>  <SCORE.INTRA.POLAR.0>
0

>  <SCORE.INTRA.REPUL>
0

>  <SCORE.INTRA.REPUL.0>
0

>  <SCORE.INTRA.SOLV>
-2.03046

>  <SCORE.INTRA.SOLV.lig_0>
-57.5465

>  <SCORE.INTRA.VDW>
-2.13277

>  <SCORE.INTRA.VDW.0>
1.39369

>  <SCORE.INTRA.norm>
-0.444629

>  <SCORE.RESTR>
0

>  <SCORE.RESTR.CAVITY>
0

>  <SCORE.RESTR.norm>
0

>  <SCORE.SYSTEM>
0

>  <SCORE.SYSTEM.CONST>
0

>  <SCORE.SYSTEM.DIHEDRAL>
0

>  <SCORE.SYSTEM.SOLV>
0

>  <SCORE.SYSTEM.norm>
0

>  <SCORE.heavy>
12

>  <SCORE.norm>
-1.65244

>  <SYMMETRIC_BONDS>
4 1 2

>  <RMSD>
4.183

$$$$
1kod cryst
 OpenBabel11021811393D
libRbt.so/2013.1/901 2013/11/27
 12 11  0  0  0  0  0  0  0  0999 V2000
    2.9860    2.4115   37.6039 C   0  0  0  0  0  0  0  0  0  0  0  0
    3.4415    3.3741   38.2034 O   0  5  0  0  0  0  0  0  0  0  0  0
    2.3445    1.5165   38.1398 O   0  0  0  0  0  0  0  0  0  0  0  0
    3.2336    2.3244   36.0849 C   0  0  1  0  0  0  0  0  0  0  0  0
    3.7119    0.9508   35.7395 N   0  3  0  0  0  0  0  0  0  0  0  0
    1.9368    2.6315   35.3000 C   0  0  0  0  0  0  0  0  0  0  0  0
    2.2529    2.9434   33.8431 C   0  0  0  0  0  0  0  0  0  0  0  0
    1.0014    3.4666   33.1419 C   0  0  0  0  0  0  0  0  0  0  0  0
    0.5247    4.6955   33.8498 N   0  0  0  0  0  0  0  0  0  0  0  0
    1.3648    5.6376   34.1855 C   0  0  0  0  0  0  0  0  0  0  0  0
    1.4231    6.0431   35.3443 O   0  0  0  0  0  0  0  0  0  0  0  0
    2.1396    6.1658   33.2834 N   0  0  0  0  0  0  0  0  0  0  0  0
  1  2  1  0  0  0  0
  1  3  2  0  0  0  0
  4  1  1  1  0  0  0
  4  6  1  0  0  0  0
  4  5  1  0  0  0  0
  6  7  1  0  0  0  0
  7  8  1  0  0  0  0
  8  9  1  0  0  0  0
  9 10  1  0  0  0  0
 10 12  1  0  0  0  0
 10 11  2  0  0  0  0
M  CHG  2   2  -1   5   1
M  END
>  <CHROM.1>
132.46125792,163.59085072,-64.48206608,-170.67710804,58.79054108,-133.84734953
2.21380636,3.50349816,35.40889249,-0.00990797,-1.22847334,0.75276485

>  <Name>
1kod cryst

>  <RI>
0

>  <Rbt.Current_Directory>
/home/itssahil/PROJECTS/Mol_Feturizer/New_Systems/rnas/1kod

>  <Rbt.Executable>
rbdock ($Id: //depot/dev/client3/rdock/2013.1/src/exe/rbdock.cxx#4 $)

>  <Rbt.Library>
libRbt.so (2013.1, Build901 2013/11/27)

>  <Rbt.Parameter_File>
/export/apps/rDock/src/rDock_2013.1_src/data/scripts/dock_solv.prm

>  <Rbt.Receptor>
prm/pocket_docking_6.prm

>  <SCORE>
-21.7132

>  <SCORE.INTER>
-16.9479

>  <SCORE.INTER.CONST>
1

>  <SCORE.INTER.POLAR>
-3.28751

>  <SCORE.INTER.ROT>
5

>  <SCORE.INTER.SOLV>
16.136

>  <SCORE.INTER.VDW>
-12.6523

>  <SCORE.INTER.norm>
-1.41233

>  <SCORE.INTRA>
-4.76528

>  <SCORE.INTRA.DIHEDRAL>
-4.23597

>  <SCORE.INTRA.DIHEDRAL.0>
7.7847

>  <SCORE.INTRA.POLAR>
0

>  <SCORE.INTRA.POLAR.0>
0

>  <SCORE.INTRA.REPUL>
0

>  <SCORE.INTRA.REPUL.0>
0

>  <SCORE.INTRA.SOLV>
-1.55285

>  <SCORE.INTRA.SOLV.lig_0>
-57.5465

>  <SCORE.INTRA.VDW>
-1.87087

>  <SCORE.INTRA.VDW.0>
1.39369

>  <SCORE.INTRA.norm>
-0.397107

>  <SCORE.RESTR>
0

>  <SCORE.RESTR.CAVITY>
0

>  <SCORE.RESTR.norm>
0

>  <SCORE.SYSTEM>
0

>  <SCORE.SYSTEM.CONST>
0

>  <SCORE.SYSTEM.DIHEDRAL>
0

>  <SCORE.SYSTEM.SOLV>
0

>  <SCORE.SYSTEM.norm>
0

>  <SCORE.heavy>
12

>  <SCORE.norm>
-1.80944

>  <SYMMETRIC_BONDS>
4 1 2

>  <RMSD>
4.190

$$$$
1kod cryst
 OpenBabel11021811393D
libRbt.so/2013.1/901 2013/11/27
 12 11  0  0  0  0  0  0  0  0999 V2000
    0.8364    2.4214   39.0223 C   0  0  0  0  0  0  0  0  0  0  0  0
    1.3574    3.2707   39.7298 O   0  5  0  0  0  0  0  0  0  0  0  0
   -0.3734    2.3134   38.8661 O   0  0  0  0  0  0  0  0  0  0  0  0
    1.7597    1.4324   38.2835 C   0  0  1  0  0  0  0  0  0  0  0  0
    1.7591    0.1225   39.0037 N   0  3  0  0  0  0  0  0  0  0  0  0
    1.2826    1.2208   36.8276 C   0  0  0  0  0  0  0  0  0  0  0  0
    2.4617    0.9013   35.9180 C   0  0  0  0  0  0  0  0  0  0  0  0
    2.2122    1.4757   34.5252 C   0  0  0  0  0  0  0  0  0  0  0  0
    1.9440    2.9428   34.6446 N   0  0  0  0  0  0  0  0  0  0  0  0
    1.3977    3.6014   33.6578 C   0  0  0  0  0  0  0  0  0  0  0  0
    1.9289    4.6149   33.2091 O   0  0  0  0  0  0  0  0  0  0  0  0
    0.2712    3.1920   33.1514 N   0  0  0  0  0  0  0  0  0  0  0  0
  1  2  1  0  0  0  0
  1  3  2  0  0  0  0
  4  1  1  1  0  0  0
  4  6  1  0  0  0  0
  4  5  1  0  0  0  0
  6  7  1  0  0  0  0
  7  8  1  0  0  0  0
  8  9  1  0  0  0  0
  9 10  1  0  0  0  0
 10 12  1  0  0  0  0
 10 11  2  0  0  0  0
M  CHG  2   2  -1   5   1
M  END
>  <CHROM.1>
102.14252612,150.22795904,30.52273969,-146.95360846,55.60666460,16.21575716
1.38566783,2.29087273,36.42616556,1.70127551,-1.11646430,1.98922440

>  <Name>
1kod cryst

>  <RI>
0

>  <Rbt.Current_Directory>
/home/itssahil/PROJECTS/Mol_Feturizer/New_Systems/rnas/1kod

>  <Rbt.Executable>
rbdock ($Id: //depot/dev/client3/rdock/2013.1/src/exe/rbdock.cxx#4 $)

>  <Rbt.Library>
libRbt.so (2013.1, Build901 2013/11/27)

>  <Rbt.Parameter_File>
/export/apps/rDock/src/rDock_2013.1_src/data/scripts/dock_solv.prm

>  <Rbt.Receptor>
prm/pocket_docking_7.prm

>  <SCORE>
-21.8246

>  <SCORE.INTER>
-20.1658

>  <SCORE.INTER.CONST>
1

>  <SCORE.INTER.POLAR>
-3.45704

>  <SCORE.INTER.ROT>
5

>  <SCORE.INTER.SOLV>
19.0487

>  <SCORE.INTER.VDW>
-15.2033

>  <SCORE.INTER.norm>
-1.68048

>  <SCORE.INTRA>
-1.65885

>  <SCORE.INTRA.DIHEDRAL>
2.36713

>  <SCORE.INTRA.DIHEDRAL.0>
7.7847

>  <SCORE.INTRA.POLAR>
0

>  <SCORE.INTRA.POLAR.0>
0

>  <SCORE.INTRA.REPUL>
0

>  <SCORE.INTRA.REPUL.0>
0

>  <SCORE.INTRA.SOLV>
-2.4873

>  <SCORE.INTRA.SOLV.lig_0>
-57.5465

>  <SCORE.INTRA.VDW>
-1.59877

>  <SCORE.INTRA.VDW.0>
1.39369

>  <SCORE.INTRA.norm>
-0.138238

>  <SCORE.RESTR>
0

>  <SCORE.RESTR.CAVITY>
0

>  <SCORE.RESTR.norm>
0

>  <SCORE.SYSTEM>
0

>  <SCORE.SYSTEM.CONST>
0

>  <SCORE.SYSTEM.DIHEDRAL>
0

>  <SCORE.SYSTEM.SOLV>
0

>  <SCORE.SYSTEM.norm>
0

>  <SCORE.heavy>
12

>  <SCORE.norm>
-1.81872

>  <SYMMETRIC_BONDS>
4 1 2

>  <RMSD>
4.195

$$$$
1kod cryst
 OpenBabel11021811393D
libRbt.so/2013.1/901 2013/11/27
 12 11  0  0  0  0  0  0  0  0999 V2000
    6.9549    3.6562   34.1388 C   0  0  0  0  0  0  0  0  0  0  0  0
    6.5821    4.4068   35.0281 O   0  5  0  0  0  0  0  0  0  0  0  0
    8.1214    3.5494   33.7819 O   0  0  0  0  0  0  0  0  0  0  0  0
    5.8919    2.7938   33.4297 C   0  0  1  0  0  0  0  0  0  0  0  0
    6.5076    1.4996   33.0049 N   0  3  0  0  0  0  0  0  0  0  0  0
    4.6978    2.5122   34.3715 C   0  0  0  0  0  0  0  0  0  0  0  0
    3.4360    3.1916   33.8555 C   0  0  0  0  0  0  0  0  0  0  0  0
    2.2060    2.3951   34.2849 C   0  0  0  0  0  0  0  0  0  0  0  0
    2.2118    1.0742   33.5822 N   0  0  0  0  0  0  0  0  0  0  0  0
    1.0904    0.4717   33.2898 C   0  0  0  0  0  0  0  0  0  0  0  0
    0.8933   -0.6908   33.6365 O   0  0  0  0  0  0  0  0  0  0  0  0
    0.1755    1.1005   32.6111 N   0  0  0  0  0  0  0  0  0  0  0  0
  1  2  1  0  0  0  0
  1  3  2  0  0  0  0
  4  1  1  1  0  0  0
  4  6  1  0  0  0  0
  4  5  1  0  0  0  0
  6  7  1  0  0  0  0
  7  8  1  0  0  0  0
  8  9  1  0  0  0  0
  9 10  1  0  0  0  0
 10 12  1  0  0  0  0
 10 11  2  0  0  0  0
M  CHG  2   2  -1   5   1
M  END
>  <CHROM.1>
-148.28323940,113.77250616,-82.44925264,150.81081903,-66.95236859,30.16645741
4.08332432,2.13640810,33.73450988,0.44003755,0.08196181,0.42165047

>  <Name>
1kod cryst

>  <RI>
0

>  <Rbt.Current_Directory>
/home/itssahil/PROJECTS/Mol_Feturizer/New_Systems/rnas/1kod

>  <Rbt.Executable>
rbdock ($Id: //depot/dev/client3/rdock/2013.1/src/exe/rbdock.cxx#4 $)

>  <Rbt.Library>
libRbt.so (2013.1, Build901 2013/11/27)

>  <Rbt.Parameter_File>
/export/apps/rDock/src/rDock_2013.1_src/data/scripts/dock_solv.prm

>  <Rbt.Receptor>
prm/pocket_docking_8.prm

>  <SCORE>
-27.7795

>  <SCORE.INTER>
-27.0194

>  <SCORE.INTER.CONST>
1

>  <SCORE.INTER.POLAR>
-5.02668

>  <SCORE.INTER.ROT>
5

>  <SCORE.INTER.SOLV>
13.9566

>  <SCORE.INTER.VDW>
-12.8428

>  <SCORE.INTER.norm>
-2.25161

>  <SCORE.INTRA>
-0.760184

>  <SCORE.INTRA.DIHEDRAL>
3.67228

>  <SCORE.INTRA.DIHEDRAL.0>
7.7847

>  <SCORE.INTRA.POLAR>
0

>  <SCORE.INTRA.POLAR.0>
0

>  <SCORE.INTRA.REPUL>
0

>  <SCORE.INTRA.REPUL.0>
0

>  <SCORE.INTRA.SOLV>
-2.12669

>  <SCORE.INTRA.SOLV.lig_0>
-57.5465

>  <SCORE.INTRA.VDW>
-1.53298

>  <SCORE.INTRA.VDW.0>
1.39369

>  <SCORE.INTRA.norm>
-0.0633486

>  <SCORE.RESTR>
0

>  <SCORE.RESTR.CAVITY>
0

>  <SCORE.RESTR.norm>
0

>  <SCORE.SYSTEM>
0

>  <SCORE.SYSTEM.CONST>
0

>  <SCORE.SYSTEM.DIHEDRAL>
0

>  <SCORE.SYSTEM.SOLV>
0

>  <SCORE.SYSTEM.norm>
0

>  <SCORE.heavy>
12

>  <SCORE.norm>
-2.31496

>  <SYMMETRIC_BONDS>
4 1 2

>  <RMSD>
4.202

$$$$
1kod cryst
 OpenBabel11021811393D
libRbt.so/2013.1/901 2013/11/27
 12 11  0  0  0  0  0  0  0  0999 V2000
    1.2637    3.6695   34.7328 C   0  0  0  0  0  0  0  0  0  0  0  0
    1.3779    4.1002   33.5949 O   0  5  0  0  0  0  0  0  0  0  0  0
    0.4597    4.1037   35.5480 O   0  0  0  0  0  0  0  0  0  0  0  0
    2.1856    2.5107   35.1615 C   0  0  1  0  0  0  0  0  0  0  0  0
    2.3591    1.5665   34.0156 N   0  3  0  0  0  0  0  0  0  0  0  0
    3.5681    3.0453   35.6030 C   0  0  0  0  0  0  0  0  0  0  0  0
    3.4591    3.7806   36.9324 C   0  0  0  0  0  0  0  0  0  0  0  0
    3.3973    2.7731   38.0783 C   0  0  0  0  0  0  0  0  0  0  0  0
    1.9641    2.5036   38.4127 N   0  0  0  0  0  0  0  0  0  0  0  0
    1.4445    1.3227   38.2087 C   0  0  0  0  0  0  0  0  0  0  0  0
    0.4142    1.1952   37.5508 O   0  0  0  0  0  0  0  0  0  0  0  0
    2.0121    0.2687   38.7187 N   0  0  0  0  0  0  0  0  0  0  0  0
  1  2  1  0  0  0  0
  1  3  2  0  0  0  0
  4  1  1  6  0  0  0
  4  6  1  0  0  0  0
  4  5  1  0  0  0  0
  6  7  1  0  0  0  0
  7  8  1  0  0  0  0
  8  9  1  0  0  0  0
  9 10  1  0  0  0  0
 10 12  1  0  0  0  0
 10 11  2  0  0  0  0
M  CHG  2   2  -1   5   1
M  END
>  <CHROM.1>
-38.02339135,70.81242603,175.48073008,78.90703146,-94.27415440,-66.10999702
1.97001260,2.54310976,36.35478408,1.62457021,-0.56710096,-1.06620297

>  <Name>
1kod cryst

>  <RI>
0

>  <Rbt.Current_Directory>
/home/itssahil/PROJECTS/Mol_Feturizer/New_Systems/rnas/1kod

>  <Rbt.Executable>
rbdock ($Id: //depot/dev/client3/rdock/2013.1/src/exe/rbdock.cxx#4 $)

>  <Rbt.Library>
libRbt.so (2013.1, Build901 2013/11/27)

>  <Rbt.Parameter_File>
/export/apps/rDock/src/rDock_2013.1_src/data/scripts/dock_solv.prm

>  <Rbt.Receptor>
prm/pocket_docking_5.prm

>  <SCORE>
-19.5596

>  <SCORE.INTER>
-16.111

>  <SCORE.INTER.CONST>
1

>  <SCORE.INTER.POLAR>
-3.88683

>  <SCORE.INTER.ROT>
5

>  <SCORE.INTER.SOLV>
14.8654

>  <SCORE.INTER.VDW>
-9.67307

>  <SCORE.INTER.norm>
-1.34258

>  <SCORE.INTRA>
-3.44859

>  <SCORE.INTRA.DIHEDRAL>
-0.336643

>  <SCORE.INTRA.DIHEDRAL.0>
7.7847

>  <SCORE.INTRA.POLAR>
0

>  <SCORE.INTRA.POLAR.0>
0

>  <SCORE.INTRA.REPUL>
0

>  <SCORE.INTRA.REPUL.0>
0

>  <SCORE.INTRA.SOLV>
0.289805

>  <SCORE.INTRA.SOLV.lig_0>
-57.5465

>  <SCORE.INTRA.VDW>
-3.42518

>  <SCORE.INTRA.VDW.0>
1.39369

>  <SCORE.INTRA.norm>
-0.287383

>  <SCORE.RESTR>
0

>  <SCORE.RESTR.CAVITY>
0

>  <SCORE.RESTR.norm>
0

>  <SCORE.SYSTEM>
0

>  <SCORE.SYSTEM.CONST>
0

>  <SCORE.SYSTEM.DIHEDRAL>
0

>  <SCORE.SYSTEM.SOLV>
0

>  <SCORE.SYSTEM.norm>
0

>  <SCORE.heavy>
12

>  <SCORE.norm>
-1.62997

>  <SYMMETRIC_BONDS>
4 1 2

>  <RMSD>
4.203

$$$$
1kod cryst
 OpenBabel11021811393D
libRbt.so/2013.1/901 2013/11/27
 12 11  0  0  0  0  0  0  0  0999 V2000
    0.9786    0.5512   39.3356 C   0  0  0  0  0  0  0  0  0  0  0  0
    0.0567    0.3898   38.5499 O   0  5  0  0  0  0  0  0  0  0  0  0
    1.3145   -0.2785   40.1714 O   0  0  0  0  0  0  0  0  0  0  0  0
    1.7632    1.8762   39.2650 C   0  0  1  0  0  0  0  0  0  0  0  0
    2.4550    2.1118   40.5690 N   0  3  0  0  0  0  0  0  0  0  0  0
    2.8093    1.8335   38.1266 C   0  0  0  0  0  0  0  0  0  0  0  0
    2.2718    1.0540   36.9335 C   0  0  0  0  0  0  0  0  0  0  0  0
    2.5946    1.7988   35.6401 C   0  0  0  0  0  0  0  0  0  0  0  0
    1.4905    1.5681   34.6570 N   0  0  0  0  0  0  0  0  0  0  0  0
    1.7054    1.6922   33.3746 C   0  0  0  0  0  0  0  0  0  0  0  0
    0.9957    2.4230   32.6870 O   0  0  0  0  0  0  0  0  0  0  0  0
    2.6705    1.0247   32.8124 N   0  0  0  0  0  0  0  0  0  0  0  0
  1  2  1  0  0  0  0
  1  3  2  0  0  0  0
  4  1  1  1  0  0  0
  4  6  1  0  0  0  0
  4  5  1  0  0  0  0
  6  7  1  0  0  0  0
  7  8  1  0  0  0  0
  8  9  1  0  0  0  0
  9 10  1  0  0  0  0
 10 12  1  0  0  0  0
 10 11  2  0  0  0  0
M  CHG  2   2  -1   5   1
M  END
>  <CHROM.1>
158.50444827,35.98217456,-178.77104242,136.01212705,-146.71397832,23.37001593
1.75812545,1.32979951,36.86074186,1.61330803,0.63107958,1.65168903

>  <Name>
1kod cryst

>  <RI>
0

>  <Rbt.Current_Directory>
/home/itssahil/PROJECTS/Mol_Feturizer/New_Systems/rnas/1kod

>  <Rbt.Executable>
rbdock ($Id: //depot/dev/client3/rdock/2013.1/src/exe/rbdock.cxx#4 $)

>  <Rbt.Library>
libRbt.so (2013.1, Build901 2013/11/27)

>  <Rbt.Parameter_File>
/export/apps/rDock/src/rDock_2013.1_src/data/scripts/dock_solv.prm

>  <Rbt.Receptor>
prm/pocket_docking_8.prm

>  <SCORE>
-26.4783

>  <SCORE.INTER>
-27.3587

>  <SCORE.INTER.CONST>
1

>  <SCORE.INTER.POLAR>
-5.69241

>  <SCORE.INTER.ROT>
5

>  <SCORE.INTER.SOLV>
19.0941

>  <SCORE.INTER.VDW>
-12.5625

>  <SCORE.INTER.norm>
-2.2799

>  <SCORE.INTRA>
0.80987

>  <SCORE.INTRA.DIHEDRAL>
4.5794

>  <SCORE.INTRA.DIHEDRAL.0>
7.7847

>  <SCORE.INTRA.POLAR>
0

>  <SCORE.INTRA.POLAR.0>
0

>  <SCORE.INTRA.REPUL>
0

>  <SCORE.INTRA.REPUL.0>
0

>  <SCORE.INTRA.SOLV>
-1.82028

>  <SCORE.INTRA.SOLV.lig_0>
-57.5465

>  <SCORE.INTRA.VDW>
-0.569688

>  <SCORE.INTRA.VDW.0>
1.39369

>  <SCORE.INTRA.norm>
0.0674891

>  <SCORE.RESTR>
0.0705334

>  <SCORE.RESTR.CAVITY>
0.0705334

>  <SCORE.RESTR.norm>
0.00587778

>  <SCORE.SYSTEM>
0

>  <SCORE.SYSTEM.CONST>
0

>  <SCORE.SYSTEM.DIHEDRAL>
0

>  <SCORE.SYSTEM.SOLV>
0

>  <SCORE.SYSTEM.norm>
0

>  <SCORE.heavy>
12

>  <SCORE.norm>
-2.20653

>  <SYMMETRIC_BONDS>
4 1 2

>  <RMSD>
4.270

$$$$
1kod cryst
 OpenBabel11021811393D
libRbt.so/2013.1/901 2013/11/27
 12 11  0  0  0  0  0  0  0  0999 V2000
   -0.4761    1.0676   39.4081 C   0  0  0  0  0  0  0  0  0  0  0  0
   -1.2118    1.8205   40.0288 O   0  5  0  0  0  0  0  0  0  0  0  0
   -0.8779    0.1507   38.7027 O   0  0  0  0  0  0  0  0  0  0  0  0
    1.0451    1.2903   39.5206 C   0  0  1  0  0  0  0  0  0  0  0  0
    1.7350   -0.0337   39.5944 N   0  3  0  0  0  0  0  0  0  0  0  0
    1.5747    2.0805   38.3010 C   0  0  0  0  0  0  0  0  0  0  0  0
    1.5514    1.2133   37.0490 C   0  0  0  0  0  0  0  0  0  0  0  0
    2.0771    2.0100   35.8571 C   0  0  0  0  0  0  0  0  0  0  0  0
    2.3595    1.0687   34.7289 N   0  0  0  0  0  0  0  0  0  0  0  0
    1.4651    0.8555   33.8012 C   0  0  0  0  0  0  0  0  0  0  0  0
    1.1104   -0.2876   33.5219 O   0  0  0  0  0  0  0  0  0  0  0  0
    0.9528    1.8605   33.1526 N   0  0  0  0  0  0  0  0  0  0  0  0
  1  2  1  0  0  0  0
  1  3  2  0  0  0  0
  4  1  1  6  0  0  0
  4  6  1  0  0  0  0
  4  5  1  0  0  0  0
  6  7  1  0  0  0  0
  7  8  1  0  0  0  0
  8  9  1  0  0  0  0
  9 10  1  0  0  0  0
 10 12  1  0  0  0  0
 10 11  2  0  0  0  0
M  CHG  2   2  -1   5   1
M  END
>  <CHROM.1>
140.51269562,-71.20676582,-179.53031081,179.99656432,166.44085314,-85.22691567
0.93618885,1.06123291,36.96694316,1.81499224,0.09535899,1.54455304

>  <Name>
1kod cryst

>  <RI>
0

>  <Rbt.Current_Directory>
/home/itssahil/PROJECTS/Mol_Feturizer/New_Systems/rnas/1kod

>  <Rbt.Executable>
rbdock ($Id: //depot/dev/client3/rdock/2013.1/src/exe/rbdock.cxx#4 $)

>  <Rbt.Library>
libRbt.so (2013.1, Build901 2013/11/27)

>  <Rbt.Parameter_File>
/export/apps/rDock/src/rDock_2013.1_src/data/scripts/dock_solv.prm

>  <Rbt.Receptor>
prm/pocket_docking_8.prm

>  <SCORE>
-31.8568

>  <SCORE.INTER>
-27.4547

>  <SCORE.INTER.CONST>
1

>  <SCORE.INTER.POLAR>
-5.8529

>  <SCORE.INTER.ROT>
5

>  <SCORE.INTER.SOLV>
23.6186

>  <SCORE.INTER.VDW>
-13.5997

>  <SCORE.INTER.norm>
-2.28789

>  <SCORE.INTRA>
-4.40217

>  <SCORE.INTRA.DIHEDRAL>
-4.4426

>  <SCORE.INTRA.DIHEDRAL.0>
7.7847

>  <SCORE.INTRA.POLAR>
0

>  <SCORE.INTRA.POLAR.0>
0

>  <SCORE.INTRA.REPUL>
0

>  <SCORE.INTRA.REPUL.0>
0

>  <SCORE.INTRA.SOLV>
-1.11018

>  <SCORE.INTRA.SOLV.lig_0>
-57.5465

>  <SCORE.INTRA.VDW>
-1.62578

>  <SCORE.INTRA.VDW.0>
1.39369

>  <SCORE.INTRA.norm>
-0.366847

>  <SCORE.RESTR>
0

>  <SCORE.RESTR.CAVITY>
0

>  <SCORE.RESTR.norm>
0

>  <SCORE.SYSTEM>
0

>  <SCORE.SYSTEM.CONST>
0

>  <SCORE.SYSTEM.DIHEDRAL>
0

>  <SCORE.SYSTEM.SOLV>
0

>  <SCORE.SYSTEM.norm>
0

>  <SCORE.heavy>
12

>  <SCORE.norm>
-2.65474

>  <SYMMETRIC_BONDS>
4 1 2

>  <RMSD>
4.399

$$$$
1kod cryst
 OpenBabel11021811393D
libRbt.so/2013.1/901 2013/11/27
 12 11  0  0  0  0  0  0  0  0999 V2000
    1.6929    2.2381   40.8235 C   0  0  0  0  0  0  0  0  0  0  0  0
    1.0292    1.7749   41.7391 O   0  5  0  0  0  0  0  0  0  0  0  0
    2.0660    3.4035   40.7743 O   0  0  0  0  0  0  0  0  0  0  0  0
    2.0828    1.2965   39.6669 C   0  0  1  0  0  0  0  0  0  0  0  0
    1.5389   -0.0696   39.9361 N   0  3  0  0  0  0  0  0  0  0  0  0
    1.5232    1.8189   38.3230 C   0  0  0  0  0  0  0  0  0  0  0  0
    2.1861    1.1047   37.1523 C   0  0  0  0  0  0  0  0  0  0  0  0
    1.9750    1.9062   35.8698 C   0  0  0  0  0  0  0  0  0  0  0  0
    2.3484    1.0554   34.6970 N   0  0  0  0  0  0  0  0  0  0  0  0
    1.4962    0.8451   33.7299 C   0  0  0  0  0  0  0  0  0  0  0  0
    1.2227   -0.2982   33.3715 O   0  0  0  0  0  0  0  0  0  0  0  0
    0.9399    1.8548   33.1263 N   0  0  0  0  0  0  0  0  0  0  0  0
  1  2  1  0  0  0  0
  1  3  2  0  0  0  0
  4  1  1  1  0  0  0
  4  6  1  0  0  0  0
  4  5  1  0  0  0  0
  6  7  1  0  0  0  0
  7  8  1  0  0  0  0
  8  9  1  0  0  0  0
  9 10  1  0  0  0  0
 10 12  1  0  0  0  0
 10 11  2  0  0  0  0
M  CHG  2   2  -1   5   1
M  END
>  <CHROM.1>
-0.42412275,165.77260792,63.36577061,-162.05256248,-167.16936900,-55.42618789
1.66039864,1.39027028,37.44171688,-1.34031005,-1.48119295,-1.47808388

>  <Name>
1kod cryst

>  <RI>
0

>  <Rbt.Current_Directory>
/home/itssahil/PROJECTS/Mol_Feturizer/New_Systems/rnas/1kod

>  <Rbt.Executable>
rbdock ($Id: //depot/dev/client3/rdock/2013.1/src/exe/rbdock.cxx#4 $)

>  <Rbt.Library>
libRbt.so (2013.1, Build901 2013/11/27)

>  <Rbt.Parameter_File>
/export/apps/rDock/src/rDock_2013.1_src/data/scripts/dock_solv.prm

>  <Rbt.Receptor>
prm/pocket_docking_7.prm

>  <SCORE>
-27.8849

>  <SCORE.INTER>
-22.9684

>  <SCORE.INTER.CONST>
1

>  <SCORE.INTER.POLAR>
-4.51542

>  <SCORE.INTER.ROT>
5

>  <SCORE.INTER.SOLV>
17.8691

>  <SCORE.INTER.VDW>
-13.1506

>  <SCORE.INTER.norm>
-1.91404

>  <SCORE.INTRA>
-4.91642

>  <SCORE.INTRA.DIHEDRAL>
-2.97618

>  <SCORE.INTRA.DIHEDRAL.0>
7.7847

>  <SCORE.INTRA.POLAR>
0

>  <SCORE.INTRA.POLAR.0>
0

>  <SCORE.INTRA.REPUL>
0

>  <SCORE.INTRA.REPUL.0>
0

>  <SCORE.INTRA.SOLV>
-2.39629

>  <SCORE.INTRA.SOLV.lig_0>
-57.5465

>  <SCORE.INTRA.VDW>
-2.23019

>  <SCORE.INTRA.VDW.0>
1.39369

>  <SCORE.INTRA.norm>
-0.409702

>  <SCORE.RESTR>
0

>  <SCORE.RESTR.CAVITY>
0

>  <SCORE.RESTR.norm>
0

>  <SCORE.SYSTEM>
0

>  <SCORE.SYSTEM.CONST>
0

>  <SCORE.SYSTEM.DIHEDRAL>
0

>  <SCORE.SYSTEM.SOLV>
0

>  <SCORE.SYSTEM.norm>
0

>  <SCORE.heavy>
12

>  <SCORE.norm>
-2.32374

>  <SYMMETRIC_BONDS>
4 1 2

>  <RMSD>
4.406

$$$$
1kod cryst
 OpenBabel11021811393D
libRbt.so/2013.1/901 2013/11/27
 12 11  0  0  0  0  0  0  0  0999 V2000
    1.9436    4.0945   35.2205 C   0  0  0  0  0  0  0  0  0  0  0  0
    2.5291    3.2778   35.9158 O   0  5  0  0  0  0  0  0  0  0  0  0
    0.9712    4.7369   35.5966 O   0  0  0  0  0  0  0  0  0  0  0  0
    2.4643    4.3282   33.7885 C   0  0  1  0  0  0  0  0  0  0  0  0
    2.0301    5.6790   33.3183 N   0  3  0  0  0  0  0  0  0  0  0  0
    4.0078    4.2388   33.7456 C   0  0  0  0  0  0  0  0  0  0  0  0
    4.4589    2.7860   33.6694 C   0  0  0  0  0  0  0  0  0  0  0  0
    5.9427    2.7221   33.3144 C   0  0  0  0  0  0  0  0  0  0  0  0
    6.2684    1.3444   32.8300 N   0  0  0  0  0  0  0  0  0  0  0  0
    7.1912    1.1589   31.9244 C   0  0  0  0  0  0  0  0  0  0  0  0
    6.9475    0.5243   30.9005 O   0  0  0  0  0  0  0  0  0  0  0  0
    8.3871    1.6364   32.1115 N   0  0  0  0  0  0  0  0  0  0  0  0
  1  2  1  0  0  0  0
  1  3  2  0  0  0  0
  4  1  1  1  0  0  0
  4  6  1  0  0  0  0
  4  5  1  0  0  0  0
  6  7  1  0  0  0  0
  7  8  1  0  0  0  0
  8  9  1  0  0  0  0
  9 10  1  0  0  0  0
 10 12  1  0  0  0  0
 10 11  2  0  0  0  0
M  CHG  2   2  -1   5   1
M  END
>  <CHROM.1>
-156.93085615,81.93697411,72.87476919,167.36110477,-162.53948170,-32.30354231
4.41981645,3.06183023,33.52351316,-3.09284371,0.68349600,-0.93180372

>  <Name>
1kod cryst

>  <RI>
0

>  <Rbt.Current_Directory>
/home/itssahil/PROJECTS/Mol_Feturizer/New_Systems/rnas/1kod

>  <Rbt.Executable>
rbdock ($Id: //depot/dev/client3/rdock/2013.1/src/exe/rbdock.cxx#4 $)

>  <Rbt.Library>
libRbt.so (2013.1, Build901 2013/11/27)

>  <Rbt.Parameter_File>
/export/apps/rDock/src/rDock_2013.1_src/data/scripts/dock_solv.prm

>  <Rbt.Receptor>
prm/pocket_docking_7.prm

>  <SCORE>
-19.1769

>  <SCORE.INTER>
-15.3641

>  <SCORE.INTER.CONST>
1

>  <SCORE.INTER.POLAR>
-3.37798

>  <SCORE.INTER.ROT>
5

>  <SCORE.INTER.SOLV>
15.0272

>  <SCORE.INTER.VDW>
-10.9252

>  <SCORE.INTER.norm>
-1.28034

>  <SCORE.INTRA>
-3.81285

>  <SCORE.INTRA.DIHEDRAL>
-1.91524

>  <SCORE.INTRA.DIHEDRAL.0>
7.7847

>  <SCORE.INTRA.POLAR>
0

>  <SCORE.INTRA.POLAR.0>
0

>  <SCORE.INTRA.REPUL>
0

>  <SCORE.INTRA.REPUL.0>
0

>  <SCORE.INTRA.SOLV>
-2.48715

>  <SCORE.INTRA.SOLV.lig_0>
-57.5465

>  <SCORE.INTRA.VDW>
-1.61165

>  <SCORE.INTRA.VDW.0>
1.39369

>  <SCORE.INTRA.norm>
-0.317738

>  <SCORE.RESTR>
0

>  <SCORE.RESTR.CAVITY>
0

>  <SCORE.RESTR.norm>
0

>  <SCORE.SYSTEM>
0

>  <SCORE.SYSTEM.CONST>
0

>  <SCORE.SYSTEM.DIHEDRAL>
0

>  <SCORE.SYSTEM.SOLV>
0

>  <SCORE.SYSTEM.norm>
0

>  <SCORE.heavy>
12

>  <SCORE.norm>
-1.59808

>  <SYMMETRIC_BONDS>
4 1 2

>  <RMSD>
4.424

$$$$
1kod cryst
 OpenBabel11021811393D
libRbt.so/2013.1/901 2013/11/27
 12 11  0  0  0  0  0  0  0  0999 V2000
    0.8946    2.2156   40.3421 C   0  0  0  0  0  0  0  0  0  0  0  0
    0.0887    1.7044   41.1053 O   0  5  0  0  0  0  0  0  0  0  0  0
    1.0613    3.4243   40.2369 O   0  0  0  0  0  0  0  0  0  0  0  0
    1.7507    1.2808   39.4648 C   0  0  1  0  0  0  0  0  0  0  0  0
    1.5356   -0.1349   39.8937 N   0  3  0  0  0  0  0  0  0  0  0  0
    1.3719    1.4309   37.9727 C   0  0  0  0  0  0  0  0  0  0  0  0
    2.5138    0.9630   37.0799 C   0  0  0  0  0  0  0  0  0  0  0  0
    2.6180    1.8687   35.8548 C   0  0  0  0  0  0  0  0  0  0  0  0
    1.4802    1.5698   34.9303 N   0  0  0  0  0  0  0  0  0  0  0  0
    1.6324    1.6639   33.6365 C   0  0  0  0  0  0  0  0  0  0  0  0
    0.8658    2.3483   32.9623 O   0  0  0  0  0  0  0  0  0  0  0  0
    2.5954    1.0154   33.0491 N   0  0  0  0  0  0  0  0  0  0  0  0
  1  2  1  0  0  0  0
  1  3  2  0  0  0  0
  4  1  1  1  0  0  0
  4  6  1  0  0  0  0
  4  5  1  0  0  0  0
  6  7  1  0  0  0  0
  7  8  1  0  0  0  0
  8  9  1  0  0  0  0
  9 10  1  0  0  0  0
 10 12  1  0  0  0  0
 10 11  2  0  0  0  0
M  CHG  2   2  -1   5   1
M  END
>  <CHROM.1>
-8.24688481,157.98975697,-68.79229874,-142.15656338,-73.21039919,33.35206693
1.52000961,1.58961681,37.21985365,1.83435053,-1.06564089,1.79179993

>  <Name>
1kod cryst

>  <RI>
0

>  <Rbt.Current_Directory>
/home/itssahil/PROJECTS/Mol_Feturizer/New_Systems/rnas/1kod

>  <Rbt.Executable>
rbdock ($Id: //depot/dev/client3/rdock/2013.1/src/exe/rbdock.cxx#4 $)

>  <Rbt.Library>
libRbt.so (2013.1, Build901 2013/11/27)

>  <Rbt.Parameter_File>
/export/apps/rDock/src/rDock_2013.1_src/data/scripts/dock_solv.prm

>  <Rbt.Receptor>
prm/pocket_docking_8.prm

>  <SCORE>
-26.3983

>  <SCORE.INTER>
-23.5578

>  <SCORE.INTER.CONST>
1

>  <SCORE.INTER.POLAR>
-4.73951

>  <SCORE.INTER.ROT>
5

>  <SCORE.INTER.SOLV>
18.3632

>  <SCORE.INTER.VDW>
-12.9612

>  <SCORE.INTER.norm>
-1.96315

>  <SCORE.INTRA>
-2.84051

>  <SCORE.INTRA.DIHEDRAL>
1.09114

>  <SCORE.INTRA.DIHEDRAL.0>
7.7847

>  <SCORE.INTRA.POLAR>
0

>  <SCORE.INTRA.POLAR.0>
0

>  <SCORE.INTRA.REPUL>
0

>  <SCORE.INTRA.REPUL.0>
0

>  <SCORE.INTRA.SOLV>
-2.32638

>  <SCORE.INTRA.SOLV.lig_0>
-57.5465

>  <SCORE.INTRA.VDW>
-2.22289

>  <SCORE.INTRA.VDW.0>
1.39369

>  <SCORE.INTRA.norm>
-0.236709

>  <SCORE.RESTR>
0

>  <SCORE.RESTR.CAVITY>
0

>  <SCORE.RESTR.norm>
0

>  <SCORE.SYSTEM>
0

>  <SCORE.SYSTEM.CONST>
0

>  <SCORE.SYSTEM.DIHEDRAL>
0

>  <SCORE.SYSTEM.SOLV>
0

>  <SCORE.SYSTEM.norm>
0

>  <SCORE.heavy>
12

>  <SCORE.norm>
-2.19986

>  <SYMMETRIC_BONDS>
4 1 2

>  <RMSD>
4.440

$$$$
1kod cryst
 OpenBabel11021811393D
libRbt.so/2013.1/901 2013/11/27
 12 11  0  0  0  0  0  0  0  0999 V2000
    2.0789    2.4322   40.1027 C   0  0  0  0  0  0  0  0  0  0  0  0
    3.0427    3.1818   40.0534 O   0  5  0  0  0  0  0  0  0  0  0  0
    1.1427    2.5764   40.8788 O   0  0  0  0  0  0  0  0  0  0  0  0
    2.0425    1.2387   39.1276 C   0  0  1  0  0  0  0  0  0  0  0  0
    1.5393    0.0281   39.8458 N   0  3  0  0  0  0  0  0  0  0  0  0
    1.1217    1.5436   37.9229 C   0  0  0  0  0  0  0  0  0  0  0  0
    1.3083    0.5012   36.8281 C   0  0  0  0  0  0  0  0  0  0  0  0
    2.5838    0.7975   36.0425 C   0  0  0  0  0  0  0  0  0  0  0  0
    2.3527    1.9921   35.1718 N   0  0  0  0  0  0  0  0  0  0  0  0
    2.7343    1.9882   33.9226 C   0  0  0  0  0  0  0  0  0  0  0  0
    3.4490    2.8856   33.4817 O   0  0  0  0  0  0  0  0  0  0  0  0
    2.3433    1.0338   33.1292 N   0  0  0  0  0  0  0  0  0  0  0  0
  1  2  1  0  0  0  0
  1  3  2  0  0  0  0
  4  1  1  1  0  0  0
  4  6  1  0  0  0  0
  4  5  1  0  0  0  0
  6  7  1  0  0  0  0
  7  8  1  0  0  0  0
  8  9  1  0  0  0  0
  9 10  1  0  0  0  0
 10 12  1  0  0  0  0
 10 11  2  0  0  0  0
M  CHG  2   2  -1   5   1
M  END
>  <CHROM.1>
138.72718522,168.22653894,-56.20046818,-78.35443377,-73.17684821,45.54769127
2.13974674,1.67589097,37.22245442,-1.88890295,-1.09629520,-1.87295087

>  <Name>
1kod cryst

>  <RI>
0

>  <Rbt.Current_Directory>
/home/itssahil/PROJECTS/Mol_Feturizer/New_Systems/rnas/1kod

>  <Rbt.Executable>
rbdock ($Id: //depot/dev/client3/rdock/2013.1/src/exe/rbdock.cxx#4 $)

>  <Rbt.Library>
libRbt.so (2013.1, Build901 2013/11/27)

>  <Rbt.Parameter_File>
/export/apps/rDock/src/rDock_2013.1_src/data/scripts/dock_solv.prm

>  <Rbt.Receptor>
prm/pocket_docking_8.prm

>  <SCORE>
-22.1998

>  <SCORE.INTER>
-17.3607

>  <SCORE.INTER.CONST>
1

>  <SCORE.INTER.POLAR>
-3.16972

>  <SCORE.INTER.ROT>
5

>  <SCORE.INTER.SOLV>
15.348

>  <SCORE.INTER.VDW>
-13.0574

>  <SCORE.INTER.norm>
-1.44673

>  <SCORE.INTRA>
-4.83909

>  <SCORE.INTRA.DIHEDRAL>
-3.09276

>  <SCORE.INTRA.DIHEDRAL.0>
7.7847

>  <SCORE.INTRA.POLAR>
0

>  <SCORE.INTRA.POLAR.0>
0

>  <SCORE.INTRA.REPUL>
0

>  <SCORE.INTRA.REPUL.0>
0

>  <SCORE.INTRA.SOLV>
-1.87945

>  <SCORE.INTRA.SOLV.lig_0>
-57.5465

>  <SCORE.INTRA.VDW>
-2.35299

>  <SCORE.INTRA.VDW.0>
1.39369

>  <SCORE.INTRA.norm>
-0.403258

>  <SCORE.RESTR>
0

>  <SCORE.RESTR.CAVITY>
0

>  <SCORE.RESTR.norm>
0

>  <SCORE.SYSTEM>
0

>  <SCORE.SYSTEM.CONST>
0

>  <SCORE.SYSTEM.DIHEDRAL>
0

>  <SCORE.SYSTEM.SOLV>
0

>  <SCORE.SYSTEM.norm>
0

>  <SCORE.heavy>
12

>  <SCORE.norm>
-1.84998

>  <SYMMETRIC_BONDS>
4 1 2

>  <RMSD>
4.529

$$$$
1kod cryst
 OpenBabel11021811393D
libRbt.so/2013.1/901 2013/11/27
 12 11  0  0  0  0  0  0  0  0999 V2000
    1.6791    1.4725   33.9008 C   0  0  0  0  0  0  0  0  0  0  0  0
    1.4491    1.7309   32.7287 O   0  5  0  0  0  0  0  0  0  0  0  0
    1.7096    0.3354   34.3543 O   0  0  0  0  0  0  0  0  0  0  0  0
    1.9482    2.6491   34.8596 C   0  0  1  0  0  0  0  0  0  0  0  0
    1.0244    3.7773   34.5301 N   0  3  0  0  0  0  0  0  0  0  0  0
    1.7324    2.2184   36.3294 C   0  0  0  0  0  0  0  0  0  0  0  0
    1.9283    3.4010   37.2690 C   0  0  0  0  0  0  0  0  0  0  0  0
    2.1012    2.9014   38.7016 C   0  0  0  0  0  0  0  0  0  0  0  0
    0.9101    2.0772   39.0768 N   0  0  0  0  0  0  0  0  0  0  0  0
    0.8316    0.8224   38.7228 C   0  0  0  0  0  0  0  0  0  0  0  0
   -0.1515    0.4012   38.1173 O   0  0  0  0  0  0  0  0  0  0  0  0
    1.7957    0.0027   39.0260 N   0  0  0  0  0  0  0  0  0  0  0  0
  1  2  1  0  0  0  0
  1  3  2  0  0  0  0
  4  1  1  6  0  0  0
  4  6  1  0  0  0  0
  4  5  1  0  0  0  0
  6  7  1  0  0  0  0
  7  8  1  0  0  0  0
  8  9  1  0  0  0  0
  9 10  1  0  0  0  0
 10 12  1  0  0  0  0
 10 11  2  0  0  0  0
M  CHG  2   2  -1   5   1
M  END
>  <CHROM.1>
39.63367853,-177.05874959,64.53040667,-164.23652979,-56.90169551,-97.94406497
1.39109281,1.81034653,36.44732327,1.09637536,-1.41745114,-1.88297467

>  <Name>
1kod cryst

>  <RI>
0

>  <Rbt.Current_Directory>
/home/itssahil/PROJECTS/Mol_Feturizer/New_Systems/rnas/1kod

>  <Rbt.Executable>
rbdock ($Id: //depot/dev/client3/rdock/2013.1/src/exe/rbdock.cxx#4 $)

>  <Rbt.Library>
libRbt.so (2013.1, Build901 2013/11/27)

>  <Rbt.Parameter_File>
/export/apps/rDock/src/rDock_2013.1_src/data/scripts/dock_solv.prm

>  <Rbt.Receptor>
prm/pocket_docking_6.prm

>  <SCORE>
-26.1029

>  <SCORE.INTER>
-22.7102

>  <SCORE.INTER.CONST>
1

>  <SCORE.INTER.POLAR>
-4.94906

>  <SCORE.INTER.ROT>
5

>  <SCORE.INTER.SOLV>
17.5411

>  <SCORE.INTER.VDW>
-11.4236

>  <SCORE.INTER.norm>
-1.89252

>  <SCORE.INTRA>
-3.39275

>  <SCORE.INTRA.DIHEDRAL>
-4.4408

>  <SCORE.INTRA.DIHEDRAL.0>
7.7847

>  <SCORE.INTRA.POLAR>
0

>  <SCORE.INTRA.POLAR.0>
0

>  <SCORE.INTRA.REPUL>
0

>  <SCORE.INTRA.REPUL.0>
0

>  <SCORE.INTRA.SOLV>
-0.995431

>  <SCORE.INTRA.SOLV.lig_0>
-57.5465

>  <SCORE.INTRA.VDW>
-0.674633

>  <SCORE.INTRA.VDW.0>
1.39369

>  <SCORE.INTRA.norm>
-0.282729

>  <SCORE.RESTR>
0

>  <SCORE.RESTR.CAVITY>
0

>  <SCORE.RESTR.norm>
0

>  <SCORE.SYSTEM>
0

>  <SCORE.SYSTEM.CONST>
0

>  <SCORE.SYSTEM.DIHEDRAL>
0

>  <SCORE.SYSTEM.SOLV>
0

>  <SCORE.SYSTEM.norm>
0

>  <SCORE.heavy>
12

>  <SCORE.norm>
-2.17524

>  <SYMMETRIC_BONDS>
4 1 2

>  <RMSD>
4.542

$$$$
1kod cryst
 OpenBabel11021811393D
libRbt.so/2013.1/901 2013/11/27
 12 11  0  0  0  0  0  0  0  0999 V2000
    1.1089    2.4060   39.5902 C   0  0  0  0  0  0  0  0  0  0  0  0
   -0.0761    2.3483   39.8830 O   0  5  0  0  0  0  0  0  0  0  0  0
    1.8065    3.3970   39.7658 O   0  0  0  0  0  0  0  0  0  0  0  0
    1.7597    1.1556   38.9662 C   0  0  1  0  0  0  0  0  0  0  0  0
    1.5067   -0.0256   39.8467 N   0  3  0  0  0  0  0  0  0  0  0  0
    1.1816    0.8822   37.5579 C   0  0  0  0  0  0  0  0  0  0  0  0
    1.7827    1.8389   36.5365 C   0  0  0  0  0  0  0  0  0  0  0  0
    0.8955    3.0741   36.3987 C   0  0  0  0  0  0  0  0  0  0  0  0
    1.4314    3.9385   35.3013 N   0  0  0  0  0  0  0  0  0  0  0  0
    0.8166    4.0104   34.1512 C   0  0  0  0  0  0  0  0  0  0  0  0
    1.4204    3.7975   33.1021 O   0  0  0  0  0  0  0  0  0  0  0  0
   -0.4452    4.3256   34.1102 N   0  0  0  0  0  0  0  0  0  0  0  0
  1  2  1  0  0  0  0
  1  3  2  0  0  0  0
  4  1  1  1  0  0  0
  4  6  1  0  0  0  0
  4  5  1  0  0  0  0
  6  7  1  0  0  0  0
  7  8  1  0  0  0  0
  8  9  1  0  0  0  0
  9 10  1  0  0  0  0
 10 12  1  0  0  0  0
 10 11  2  0  0  0  0
M  CHG  2   2  -1   5   1
M  END
>  <CHROM.1>
-53.36827897,77.05129186,42.48494163,-92.40055801,-174.70072406,-73.45978412
1.08626248,2.59190304,37.11863318,1.35547630,-1.21285751,1.79030366

>  <Name>
1kod cryst

>  <RI>
0

>  <Rbt.Current_Directory>
/home/itssahil/PROJECTS/Mol_Feturizer/New_Systems/rnas/1kod

>  <Rbt.Executable>
rbdock ($Id: //depot/dev/client3/rdock/2013.1/src/exe/rbdock.cxx#4 $)

>  <Rbt.Library>
libRbt.so (2013.1, Build901 2013/11/27)

>  <Rbt.Parameter_File>
/export/apps/rDock/src/rDock_2013.1_src/data/scripts/dock_solv.prm

>  <Rbt.Receptor>
prm/pocket_docking_7.prm

>  <SCORE>
-21.4448

>  <SCORE.INTER>
-17.8005

>  <SCORE.INTER.CONST>
1

>  <SCORE.INTER.POLAR>
-3.11397

>  <SCORE.INTER.ROT>
5

>  <SCORE.INTER.SOLV>
17.7612

>  <SCORE.INTER.VDW>
-14.3408

>  <SCORE.INTER.norm>
-1.48338

>  <SCORE.INTRA>
-3.64426

>  <SCORE.INTRA.DIHEDRAL>
-0.332082

>  <SCORE.INTRA.DIHEDRAL.0>
7.7847

>  <SCORE.INTRA.POLAR>
0

>  <SCORE.INTRA.POLAR.0>
0

>  <SCORE.INTRA.REPUL>
0

>  <SCORE.INTRA.REPUL.0>
0

>  <SCORE.INTRA.SOLV>
-1.7176

>  <SCORE.INTRA.SOLV.lig_0>
-57.5465

>  <SCORE.INTRA.VDW>
-2.61941

>  <SCORE.INTRA.VDW.0>
1.39369

>  <SCORE.INTRA.norm>
-0.303688

>  <SCORE.RESTR>
0

>  <SCORE.RESTR.CAVITY>
0

>  <SCORE.RESTR.norm>
0

>  <SCORE.SYSTEM>
0

>  <SCORE.SYSTEM.CONST>
0

>  <SCORE.SYSTEM.DIHEDRAL>
0

>  <SCORE.SYSTEM.SOLV>
0

>  <SCORE.SYSTEM.norm>
0

>  <SCORE.heavy>
12

>  <SCORE.norm>
-1.78706

>  <SYMMETRIC_BONDS>
4 1 2

>  <RMSD>
4.548

$$$$
1kod cryst
 OpenBabel11021811393D
libRbt.so/2013.1/901 2013/11/27
 12 11  0  0  0  0  0  0  0  0999 V2000
    1.7668    1.8028   37.2384 C   0  0  0  0  0  0  0  0  0  0  0  0
    0.6567    1.7323   37.7443 O   0  5  0  0  0  0  0  0  0  0  0  0
    2.6897    2.4557   37.7091 O   0  0  0  0  0  0  0  0  0  0  0  0
    2.0159    1.0209   35.9335 C   0  0  1  0  0  0  0  0  0  0  0  0
    0.9285    0.0125   35.7455 N   0  3  0  0  0  0  0  0  0  0  0  0
    2.0472    1.9780   34.7189 C   0  0  0  0  0  0  0  0  0  0  0  0
    3.3333    2.7939   34.7122 C   0  0  0  0  0  0  0  0  0  0  0  0
    3.1473    4.0474   33.8601 C   0  0  0  0  0  0  0  0  0  0  0  0
    2.0660    4.8887   34.4615 N   0  0  0  0  0  0  0  0  0  0  0  0
    2.0383    6.1790   34.2608 C   0  0  0  0  0  0  0  0  0  0  0  0
    1.9791    6.9606   35.2074 O   0  0  0  0  0  0  0  0  0  0  0  0
    2.0579    6.6458   33.0463 N   0  0  0  0  0  0  0  0  0  0  0  0
  1  2  1  0  0  0  0
  1  3  2  0  0  0  0
  4  1  1  1  0  0  0
  4  6  1  0  0  0  0
  4  5  1  0  0  0  0
  6  7  1  0  0  0  0
  7  8  1  0  0  0  0
  8  9  1  0  0  0  0
  9 10  1  0  0  0  0
 10 12  1  0  0  0  0
 10 11  2  0  0  0  0
M  CHG  2   2  -1   5   1
M  END
>  <CHROM.1>
-15.73905923,72.98007231,-177.89491446,-159.41014408,61.74046587,-25.67140459
2.02714747,3.37116012,35.39707285,2.11180517,-1.33506228,-3.09083692

>  <Name>
1kod cryst

>  <RI>
0

>  <Rbt.Current_Directory>
/home/itssahil/PROJECTS/Mol_Feturizer/New_Systems/rnas/1kod

>  <Rbt.Executable>
rbdock ($Id: //depot/dev/client3/rdock/2013.1/src/exe/rbdock.cxx#4 $)

>  <Rbt.Library>
libRbt.so (2013.1, Build901 2013/11/27)

>  <Rbt.Parameter_File>
/export/apps/rDock/src/rDock_2013.1_src/data/scripts/dock_solv.prm

>  <Rbt.Receptor>
prm/pocket_docking_5.prm

>  <SCORE>
-23.0141

>  <SCORE.INTER>
-18.6445

>  <SCORE.INTER.CONST>
1

>  <SCORE.INTER.POLAR>
-4.13489

>  <SCORE.INTER.ROT>
5

>  <SCORE.INTER.SOLV>
18.3663

>  <SCORE.INTER.VDW>
-11.7022

>  <SCORE.INTER.norm>
-1.55371

>  <SCORE.INTRA>
-4.38662

>  <SCORE.INTRA.DIHEDRAL>
-3.33706

>  <SCORE.INTRA.DIHEDRAL.0>
7.7847

>  <SCORE.INTRA.POLAR>
0

>  <SCORE.INTRA.POLAR.0>
0

>  <SCORE.INTRA.REPUL>
0

>  <SCORE.INTRA.REPUL.0>
0

>  <SCORE.INTRA.SOLV>
-1.57113

>  <SCORE.INTRA.SOLV.lig_0>
-57.5465

>  <SCORE.INTRA.VDW>
-1.93252

>  <SCORE.INTRA.VDW.0>
1.39369

>  <SCORE.INTRA.norm>
-0.365552

>  <SCORE.RESTR>
0.0170041

>  <SCORE.RESTR.CAVITY>
0.0170041

>  <SCORE.RESTR.norm>
0.00141701

>  <SCORE.SYSTEM>
0

>  <SCORE.SYSTEM.CONST>
0

>  <SCORE.SYSTEM.DIHEDRAL>
0

>  <SCORE.SYSTEM.SOLV>
0

>  <SCORE.SYSTEM.norm>
0

>  <SCORE.heavy>
12

>  <SCORE.norm>
-1.91785

>  <SYMMETRIC_BONDS>
4 1 2

>  <RMSD>
4.553

$$$$
1kod cryst
 OpenBabel11021811393D
libRbt.so/2013.1/901 2013/11/27
 12 11  0  0  0  0  0  0  0  0999 V2000
    2.8876    2.7870   39.4854 C   0  0  0  0  0  0  0  0  0  0  0  0
    3.9280    3.4274   39.4572 O   0  5  0  0  0  0  0  0  0  0  0  0
    2.0299    2.9188   40.3494 O   0  0  0  0  0  0  0  0  0  0  0  0
    2.6440    1.7567   38.3650 C   0  0  1  0  0  0  0  0  0  0  0  0
    1.9738    0.5502   38.9393 N   0  3  0  0  0  0  0  0  0  0  0  0
    1.7559    2.3587   37.2509 C   0  0  0  0  0  0  0  0  0  0  0  0
    2.2351    1.9036   35.8786 C   0  0  0  0  0  0  0  0  0  0  0  0
    1.7516    2.8818   34.8103 C   0  0  0  0  0  0  0  0  0  0  0  0
    2.4292    4.2000   35.0150 N   0  0  0  0  0  0  0  0  0  0  0  0
    2.7659    4.9403   33.9929 C   0  0  0  0  0  0  0  0  0  0  0  0
    3.9186    5.3470   33.8648 O   0  0  0  0  0  0  0  0  0  0  0  0
    1.8707    5.2658   33.1065 N   0  0  0  0  0  0  0  0  0  0  0  0
  1  2  1  0  0  0  0
  1  3  2  0  0  0  0
  4  1  1  1  0  0  0
  4  6  1  0  0  0  0
  4  5  1  0  0  0  0
  6  7  1  0  0  0  0
  7  8  1  0  0  0  0
  8  9  1  0  0  0  0
  9 10  1  0  0  0  0
 10 12  1  0  0  0  0
 10 11  2  0  0  0  0
M  CHG  2   2  -1   5   1
M  END
>  <CHROM.1>
142.16388300,140.98882283,-57.67431951,-157.86360623,66.52396524,-35.43216808
2.51161636,3.19396472,36.73057312,-1.60167736,-1.01154322,-1.14687244

>  <Name>
1kod cryst

>  <RI>
0

>  <Rbt.Current_Directory>
/home/itssahil/PROJECTS/Mol_Feturizer/New_Systems/rnas/1kod

>  <Rbt.Executable>
rbdock ($Id: //depot/dev/client3/rdock/2013.1/src/exe/rbdock.cxx#4 $)

>  <Rbt.Library>
libRbt.so (2013.1, Build901 2013/11/27)

>  <Rbt.Parameter_File>
/export/apps/rDock/src/rDock_2013.1_src/data/scripts/dock_solv.prm

>  <Rbt.Receptor>
prm/pocket_docking_6.prm

>  <SCORE>
-22.2438

>  <SCORE.INTER>
-18.6272

>  <SCORE.INTER.CONST>
1

>  <SCORE.INTER.POLAR>
-3.81397

>  <SCORE.INTER.ROT>
5

>  <SCORE.INTER.SOLV>
12.5125

>  <SCORE.INTER.VDW>
-10.809

>  <SCORE.INTER.norm>
-1.55226

>  <SCORE.INTRA>
-3.61664

>  <SCORE.INTRA.DIHEDRAL>
0.200385

>  <SCORE.INTRA.DIHEDRAL.0>
7.7847

>  <SCORE.INTRA.POLAR>
0

>  <SCORE.INTRA.POLAR.0>
0

>  <SCORE.INTRA.REPUL>
0

>  <SCORE.INTRA.REPUL.0>
0

>  <SCORE.INTRA.SOLV>
-2.53231

>  <SCORE.INTRA.SOLV.lig_0>
-57.5465

>  <SCORE.INTRA.VDW>
-2.45068

>  <SCORE.INTRA.VDW.0>
1.39369

>  <SCORE.INTRA.norm>
-0.301387

>  <SCORE.RESTR>
0

>  <SCORE.RESTR.CAVITY>
0

>  <SCORE.RESTR.norm>
0

>  <SCORE.SYSTEM>
0

>  <SCORE.SYSTEM.CONST>
0

>  <SCORE.SYSTEM.DIHEDRAL>
0

>  <SCORE.SYSTEM.SOLV>
0

>  <SCORE.SYSTEM.norm>
0

>  <SCORE.heavy>
12

>  <SCORE.norm>
-1.85365

>  <SYMMETRIC_BONDS>
4 1 2

>  <RMSD>
4.607

$$$$
1kod cryst
 OpenBabel11021811393D
libRbt.so/2013.1/901 2013/11/27
 12 11  0  0  0  0  0  0  0  0999 V2000
    1.9923    0.7462   36.4937 C   0  0  0  0  0  0  0  0  0  0  0  0
    1.8619   -0.0681   35.5918 O   0  5  0  0  0  0  0  0  0  0  0  0
    1.5458    0.5890   37.6231 O   0  0  0  0  0  0  0  0  0  0  0  0
    2.7665    2.0436   36.1880 C   0  0  1  0  0  0  0  0  0  0  0  0
    4.1014    1.6989   35.6102 N   0  3  0  0  0  0  0  0  0  0  0  0
    1.9837    2.9257   35.1873 C   0  0  0  0  0  0  0  0  0  0  0  0
    2.1246    4.3990   35.5471 C   0  0  0  0  0  0  0  0  0  0  0  0
    1.1041    5.2232   34.7652 C   0  0  0  0  0  0  0  0  0  0  0  0
   -0.2719    4.8569   35.2245 N   0  0  0  0  0  0  0  0  0  0  0  0
   -0.7339    5.3026   36.3620 C   0  0  0  0  0  0  0  0  0  0  0  0
   -1.1852    4.5284   37.2030 O   0  0  0  0  0  0  0  0  0  0  0  0
   -0.7323    6.5810   36.6051 N   0  0  0  0  0  0  0  0  0  0  0  0
  1  2  1  0  0  0  0
  1  3  2  0  0  0  0
  4  1  1  6  0  0  0
  4  6  1  0  0  0  0
  4  5  1  0  0  0  0
  6  7  1  0  0  0  0
  7  8  1  0  0  0  0
  8  9  1  0  0  0  0
  9 10  1  0  0  0  0
 10 12  1  0  0  0  0
 10 11  2  0  0  0  0
M  CHG  2   2  -1   5   1
M  END
>  <CHROM.1>
-53.27874645,141.92841705,175.68917827,-166.98101658,66.14179787,-103.57772042
1.22246580,3.21664169,36.03979183,0.88639507,-0.51873425,2.76355638

>  <Name>
1kod cryst

>  <RI>
0

>  <Rbt.Current_Directory>
/home/itssahil/PROJECTS/Mol_Feturizer/New_Systems/rnas/1kod

>  <Rbt.Executable>
rbdock ($Id: //depot/dev/client3/rdock/2013.1/src/exe/rbdock.cxx#4 $)

>  <Rbt.Library>
libRbt.so (2013.1, Build901 2013/11/27)

>  <Rbt.Parameter_File>
/export/apps/rDock/src/rDock_2013.1_src/data/scripts/dock_solv.prm

>  <Rbt.Receptor>
prm/pocket_docking_4.prm

>  <SCORE>
-22.9369

>  <SCORE.INTER>
-18.5639

>  <SCORE.INTER.CONST>
1

>  <SCORE.INTER.POLAR>
-3.21789

>  <SCORE.INTER.ROT>
5

>  <SCORE.INTER.SOLV>
19.8393

>  <SCORE.INTER.VDW>
-15.1961

>  <SCORE.INTER.norm>
-1.54699

>  <SCORE.INTRA>
-4.37294

>  <SCORE.INTRA.DIHEDRAL>
-1.04745

>  <SCORE.INTRA.DIHEDRAL.0>
7.7847

>  <SCORE.INTRA.POLAR>
0

>  <SCORE.INTRA.POLAR.0>
0

>  <SCORE.INTRA.REPUL>
0

>  <SCORE.INTRA.REPUL.0>
0

>  <SCORE.INTRA.SOLV>
-2.33392

>  <SCORE.INTRA.SOLV.lig_0>
-57.5465

>  <SCORE.INTRA.VDW>
-2.68225

>  <SCORE.INTRA.VDW.0>
1.39369

>  <SCORE.INTRA.norm>
-0.364411

>  <SCORE.RESTR>
0

>  <SCORE.RESTR.CAVITY>
0

>  <SCORE.RESTR.norm>
0

>  <SCORE.SYSTEM>
0

>  <SCORE.SYSTEM.CONST>
0

>  <SCORE.SYSTEM.DIHEDRAL>
0

>  <SCORE.SYSTEM.SOLV>
0

>  <SCORE.SYSTEM.norm>
0

>  <SCORE.heavy>
12

>  <SCORE.norm>
-1.9114

>  <SYMMETRIC_BONDS>
4 1 2

>  <RMSD>
4.617

$$$$
1kod cryst
 OpenBabel11021811393D
libRbt.so/2013.1/901 2013/11/27
 12 11  0  0  0  0  0  0  0  0999 V2000
    3.3214    4.1998   35.1316 C   0  0  0  0  0  0  0  0  0  0  0  0
    2.4460    5.0126   35.3893 O   0  5  0  0  0  0  0  0  0  0  0  0
    4.4709    4.5058   34.8407 O   0  0  0  0  0  0  0  0  0  0  0  0
    2.9534    2.7036   35.1795 C   0  0  1  0  0  0  0  0  0  0  0  0
    3.3648    2.0516   33.8988 N   0  3  0  0  0  0  0  0  0  0  0  0
    3.6592    2.0036   36.3645 C   0  0  0  0  0  0  0  0  0  0  0  0
    3.3816    2.7433   37.6666 C   0  0  0  0  0  0  0  0  0  0  0  0
    3.0482    1.7421   38.7704 C   0  0  0  0  0  0  0  0  0  0  0  0
    1.5637    1.6936   38.9513 N   0  0  0  0  0  0  0  0  0  0  0  0
    0.9433    0.5487   39.0527 C   0  0  0  0  0  0  0  0  0  0  0  0
   -0.0069    0.2825   38.3201 O   0  0  0  0  0  0  0  0  0  0  0  0
    1.3225   -0.3160   39.9481 N   0  0  0  0  0  0  0  0  0  0  0  0
  1  2  1  0  0  0  0
  1  3  2  0  0  0  0
  4  1  1  6  0  0  0
  4  6  1  0  0  0  0
  4  5  1  0  0  0  0
  6  7  1  0  0  0  0
  7  8  1  0  0  0  0
  8  9  1  0  0  0  0
  9 10  1  0  0  0  0
 10 12  1  0  0  0  0
 10 11  2  0  0  0  0
M  CHG  2   2  -1   5   1
M  END
>  <CHROM.1>
127.95827671,53.06178355,37.31786591,135.81799365,-100.23627393,-45.66219426
2.53306339,2.25535662,36.93250469,-0.62882202,1.05465299,1.35323747

>  <Name>
1kod cryst

>  <RI>
0

>  <Rbt.Current_Directory>
/home/itssahil/PROJECTS/Mol_Feturizer/New_Systems/rnas/1kod

>  <Rbt.Executable>
rbdock ($Id: //depot/dev/client3/rdock/2013.1/src/exe/rbdock.cxx#4 $)

>  <Rbt.Library>
libRbt.so (2013.1, Build901 2013/11/27)

>  <Rbt.Parameter_File>
/export/apps/rDock/src/rDock_2013.1_src/data/scripts/dock_solv.prm

>  <Rbt.Receptor>
prm/pocket_docking_6.prm

>  <SCORE>
-18.605

>  <SCORE.INTER>
-17.9372

>  <SCORE.INTER.CONST>
1

>  <SCORE.INTER.POLAR>
-3.83271

>  <SCORE.INTER.ROT>
5

>  <SCORE.INTER.SOLV>
11.5052

>  <SCORE.INTER.VDW>
-9.95088

>  <SCORE.INTER.norm>
-1.49477

>  <SCORE.INTRA>
-0.667759

>  <SCORE.INTRA.DIHEDRAL>
5.05243

>  <SCORE.INTRA.DIHEDRAL.0>
7.7847

>  <SCORE.INTRA.POLAR>
0

>  <SCORE.INTRA.POLAR.0>
0

>  <SCORE.INTRA.REPUL>
0

>  <SCORE.INTRA.REPUL.0>
0

>  <SCORE.INTRA.SOLV>
-2.31113

>  <SCORE.INTRA.SOLV.lig_0>
-57.5465

>  <SCORE.INTRA.VDW>
-2.03841

>  <SCORE.INTRA.VDW.0>
1.39369

>  <SCORE.INTRA.norm>
-0.0556466

>  <SCORE.RESTR>
0

>  <SCORE.RESTR.CAVITY>
0

>  <SCORE.RESTR.norm>
0

>  <SCORE.SYSTEM>
0

>  <SCORE.SYSTEM.CONST>
0

>  <SCORE.SYSTEM.DIHEDRAL>
0

>  <SCORE.SYSTEM.SOLV>
0

>  <SCORE.SYSTEM.norm>
0

>  <SCORE.heavy>
12

>  <SCORE.norm>
-1.55042

>  <SYMMETRIC_BONDS>
4 1 2

>  <RMSD>
4.667

$$$$
1kod cryst
 OpenBabel11021811393D
libRbt.so/2013.1/901 2013/11/27
 12 11  0  0  0  0  0  0  0  0999 V2000
    1.6580    2.2656   40.6025 C   0  0  0  0  0  0  0  0  0  0  0  0
    2.4290    3.1845   40.8364 O   0  5  0  0  0  0  0  0  0  0  0  0
    0.5619    2.1439   41.1348 O   0  0  0  0  0  0  0  0  0  0  0  0
    2.0938    1.2018   39.5755 C   0  0  1  0  0  0  0  0  0  0  0  0
    1.4993   -0.1182   39.9478 N   0  3  0  0  0  0  0  0  0  0  0  0
    1.6313    1.5927   38.1523 C   0  0  0  0  0  0  0  0  0  0  0  0
    2.7630    1.4050   37.1503 C   0  0  0  0  0  0  0  0  0  0  0  0
    2.3158    0.4639   36.0340 C   0  0  0  0  0  0  0  0  0  0  0  0
    1.5508    1.2471   35.0143 N   0  0  0  0  0  0  0  0  0  0  0  0
    2.1486    2.1492   34.2830 C   0  0  0  0  0  0  0  0  0  0  0  0
    1.7154    3.2978   34.2244 O   0  0  0  0  0  0  0  0  0  0  0  0
    3.2059    1.8286   33.5955 N   0  0  0  0  0  0  0  0  0  0  0  0
  1  2  1  0  0  0  0
  1  3  2  0  0  0  0
  4  1  1  1  0  0  0
  4  6  1  0  0  0  0
  4  5  1  0  0  0  0
  6  7  1  0  0  0  0
  7  8  1  0  0  0  0
  8  9  1  0  0  0  0
  9 10  1  0  0  0  0
 10 12  1  0  0  0  0
 10 11  2  0  0  0  0
M  CHG  2   2  -1   5   1
M  END
>  <CHROM.1>
148.67035372,134.05821145,-58.47220359,123.42665022,83.12705104,-112.86186725
1.95226158,1.71209076,37.55621302,-3.08633191,-1.44806018,-3.05919177

>  <Name>
1kod cryst

>  <RI>
0

>  <Rbt.Current_Directory>
/home/itssahil/PROJECTS/Mol_Feturizer/New_Systems/rnas/1kod

>  <Rbt.Executable>
rbdock ($Id: //depot/dev/client3/rdock/2013.1/src/exe/rbdock.cxx#4 $)

>  <Rbt.Library>
libRbt.so (2013.1, Build901 2013/11/27)

>  <Rbt.Parameter_File>
/export/apps/rDock/src/rDock_2013.1_src/data/scripts/dock_solv.prm

>  <Rbt.Receptor>
prm/pocket_docking_8.prm

>  <SCORE>
-21.0487

>  <SCORE.INTER>
-20.7186

>  <SCORE.INTER.CONST>
1

>  <SCORE.INTER.POLAR>
-4.1911

>  <SCORE.INTER.ROT>
5

>  <SCORE.INTER.SOLV>
15.3238

>  <SCORE.INTER.VDW>
-11.8833

>  <SCORE.INTER.norm>
-1.72655

>  <SCORE.INTRA>
-0.330113

>  <SCORE.INTRA.DIHEDRAL>
6.79159

>  <SCORE.INTRA.DIHEDRAL.0>
7.7847

>  <SCORE.INTRA.POLAR>
0

>  <SCORE.INTRA.POLAR.0>
0

>  <SCORE.INTRA.REPUL>
0

>  <SCORE.INTRA.REPUL.0>
0

>  <SCORE.INTRA.SOLV>
-2.04705

>  <SCORE.INTRA.SOLV.lig_0>
-57.5465

>  <SCORE.INTRA.VDW>
-2.70238

>  <SCORE.INTRA.VDW.0>
1.39369

>  <SCORE.INTRA.norm>
-0.0275094

>  <SCORE.RESTR>
0

>  <SCORE.RESTR.CAVITY>
0

>  <SCORE.RESTR.norm>
0

>  <SCORE.SYSTEM>
0

>  <SCORE.SYSTEM.CONST>
0

>  <SCORE.SYSTEM.DIHEDRAL>
0

>  <SCORE.SYSTEM.SOLV>
0

>  <SCORE.SYSTEM.norm>
0

>  <SCORE.heavy>
12

>  <SCORE.norm>
-1.75406

>  <SYMMETRIC_BONDS>
4 1 2

>  <RMSD>
4.723

$$$$
1kod cryst
 OpenBabel11021811393D
libRbt.so/2013.1/901 2013/11/27
 12 11  0  0  0  0  0  0  0  0999 V2000
    1.8378    2.8848   39.4344 C   0  0  0  0  0  0  0  0  0  0  0  0
    2.7030    3.7206   39.6495 O   0  5  0  0  0  0  0  0  0  0  0  0
    0.7216    2.9150   39.9372 O   0  0  0  0  0  0  0  0  0  0  0  0
    2.1746    1.7290   38.4717 C   0  0  1  0  0  0  0  0  0  0  0  0
    1.6778    0.4429   39.0495 N   0  3  0  0  0  0  0  0  0  0  0  0
    1.5210    1.9596   37.0890 C   0  0  0  0  0  0  0  0  0  0  0  0
    2.2374    3.0732   36.3364 C   0  0  0  0  0  0  0  0  0  0  0  0
    1.6016    3.2611   34.9608 C   0  0  0  0  0  0  0  0  0  0  0  0
    2.3481    4.3259   34.2208 N   0  0  0  0  0  0  0  0  0  0  0  0
    1.8196    5.5070   34.0427 C   0  0  0  0  0  0  0  0  0  0  0  0
    1.7376    5.9950   32.9177 O   0  0  0  0  0  0  0  0  0  0  0  0
    1.3879    6.1841   35.0666 N   0  0  0  0  0  0  0  0  0  0  0  0
  1  2  1  0  0  0  0
  1  3  2  0  0  0  0
  4  1  1  1  0  0  0
  4  6  1  0  0  0  0
  4  5  1  0  0  0  0
  6  7  1  0  0  0  0
  7  8  1  0  0  0  0
  8  9  1  0  0  0  0
  9 10  1  0  0  0  0
 10 12  1  0  0  0  0
 10 11  2  0  0  0  0
M  CHG  2   2  -1   5   1
M  END
>  <CHROM.1>
136.08417130,72.61655520,159.98050268,178.52758999,-178.09921163,73.06213794
1.80571144,3.49778051,36.79056063,1.80070384,-1.51973172,2.36305321

>  <Name>
1kod cryst

>  <RI>
0

>  <Rbt.Current_Directory>
/home/itssahil/PROJECTS/Mol_Feturizer/New_Systems/rnas/1kod

>  <Rbt.Executable>
rbdock ($Id: //depot/dev/client3/rdock/2013.1/src/exe/rbdock.cxx#4 $)

>  <Rbt.Library>
libRbt.so (2013.1, Build901 2013/11/27)

>  <Rbt.Parameter_File>
/export/apps/rDock/src/rDock_2013.1_src/data/scripts/dock_solv.prm

>  <Rbt.Receptor>
prm/pocket_docking_6.prm

>  <SCORE>
-20.574

>  <SCORE.INTER>
-14.7182

>  <SCORE.INTER.CONST>
1

>  <SCORE.INTER.POLAR>
-3.40421

>  <SCORE.INTER.ROT>
5

>  <SCORE.INTER.SOLV>
12.8951

>  <SCORE.INTER.VDW>
-9.69647

>  <SCORE.INTER.norm>
-1.22652

>  <SCORE.INTRA>
-5.85581

>  <SCORE.INTRA.DIHEDRAL>
-4.08063

>  <SCORE.INTRA.DIHEDRAL.0>
7.7847

>  <SCORE.INTRA.POLAR>
0

>  <SCORE.INTRA.POLAR.0>
0

>  <SCORE.INTRA.REPUL>
0

>  <SCORE.INTRA.REPUL.0>
0

>  <SCORE.INTRA.SOLV>
-2.62964

>  <SCORE.INTRA.SOLV.lig_0>
-57.5465

>  <SCORE.INTRA.VDW>
-2.50067

>  <SCORE.INTRA.VDW.0>
1.39369

>  <SCORE.INTRA.norm>
-0.487984

>  <SCORE.RESTR>
0

>  <SCORE.RESTR.CAVITY>
0

>  <SCORE.RESTR.norm>
0

>  <SCORE.SYSTEM>
0

>  <SCORE.SYSTEM.CONST>
0

>  <SCORE.SYSTEM.DIHEDRAL>
0

>  <SCORE.SYSTEM.SOLV>
0

>  <SCORE.SYSTEM.norm>
0

>  <SCORE.heavy>
12

>  <SCORE.norm>
-1.7145

>  <SYMMETRIC_BONDS>
4 1 2

>  <RMSD>
4.760

$$$$
1kod cryst
 OpenBabel11021811393D
libRbt.so/2013.1/901 2013/11/27
 12 11  0  0  0  0  0  0  0  0999 V2000
    1.8418    1.9814   37.7997 C   0  0  0  0  0  0  0  0  0  0  0  0
    2.1993    1.1125   38.5811 O   0  5  0  0  0  0  0  0  0  0  0  0
    1.2461    2.9970   38.1362 O   0  0  0  0  0  0  0  0  0  0  0  0
    2.1638    1.7844   36.3051 C   0  0  1  0  0  0  0  0  0  0  0  0
    1.6230    0.4666   35.8518 N   0  3  0  0  0  0  0  0  0  0  0  0
    1.5403    2.9172   35.4565 C   0  0  0  0  0  0  0  0  0  0  0  0
    2.5426    3.4342   34.4329 C   0  0  0  0  0  0  0  0  0  0  0  0
    1.8973    4.5249   33.5809 C   0  0  0  0  0  0  0  0  0  0  0  0
    1.4928    5.6599   34.4678 N   0  0  0  0  0  0  0  0  0  0  0  0
    2.1955    6.7604   34.5016 C   0  0  0  0  0  0  0  0  0  0  0  0
    2.6067    7.2103   35.5688 O   0  0  0  0  0  0  0  0  0  0  0  0
    2.4522    7.3987   33.3971 N   0  0  0  0  0  0  0  0  0  0  0  0
  1  2  1  0  0  0  0
  1  3  2  0  0  0  0
  4  1  1  1  0  0  0
  4  6  1  0  0  0  0
  4  5  1  0  0  0  0
  6  7  1  0  0  0  0
  7  8  1  0  0  0  0
  8  9  1  0  0  0  0
  9 10  1  0  0  0  0
 10 12  1  0  0  0  0
 10 11  2  0  0  0  0
M  CHG  2   2  -1   5   1
M  END
>  <CHROM.1>
54.69115454,135.19436242,-160.50077104,178.48885344,61.15194139,-76.19741193
1.97344766,3.84100277,35.68495773,-2.81530871,-1.49638674,-1.78387064

>  <Name>
1kod cryst

>  <RI>
0

>  <Rbt.Current_Directory>
/home/itssahil/PROJECTS/Mol_Feturizer/New_Systems/rnas/1kod

>  <Rbt.Executable>
rbdock ($Id: //depot/dev/client3/rdock/2013.1/src/exe/rbdock.cxx#4 $)

>  <Rbt.Library>
libRbt.so (2013.1, Build901 2013/11/27)

>  <Rbt.Parameter_File>
/export/apps/rDock/src/rDock_2013.1_src/data/scripts/dock_solv.prm

>  <Rbt.Receptor>
prm/pocket_docking_7.prm

>  <SCORE>
-20.2269

>  <SCORE.INTER>
-17.3599

>  <SCORE.INTER.CONST>
1

>  <SCORE.INTER.POLAR>
-3.22977

>  <SCORE.INTER.ROT>
5

>  <SCORE.INTER.SOLV>
15.6588

>  <SCORE.INTER.VDW>
-12.9603

>  <SCORE.INTER.norm>
-1.44666

>  <SCORE.INTRA>
-2.86706

>  <SCORE.INTRA.DIHEDRAL>
-0.306142

>  <SCORE.INTRA.DIHEDRAL.0>
7.7847

>  <SCORE.INTRA.POLAR>
0

>  <SCORE.INTRA.POLAR.0>
0

>  <SCORE.INTRA.REPUL>
0

>  <SCORE.INTRA.REPUL.0>
0

>  <SCORE.INTRA.SOLV>
-2.47264

>  <SCORE.INTRA.SOLV.lig_0>
-57.5465

>  <SCORE.INTRA.VDW>
-1.47766

>  <SCORE.INTRA.VDW.0>
1.39369

>  <SCORE.INTRA.norm>
-0.238921

>  <SCORE.RESTR>
0

>  <SCORE.RESTR.CAVITY>
0

>  <SCORE.RESTR.norm>
0

>  <SCORE.SYSTEM>
0

>  <SCORE.SYSTEM.CONST>
0

>  <SCORE.SYSTEM.DIHEDRAL>
0

>  <SCORE.SYSTEM.SOLV>
0

>  <SCORE.SYSTEM.norm>
0

>  <SCORE.heavy>
12

>  <SCORE.norm>
-1.68558

>  <SYMMETRIC_BONDS>
4 1 2

>  <RMSD>
4.763

$$$$
1kod cryst
 OpenBabel11021811393D
libRbt.so/2013.1/901 2013/11/27
 12 11  0  0  0  0  0  0  0  0999 V2000
    3.6142    3.1234   35.1885 C   0  0  0  0  0  0  0  0  0  0  0  0
    3.8390    4.3183   35.3108 O   0  5  0  0  0  0  0  0  0  0  0  0
    4.4285    2.3179   34.7551 O   0  0  0  0  0  0  0  0  0  0  0  0
    2.2247    2.6040   35.6078 C   0  0  1  0  0  0  0  0  0  0  0  0
    1.8335    1.4659   34.7211 N   0  3  0  0  0  0  0  0  0  0  0  0
    2.2386    2.1296   37.0799 C   0  0  0  0  0  0  0  0  0  0  0  0
    1.9111    3.2838   38.0183 C   0  0  0  0  0  0  0  0  0  0  0  0
    1.8299    2.7756   39.4560 C   0  0  0  0  0  0  0  0  0  0  0  0
    0.6479    1.8674   39.5853 N   0  0  0  0  0  0  0  0  0  0  0  0
    0.6703    0.6689   39.0666 C   0  0  0  0  0  0  0  0  0  0  0  0
   -0.2199    0.2977   38.3048 O   0  0  0  0  0  0  0  0  0  0  0  0
    1.6358   -0.1494   39.3689 N   0  0  0  0  0  0  0  0  0  0  0  0
  1  2  1  0  0  0  0
  1  3  2  0  0  0  0
  4  1  1  6  0  0  0
  4  6  1  0  0  0  0
  4  5  1  0  0  0  0
  6  7  1  0  0  0  0
  7  8  1  0  0  0  0
  8  9  1  0  0  0  0
  9 10  1  0  0  0  0
 10 12  1  0  0  0  0
 10 11  2  0  0  0  0
M  CHG  2   2  -1   5   1
M  END
>  <CHROM.1>
146.70665070,88.78381226,-172.31570638,175.92238537,-67.02587992,-106.79921520
2.05423464,2.02506670,37.17591036,-0.48480054,0.96143721,1.02692645

>  <Name>
1kod cryst

>  <RI>
0

>  <Rbt.Current_Directory>
/home/itssahil/PROJECTS/Mol_Feturizer/New_Systems/rnas/1kod

>  <Rbt.Executable>
rbdock ($Id: //depot/dev/client3/rdock/2013.1/src/exe/rbdock.cxx#4 $)

>  <Rbt.Library>
libRbt.so (2013.1, Build901 2013/11/27)

>  <Rbt.Parameter_File>
/export/apps/rDock/src/rDock_2013.1_src/data/scripts/dock_solv.prm

>  <Rbt.Receptor>
prm/pocket_docking_8.prm

>  <SCORE>
-24.2008

>  <SCORE.INTER>
-19.741

>  <SCORE.INTER.CONST>
1

>  <SCORE.INTER.POLAR>
-4.41875

>  <SCORE.INTER.ROT>
5

>  <SCORE.INTER.SOLV>
10.938

>  <SCORE.INTER.VDW>
-9.01086

>  <SCORE.INTER.norm>
-1.64509

>  <SCORE.INTRA>
-4.45979

>  <SCORE.INTRA.DIHEDRAL>
-2.74654

>  <SCORE.INTRA.DIHEDRAL.0>
7.7847

>  <SCORE.INTRA.POLAR>
0

>  <SCORE.INTRA.POLAR.0>
0

>  <SCORE.INTRA.REPUL>
0

>  <SCORE.INTRA.REPUL.0>
0

>  <SCORE.INTRA.SOLV>
-1.67699

>  <SCORE.INTRA.SOLV.lig_0>
-57.5465

>  <SCORE.INTRA.VDW>
-2.24802

>  <SCORE.INTRA.VDW.0>
1.39369

>  <SCORE.INTRA.norm>
-0.371649

>  <SCORE.RESTR>
0

>  <SCORE.RESTR.CAVITY>
0

>  <SCORE.RESTR.norm>
0

>  <SCORE.SYSTEM>
0

>  <SCORE.SYSTEM.CONST>
0

>  <SCORE.SYSTEM.DIHEDRAL>
0

>  <SCORE.SYSTEM.SOLV>
0

>  <SCORE.SYSTEM.norm>
0

>  <SCORE.heavy>
12

>  <SCORE.norm>
-2.01673

>  <SYMMETRIC_BONDS>
4 1 2

>  <RMSD>
4.791

$$$$
1kod cryst
 OpenBabel11021811393D
libRbt.so/2013.1/901 2013/11/27
 12 11  0  0  0  0  0  0  0  0999 V2000
    1.6298    1.7405   37.9545 C   0  0  0  0  0  0  0  0  0  0  0  0
    2.4630    2.0381   38.7975 O   0  5  0  0  0  0  0  0  0  0  0  0
    0.4726    1.4381   38.2175 O   0  0  0  0  0  0  0  0  0  0  0  0
    2.0645    1.7502   36.4755 C   0  0  1  0  0  0  0  0  0  0  0  0
    1.6308    0.4767   35.8239 N   0  3  0  0  0  0  0  0  0  0  0  0
    1.4383    2.9511   35.7285 C   0  0  0  0  0  0  0  0  0  0  0  0
    2.2208    3.2598   34.4587 C   0  0  0  0  0  0  0  0  0  0  0  0
    1.6055    4.4649   33.7510 C   0  0  0  0  0  0  0  0  0  0  0  0
    1.6005    5.6302   34.6895 N   0  0  0  0  0  0  0  0  0  0  0  0
    2.4691    6.5963   34.5546 C   0  0  0  0  0  0  0  0  0  0  0  0
    3.1719    6.9453   35.5005 O   0  0  0  0  0  0  0  0  0  0  0  0
    2.5839    7.2088   33.4123 N   0  0  0  0  0  0  0  0  0  0  0  0
  1  2  1  0  0  0  0
  1  3  2  0  0  0  0
  4  1  1  1  0  0  0
  4  6  1  0  0  0  0
  4  5  1  0  0  0  0
  6  7  1  0  0  0  0
  7  8  1  0  0  0  0
  8  9  1  0  0  0  0
  9 10  1  0  0  0  0
 10 12  1  0  0  0  0
 10 11  2  0  0  0  0
M  CHG  2   2  -1   5   1
M  END
>  <CHROM.1>
131.36288216,159.76366002,78.39190094,-178.83003337,57.55603693,-75.92611943
1.94069759,3.69445323,35.78796436,-2.17658554,-1.30751100,-1.15690025

>  <Name>
1kod cryst

>  <RI>
0

>  <Rbt.Current_Directory>
/home/itssahil/PROJECTS/Mol_Feturizer/New_Systems/rnas/1kod

>  <Rbt.Executable>
rbdock ($Id: //depot/dev/client3/rdock/2013.1/src/exe/rbdock.cxx#4 $)

>  <Rbt.Library>
libRbt.so (2013.1, Build901 2013/11/27)

>  <Rbt.Parameter_File>
/export/apps/rDock/src/rDock_2013.1_src/data/scripts/dock_solv.prm

>  <Rbt.Receptor>
prm/pocket_docking_7.prm

>  <SCORE>
-25.9848

>  <SCORE.INTER>
-20.752

>  <SCORE.INTER.CONST>
1

>  <SCORE.INTER.POLAR>
-3.9992

>  <SCORE.INTER.ROT>
5

>  <SCORE.INTER.SOLV>
15.5913

>  <SCORE.INTER.VDW>
-12.6344

>  <SCORE.INTER.norm>
-1.72934

>  <SCORE.INTRA>
-5.23279

>  <SCORE.INTRA.DIHEDRAL>
-3.42948

>  <SCORE.INTRA.DIHEDRAL.0>
7.7847

>  <SCORE.INTRA.POLAR>
0

>  <SCORE.INTRA.POLAR.0>
0

>  <SCORE.INTRA.REPUL>
0

>  <SCORE.INTRA.REPUL.0>
0

>  <SCORE.INTRA.SOLV>
-2.33077

>  <SCORE.INTRA.SOLV.lig_0>
-57.5465

>  <SCORE.INTRA.VDW>
-2.35267

>  <SCORE.INTRA.VDW.0>
1.39369

>  <SCORE.INTRA.norm>
-0.436066

>  <SCORE.RESTR>
0

>  <SCORE.RESTR.CAVITY>
0

>  <SCORE.RESTR.norm>
0

>  <SCORE.SYSTEM>
0

>  <SCORE.SYSTEM.CONST>
0

>  <SCORE.SYSTEM.DIHEDRAL>
0

>  <SCORE.SYSTEM.SOLV>
0

>  <SCORE.SYSTEM.norm>
0

>  <SCORE.heavy>
12

>  <SCORE.norm>
-2.1654

>  <SYMMETRIC_BONDS>
4 1 2

>  <RMSD>
4.816

$$$$
1kod cryst
 OpenBabel11021811393D
libRbt.so/2013.1/901 2013/11/27
 12 11  0  0  0  0  0  0  0  0999 V2000
    0.1731    0.4174   39.8280 C   0  0  0  0  0  0  0  0  0  0  0  0
   -0.4803    0.3405   38.7982 O   0  5  0  0  0  0  0  0  0  0  0  0
    0.0514   -0.3541   40.7712 O   0  0  0  0  0  0  0  0  0  0  0  0
    1.2114    1.5512   39.9406 C   0  0  1  0  0  0  0  0  0  0  0  0
    1.9473    1.4216   41.2353 N   0  3  0  0  0  0  0  0  0  0  0  0
    2.2175    1.4911   38.7674 C   0  0  0  0  0  0  0  0  0  0  0  0
    1.5280    1.8289   37.4519 C   0  0  0  0  0  0  0  0  0  0  0  0
    2.3283    1.2544   36.2851 C   0  0  0  0  0  0  0  0  0  0  0  0
    1.6248    1.5800   35.0053 N   0  0  0  0  0  0  0  0  0  0  0  0
    2.2365    2.2423   34.0602 C   0  0  0  0  0  0  0  0  0  0  0  0
    1.7391    3.2602   33.5839 O   0  0  0  0  0  0  0  0  0  0  0  0
    3.3779    1.8146   33.6045 N   0  0  0  0  0  0  0  0  0  0  0  0
  1  2  1  0  0  0  0
  1  3  2  0  0  0  0
  4  1  1  6  0  0  0
  4  6  1  0  0  0  0
  4  5  1  0  0  0  0
  6  7  1  0  0  0  0
  7  8  1  0  0  0  0
  8  9  1  0  0  0  0
  9 10  1  0  0  0  0
 10 12  1  0  0  0  0
 10 11  2  0  0  0  0
M  CHG  2   2  -1   5   1
M  END
>  <CHROM.1>
-176.92684733,67.88016681,-48.60762464,-157.87935988,179.20132788,-57.12200844
1.50115268,1.39588235,37.46038912,1.84272168,0.46534649,1.69358413

>  <Name>
1kod cryst

>  <RI>
0

>  <Rbt.Current_Directory>
/home/itssahil/PROJECTS/Mol_Feturizer/New_Systems/rnas/1kod

>  <Rbt.Executable>
rbdock ($Id: //depot/dev/client3/rdock/2013.1/src/exe/rbdock.cxx#4 $)

>  <Rbt.Library>
libRbt.so (2013.1, Build901 2013/11/27)

>  <Rbt.Parameter_File>
/export/apps/rDock/src/rDock_2013.1_src/data/scripts/dock_solv.prm

>  <Rbt.Receptor>
prm/pocket_docking_8.prm

>  <SCORE>
-27.3531

>  <SCORE.INTER>
-23.0644

>  <SCORE.INTER.CONST>
1

>  <SCORE.INTER.POLAR>
-4.95319

>  <SCORE.INTER.ROT>
5

>  <SCORE.INTER.SOLV>
17.3125

>  <SCORE.INTER.VDW>
-11.5698

>  <SCORE.INTER.norm>
-1.92203

>  <SCORE.INTRA>
-4.28867

>  <SCORE.INTRA.DIHEDRAL>
-3.18135

>  <SCORE.INTRA.DIHEDRAL.0>
7.7847

>  <SCORE.INTRA.POLAR>
0

>  <SCORE.INTRA.POLAR.0>
0

>  <SCORE.INTRA.REPUL>
0

>  <SCORE.INTRA.REPUL.0>
0

>  <SCORE.INTRA.SOLV>
-2.09139

>  <SCORE.INTRA.SOLV.lig_0>
-57.5465

>  <SCORE.INTRA.VDW>
-1.6523

>  <SCORE.INTRA.VDW.0>
1.39369

>  <SCORE.INTRA.norm>
-0.357389

>  <SCORE.RESTR>
0

>  <SCORE.RESTR.CAVITY>
0

>  <SCORE.RESTR.norm>
0

>  <SCORE.SYSTEM>
0

>  <SCORE.SYSTEM.CONST>
0

>  <SCORE.SYSTEM.DIHEDRAL>
0

>  <SCORE.SYSTEM.SOLV>
0

>  <SCORE.SYSTEM.norm>
0

>  <SCORE.heavy>
12

>  <SCORE.norm>
-2.27942

>  <SYMMETRIC_BONDS>
4 1 2

>  <RMSD>
4.890

$$$$
1kod cryst
 OpenBabel11021811393D
libRbt.so/2013.1/901 2013/11/27
 12 11  0  0  0  0  0  0  0  0999 V2000
    3.1334    2.6490   39.2529 C   0  0  0  0  0  0  0  0  0  0  0  0
    2.4173    2.9604   40.1929 O   0  5  0  0  0  0  0  0  0  0  0  0
    4.2779    3.0581   39.1036 O   0  0  0  0  0  0  0  0  0  0  0  0
    2.5592    1.6828   38.1978 C   0  0  1  0  0  0  0  0  0  0  0  0
    1.8639    0.5534   38.8873 N   0  3  0  0  0  0  0  0  0  0  0  0
    1.5603    2.4146   37.2711 C   0  0  0  0  0  0  0  0  0  0  0  0
    2.2126    3.6367   36.6379 C   0  0  0  0  0  0  0  0  0  0  0  0
    1.1821    4.4057   35.8143 C   0  0  0  0  0  0  0  0  0  0  0  0
    1.7426    5.7480   35.4639 N   0  0  0  0  0  0  0  0  0  0  0  0
    2.3250    5.9452   34.3115 C   0  0  0  0  0  0  0  0  0  0  0  0
    3.4576    6.4188   34.2533 O   0  0  0  0  0  0  0  0  0  0  0  0
    1.6967    5.6527   33.2102 N   0  0  0  0  0  0  0  0  0  0  0  0
  1  2  1  0  0  0  0
  1  3  2  0  0  0  0
  4  1  1  1  0  0  0
  4  6  1  0  0  0  0
  4  5  1  0  0  0  0
  6  7  1  0  0  0  0
  7  8  1  0  0  0  0
  8  9  1  0  0  0  0
  9 10  1  0  0  0  0
 10 12  1  0  0  0  0
 10 11  2  0  0  0  0
M  CHG  2   2  -1   5   1
M  END
>  <CHROM.1>
-44.98978934,54.96044526,-167.02919048,-175.61148364,167.14468796,-83.98711731
2.36820397,3.74954208,36.89653716,-1.48273635,-0.74781694,-0.84608003

>  <Name>
1kod cryst

>  <RI>
0

>  <Rbt.Current_Directory>
/home/itssahil/PROJECTS/Mol_Feturizer/New_Systems/rnas/1kod

>  <Rbt.Executable>
rbdock ($Id: //depot/dev/client3/rdock/2013.1/src/exe/rbdock.cxx#4 $)

>  <Rbt.Library>
libRbt.so (2013.1, Build901 2013/11/27)

>  <Rbt.Parameter_File>
/export/apps/rDock/src/rDock_2013.1_src/data/scripts/dock_solv.prm

>  <Rbt.Receptor>
prm/pocket_docking_5.prm

>  <SCORE>
-24.1524

>  <SCORE.INTER>
-18.569

>  <SCORE.INTER.CONST>
1

>  <SCORE.INTER.POLAR>
-4.05856

>  <SCORE.INTER.ROT>
5

>  <SCORE.INTER.SOLV>
13.3952

>  <SCORE.INTER.VDW>
-10.2492

>  <SCORE.INTER.norm>
-1.54741

>  <SCORE.INTRA>
-5.58349

>  <SCORE.INTRA.DIHEDRAL>
-4.36871

>  <SCORE.INTRA.DIHEDRAL.0>
7.7847

>  <SCORE.INTRA.POLAR>
0

>  <SCORE.INTRA.POLAR.0>
0

>  <SCORE.INTRA.REPUL>
0

>  <SCORE.INTRA.REPUL.0>
0

>  <SCORE.INTRA.SOLV>
-2.47399

>  <SCORE.INTRA.SOLV.lig_0>
-57.5465

>  <SCORE.INTRA.VDW>
-2.16214

>  <SCORE.INTRA.VDW.0>
1.39369

>  <SCORE.INTRA.norm>
-0.46529

>  <SCORE.RESTR>
0

>  <SCORE.RESTR.CAVITY>
0

>  <SCORE.RESTR.norm>
0

>  <SCORE.SYSTEM>
0

>  <SCORE.SYSTEM.CONST>
0

>  <SCORE.SYSTEM.DIHEDRAL>
0

>  <SCORE.SYSTEM.SOLV>
0

>  <SCORE.SYSTEM.norm>
0

>  <SCORE.heavy>
12

>  <SCORE.norm>
-2.0127

>  <SYMMETRIC_BONDS>
4 1 2

>  <RMSD>
4.899

$$$$
1kod cryst
 OpenBabel11021811393D
libRbt.so/2013.1/901 2013/11/27
 12 11  0  0  0  0  0  0  0  0999 V2000
    3.3732    2.3519   34.9984 C   0  0  0  0  0  0  0  0  0  0  0  0
    2.9294    1.5773   35.8328 O   0  5  0  0  0  0  0  0  0  0  0  0
    4.3569    3.0585   35.1798 O   0  0  0  0  0  0  0  0  0  0  0  0
    2.6513    2.4396   33.6392 C   0  0  1  0  0  0  0  0  0  0  0  0
    2.4796    1.0637   33.0804 N   0  3  0  0  0  0  0  0  0  0  0  0
    1.2658    3.1086   33.7970 C   0  0  0  0  0  0  0  0  0  0  0  0
    1.3928    4.4388   34.5281 C   0  0  0  0  0  0  0  0  0  0  0  0
    0.0767    4.7741   35.2262 C   0  0  0  0  0  0  0  0  0  0  0  0
    0.2460    6.0430   36.0006 N   0  0  0  0  0  0  0  0  0  0  0  0
    0.3496    6.0187   37.3024 C   0  0  0  0  0  0  0  0  0  0  0  0
   -0.3890    6.7064   38.0039 O   0  0  0  0  0  0  0  0  0  0  0  0
    1.2534    5.2713   37.8661 N   0  0  0  0  0  0  0  0  0  0  0  0
  1  2  1  0  0  0  0
  1  3  2  0  0  0  0
  4  1  1  1  0  0  0
  4  6  1  0  0  0  0
  4  5  1  0  0  0  0
  6  7  1  0  0  0  0
  7  8  1  0  0  0  0
  8  9  1  0  0  0  0
  9 10  1  0  0  0  0
 10 12  1  0  0  0  0
 10 11  2  0  0  0  0
M  CHG  2   2  -1   5   1
M  END
>  <CHROM.1>
-50.99485120,52.13218176,-148.88240791,-154.42947096,176.83474428,74.48014126
1.68154313,3.87745464,35.46629500,-0.94903899,-0.63664527,1.04225818

>  <Name>
1kod cryst

>  <RI>
0

>  <Rbt.Current_Directory>
/home/itssahil/PROJECTS/Mol_Feturizer/New_Systems/rnas/1kod

>  <Rbt.Executable>
rbdock ($Id: //depot/dev/client3/rdock/2013.1/src/exe/rbdock.cxx#4 $)

>  <Rbt.Library>
libRbt.so (2013.1, Build901 2013/11/27)

>  <Rbt.Parameter_File>
/export/apps/rDock/src/rDock_2013.1_src/data/scripts/dock_solv.prm

>  <Rbt.Receptor>
prm/pocket_docking_4.prm

>  <SCORE>
-21.0168

>  <SCORE.INTER>
-17.5022

>  <SCORE.INTER.CONST>
1

>  <SCORE.INTER.POLAR>
-3.15098

>  <SCORE.INTER.ROT>
5

>  <SCORE.INTER.SOLV>
14.8342

>  <SCORE.INTER.VDW>
-13.043

>  <SCORE.INTER.norm>
-1.45852

>  <SCORE.INTRA>
-3.51465

>  <SCORE.INTRA.DIHEDRAL>
-1.02896

>  <SCORE.INTRA.DIHEDRAL.0>
7.7847

>  <SCORE.INTRA.POLAR>
0

>  <SCORE.INTRA.POLAR.0>
0

>  <SCORE.INTRA.REPUL>
0

>  <SCORE.INTRA.REPUL.0>
0

>  <SCORE.INTRA.SOLV>
-2.07037

>  <SCORE.INTRA.SOLV.lig_0>
-57.5465

>  <SCORE.INTRA.VDW>
-1.96499

>  <SCORE.INTRA.VDW.0>
1.39369

>  <SCORE.INTRA.norm>
-0.292888

>  <SCORE.RESTR>
0

>  <SCORE.RESTR.CAVITY>
0

>  <SCORE.RESTR.norm>
0

>  <SCORE.SYSTEM>
0

>  <SCORE.SYSTEM.CONST>
0

>  <SCORE.SYSTEM.DIHEDRAL>
0

>  <SCORE.SYSTEM.SOLV>
0

>  <SCORE.SYSTEM.norm>
0

>  <SCORE.heavy>
12

>  <SCORE.norm>
-1.7514

>  <SYMMETRIC_BONDS>
4 1 2

>  <RMSD>
4.907

$$$$
1kod cryst
 OpenBabel11021811393D
libRbt.so/2013.1/901 2013/11/27
 12 11  0  0  0  0  0  0  0  0999 V2000
    0.6137    4.5216   36.5513 C   0  0  0  0  0  0  0  0  0  0  0  0
   -0.5651    4.5642   36.2319 O   0  5  0  0  0  0  0  0  0  0  0  0
    1.4631    3.8874   35.9381 O   0  0  0  0  0  0  0  0  0  0  0  0
    1.0528    5.3160   37.7973 C   0  0  1  0  0  0  0  0  0  0  0  0
    0.2722    6.5885   37.8734 N   0  3  0  0  0  0  0  0  0  0  0  0
    0.8192    4.4899   39.0838 C   0  0  0  0  0  0  0  0  0  0  0  0
    1.9006    3.4293   39.2438 C   0  0  0  0  0  0  0  0  0  0  0  0
    1.6352    2.6043   40.5011 C   0  0  0  0  0  0  0  0  0  0  0  0
    0.4364    1.7390   40.2715 N   0  0  0  0  0  0  0  0  0  0  0  0
    0.5403    0.6234   39.6002 C   0  0  0  0  0  0  0  0  0  0  0  0
   -0.1905    0.3994   38.6377 O   0  0  0  0  0  0  0  0  0  0  0  0
    1.4154   -0.2697   39.9603 N   0  0  0  0  0  0  0  0  0  0  0  0
  1  2  1  0  0  0  0
  1  3  2  0  0  0  0
  4  1  1  6  0  0  0
  4  6  1  0  0  0  0
  4  5  1  0  0  0  0
  6  7  1  0  0  0  0
  7  8  1  0  0  0  0
  8  9  1  0  0  0  0
  9 10  1  0  0  0  0
 10 12  1  0  0  0  0
 10 11  2  0  0  0  0
M  CHG  2   2  -1   5   1
M  END
>  <CHROM.1>
-35.95014106,77.03414530,179.18990429,-178.71614538,70.79473672,-100.00535501
0.75970054,3.16614436,38.45605514,1.80377501,-1.28235867,-0.31122646

>  <Name>
1kod cryst

>  <RI>
0

>  <Rbt.Current_Directory>
/home/itssahil/PROJECTS/Mol_Feturizer/New_Systems/rnas/1kod

>  <Rbt.Executable>
rbdock ($Id: //depot/dev/client3/rdock/2013.1/src/exe/rbdock.cxx#4 $)

>  <Rbt.Library>
libRbt.so (2013.1, Build901 2013/11/27)

>  <Rbt.Parameter_File>
/export/apps/rDock/src/rDock_2013.1_src/data/scripts/dock_solv.prm

>  <Rbt.Receptor>
prm/pocket_docking_8.prm

>  <SCORE>
-22.8051

>  <SCORE.INTER>
-16.9314

>  <SCORE.INTER.CONST>
1

>  <SCORE.INTER.POLAR>
-3.62358

>  <SCORE.INTER.ROT>
5

>  <SCORE.INTER.SOLV>
14.9191

>  <SCORE.INTER.VDW>
-11.1153

>  <SCORE.INTER.norm>
-1.41095

>  <SCORE.INTRA>
-5.87371

>  <SCORE.INTRA.DIHEDRAL>
-4.14915

>  <SCORE.INTRA.DIHEDRAL.0>
7.7847

>  <SCORE.INTRA.POLAR>
0

>  <SCORE.INTRA.POLAR.0>
0

>  <SCORE.INTRA.REPUL>
0

>  <SCORE.INTRA.REPUL.0>
0

>  <SCORE.INTRA.SOLV>
-2.20194

>  <SCORE.INTRA.SOLV.lig_0>
-57.5465

>  <SCORE.INTRA.VDW>
-2.69817

>  <SCORE.INTRA.VDW.0>
1.39369

>  <SCORE.INTRA.norm>
-0.489476

>  <SCORE.RESTR>
0

>  <SCORE.RESTR.CAVITY>
0

>  <SCORE.RESTR.norm>
0

>  <SCORE.SYSTEM>
0

>  <SCORE.SYSTEM.CONST>
0

>  <SCORE.SYSTEM.DIHEDRAL>
0

>  <SCORE.SYSTEM.SOLV>
0

>  <SCORE.SYSTEM.norm>
0

>  <SCORE.heavy>
12

>  <SCORE.norm>
-1.90042

>  <SYMMETRIC_BONDS>
4 1 2

>  <RMSD>
4.980

$$$$
1kod cryst
 OpenBabel11021811393D
libRbt.so/2013.1/901 2013/11/27
 12 11  0  0  0  0  0  0  0  0999 V2000
    1.3216    1.3154   33.4575 C   0  0  0  0  0  0  0  0  0  0  0  0
    1.2630    0.0967   33.3904 O   0  5  0  0  0  0  0  0  0  0  0  0
    0.7169    2.0689   32.7050 O   0  0  0  0  0  0  0  0  0  0  0  0
    2.2074    1.9358   34.5561 C   0  0  1  0  0  0  0  0  0  0  0  0
    2.6860    0.8572   35.4737 N   0  3  0  0  0  0  0  0  0  0  0  0
    3.4237    2.6612   33.9343 C   0  0  0  0  0  0  0  0  0  0  0  0
    4.2721    3.3118   35.0192 C   0  0  0  0  0  0  0  0  0  0  0  0
    3.5616    4.5508   35.5593 C   0  0  0  0  0  0  0  0  0  0  0  0
    3.4795    5.5769   34.4734 N   0  0  0  0  0  0  0  0  0  0  0  0
    2.3914    6.2791   34.3031 C   0  0  0  0  0  0  0  0  0  0  0  0
    1.8430    6.3307   33.2044 O   0  0  0  0  0  0  0  0  0  0  0  0
    1.8878    6.9452   35.3011 N   0  0  0  0  0  0  0  0  0  0  0  0
  1  2  1  0  0  0  0
  1  3  2  0  0  0  0
  4  1  1  6  0  0  0
  4  6  1  0  0  0  0
  4  5  1  0  0  0  0
  6  7  1  0  0  0  0
  7  8  1  0  0  0  0
  8  9  1  0  0  0  0
  9 10  1  0  0  0  0
 10 12  1  0  0  0  0
 10 11  2  0  0  0  0
M  CHG  2   2  -1   5   1
M  END
>  <CHROM.1>
-8.10214137,178.14976355,-43.92320625,-73.71075972,-65.77861432,-41.24365116
2.40521868,3.47928713,34.28683881,1.76171498,0.70416571,3.13922283

>  <Name>
1kod cryst

>  <RI>
0

>  <Rbt.Current_Directory>
/home/itssahil/PROJECTS/Mol_Feturizer/New_Systems/rnas/1kod

>  <Rbt.Executable>
rbdock ($Id: //depot/dev/client3/rdock/2013.1/src/exe/rbdock.cxx#4 $)

>  <Rbt.Library>
libRbt.so (2013.1, Build901 2013/11/27)

>  <Rbt.Parameter_File>
/export/apps/rDock/src/rDock_2013.1_src/data/scripts/dock_solv.prm

>  <Rbt.Receptor>
prm/pocket_docking_3.prm

>  <SCORE>
-18.1628

>  <SCORE.INTER>
-13.5719

>  <SCORE.INTER.CONST>
1

>  <SCORE.INTER.POLAR>
-3.21619

>  <SCORE.INTER.ROT>
5

>  <SCORE.INTER.SOLV>
19.6844

>  <SCORE.INTER.VDW>
-11.8221

>  <SCORE.INTER.norm>
-1.13099

>  <SCORE.INTRA>
-4.62201

>  <SCORE.INTRA.DIHEDRAL>
-4.04801

>  <SCORE.INTRA.DIHEDRAL.0>
7.7847

>  <SCORE.INTRA.POLAR>
0

>  <SCORE.INTRA.POLAR.0>
0

>  <SCORE.INTRA.REPUL>
0

>  <SCORE.INTRA.REPUL.0>
0

>  <SCORE.INTRA.SOLV>
-1.29298

>  <SCORE.INTRA.SOLV.lig_0>
-57.5465

>  <SCORE.INTRA.VDW>
-1.95151

>  <SCORE.INTRA.VDW.0>
1.39369

>  <SCORE.INTRA.norm>
-0.385167

>  <SCORE.RESTR>
0.0310811

>  <SCORE.RESTR.CAVITY>
0.0310811

>  <SCORE.RESTR.norm>
0.0025901

>  <SCORE.SYSTEM>
0

>  <SCORE.SYSTEM.CONST>
0

>  <SCORE.SYSTEM.DIHEDRAL>
0

>  <SCORE.SYSTEM.SOLV>
0

>  <SCORE.SYSTEM.norm>
0

>  <SCORE.heavy>
12

>  <SCORE.norm>
-1.51357

>  <SYMMETRIC_BONDS>
4 1 2

>  <RMSD>
5.003

$$$$
1kod cryst
 OpenBabel11021811393D
libRbt.so/2013.1/901 2013/11/27
 12 11  0  0  0  0  0  0  0  0999 V2000
    2.1061    1.2961   34.7757 C   0  0  0  0  0  0  0  0  0  0  0  0
    1.5313    0.2195   34.7116 O   0  5  0  0  0  0  0  0  0  0  0  0
    3.0256    1.6224   34.0357 O   0  0  0  0  0  0  0  0  0  0  0  0
    1.6415    2.2992   35.8500 C   0  0  1  0  0  0  0  0  0  0  0  0
    2.3076    1.9770   37.1489 N   0  3  0  0  0  0  0  0  0  0  0  0
    1.9928    3.7473   35.4356 C   0  0  0  0  0  0  0  0  0  0  0  0
    1.0612    4.2301   34.3315 C   0  0  0  0  0  0  0  0  0  0  0  0
    1.6952    5.4095   33.5975 C   0  0  0  0  0  0  0  0  0  0  0  0
    1.7176    6.5953   34.5096 N   0  0  0  0  0  0  0  0  0  0  0  0
    2.8428    7.1947   34.7935 C   0  0  0  0  0  0  0  0  0  0  0  0
    3.1789    7.3787   35.9613 O   0  0  0  0  0  0  0  0  0  0  0  0
    3.6120    7.6166   33.8326 N   0  0  0  0  0  0  0  0  0  0  0  0
  1  2  1  0  0  0  0
  1  3  2  0  0  0  0
  4  1  1  6  0  0  0
  4  6  1  0  0  0  0
  4  5  1  0  0  0  0
  6  7  1  0  0  0  0
  7  8  1  0  0  0  0
  8  9  1  0  0  0  0
  9 10  1  0  0  0  0
 10 12  1  0  0  0  0
 10 11  2  0  0  0  0
M  CHG  2   2  -1   5   1
M  END
>  <CHROM.1>
83.82239317,74.13153198,178.56732343,-159.89142613,-69.58831759,-57.12095913
2.25099392,4.12362412,34.93925814,2.30536893,1.37107404,2.30971983

>  <Name>
1kod cryst

>  <RI>
0

>  <Rbt.Current_Directory>
/home/itssahil/PROJECTS/Mol_Feturizer/New_Systems/rnas/1kod

>  <Rbt.Executable>
rbdock ($Id: //depot/dev/client3/rdock/2013.1/src/exe/rbdock.cxx#4 $)

>  <Rbt.Library>
libRbt.so (2013.1, Build901 2013/11/27)

>  <Rbt.Parameter_File>
/export/apps/rDock/src/rDock_2013.1_src/data/scripts/dock_solv.prm

>  <Rbt.Receptor>
prm/pocket_docking_6.prm

>  <SCORE>
-19.0312

>  <SCORE.INTER>
-14.4006

>  <SCORE.INTER.CONST>
1

>  <SCORE.INTER.POLAR>
-3.1045

>  <SCORE.INTER.ROT>
5

>  <SCORE.INTER.SOLV>
11.3671

>  <SCORE.INTER.VDW>
-9.9744

>  <SCORE.INTER.norm>
-1.20005

>  <SCORE.INTRA>
-4.63064

>  <SCORE.INTRA.DIHEDRAL>
-2.9798

>  <SCORE.INTRA.DIHEDRAL.0>
7.7847

>  <SCORE.INTRA.POLAR>
0

>  <SCORE.INTRA.POLAR.0>
0

>  <SCORE.INTRA.REPUL>
0

>  <SCORE.INTRA.REPUL.0>
0

>  <SCORE.INTRA.SOLV>
-2.23203

>  <SCORE.INTRA.SOLV.lig_0>
-57.5465

>  <SCORE.INTRA.VDW>
-2.02473

>  <SCORE.INTRA.VDW.0>
1.39369

>  <SCORE.INTRA.norm>
-0.385887

>  <SCORE.RESTR>
0

>  <SCORE.RESTR.CAVITY>
0

>  <SCORE.RESTR.norm>
0

>  <SCORE.SYSTEM>
0

>  <SCORE.SYSTEM.CONST>
0

>  <SCORE.SYSTEM.DIHEDRAL>
0

>  <SCORE.SYSTEM.SOLV>
0

>  <SCORE.SYSTEM.norm>
0

>  <SCORE.heavy>
12

>  <SCORE.norm>
-1.58593

>  <SYMMETRIC_BONDS>
4 1 2

>  <RMSD>
5.022

$$$$
1kod cryst
 OpenBabel11021811393D
libRbt.so/2013.1/901 2013/11/27
 12 11  0  0  0  0  0  0  0  0999 V2000
    3.4071   10.2210   34.5223 C   0  0  0  0  0  0  0  0  0  0  0  0
    3.8043   11.1371   33.8178 O   0  5  0  0  0  0  0  0  0  0  0  0
    3.7279   10.0753   35.6951 O   0  0  0  0  0  0  0  0  0  0  0  0
    2.4447    9.1932   33.8948 C   0  0  1  0  0  0  0  0  0  0  0  0
    2.2579    9.5104   32.4460 N   0  3  0  0  0  0  0  0  0  0  0  0
    3.0043    7.7587   34.0407 C   0  0  0  0  0  0  0  0  0  0  0  0
    1.9637    6.8381   34.6647 C   0  0  0  0  0  0  0  0  0  0  0  0
    2.3849    5.3816   34.4831 C   0  0  0  0  0  0  0  0  0  0  0  0
    1.3182    4.4931   35.0411 N   0  0  0  0  0  0  0  0  0  0  0  0
    0.1292    4.4621   34.5014 C   0  0  0  0  0  0  0  0  0  0  0  0
   -0.8756    4.6450   35.1851 O   0  0  0  0  0  0  0  0  0  0  0  0
    0.0017    4.2202   33.2292 N   0  0  0  0  0  0  0  0  0  0  0  0
  1  2  1  0  0  0  0
  1  3  2  0  0  0  0
  4  1  1  6  0  0  0
  4  6  1  0  0  0  0
  4  5  1  0  0  0  0
  6  7  1  0  0  0  0
  7  8  1  0  0  0  0
  8  9  1  0  0  0  0
  9 10  1  0  0  0  0
 10 12  1  0  0  0  0
 10 11  2  0  0  0  0
M  CHG  2   2  -1   5   1
M  END
>  <CHROM.1>
3.64069586,127.93245766,37.98282764,165.86158434,-177.19325761,-115.08981585
1.95325079,7.34339440,34.26489644,-0.67625837,0.91806212,2.30389851

>  <Name>
1kod cryst

>  <RI>
0

>  <Rbt.Current_Directory>
/home/itssahil/PROJECTS/Mol_Feturizer/New_Systems/rnas/1kod

>  <Rbt.Executable>
rbdock ($Id: //depot/dev/client3/rdock/2013.1/src/exe/rbdock.cxx#4 $)

>  <Rbt.Library>
libRbt.so (2013.1, Build901 2013/11/27)

>  <Rbt.Parameter_File>
/export/apps/rDock/src/rDock_2013.1_src/data/scripts/dock_solv.prm

>  <Rbt.Receptor>
prm/pocket_docking_7.prm

>  <SCORE>
-19.4217

>  <SCORE.INTER>
-16.8564

>  <SCORE.INTER.CONST>
1

>  <SCORE.INTER.POLAR>
-2.82431

>  <SCORE.INTER.ROT>
5

>  <SCORE.INTER.SOLV>
16.8722

>  <SCORE.INTER.VDW>
-14.3807

>  <SCORE.INTER.norm>
-1.4047

>  <SCORE.INTRA>
-2.56529

>  <SCORE.INTRA.DIHEDRAL>
1.27234

>  <SCORE.INTRA.DIHEDRAL.0>
7.7847

>  <SCORE.INTRA.POLAR>
0

>  <SCORE.INTRA.POLAR.0>
0

>  <SCORE.INTRA.REPUL>
0

>  <SCORE.INTRA.REPUL.0>
0

>  <SCORE.INTRA.SOLV>
-2.46335

>  <SCORE.INTRA.SOLV.lig_0>
-57.5465

>  <SCORE.INTRA.VDW>
-1.96979

>  <SCORE.INTRA.VDW.0>
1.39369

>  <SCORE.INTRA.norm>
-0.213774

>  <SCORE.RESTR>
0

>  <SCORE.RESTR.CAVITY>
0

>  <SCORE.RESTR.norm>
0

>  <SCORE.SYSTEM>
0

>  <SCORE.SYSTEM.CONST>
0

>  <SCORE.SYSTEM.DIHEDRAL>
0

>  <SCORE.SYSTEM.SOLV>
0

>  <SCORE.SYSTEM.norm>
0

>  <SCORE.heavy>
12

>  <SCORE.norm>
-1.61848

>  <SYMMETRIC_BONDS>
4 1 2

>  <RMSD>
5.047

$$$$
1kod cryst
 OpenBabel11021811393D
libRbt.so/2013.1/901 2013/11/27
 12 11  0  0  0  0  0  0  0  0999 V2000
    5.1478    3.6216   38.9376 C   0  0  0  0  0  0  0  0  0  0  0  0
    6.2572    3.5910   39.4490 O   0  5  0  0  0  0  0  0  0  0  0  0
    4.8353    4.3865   38.0337 O   0  0  0  0  0  0  0  0  0  0  0  0
    4.0842    2.6367   39.4620 C   0  0  1  0  0  0  0  0  0  0  0  0
    4.3911    2.2871   40.8826 N   0  3  0  0  0  0  0  0  0  0  0  0
    2.6714    3.2606   39.3782 C   0  0  0  0  0  0  0  0  0  0  0  0
    1.6041    2.2106   39.6582 C   0  0  0  0  0  0  0  0  0  0  0  0
    1.6552    1.1218   38.5887 C   0  0  0  0  0  0  0  0  0  0  0  0
    1.4207    1.7445   37.2486 N   0  0  0  0  0  0  0  0  0  0  0  0
    2.3077    1.6281   36.2969 C   0  0  0  0  0  0  0  0  0  0  0  0
    2.7428    2.6218   35.7192 O   0  0  0  0  0  0  0  0  0  0  0  0
    2.7265    0.4480   35.9431 N   0  0  0  0  0  0  0  0  0  0  0  0
  1  2  1  0  0  0  0
  1  3  2  0  0  0  0
  4  1  1  1  0  0  0
  4  6  1  0  0  0  0
  4  5  1  0  0  0  0
  6  7  1  0  0  0  0
  7  8  1  0  0  0  0
  8  9  1  0  0  0  0
  9 10  1  0  0  0  0
 10 12  1  0  0  0  0
 10 11  2  0  0  0  0
M  CHG  2   2  -1   5   1
M  END
>  <CHROM.1>
26.70054222,169.90605217,141.14122703,-63.00663523,-59.45263222,-58.04271629
3.34924018,2.46092612,38.30416392,-0.72706787,-0.54510353,-1.61156337

>  <Name>
1kod cryst

>  <RI>
0

>  <Rbt.Current_Directory>
/home/itssahil/PROJECTS/Mol_Feturizer/New_Systems/rnas/1kod

>  <Rbt.Executable>
rbdock ($Id: //depot/dev/client3/rdock/2013.1/src/exe/rbdock.cxx#4 $)

>  <Rbt.Library>
libRbt.so (2013.1, Build901 2013/11/27)

>  <Rbt.Parameter_File>
/export/apps/rDock/src/rDock_2013.1_src/data/scripts/dock_solv.prm

>  <Rbt.Receptor>
prm/pocket_docking_8.prm

>  <SCORE>
-18.6735

>  <SCORE.INTER>
-16.3357

>  <SCORE.INTER.CONST>
1

>  <SCORE.INTER.POLAR>
-3.33941

>  <SCORE.INTER.ROT>
5

>  <SCORE.INTER.SOLV>
12.3323

>  <SCORE.INTER.VDW>
-10.8032

>  <SCORE.INTER.norm>
-1.36131

>  <SCORE.INTRA>
-2.33782

>  <SCORE.INTRA.DIHEDRAL>
-2.54951

>  <SCORE.INTRA.DIHEDRAL.0>
7.7847

>  <SCORE.INTRA.POLAR>
0

>  <SCORE.INTRA.POLAR.0>
0

>  <SCORE.INTRA.REPUL>
0

>  <SCORE.INTRA.REPUL.0>
0

>  <SCORE.INTRA.SOLV>
-0.201335

>  <SCORE.INTRA.SOLV.lig_0>
-57.5465

>  <SCORE.INTRA.VDW>
-0.962396

>  <SCORE.INTRA.VDW.0>
1.39369

>  <SCORE.INTRA.norm>
-0.194818

>  <SCORE.RESTR>
0

>  <SCORE.RESTR.CAVITY>
0

>  <SCORE.RESTR.norm>
0

>  <SCORE.SYSTEM>
0

>  <SCORE.SYSTEM.CONST>
0

>  <SCORE.SYSTEM.DIHEDRAL>
0

>  <SCORE.SYSTEM.SOLV>
0

>  <SCORE.SYSTEM.norm>
0

>  <SCORE.heavy>
12

>  <SCORE.norm>
-1.55613

>  <SYMMETRIC_BONDS>
4 1 2

>  <RMSD>
5.067

$$$$
1kod cryst
 OpenBabel11021811393D
libRbt.so/2013.1/901 2013/11/27
 12 11  0  0  0  0  0  0  0  0999 V2000
    1.9050    1.6979   34.4502 C   0  0  0  0  0  0  0  0  0  0  0  0
    1.4050    0.8327   35.1537 O   0  5  0  0  0  0  0  0  0  0  0  0
    2.8414    2.4045   34.8016 O   0  0  0  0  0  0  0  0  0  0  0  0
    1.3216    1.9064   33.0387 C   0  0  1  0  0  0  0  0  0  0  0  0
    0.6581    0.6457   32.5862 N   0  3  0  0  0  0  0  0  0  0  0  0
    0.2919    3.0605   33.0367 C   0  0  0  0  0  0  0  0  0  0  0  0
    0.6602    4.1096   34.0776 C   0  0  0  0  0  0  0  0  0  0  0  0
    1.6785    5.0854   33.4920 C   0  0  0  0  0  0  0  0  0  0  0  0
    1.8849    6.2105   34.4564 N   0  0  0  0  0  0  0  0  0  0  0  0
    2.7252    7.1730   34.1851 C   0  0  0  0  0  0  0  0  0  0  0  0
    3.6114    7.4756   34.9811 O   0  0  0  0  0  0  0  0  0  0  0  0
    2.6168    7.8314   33.0680 N   0  0  0  0  0  0  0  0  0  0  0  0
  1  2  1  0  0  0  0
  1  3  2  0  0  0  0
  4  1  1  1  0  0  0
  4  6  1  0  0  0  0
  4  5  1  0  0  0  0
  6  7  1  0  0  0  0
  7  8  1  0  0  0  0
  8  9  1  0  0  0  0
  9 10  1  0  0  0  0
 10 12  1  0  0  0  0
 10 11  2  0  0  0  0
M  CHG  2   2  -1   5   1
M  END
>  <CHROM.1>
-24.39652599,31.19096348,-163.45792166,84.38556634,172.28943938,-0.64120572
1.80275373,4.01897395,33.94339095,-1.97123601,-0.87093200,-0.25846580

>  <Name>
1kod cryst

>  <RI>
0

>  <Rbt.Current_Directory>
/home/itssahil/PROJECTS/Mol_Feturizer/New_Systems/rnas/1kod

>  <Rbt.Executable>
rbdock ($Id: //depot/dev/client3/rdock/2013.1/src/exe/rbdock.cxx#4 $)

>  <Rbt.Library>
libRbt.so (2013.1, Build901 2013/11/27)

>  <Rbt.Parameter_File>
/export/apps/rDock/src/rDock_2013.1_src/data/scripts/dock_solv.prm

>  <Rbt.Receptor>
prm/pocket_docking_8.prm

>  <SCORE>
-16.6926

>  <SCORE.INTER>
-15.8749

>  <SCORE.INTER.CONST>
1

>  <SCORE.INTER.POLAR>
-2.57423

>  <SCORE.INTER.ROT>
5

>  <SCORE.INTER.SOLV>
20.2332

>  <SCORE.INTER.VDW>
-15.6802

>  <SCORE.INTER.norm>
-1.32291

>  <SCORE.INTRA>
-0.817657

>  <SCORE.INTRA.DIHEDRAL>
-0.102549

>  <SCORE.INTRA.DIHEDRAL.0>
7.7847

>  <SCORE.INTRA.POLAR>
0

>  <SCORE.INTRA.POLAR.0>
0

>  <SCORE.INTRA.REPUL>
0

>  <SCORE.INTRA.REPUL.0>
0

>  <SCORE.INTRA.SOLV>
-1.24422

>  <SCORE.INTRA.SOLV.lig_0>
-57.5465

>  <SCORE.INTRA.VDW>
-0.144273

>  <SCORE.INTRA.VDW.0>
1.39369

>  <SCORE.INTRA.norm>
-0.0681381

>  <SCORE.RESTR>
0

>  <SCORE.RESTR.CAVITY>
0

>  <SCORE.RESTR.norm>
0

>  <SCORE.SYSTEM>
0

>  <SCORE.SYSTEM.CONST>
0

>  <SCORE.SYSTEM.DIHEDRAL>
0

>  <SCORE.SYSTEM.SOLV>
0

>  <SCORE.SYSTEM.norm>
0

>  <SCORE.heavy>
12

>  <SCORE.norm>
-1.39105

>  <SYMMETRIC_BONDS>
4 1 2

>  <RMSD>
5.111

$$$$
1kod cryst
 OpenBabel11021811393D
libRbt.so/2013.1/901 2013/11/27
 12 11  0  0  0  0  0  0  0  0999 V2000
    3.6714   10.0097   36.9499 C   0  0  0  0  0  0  0  0  0  0  0  0
    3.5185   11.2176   36.8449 O   0  5  0  0  0  0  0  0  0  0  0  0
    4.4712    9.4885   37.7170 O   0  0  0  0  0  0  0  0  0  0  0  0
    2.8034    9.0929   36.0654 C   0  0  1  0  0  0  0  0  0  0  0  0
    1.3634    9.4524   36.2436 N   0  3  0  0  0  0  0  0  0  0  0  0
    3.1915    9.2417   34.5757 C   0  0  0  0  0  0  0  0  0  0  0  0
    2.4654    8.2066   33.7264 C   0  0  0  0  0  0  0  0  0  0  0  0
    2.9427    6.8045   34.0980 C   0  0  0  0  0  0  0  0  0  0  0  0
    2.1561    5.7995   33.3169 N   0  0  0  0  0  0  0  0  0  0  0  0
    1.5423    4.8189   33.9232 C   0  0  0  0  0  0  0  0  0  0  0  0
    1.7300    3.6535   33.5807 O   0  0  0  0  0  0  0  0  0  0  0  0
    0.7107    5.0752   34.8906 N   0  0  0  0  0  0  0  0  0  0  0  0
  1  2  1  0  0  0  0
  1  3  2  0  0  0  0
  4  1  1  1  0  0  0
  4  6  1  0  0  0  0
  4  5  1  0  0  0  0
  6  7  1  0  0  0  0
  7  8  1  0  0  0  0
  8  9  1  0  0  0  0
  9 10  1  0  0  0  0
 10 12  1  0  0  0  0
 10 11  2  0  0  0  0
M  CHG  2   2  -1   5   1
M  END
>  <CHROM.1>
-52.90239277,172.51411241,-176.80003365,-65.60387529,176.40026880,52.98840365
2.51469403,7.74204247,35.18373849,0.87894645,1.10787264,1.14180821

>  <Name>
1kod cryst

>  <RI>
0

>  <Rbt.Current_Directory>
/home/itssahil/PROJECTS/Mol_Feturizer/New_Systems/rnas/1kod

>  <Rbt.Executable>
rbdock ($Id: //depot/dev/client3/rdock/2013.1/src/exe/rbdock.cxx#4 $)

>  <Rbt.Library>
libRbt.so (2013.1, Build901 2013/11/27)

>  <Rbt.Parameter_File>
/export/apps/rDock/src/rDock_2013.1_src/data/scripts/dock_solv.prm

>  <Rbt.Receptor>
prm/pocket_docking_8.prm

>  <SCORE>
-20.8168

>  <SCORE.INTER>
-15.1392

>  <SCORE.INTER.CONST>
1

>  <SCORE.INTER.POLAR>
-2.82836

>  <SCORE.INTER.ROT>
5

>  <SCORE.INTER.SOLV>
8.98947

>  <SCORE.INTER.VDW>
-10.5948

>  <SCORE.INTER.norm>
-1.2616

>  <SCORE.INTRA>
-5.67754

>  <SCORE.INTRA.DIHEDRAL>
-5.13885

>  <SCORE.INTRA.DIHEDRAL.0>
7.7847

>  <SCORE.INTRA.POLAR>
0

>  <SCORE.INTRA.POLAR.0>
0

>  <SCORE.INTRA.REPUL>
0

>  <SCORE.INTRA.REPUL.0>
0

>  <SCORE.INTRA.SOLV>
-1.77901

>  <SCORE.INTRA.SOLV.lig_0>
-57.5465

>  <SCORE.INTRA.VDW>
-2.21861

>  <SCORE.INTRA.VDW.0>
1.39369

>  <SCORE.INTRA.norm>
-0.473129

>  <SCORE.RESTR>
0

>  <SCORE.RESTR.CAVITY>
0

>  <SCORE.RESTR.norm>
0

>  <SCORE.SYSTEM>
0

>  <SCORE.SYSTEM.CONST>
0

>  <SCORE.SYSTEM.DIHEDRAL>
0

>  <SCORE.SYSTEM.SOLV>
0

>  <SCORE.SYSTEM.norm>
0

>  <SCORE.heavy>
12

>  <SCORE.norm>
-1.73473

>  <SYMMETRIC_BONDS>
4 1 2

>  <RMSD>
5.155

$$$$
1kod cryst
 OpenBabel11021811393D
libRbt.so/2013.1/901 2013/11/27
 12 11  0  0  0  0  0  0  0  0999 V2000
    3.1512    2.6269   35.1317 C   0  0  0  0  0  0  0  0  0  0  0  0
    2.4372    2.0962   35.9695 O   0  5  0  0  0  0  0  0  0  0  0  0
    4.2187    3.1682   35.3907 O   0  0  0  0  0  0  0  0  0  0  0  0
    2.6779    2.6090   33.6648 C   0  0  1  0  0  0  0  0  0  0  0  0
    2.5303    1.1929   33.2096 N   0  3  0  0  0  0  0  0  0  0  0  0
    1.3240    3.3420   33.5171 C   0  0  0  0  0  0  0  0  0  0  0  0
    1.5298    4.8511   33.5045 C   0  0  0  0  0  0  0  0  0  0  0  0
    1.9243    5.3319   34.8991 C   0  0  0  0  0  0  0  0  0  0  0  0
    1.8149    6.8233   34.9489 N   0  0  0  0  0  0  0  0  0  0  0  0
    2.8796    7.5721   34.8409 C   0  0  0  0  0  0  0  0  0  0  0  0
    3.1334    8.4282   35.6855 O   0  0  0  0  0  0  0  0  0  0  0  0
    3.6747    7.4239   33.8216 N   0  0  0  0  0  0  0  0  0  0  0  0
  1  2  1  0  0  0  0
  1  3  2  0  0  0  0
  4  1  1  1  0  0  0
  4  6  1  0  0  0  0
  4  5  1  0  0  0  0
  6  7  1  0  0  0  0
  7  8  1  0  0  0  0
  8  9  1  0  0  0  0
  9 10  1  0  0  0  0
 10 12  1  0  0  0  0
 10 11  2  0  0  0  0
M  CHG  2   2  -1   5   1
M  END
>  <CHROM.1>
-60.13180861,78.81966401,-159.54531065,-71.21053202,-167.09595963,79.36575248
2.62449085,4.60266452,34.54732833,-1.64196464,-0.89675921,0.05028612

>  <Name>
1kod cryst

>  <RI>
0

>  <Rbt.Current_Directory>
/home/itssahil/PROJECTS/Mol_Feturizer/New_Systems/rnas/1kod

>  <Rbt.Executable>
rbdock ($Id: //depot/dev/client3/rdock/2013.1/src/exe/rbdock.cxx#4 $)

>  <Rbt.Library>
libRbt.so (2013.1, Build901 2013/11/27)

>  <Rbt.Parameter_File>
/export/apps/rDock/src/rDock_2013.1_src/data/scripts/dock_solv.prm

>  <Rbt.Receptor>
prm/pocket_docking_5.prm

>  <SCORE>
-24.7636

>  <SCORE.INTER>
-20.8969

>  <SCORE.INTER.CONST>
1

>  <SCORE.INTER.POLAR>
-3.64242

>  <SCORE.INTER.ROT>
5

>  <SCORE.INTER.SOLV>
12.2933

>  <SCORE.INTER.VDW>
-12.821

>  <SCORE.INTER.norm>
-1.74141

>  <SCORE.INTRA>
-3.86668

>  <SCORE.INTRA.DIHEDRAL>
-2.34314

>  <SCORE.INTRA.DIHEDRAL.0>
7.7847

>  <SCORE.INTRA.POLAR>
0

>  <SCORE.INTRA.POLAR.0>
0

>  <SCORE.INTRA.REPUL>
0

>  <SCORE.INTRA.REPUL.0>
0

>  <SCORE.INTRA.SOLV>
-1.46608

>  <SCORE.INTRA.SOLV.lig_0>
-57.5465

>  <SCORE.INTRA.VDW>
-1.96207

>  <SCORE.INTRA.VDW.0>
1.39369

>  <SCORE.INTRA.norm>
-0.322224

>  <SCORE.RESTR>
0

>  <SCORE.RESTR.CAVITY>
0

>  <SCORE.RESTR.norm>
0

>  <SCORE.SYSTEM>
0

>  <SCORE.SYSTEM.CONST>
0

>  <SCORE.SYSTEM.DIHEDRAL>
0

>  <SCORE.SYSTEM.SOLV>
0

>  <SCORE.SYSTEM.norm>
0

>  <SCORE.heavy>
12

>  <SCORE.norm>
-2.06363

>  <SYMMETRIC_BONDS>
4 1 2

>  <RMSD>
5.167

$$$$
1kod cryst
 OpenBabel11021811393D
libRbt.so/2013.1/901 2013/11/27
 12 11  0  0  0  0  0  0  0  0999 V2000
    1.6549    1.1663   35.2063 C   0  0  0  0  0  0  0  0  0  0  0  0
    1.7949    0.3342   34.3223 O   0  5  0  0  0  0  0  0  0  0  0  0
    1.1659    0.9206   36.3018 O   0  0  0  0  0  0  0  0  0  0  0  0
    2.1250    2.6067   34.9223 C   0  0  1  0  0  0  0  0  0  0  0  0
    3.5928    2.6015   34.6392 N   0  3  0  0  0  0  0  0  0  0  0  0
    1.3683    3.2011   33.7114 C   0  0  0  0  0  0  0  0  0  0  0  0
    1.2796    4.7173   33.8262 C   0  0  0  0  0  0  0  0  0  0  0  0
    2.6646    5.3329   33.6401 C   0  0  0  0  0  0  0  0  0  0  0  0
    2.5148    6.7987   33.3803 N   0  0  0  0  0  0  0  0  0  0  0  0
    2.8826    7.6740   34.2774 C   0  0  0  0  0  0  0  0  0  0  0  0
    2.1039    8.5434   34.6625 O   0  0  0  0  0  0  0  0  0  0  0  0
    4.0906    7.6381   34.7598 N   0  0  0  0  0  0  0  0  0  0  0  0
  1  2  1  0  0  0  0
  1  3  2  0  0  0  0
  4  1  1  6  0  0  0
  4  6  1  0  0  0  0
  4  5  1  0  0  0  0
  6  7  1  0  0  0  0
  7  8  1  0  0  0  0
  8  9  1  0  0  0  0
  9 10  1  0  0  0  0
 10 12  1  0  0  0  0
 10 11  2  0  0  0  0
M  CHG  2   2  -1   5   1
M  END
>  <CHROM.1>
-60.80217484,152.13252516,-45.81014998,69.18723768,164.60982181,-70.17190627
2.30471382,4.29149044,34.47914482,-1.74687323,-0.35998378,-0.18328313

>  <Name>
1kod cryst

>  <RI>
0

>  <Rbt.Current_Directory>
/home/itssahil/PROJECTS/Mol_Feturizer/New_Systems/rnas/1kod

>  <Rbt.Executable>
rbdock ($Id: //depot/dev/client3/rdock/2013.1/src/exe/rbdock.cxx#4 $)

>  <Rbt.Library>
libRbt.so (2013.1, Build901 2013/11/27)

>  <Rbt.Parameter_File>
/export/apps/rDock/src/rDock_2013.1_src/data/scripts/dock_solv.prm

>  <Rbt.Receptor>
prm/pocket_docking_4.prm

>  <SCORE>
-17.01

>  <SCORE.INTER>
-13.9262

>  <SCORE.INTER.CONST>
1

>  <SCORE.INTER.POLAR>
-2.44644

>  <SCORE.INTER.ROT>
5

>  <SCORE.INTER.SOLV>
13.8359

>  <SCORE.INTER.VDW>
-12.6747

>  <SCORE.INTER.norm>
-1.16052

>  <SCORE.INTRA>
-3.0838

>  <SCORE.INTRA.DIHEDRAL>
-1.5885

>  <SCORE.INTRA.DIHEDRAL.0>
7.7847

>  <SCORE.INTRA.POLAR>
0

>  <SCORE.INTRA.POLAR.0>
0

>  <SCORE.INTRA.REPUL>
0

>  <SCORE.INTRA.REPUL.0>
0

>  <SCORE.INTRA.SOLV>
-1.41509

>  <SCORE.INTRA.SOLV.lig_0>
-57.5465

>  <SCORE.INTRA.VDW>
-1.58201

>  <SCORE.INTRA.VDW.0>
1.39369

>  <SCORE.INTRA.norm>
-0.256984

>  <SCORE.RESTR>
0

>  <SCORE.RESTR.CAVITY>
0

>  <SCORE.RESTR.norm>
0

>  <SCORE.SYSTEM>
0

>  <SCORE.SYSTEM.CONST>
0

>  <SCORE.SYSTEM.DIHEDRAL>
0

>  <SCORE.SYSTEM.SOLV>
0

>  <SCORE.SYSTEM.norm>
0

>  <SCORE.heavy>
12

>  <SCORE.norm>
-1.4175

>  <SYMMETRIC_BONDS>
4 1 2

>  <RMSD>
5.248

$$$$
1kod cryst
 OpenBabel11021811393D
libRbt.so/2013.1/901 2013/11/27
 12 11  0  0  0  0  0  0  0  0999 V2000
    0.0108    0.2257   40.6867 C   0  0  0  0  0  0  0  0  0  0  0  0
   -0.1738    0.2461   41.8945 O   0  5  0  0  0  0  0  0  0  0  0  0
   -0.5791   -0.5251   39.9200 O   0  0  0  0  0  0  0  0  0  0  0  0
    1.0453    1.2055   40.0983 C   0  0  1  0  0  0  0  0  0  0  0  0
    2.0695    1.5275   41.1386 N   0  3  0  0  0  0  0  0  0  0  0  0
    1.7418    0.5896   38.8623 C   0  0  0  0  0  0  0  0  0  0  0  0
    1.2027    1.2086   37.5792 C   0  0  0  0  0  0  0  0  0  0  0  0
    2.0936    0.8188   36.4018 C   0  0  0  0  0  0  0  0  0  0  0  0
    1.5340    1.4162   35.1493 N   0  0  0  0  0  0  0  0  0  0  0  0
    2.2612    2.2083   34.4079 C   0  0  0  0  0  0  0  0  0  0  0  0
    1.8520    3.3233   34.0918 O   0  0  0  0  0  0  0  0  0  0  0  0
    3.4256    1.8106   33.9846 N   0  0  0  0  0  0  0  0  0  0  0  0
  1  2  1  0  0  0  0
  1  3  2  0  0  0  0
  4  1  1  1  0  0  0
  4  6  1  0  0  0  0
  4  5  1  0  0  0  0
  6  7  1  0  0  0  0
  7  8  1  0  0  0  0
  8  9  1  0  0  0  0
  9 10  1  0  0  0  0
 10 12  1  0  0  0  0
 10 11  2  0  0  0  0
M  CHG  2   2  -1   5   1
M  END
>  <CHROM.1>
27.02594505,104.39442167,-45.47004277,167.95429889,179.01538382,-57.11268002
1.38689012,1.17777637,37.86945185,1.91302999,0.60094672,1.62938568

>  <Name>
1kod cryst

>  <RI>
0

>  <Rbt.Current_Directory>
/home/itssahil/PROJECTS/Mol_Feturizer/New_Systems/rnas/1kod

>  <Rbt.Executable>
rbdock ($Id: //depot/dev/client3/rdock/2013.1/src/exe/rbdock.cxx#4 $)

>  <Rbt.Library>
libRbt.so (2013.1, Build901 2013/11/27)

>  <Rbt.Parameter_File>
/export/apps/rDock/src/rDock_2013.1_src/data/scripts/dock_solv.prm

>  <Rbt.Receptor>
prm/pocket_docking_8.prm

>  <SCORE>
-26.911

>  <SCORE.INTER>
-23.5732

>  <SCORE.INTER.CONST>
1

>  <SCORE.INTER.POLAR>
-4.67696

>  <SCORE.INTER.ROT>
5

>  <SCORE.INTER.SOLV>
15.4344

>  <SCORE.INTER.VDW>
-12.2037

>  <SCORE.INTER.norm>
-1.96444

>  <SCORE.INTRA>
-3.33773

>  <SCORE.INTRA.DIHEDRAL>
-0.137546

>  <SCORE.INTRA.DIHEDRAL.0>
7.7847

>  <SCORE.INTRA.POLAR>
0

>  <SCORE.INTRA.POLAR.0>
0

>  <SCORE.INTRA.REPUL>
0

>  <SCORE.INTRA.REPUL.0>
0

>  <SCORE.INTRA.SOLV>
-2.69328

>  <SCORE.INTRA.SOLV.lig_0>
-57.5465

>  <SCORE.INTRA.VDW>
-1.92232

>  <SCORE.INTRA.VDW.0>
1.39369

>  <SCORE.INTRA.norm>
-0.278144

>  <SCORE.RESTR>
0

>  <SCORE.RESTR.CAVITY>
0

>  <SCORE.RESTR.norm>
0

>  <SCORE.SYSTEM>
0

>  <SCORE.SYSTEM.CONST>
0

>  <SCORE.SYSTEM.DIHEDRAL>
0

>  <SCORE.SYSTEM.SOLV>
0

>  <SCORE.SYSTEM.norm>
0

>  <SCORE.heavy>
12

>  <SCORE.norm>
-2.24258

>  <SYMMETRIC_BONDS>
4 1 2

>  <RMSD>
5.306

$$$$
1kod cryst
 OpenBabel11021811393D
libRbt.so/2013.1/901 2013/11/27
 12 11  0  0  0  0  0  0  0  0999 V2000
    1.6963    0.7933   34.8123 C   0  0  0  0  0  0  0  0  0  0  0  0
    1.7314    1.6426   35.6903 O   0  5  0  0  0  0  0  0  0  0  0  0
    1.6905   -0.4118   35.0301 O   0  0  0  0  0  0  0  0  0  0  0  0
    1.6542    1.2713   33.3474 C   0  0  1  0  0  0  0  0  0  0  0  0
    0.8233    0.3252   32.5417 N   0  3  0  0  0  0  0  0  0  0  0  0
    1.0544    2.6938   33.2524 C   0  0  0  0  0  0  0  0  0  0  0  0
    2.0518    3.7307   33.7522 C   0  0  0  0  0  0  0  0  0  0  0  0
    1.3402    5.0603   33.9926 C   0  0  0  0  0  0  0  0  0  0  0  0
    2.0468    6.1355   33.2288 N   0  0  0  0  0  0  0  0  0  0  0  0
    2.5738    7.1562   33.8506 C   0  0  0  0  0  0  0  0  0  0  0  0
    2.2932    8.3061   33.5197 O   0  0  0  0  0  0  0  0  0  0  0  0
    3.4172    6.9577   34.8214 N   0  0  0  0  0  0  0  0  0  0  0  0
  1  2  1  0  0  0  0
  1  3  2  0  0  0  0
  4  1  1  1  0  0  0
  4  6  1  0  0  0  0
  4  5  1  0  0  0  0
  6  7  1  0  0  0  0
  7  8  1  0  0  0  0
  8  9  1  0  0  0  0
  9 10  1  0  0  0  0
 10 12  1  0  0  0  0
 10 11  2  0  0  0  0
M  CHG  2   2  -1   5   1
M  END
>  <CHROM.1>
-145.60566155,73.86353384,171.86192548,-165.48460113,-125.81915739,60.41750628
1.86259966,3.61895834,33.98392794,-1.96755257,-1.13385110,-0.40193555

>  <Name>
1kod cryst

>  <RI>
0

>  <Rbt.Current_Directory>
/home/itssahil/PROJECTS/Mol_Feturizer/New_Systems/rnas/1kod

>  <Rbt.Executable>
rbdock ($Id: //depot/dev/client3/rdock/2013.1/src/exe/rbdock.cxx#4 $)

>  <Rbt.Library>
libRbt.so (2013.1, Build901 2013/11/27)

>  <Rbt.Parameter_File>
/export/apps/rDock/src/rDock_2013.1_src/data/scripts/dock_solv.prm

>  <Rbt.Receptor>
prm/pocket_docking_6.prm

>  <SCORE>
-25.9499

>  <SCORE.INTER>
-24.1809

>  <SCORE.INTER.CONST>
1

>  <SCORE.INTER.POLAR>
-4.21837

>  <SCORE.INTER.ROT>
5

>  <SCORE.INTER.SOLV>
25.201

>  <SCORE.INTER.VDW>
-17.393

>  <SCORE.INTER.norm>
-2.01507

>  <SCORE.INTRA>
-1.76903

>  <SCORE.INTRA.DIHEDRAL>
1.50156

>  <SCORE.INTRA.DIHEDRAL.0>
7.7847

>  <SCORE.INTRA.POLAR>
0

>  <SCORE.INTRA.POLAR.0>
0

>  <SCORE.INTRA.REPUL>
0

>  <SCORE.INTRA.REPUL.0>
0

>  <SCORE.INTRA.SOLV>
-2.12946

>  <SCORE.INTRA.SOLV.lig_0>
-57.5465

>  <SCORE.INTRA.VDW>
-1.45508

>  <SCORE.INTRA.VDW.0>
1.39369

>  <SCORE.INTRA.norm>
-0.147419

>  <SCORE.RESTR>
0

>  <SCORE.RESTR.CAVITY>
0

>  <SCORE.RESTR.norm>
0

>  <SCORE.SYSTEM>
0

>  <SCORE.SYSTEM.CONST>
0

>  <SCORE.SYSTEM.DIHEDRAL>
0

>  <SCORE.SYSTEM.SOLV>
0

>  <SCORE.SYSTEM.norm>
0

>  <SCORE.heavy>
12

>  <SCORE.norm>
-2.16249

>  <SYMMETRIC_BONDS>
4 1 2

>  <RMSD>
5.325

$$$$
1kod cryst
 OpenBabel11021811393D
libRbt.so/2013.1/901 2013/11/27
 12 11  0  0  0  0  0  0  0  0999 V2000
    4.9400    2.7052   35.3083 C   0  0  0  0  0  0  0  0  0  0  0  0
    5.0862    2.9054   36.5050 O   0  5  0  0  0  0  0  0  0  0  0  0
    5.7454    3.0570   34.4555 O   0  0  0  0  0  0  0  0  0  0  0  0
    3.6680    1.9644   34.8508 C   0  0  1  0  0  0  0  0  0  0  0  0
    3.3747    0.8501   35.8031 N   0  3  0  0  0  0  0  0  0  0  0  0
    2.4606    2.9298   34.7991 C   0  0  0  0  0  0  0  0  0  0  0  0
    2.6770    4.0028   33.7400 C   0  0  0  0  0  0  0  0  0  0  0  0
    1.7638    5.1951   34.0162 C   0  0  0  0  0  0  0  0  0  0  0  0
    2.1725    6.3351   33.1376 N   0  0  0  0  0  0  0  0  0  0  0  0
    2.6012    7.4543   33.6570 C   0  0  0  0  0  0  0  0  0  0  0  0
    2.0915    8.5278   33.3436 O   0  0  0  0  0  0  0  0  0  0  0  0
    3.5887    7.4383   34.5043 N   0  0  0  0  0  0  0  0  0  0  0  0
  1  2  1  0  0  0  0
  1  3  2  0  0  0  0
  4  1  1  1  0  0  0
  4  6  1  0  0  0  0
  4  5  1  0  0  0  0
  6  7  1  0  0  0  0
  7  8  1  0  0  0  0
  8  9  1  0  0  0  0
  9 10  1  0  0  0  0
 10 12  1  0  0  0  0
 10 11  2  0  0  0  0
M  CHG  2   2  -1   5   1
M  END
>  <CHROM.1>
-40.59344176,64.70024227,-168.00701912,-160.24857211,169.11977843,62.23671839
3.36786449,4.43788152,34.53349817,-1.24565016,-0.35992089,-0.21197750

>  <Name>
1kod cryst

>  <RI>
0

>  <Rbt.Current_Directory>
/home/itssahil/PROJECTS/Mol_Feturizer/New_Systems/rnas/1kod

>  <Rbt.Executable>
rbdock ($Id: //depot/dev/client3/rdock/2013.1/src/exe/rbdock.cxx#4 $)

>  <Rbt.Library>
libRbt.so (2013.1, Build901 2013/11/27)

>  <Rbt.Parameter_File>
/export/apps/rDock/src/rDock_2013.1_src/data/scripts/dock_solv.prm

>  <Rbt.Receptor>
prm/pocket_docking_8.prm

>  <SCORE>
-18.9362

>  <SCORE.INTER>
-13.552

>  <SCORE.INTER.CONST>
1

>  <SCORE.INTER.POLAR>
-2.88834

>  <SCORE.INTER.ROT>
5

>  <SCORE.INTER.SOLV>
15.3753

>  <SCORE.INTER.VDW>
-11.4653

>  <SCORE.INTER.norm>
-1.12933

>  <SCORE.INTRA>
-5.38416

>  <SCORE.INTRA.DIHEDRAL>
-3.18909

>  <SCORE.INTRA.DIHEDRAL.0>
7.7847

>  <SCORE.INTRA.POLAR>
0

>  <SCORE.INTRA.POLAR.0>
0

>  <SCORE.INTRA.REPUL>
0

>  <SCORE.INTRA.REPUL.0>
0

>  <SCORE.INTRA.SOLV>
-2.4432

>  <SCORE.INTRA.SOLV.lig_0>
-57.5465

>  <SCORE.INTRA.VDW>
-2.56802

>  <SCORE.INTRA.VDW.0>
1.39369

>  <SCORE.INTRA.norm>
-0.44868

>  <SCORE.RESTR>
0

>  <SCORE.RESTR.CAVITY>
0

>  <SCORE.RESTR.norm>
0

>  <SCORE.SYSTEM>
0

>  <SCORE.SYSTEM.CONST>
0

>  <SCORE.SYSTEM.DIHEDRAL>
0

>  <SCORE.SYSTEM.SOLV>
0

>  <SCORE.SYSTEM.norm>
0

>  <SCORE.heavy>
12

>  <SCORE.norm>
-1.57801

>  <SYMMETRIC_BONDS>
4 1 2

>  <RMSD>
5.330

$$$$
1kod cryst
 OpenBabel11021811393D
libRbt.so/2013.1/901 2013/11/27
 12 11  0  0  0  0  0  0  0  0999 V2000
    7.2512    3.4349   34.5255 C   0  0  0  0  0  0  0  0  0  0  0  0
    7.6031    4.4952   34.0301 O   0  5  0  0  0  0  0  0  0  0  0  0
    7.8118    2.9092   35.4788 O   0  0  0  0  0  0  0  0  0  0  0  0
    6.0287    2.7230   33.9130 C   0  0  1  0  0  0  0  0  0  0  0  0
    6.4675    1.4411   33.2816 N   0  3  0  0  0  0  0  0  0  0  0  0
    4.9671    2.4266   34.9981 C   0  0  0  0  0  0  0  0  0  0  0  0
    3.5630    2.5290   34.4167 C   0  0  0  0  0  0  0  0  0  0  0  0
    3.3464    3.9212   33.8277 C   0  0  0  0  0  0  0  0  0  0  0  0
    1.8810    4.2227   33.8174 N   0  0  0  0  0  0  0  0  0  0  0  0
    1.4420    5.4006   34.1723 C   0  0  0  0  0  0  0  0  0  0  0  0
    0.5783    5.5137   35.0393 O   0  0  0  0  0  0  0  0  0  0  0  0
    1.9106    6.4676   33.5933 N   0  0  0  0  0  0  0  0  0  0  0  0
  1  2  1  0  0  0  0
  1  3  2  0  0  0  0
  4  1  1  1  0  0  0
  4  6  1  0  0  0  0
  4  5  1  0  0  0  0
  6  7  1  0  0  0  0
  7  8  1  0  0  0  0
  8  9  1  0  0  0  0
  9 10  1  0  0  0  0
 10 12  1  0  0  0  0
 10 11  2  0  0  0  0
M  CHG  2   2  -1   5   1
M  END
>  <CHROM.1>
113.56296806,146.14793532,-76.74245275,-57.93527271,-155.38844708,-42.58169469
4.42026250,3.78787545,34.24424472,-0.41985893,-0.04840940,0.04593706

>  <Name>
1kod cryst

>  <RI>
0

>  <Rbt.Current_Directory>
/home/itssahil/PROJECTS/Mol_Feturizer/New_Systems/rnas/1kod

>  <Rbt.Executable>
rbdock ($Id: //depot/dev/client3/rdock/2013.1/src/exe/rbdock.cxx#4 $)

>  <Rbt.Library>
libRbt.so (2013.1, Build901 2013/11/27)

>  <Rbt.Parameter_File>
/export/apps/rDock/src/rDock_2013.1_src/data/scripts/dock_solv.prm

>  <Rbt.Receptor>
prm/pocket_docking_6.prm

>  <SCORE>
-19.9886

>  <SCORE.INTER>
-17.2805

>  <SCORE.INTER.CONST>
1

>  <SCORE.INTER.POLAR>
-3.4617

>  <SCORE.INTER.ROT>
5

>  <SCORE.INTER.SOLV>
12.8246

>  <SCORE.INTER.VDW>
-11.1895

>  <SCORE.INTER.norm>
-1.44004

>  <SCORE.INTRA>
-2.71141

>  <SCORE.INTRA.DIHEDRAL>
0.200521

>  <SCORE.INTRA.DIHEDRAL.0>
7.7847

>  <SCORE.INTRA.POLAR>
0

>  <SCORE.INTRA.POLAR.0>
0

>  <SCORE.INTRA.REPUL>
0

>  <SCORE.INTRA.REPUL.0>
0

>  <SCORE.INTRA.SOLV>
-2.46359

>  <SCORE.INTRA.SOLV.lig_0>
-57.5465

>  <SCORE.INTRA.VDW>
-1.57988

>  <SCORE.INTRA.VDW.0>
1.39369

>  <SCORE.INTRA.norm>
-0.225951

>  <SCORE.RESTR>
0.00328603

>  <SCORE.RESTR.CAVITY>
0.00328603

>  <SCORE.RESTR.norm>
0.000273836

>  <SCORE.SYSTEM>
0

>  <SCORE.SYSTEM.CONST>
0

>  <SCORE.SYSTEM.DIHEDRAL>
0

>  <SCORE.SYSTEM.SOLV>
0

>  <SCORE.SYSTEM.norm>
0

>  <SCORE.heavy>
12

>  <SCORE.norm>
-1.66572

>  <SYMMETRIC_BONDS>
4 1 2

>  <RMSD>
5.353

$$$$
1kod cryst
 OpenBabel11021811393D
libRbt.so/2013.1/901 2013/11/27
 12 11  0  0  0  0  0  0  0  0999 V2000
    3.4631    4.3328   41.3022 C   0  0  0  0  0  0  0  0  0  0  0  0
    4.4299    4.9081   40.8249 O   0  5  0  0  0  0  0  0  0  0  0  0
    2.7175    4.8309   42.1362 O   0  0  0  0  0  0  0  0  0  0  0  0
    3.1674    2.8983   40.8215 C   0  0  1  0  0  0  0  0  0  0  0  0
    3.3037    1.9531   41.9716 N   0  3  0  0  0  0  0  0  0  0  0  0
    1.7379    2.7994   40.2393 C   0  0  0  0  0  0  0  0  0  0  0  0
    1.5762    1.5197   39.4293 C   0  0  0  0  0  0  0  0  0  0  0  0
    2.2665    1.6725   38.0758 C   0  0  0  0  0  0  0  0  0  0  0  0
    2.1051    0.4028   37.3010 N   0  0  0  0  0  0  0  0  0  0  0  0
    2.4440    0.3451   36.0409 C   0  0  0  0  0  0  0  0  0  0  0  0
    1.6475   -0.0536   35.1941 O   0  0  0  0  0  0  0  0  0  0  0  0
    3.6421    0.6983   35.6759 N   0  0  0  0  0  0  0  0  0  0  0  0
  1  2  1  0  0  0  0
  1  3  2  0  0  0  0
  4  1  1  1  0  0  0
  4  6  1  0  0  0  0
  4  5  1  0  0  0  0
  6  7  1  0  0  0  0
  7  8  1  0  0  0  0
  8  9  1  0  0  0  0
  9 10  1  0  0  0  0
 10 12  1  0  0  0  0
 10 11  2  0  0  0  0
M  CHG  2   2  -1   5   1
M  END
>  <CHROM.1>
116.41994161,164.47078493,-45.89322657,-76.20183990,179.57019696,-9.66675741
2.72883745,2.18181127,39.10011899,-1.37280796,-0.80080746,-2.00751659

>  <Name>
1kod cryst

>  <RI>
0

>  <Rbt.Current_Directory>
/home/itssahil/PROJECTS/Mol_Feturizer/New_Systems/rnas/1kod

>  <Rbt.Executable>
rbdock ($Id: //depot/dev/client3/rdock/2013.1/src/exe/rbdock.cxx#4 $)

>  <Rbt.Library>
libRbt.so (2013.1, Build901 2013/11/27)

>  <Rbt.Parameter_File>
/export/apps/rDock/src/rDock_2013.1_src/data/scripts/dock_solv.prm

>  <Rbt.Receptor>
prm/pocket_docking_8.prm

>  <SCORE>
-22.0021

>  <SCORE.INTER>
-17.1076

>  <SCORE.INTER.CONST>
1

>  <SCORE.INTER.POLAR>
-3.76792

>  <SCORE.INTER.ROT>
5

>  <SCORE.INTER.SOLV>
14.8701

>  <SCORE.INTER.VDW>
-10.7354

>  <SCORE.INTER.norm>
-1.42564

>  <SCORE.INTRA>
-4.89442

>  <SCORE.INTRA.DIHEDRAL>
-3.23036

>  <SCORE.INTRA.DIHEDRAL.0>
7.7847

>  <SCORE.INTRA.POLAR>
0

>  <SCORE.INTRA.POLAR.0>
0

>  <SCORE.INTRA.REPUL>
0

>  <SCORE.INTRA.REPUL.0>
0

>  <SCORE.INTRA.SOLV>
-2.57192

>  <SCORE.INTRA.SOLV.lig_0>
-57.5465

>  <SCORE.INTRA.VDW>
-1.99328

>  <SCORE.INTRA.VDW.0>
1.39369

>  <SCORE.INTRA.norm>
-0.407868

>  <SCORE.RESTR>
0

>  <SCORE.RESTR.CAVITY>
0

>  <SCORE.RESTR.norm>
0

>  <SCORE.SYSTEM>
0

>  <SCORE.SYSTEM.CONST>
0

>  <SCORE.SYSTEM.DIHEDRAL>
0

>  <SCORE.SYSTEM.SOLV>
0

>  <SCORE.SYSTEM.norm>
0

>  <SCORE.heavy>
12

>  <SCORE.norm>
-1.83351

>  <SYMMETRIC_BONDS>
4 1 2

>  <RMSD>
5.411

$$$$
1kod cryst
 OpenBabel11021811393D
libRbt.so/2013.1/901 2013/11/27
 12 11  0  0  0  0  0  0  0  0999 V2000
    4.1939    4.2927   41.5963 C   0  0  0  0  0  0  0  0  0  0  0  0
    3.5348    4.6021   42.5777 O   0  5  0  0  0  0  0  0  0  0  0  0
    5.0387    5.0182   41.0867 O   0  0  0  0  0  0  0  0  0  0  0  0
    3.9461    2.9068   40.9685 C   0  0  1  0  0  0  0  0  0  0  0  0
    3.3980    1.9833   42.0083 N   0  3  0  0  0  0  0  0  0  0  0  0
    2.9477    3.0091   39.7917 C   0  0  0  0  0  0  0  0  0  0  0  0
    2.7744    1.6551   39.1162 C   0  0  0  0  0  0  0  0  0  0  0  0
    1.8936    1.8029   37.8776 C   0  0  0  0  0  0  0  0  0  0  0  0
    1.7360    0.4635   37.2297 N   0  0  0  0  0  0  0  0  0  0  0  0
    2.1154    0.2737   35.9943 C   0  0  0  0  0  0  0  0  0  0  0  0
    1.3405   -0.1977   35.1650 O   0  0  0  0  0  0  0  0  0  0  0  0
    3.3307    0.5714   35.6373 N   0  0  0  0  0  0  0  0  0  0  0  0
  1  2  1  0  0  0  0
  1  3  2  0  0  0  0
  4  1  1  1  0  0  0
  4  6  1  0  0  0  0
  4  5  1  0  0  0  0
  6  7  1  0  0  0  0
  7  8  1  0  0  0  0
  8  9  1  0  0  0  0
  9 10  1  0  0  0  0
 10 12  1  0  0  0  0
 10 11  2  0  0  0  0
M  CHG  2   2  -1   5   1
M  END
>  <CHROM.1>
-25.13367760,176.31941746,75.33681069,-174.53551018,179.99886946,58.92571575
3.02571401,2.18555745,39.10671364,-1.12481506,-0.87736108,-1.78786180

>  <Name>
1kod cryst

>  <RI>
0

>  <Rbt.Current_Directory>
/home/itssahil/PROJECTS/Mol_Feturizer/New_Systems/rnas/1kod

>  <Rbt.Executable>
rbdock ($Id: //depot/dev/client3/rdock/2013.1/src/exe/rbdock.cxx#4 $)

>  <Rbt.Library>
libRbt.so (2013.1, Build901 2013/11/27)

>  <Rbt.Parameter_File>
/export/apps/rDock/src/rDock_2013.1_src/data/scripts/dock_solv.prm

>  <Rbt.Receptor>
prm/pocket_docking_7.prm

>  <SCORE>
-23.3165

>  <SCORE.INTER>
-17.3879

>  <SCORE.INTER.CONST>
1

>  <SCORE.INTER.POLAR>
-3.72593

>  <SCORE.INTER.ROT>
5

>  <SCORE.INTER.SOLV>
14.8348

>  <SCORE.INTER.VDW>
-11.0504

>  <SCORE.INTER.norm>
-1.44899

>  <SCORE.INTRA>
-5.92858

>  <SCORE.INTRA.DIHEDRAL>
-4.81815

>  <SCORE.INTRA.DIHEDRAL.0>
7.7847

>  <SCORE.INTRA.POLAR>
0

>  <SCORE.INTRA.POLAR.0>
0

>  <SCORE.INTRA.REPUL>
0

>  <SCORE.INTRA.REPUL.0>
0

>  <SCORE.INTRA.SOLV>
-2.29314

>  <SCORE.INTRA.SOLV.lig_0>
-57.5465

>  <SCORE.INTRA.VDW>
-2.37294

>  <SCORE.INTRA.VDW.0>
1.39369

>  <SCORE.INTRA.norm>
-0.494049

>  <SCORE.RESTR>
0

>  <SCORE.RESTR.CAVITY>
0

>  <SCORE.RESTR.norm>
0

>  <SCORE.SYSTEM>
0

>  <SCORE.SYSTEM.CONST>
0

>  <SCORE.SYSTEM.DIHEDRAL>
0

>  <SCORE.SYSTEM.SOLV>
0

>  <SCORE.SYSTEM.norm>
0

>  <SCORE.heavy>
12

>  <SCORE.norm>
-1.94304

>  <SYMMETRIC_BONDS>
4 1 2

>  <RMSD>
5.421

$$$$
1kod cryst
 OpenBabel11021811393D
libRbt.so/2013.1/901 2013/11/27
 12 11  0  0  0  0  0  0  0  0999 V2000
    5.3887    2.1304   35.6424 C   0  0  0  0  0  0  0  0  0  0  0  0
    4.4401    1.3602   35.6523 O   0  5  0  0  0  0  0  0  0  0  0  0
    5.9996    2.4717   36.6474 O   0  0  0  0  0  0  0  0  0  0  0  0
    5.8406    2.7010   34.2836 C   0  0  1  0  0  0  0  0  0  0  0  0
    6.4543    1.6091   33.4677 N   0  3  0  0  0  0  0  0  0  0  0  0
    4.6410    3.3055   33.5170 C   0  0  0  0  0  0  0  0  0  0  0  0
    4.0107    4.4392   34.3155 C   0  0  0  0  0  0  0  0  0  0  0  0
    2.7627    4.9474   33.5971 C   0  0  0  0  0  0  0  0  0  0  0  0
    2.0728    5.9484   34.4692 N   0  0  0  0  0  0  0  0  0  0  0  0
    2.4201    7.2072   34.4399 C   0  0  0  0  0  0  0  0  0  0  0  0
    2.7176    7.8007   35.4742 O   0  0  0  0  0  0  0  0  0  0  0  0
    2.4379    7.8477   33.3073 N   0  0  0  0  0  0  0  0  0  0  0  0
  1  2  1  0  0  0  0
  1  3  2  0  0  0  0
  4  1  1  1  0  0  0
  4  6  1  0  0  0  0
  4  5  1  0  0  0  0
  6  7  1  0  0  0  0
  7  8  1  0  0  0  0
  8  9  1  0  0  0  0
  9 10  1  0  0  0  0
 10 12  1  0  0  0  0
 10 11  2  0  0  0  0
M  CHG  2   2  -1   5   1
M  END
>  <CHROM.1>
-69.48061244,60.38350381,-52.27540547,-175.45232685,173.58929627,-93.64803928
4.11122679,4.30042178,34.56594481,0.14132225,-1.01506464,1.60870098

>  <Name>
1kod cryst

>  <RI>
0

>  <Rbt.Current_Directory>
/home/itssahil/PROJECTS/Mol_Feturizer/New_Systems/rnas/1kod

>  <Rbt.Executable>
rbdock ($Id: //depot/dev/client3/rdock/2013.1/src/exe/rbdock.cxx#4 $)

>  <Rbt.Library>
libRbt.so (2013.1, Build901 2013/11/27)

>  <Rbt.Parameter_File>
/export/apps/rDock/src/rDock_2013.1_src/data/scripts/dock_solv.prm

>  <Rbt.Receptor>
prm/pocket_docking_5.prm

>  <SCORE>
-22.0559

>  <SCORE.INTER>
-16.0136

>  <SCORE.INTER.CONST>
1

>  <SCORE.INTER.POLAR>
-3.47297

>  <SCORE.INTER.ROT>
5

>  <SCORE.INTER.SOLV>
15.6451

>  <SCORE.INTER.VDW>
-11.2476

>  <SCORE.INTER.norm>
-1.33447

>  <SCORE.INTRA>
-6.04225

>  <SCORE.INTRA.DIHEDRAL>
-5.15537

>  <SCORE.INTRA.DIHEDRAL.0>
7.7847

>  <SCORE.INTRA.POLAR>
0

>  <SCORE.INTRA.POLAR.0>
0

>  <SCORE.INTRA.REPUL>
0

>  <SCORE.INTRA.REPUL.0>
0

>  <SCORE.INTRA.SOLV>
-2.54708

>  <SCORE.INTRA.SOLV.lig_0>
-57.5465

>  <SCORE.INTRA.VDW>
-2.19103

>  <SCORE.INTRA.VDW.0>
1.39369

>  <SCORE.INTRA.norm>
-0.503521

>  <SCORE.RESTR>
0

>  <SCORE.RESTR.CAVITY>
0

>  <SCORE.RESTR.norm>
0

>  <SCORE.SYSTEM>
0

>  <SCORE.SYSTEM.CONST>
0

>  <SCORE.SYSTEM.DIHEDRAL>
0

>  <SCORE.SYSTEM.SOLV>
0

>  <SCORE.SYSTEM.norm>
0

>  <SCORE.heavy>
12

>  <SCORE.norm>
-1.83799

>  <SYMMETRIC_BONDS>
4 1 2

>  <RMSD>
5.500

$$$$
1kod cryst
 OpenBabel11021811393D
libRbt.so/2013.1/901 2013/11/27
 12 11  0  0  0  0  0  0  0  0999 V2000
    3.9049    4.4890   39.7305 C   0  0  0  0  0  0  0  0  0  0  0  0
    3.5586    4.9385   38.6482 O   0  5  0  0  0  0  0  0  0  0  0  0
    4.2848    5.1821   40.6660 O   0  0  0  0  0  0  0  0  0  0  0  0
    3.8566    2.9607   39.9258 C   0  0  1  0  0  0  0  0  0  0  0  0
    5.1229    2.5046   40.5763 N   0  3  0  0  0  0  0  0  0  0  0  0
    2.6506    2.5589   40.8069 C   0  0  0  0  0  0  0  0  0  0  0  0
    1.3414    2.9551   40.1369 C   0  0  0  0  0  0  0  0  0  0  0  0
    0.1667    2.3253   40.8820 C   0  0  0  0  0  0  0  0  0  0  0  0
   -0.5852    1.4361   39.9425 N   0  0  0  0  0  0  0  0  0  0  0  0
    0.0373    0.5140   39.2582 C   0  0  0  0  0  0  0  0  0  0  0  0
   -0.0799    0.4523   38.0363 O   0  0  0  0  0  0  0  0  0  0  0  0
    0.7784   -0.3601   39.8746 N   0  0  0  0  0  0  0  0  0  0  0  0
  1  2  1  0  0  0  0
  1  3  2  0  0  0  0
  4  1  1  1  0  0  0
  4  6  1  0  0  0  0
  4  5  1  0  0  0  0
  6  7  1  0  0  0  0
  7  8  1  0  0  0  0
  8  9  1  0  0  0  0
  9 10  1  0  0  0  0
 10 12  1  0  0  0  0
 10 11  2  0  0  0  0
M  CHG  2   2  -1   5   1
M  END
>  <CHROM.1>
134.32778480,61.96585766,-169.07401001,169.42444735,-119.88035052,-127.62138170
2.12043124,2.48489231,39.87363066,0.66876901,-0.23541647,-0.11372882

>  <Name>
1kod cryst

>  <RI>
0

>  <Rbt.Current_Directory>
/home/itssahil/PROJECTS/Mol_Feturizer/New_Systems/rnas/1kod

>  <Rbt.Executable>
rbdock ($Id: //depot/dev/client3/rdock/2013.1/src/exe/rbdock.cxx#4 $)

>  <Rbt.Library>
libRbt.so (2013.1, Build901 2013/11/27)

>  <Rbt.Parameter_File>
/export/apps/rDock/src/rDock_2013.1_src/data/scripts/dock_solv.prm

>  <Rbt.Receptor>
prm/pocket_docking_8.prm

>  <SCORE>
-23.4858

>  <SCORE.INTER>
-20.6501

>  <SCORE.INTER.CONST>
1

>  <SCORE.INTER.POLAR>
-4.53201

>  <SCORE.INTER.ROT>
5

>  <SCORE.INTER.SOLV>
14.0206

>  <SCORE.INTER.VDW>
-10.2669

>  <SCORE.INTER.norm>
-1.72084

>  <SCORE.INTRA>
-2.83575

>  <SCORE.INTRA.DIHEDRAL>
0.734315

>  <SCORE.INTRA.DIHEDRAL.0>
7.7847

>  <SCORE.INTRA.POLAR>
0

>  <SCORE.INTRA.POLAR.0>
0

>  <SCORE.INTRA.REPUL>
0

>  <SCORE.INTRA.REPUL.0>
0

>  <SCORE.INTRA.SOLV>
-2.04727

>  <SCORE.INTRA.SOLV.lig_0>
-57.5465

>  <SCORE.INTRA.VDW>
-2.17927

>  <SCORE.INTRA.VDW.0>
1.39369

>  <SCORE.INTRA.norm>
-0.236312

>  <SCORE.RESTR>
0

>  <SCORE.RESTR.CAVITY>
0

>  <SCORE.RESTR.norm>
0

>  <SCORE.SYSTEM>
0

>  <SCORE.SYSTEM.CONST>
0

>  <SCORE.SYSTEM.DIHEDRAL>
0

>  <SCORE.SYSTEM.SOLV>
0

>  <SCORE.SYSTEM.norm>
0

>  <SCORE.heavy>
12

>  <SCORE.norm>
-1.95715

>  <SYMMETRIC_BONDS>
4 1 2

>  <RMSD>
6.097

$$$$
1kod cryst
 OpenBabel11021811393D
libRbt.so/2013.1/901 2013/11/27
 12 11  0  0  0  0  0  0  0  0999 V2000
    1.7306    1.1892   34.7250 C   0  0  0  0  0  0  0  0  0  0  0  0
    1.2630    0.2437   34.1080 O   0  5  0  0  0  0  0  0  0  0  0  0
    1.4377    2.3578   34.5055 O   0  0  0  0  0  0  0  0  0  0  0  0
    2.7457    0.8884   35.8455 C   0  0  1  0  0  0  0  0  0  0  0  0
    4.0774    1.4556   35.4723 N   0  3  0  0  0  0  0  0  0  0  0  0
    2.2803    1.5039   37.1859 C   0  0  0  0  0  0  0  0  0  0  0  0
    1.1318    0.6965   37.7767 C   0  0  0  0  0  0  0  0  0  0  0  0
    0.7354    1.2753   39.1330 C   0  0  0  0  0  0  0  0  0  0  0  0
    1.8419    1.0290   40.1095 N   0  0  0  0  0  0  0  0  0  0  0  0
    1.7478    1.4521   41.3417 C   0  0  0  0  0  0  0  0  0  0  0  0
    2.6327    2.1470   41.8362 O   0  0  0  0  0  0  0  0  0  0  0  0
    0.7148    1.1239   42.0618 N   0  0  0  0  0  0  0  0  0  0  0  0
  1  2  1  0  0  0  0
  1  3  2  0  0  0  0
  4  1  1  6  0  0  0
  4  6  1  0  0  0  0
  4  5  1  0  0  0  0
  6  7  1  0  0  0  0
  7  8  1  0  0  0  0
  8  9  1  0  0  0  0
  9 10  1  0  0  0  0
 10 12  1  0  0  0  0
 10 11  2  0  0  0  0
M  CHG  2   2  -1   5   1
M  END
>  <CHROM.1>
115.08149307,74.37083241,-53.63879407,177.04160845,-68.38853000,-1.07984742
1.88664235,1.28943225,37.83452375,1.48379755,-0.26905192,-1.62792443

>  <Name>
1kod cryst

>  <RI>
0

>  <Rbt.Current_Directory>
/home/itssahil/PROJECTS/Mol_Feturizer/New_Systems/rnas/1kod

>  <Rbt.Executable>
rbdock ($Id: //depot/dev/client3/rdock/2013.1/src/exe/rbdock.cxx#4 $)

>  <Rbt.Library>
libRbt.so (2013.1, Build901 2013/11/27)

>  <Rbt.Parameter_File>
/export/apps/rDock/src/rDock_2013.1_src/data/scripts/dock_solv.prm

>  <Rbt.Receptor>
prm/pocket_docking_8.prm

>  <SCORE>
-24.7128

>  <SCORE.INTER>
-18.9729

>  <SCORE.INTER.CONST>
1

>  <SCORE.INTER.POLAR>
-3.82064

>  <SCORE.INTER.ROT>
5

>  <SCORE.INTER.SOLV>
15.5238

>  <SCORE.INTER.VDW>
-12.0211

>  <SCORE.INTER.norm>
-1.58107

>  <SCORE.INTRA>
-5.73988

>  <SCORE.INTRA.DIHEDRAL>
-4.45299

>  <SCORE.INTRA.DIHEDRAL.0>
7.7847

>  <SCORE.INTRA.POLAR>
0

>  <SCORE.INTRA.POLAR.0>
0

>  <SCORE.INTRA.REPUL>
0

>  <SCORE.INTRA.REPUL.0>
0

>  <SCORE.INTRA.SOLV>
-2.72265

>  <SCORE.INTRA.SOLV.lig_0>
-57.5465

>  <SCORE.INTRA.VDW>
-2.15206

>  <SCORE.INTRA.VDW.0>
1.39369

>  <SCORE.INTRA.norm>
-0.478324

>  <SCORE.RESTR>
0

>  <SCORE.RESTR.CAVITY>
0

>  <SCORE.RESTR.norm>
0

>  <SCORE.SYSTEM>
0

>  <SCORE.SYSTEM.CONST>
0

>  <SCORE.SYSTEM.DIHEDRAL>
0

>  <SCORE.SYSTEM.SOLV>
0

>  <SCORE.SYSTEM.norm>
0

>  <SCORE.heavy>
12

>  <SCORE.norm>
-2.0594

>  <SYMMETRIC_BONDS>
4 1 2

>  <RMSD>
6.102

$$$$
1kod cryst
 OpenBabel11021811393D
libRbt.so/2013.1/901 2013/11/27
 12 11  0  0  0  0  0  0  0  0999 V2000
    5.2112    3.4976   41.7983 C   0  0  0  0  0  0  0  0  0  0  0  0
    6.2568    3.1673   42.3377 O   0  5  0  0  0  0  0  0  0  0  0  0
    4.1185    3.4591   42.3497 O   0  0  0  0  0  0  0  0  0  0  0  0
    5.2768    3.9930   40.3400 C   0  0  1  0  0  0  0  0  0  0  0  0
    5.9883    2.9783   39.5041 N   0  3  0  0  0  0  0  0  0  0  0  0
    3.8554    4.2217   39.7748 C   0  0  0  0  0  0  0  0  0  0  0  0
    3.0378    2.9386   39.8445 C   0  0  0  0  0  0  0  0  0  0  0  0
    1.9780    2.9391   38.7450 C   0  0  0  0  0  0  0  0  0  0  0  0
    0.8576    2.0333   39.1484 N   0  0  0  0  0  0  0  0  0  0  0  0
    0.8486    0.7810   38.7773 C   0  0  0  0  0  0  0  0  0  0  0  0
   -0.1260    0.3042   38.1999 O   0  0  0  0  0  0  0  0  0  0  0  0
    1.8744    0.0225   39.0335 N   0  0  0  0  0  0  0  0  0  0  0  0
  1  2  1  0  0  0  0
  1  3  2  0  0  0  0
  4  1  1  1  0  0  0
  4  6  1  0  0  0  0
  4  5  1  0  0  0  0
  6  7  1  0  0  0  0
  7  8  1  0  0  0  0
  8  9  1  0  0  0  0
  9 10  1  0  0  0  0
 10 12  1  0  0  0  0
 10 11  2  0  0  0  0
M  CHG  2   2  -1   5   1
M  END
>  <CHROM.1>
53.26239324,-58.17544394,28.28677406,-152.57253869,-156.22269050,86.93255521
3.28401470,2.49222667,39.98901731,0.12433092,0.66084721,2.16121104

>  <Name>
1kod cryst

>  <RI>
0

>  <Rbt.Current_Directory>
/home/itssahil/PROJECTS/Mol_Feturizer/New_Systems/rnas/1kod

>  <Rbt.Executable>
rbdock ($Id: //depot/dev/client3/rdock/2013.1/src/exe/rbdock.cxx#4 $)

>  <Rbt.Library>
libRbt.so (2013.1, Build901 2013/11/27)

>  <Rbt.Parameter_File>
/export/apps/rDock/src/rDock_2013.1_src/data/scripts/dock_solv.prm

>  <Rbt.Receptor>
prm/pocket_docking_8.prm

>  <SCORE>
-19.6314

>  <SCORE.INTER>
-19.7299

>  <SCORE.INTER.CONST>
1

>  <SCORE.INTER.POLAR>
-4.44816

>  <SCORE.INTER.ROT>
5

>  <SCORE.INTER.SOLV>
13.1266

>  <SCORE.INTER.VDW>
-9.63493

>  <SCORE.INTER.norm>
-1.64416

>  <SCORE.INTRA>
0.0985279

>  <SCORE.INTRA.DIHEDRAL>
0.954539

>  <SCORE.INTRA.DIHEDRAL.0>
7.7847

>  <SCORE.INTRA.POLAR>
0

>  <SCORE.INTRA.POLAR.0>
0

>  <SCORE.INTRA.REPUL>
0

>  <SCORE.INTRA.REPUL.0>
0

>  <SCORE.INTRA.SOLV>
-0.857193

>  <SCORE.INTRA.SOLV.lig_0>
-57.5465

>  <SCORE.INTRA.VDW>
0.0498545

>  <SCORE.INTRA.VDW.0>
1.39369

>  <SCORE.INTRA.norm>
0.00821065

>  <SCORE.RESTR>
0

>  <SCORE.RESTR.CAVITY>
0

>  <SCORE.RESTR.norm>
0

>  <SCORE.SYSTEM>
0

>  <SCORE.SYSTEM.CONST>
0

>  <SCORE.SYSTEM.DIHEDRAL>
0

>  <SCORE.SYSTEM.SOLV>
0

>  <SCORE.SYSTEM.norm>
0

>  <SCORE.heavy>
12

>  <SCORE.norm>
-1.63595

>  <SYMMETRIC_BONDS>
4 1 2

>  <RMSD>
6.213

$$$$
1kod cryst
 OpenBabel11021811393D
libRbt.so/2013.1/901 2013/11/27
 12 11  0  0  0  0  0  0  0  0999 V2000
    1.7453    4.9905   33.8279 C   0  0  0  0  0  0  0  0  0  0  0  0
    1.9997    3.8958   34.3076 O   0  5  0  0  0  0  0  0  0  0  0  0
    0.9243    5.1697   32.9371 O   0  0  0  0  0  0  0  0  0  0  0  0
    2.5022    6.2142   34.3810 C   0  0  1  0  0  0  0  0  0  0  0  0
    2.5473    7.2821   33.3360 N   0  3  0  0  0  0  0  0  0  0  0  0
    1.8057    6.7621   35.6486 C   0  0  0  0  0  0  0  0  0  0  0  0
    2.1258    5.8902   36.8557 C   0  0  0  0  0  0  0  0  0  0  0  0
    1.1329    6.1769   37.9799 C   0  0  0  0  0  0  0  0  0  0  0  0
    1.3980    7.5442   38.5266 N   0  0  0  0  0  0  0  0  0  0  0  0
    0.9336    8.6041   37.9209 C   0  0  0  0  0  0  0  0  0  0  0  0
    1.6821    9.5277   37.6092 O   0  0  0  0  0  0  0  0  0  0  0  0
   -0.3373    8.6938   37.6565 N   0  0  0  0  0  0  0  0  0  0  0  0
  1  2  1  0  0  0  0
  1  3  2  0  0  0  0
  4  1  1  6  0  0  0
  4  6  1  0  0  0  0
  4  5  1  0  0  0  0
  6  7  1  0  0  0  0
  7  8  1  0  0  0  0
  8  9  1  0  0  0  0
  9 10  1  0  0  0  0
 10 12  1  0  0  0  0
 10 11  2  0  0  0  0
M  CHG  2   2  -1   5   1
M  END
>  <CHROM.1>
154.58898655,77.36382856,177.48560171,-163.28016304,-69.83608355,-98.73316625
1.52999175,6.75436370,35.88272173,0.39824569,-1.38871387,2.92362850

>  <Name>
1kod cryst

>  <RI>
0

>  <Rbt.Current_Directory>
/home/itssahil/PROJECTS/Mol_Feturizer/New_Systems/rnas/1kod

>  <Rbt.Executable>
rbdock ($Id: //depot/dev/client3/rdock/2013.1/src/exe/rbdock.cxx#4 $)

>  <Rbt.Library>
libRbt.so (2013.1, Build901 2013/11/27)

>  <Rbt.Parameter_File>
/export/apps/rDock/src/rDock_2013.1_src/data/scripts/dock_solv.prm

>  <Rbt.Receptor>
prm/pocket_docking_6.prm

>  <SCORE>
-17.3194

>  <SCORE.INTER>
-12.449

>  <SCORE.INTER.CONST>
1

>  <SCORE.INTER.POLAR>
-3.29837

>  <SCORE.INTER.ROT>
5

>  <SCORE.INTER.SOLV>
20.4406

>  <SCORE.INTER.VDW>
-11.0517

>  <SCORE.INTER.norm>
-1.03742

>  <SCORE.INTRA>
-4.87036

>  <SCORE.INTRA.DIHEDRAL>
-3.08207

>  <SCORE.INTRA.DIHEDRAL.0>
7.7847

>  <SCORE.INTRA.POLAR>
0

>  <SCORE.INTRA.POLAR.0>
0

>  <SCORE.INTRA.REPUL>
0

>  <SCORE.INTRA.REPUL.0>
0

>  <SCORE.INTRA.SOLV>
-1.64165

>  <SCORE.INTRA.SOLV.lig_0>
-57.5465

>  <SCORE.INTRA.VDW>
-2.5085

>  <SCORE.INTRA.VDW.0>
1.39369

>  <SCORE.INTRA.norm>
-0.405863

>  <SCORE.RESTR>
0

>  <SCORE.RESTR.CAVITY>
0

>  <SCORE.RESTR.norm>
0

>  <SCORE.SYSTEM>
0

>  <SCORE.SYSTEM.CONST>
0

>  <SCORE.SYSTEM.DIHEDRAL>
0

>  <SCORE.SYSTEM.SOLV>
0

>  <SCORE.SYSTEM.norm>
0

>  <SCORE.heavy>
12

>  <SCORE.norm>
-1.44328

>  <SYMMETRIC_BONDS>
4 1 2

>  <RMSD>
6.214

$$$$
1kod cryst
 OpenBabel11021811393D
libRbt.so/2013.1/901 2013/11/27
 12 11  0  0  0  0  0  0  0  0999 V2000
    7.6496    3.1309   33.0375 C   0  0  0  0  0  0  0  0  0  0  0  0
    8.0537    3.6887   32.0281 O   0  5  0  0  0  0  0  0  0  0  0  0
    8.2752    3.0889   34.0894 O   0  0  0  0  0  0  0  0  0  0  0  0
    6.2710    2.4437   32.9793 C   0  0  1  0  0  0  0  0  0  0  0  0
    6.4594    0.9658   32.8575 N   0  3  0  0  0  0  0  0  0  0  0  0
    5.4494    2.7557   34.2521 C   0  0  0  0  0  0  0  0  0  0  0  0
    5.0262    4.2187   34.2720 C   0  0  0  0  0  0  0  0  0  0  0  0
    3.9133    4.4223   35.2976 C   0  0  0  0  0  0  0  0  0  0  0  0
    3.3716    5.8100   35.1590 N   0  0  0  0  0  0  0  0  0  0  0  0
    3.0722    6.2925   33.9827 C   0  0  0  0  0  0  0  0  0  0  0  0
    3.5370    7.3668   33.6079 O   0  0  0  0  0  0  0  0  0  0  0  0
    2.2613    5.6394   33.2023 N   0  0  0  0  0  0  0  0  0  0  0  0
  1  2  1  0  0  0  0
  1  3  2  0  0  0  0
  4  1  1  1  0  0  0
  4  6  1  0  0  0  0
  4  5  1  0  0  0  0
  6  7  1  0  0  0  0
  7  8  1  0  0  0  0
  8  9  1  0  0  0  0
  9 10  1  0  0  0  0
 10 12  1  0  0  0  0
 10 11  2  0  0  0  0
M  CHG  2   2  -1   5   1
M  END
>  <CHROM.1>
102.98824947,69.61685134,-74.75575481,164.21565280,-171.58565411,-132.92368964
5.28755781,4.13421040,33.71114864,-0.63965554,0.37614914,-0.18169732

>  <Name>
1kod cryst

>  <RI>
0

>  <Rbt.Current_Directory>
/home/itssahil/PROJECTS/Mol_Feturizer/New_Systems/rnas/1kod

>  <Rbt.Executable>
rbdock ($Id: //depot/dev/client3/rdock/2013.1/src/exe/rbdock.cxx#4 $)

>  <Rbt.Library>
libRbt.so (2013.1, Build901 2013/11/27)

>  <Rbt.Parameter_File>
/export/apps/rDock/src/rDock_2013.1_src/data/scripts/dock_solv.prm

>  <Rbt.Receptor>
prm/pocket_docking_8.prm

>  <SCORE>
-21.974

>  <SCORE.INTER>
-17.4858

>  <SCORE.INTER.CONST>
1

>  <SCORE.INTER.POLAR>
-4.13272

>  <SCORE.INTER.ROT>
5

>  <SCORE.INTER.SOLV>
14.5352

>  <SCORE.INTER.VDW>
-9.65986

>  <SCORE.INTER.norm>
-1.45715

>  <SCORE.INTRA>
-4.48825

>  <SCORE.INTRA.DIHEDRAL>
-3.46119

>  <SCORE.INTRA.DIHEDRAL.0>
7.7847

>  <SCORE.INTRA.POLAR>
0

>  <SCORE.INTRA.POLAR.0>
0

>  <SCORE.INTRA.REPUL>
0

>  <SCORE.INTRA.REPUL.0>
0

>  <SCORE.INTRA.SOLV>
-2.49887

>  <SCORE.INTRA.SOLV.lig_0>
-57.5465

>  <SCORE.INTRA.VDW>
-1.50822

>  <SCORE.INTRA.VDW.0>
1.39369

>  <SCORE.INTRA.norm>
-0.374021

>  <SCORE.RESTR>
0

>  <SCORE.RESTR.CAVITY>
0

>  <SCORE.RESTR.norm>
0

>  <SCORE.SYSTEM>
0

>  <SCORE.SYSTEM.CONST>
0

>  <SCORE.SYSTEM.DIHEDRAL>
0

>  <SCORE.SYSTEM.SOLV>
0

>  <SCORE.SYSTEM.norm>
0

>  <SCORE.heavy>
12

>  <SCORE.norm>
-1.83117

>  <SYMMETRIC_BONDS>
4 1 2

>  <RMSD>
6.226

$$$$
1kod cryst
 OpenBabel11021811393D
libRbt.so/2013.1/901 2013/11/27
 12 11  0  0  0  0  0  0  0  0999 V2000
    5.4743    3.9040   41.2683 C   0  0  0  0  0  0  0  0  0  0  0  0
    6.3224    3.0998   41.6251 O   0  5  0  0  0  0  0  0  0  0  0  0
    5.4879    5.0896   41.5749 O   0  0  0  0  0  0  0  0  0  0  0  0
    4.3240    3.3925   40.3786 C   0  0  1  0  0  0  0  0  0  0  0  0
    4.8574    2.3875   39.4092 N   0  3  0  0  0  0  0  0  0  0  0  0
    3.2147    2.7418   41.2379 C   0  0  0  0  0  0  0  0  0  0  0  0
    1.9500    2.5359   40.4146 C   0  0  0  0  0  0  0  0  0  0  0  0
    0.7627    2.2872   41.3421 C   0  0  0  0  0  0  0  0  0  0  0  0
   -0.1598    1.3009   40.6981 N   0  0  0  0  0  0  0  0  0  0  0  0
    0.2824    0.4698   39.7926 C   0  0  0  0  0  0  0  0  0  0  0  0
   -0.2637    0.3888   38.6946 O   0  0  0  0  0  0  0  0  0  0  0  0
    1.3025   -0.2933   40.0574 N   0  0  0  0  0  0  0  0  0  0  0  0
  1  2  1  0  0  0  0
  1  3  2  0  0  0  0
  4  1  1  1  0  0  0
  4  6  1  0  0  0  0
  4  5  1  0  0  0  0
  6  7  1  0  0  0  0
  7  8  1  0  0  0  0
  8  9  1  0  0  0  0
  9 10  1  0  0  0  0
 10 12  1  0  0  0  0
 10 11  2  0  0  0  0
M  CHG  2   2  -1   5   1
M  END
>  <CHROM.1>
-38.15535038,166.68458109,-46.99328127,-163.48778629,-144.41860009,-156.48960349
2.82378841,2.25042645,40.52024141,0.54302305,0.18201132,0.67785639

>  <Name>
1kod cryst

>  <RI>
0

>  <Rbt.Current_Directory>
/home/itssahil/PROJECTS/Mol_Feturizer/New_Systems/rnas/1kod

>  <Rbt.Executable>
rbdock ($Id: //depot/dev/client3/rdock/2013.1/src/exe/rbdock.cxx#4 $)

>  <Rbt.Library>
libRbt.so (2013.1, Build901 2013/11/27)

>  <Rbt.Parameter_File>
/export/apps/rDock/src/rDock_2013.1_src/data/scripts/dock_solv.prm

>  <Rbt.Receptor>
prm/pocket_docking_7.prm

>  <SCORE>
-24.7952

>  <SCORE.INTER>
-23.0997

>  <SCORE.INTER.CONST>
1

>  <SCORE.INTER.POLAR>
-5.00962

>  <SCORE.INTER.ROT>
5

>  <SCORE.INTER.SOLV>
15.0342

>  <SCORE.INTER.VDW>
-10.6458

>  <SCORE.INTER.norm>
-1.92497

>  <SCORE.INTRA>
-1.69546

>  <SCORE.INTRA.DIHEDRAL>
0.0912396

>  <SCORE.INTRA.DIHEDRAL.0>
7.7847

>  <SCORE.INTRA.POLAR>
0

>  <SCORE.INTRA.POLAR.0>
0

>  <SCORE.INTRA.REPUL>
0

>  <SCORE.INTRA.REPUL.0>
0

>  <SCORE.INTRA.SOLV>
-1.96751

>  <SCORE.INTRA.SOLV.lig_0>
-57.5465

>  <SCORE.INTRA.VDW>
-0.757325

>  <SCORE.INTRA.VDW.0>
1.39369

>  <SCORE.INTRA.norm>
-0.141289

>  <SCORE.RESTR>
0

>  <SCORE.RESTR.CAVITY>
0

>  <SCORE.RESTR.norm>
0

>  <SCORE.SYSTEM>
0

>  <SCORE.SYSTEM.CONST>
0

>  <SCORE.SYSTEM.DIHEDRAL>
0

>  <SCORE.SYSTEM.SOLV>
0

>  <SCORE.SYSTEM.norm>
0

>  <SCORE.heavy>
12

>  <SCORE.norm>
-2.06626

>  <SYMMETRIC_BONDS>
4 1 2

>  <RMSD>
6.804

$$$$
1kod cryst
 OpenBabel11021811393D
libRbt.so/2013.1/901 2013/11/27
 12 11  0  0  0  0  0  0  0  0999 V2000
    2.5040    2.7221   36.0102 C   0  0  0  0  0  0  0  0  0  0  0  0
    2.1215    3.8819   35.9683 O   0  5  0  0  0  0  0  0  0  0  0  0
    3.5220    2.3202   35.4607 O   0  0  0  0  0  0  0  0  0  0  0  0
    1.6542    1.7103   36.8042 C   0  0  1  0  0  0  0  0  0  0  0  0
    1.4889    0.4624   35.9979 N   0  3  0  0  0  0  0  0  0  0  0  0
    2.3291    1.3673   38.1529 C   0  0  0  0  0  0  0  0  0  0  0  0
    2.5164    2.6235   38.9936 C   0  0  0  0  0  0  0  0  0  0  0  0
    3.0620    2.2493   40.3699 C   0  0  0  0  0  0  0  0  0  0  0  0
    3.6563    3.4665   41.0053 N   0  0  0  0  0  0  0  0  0  0  0  0
    4.3709    3.3666   42.0941 C   0  0  0  0  0  0  0  0  0  0  0  0
    4.1018    4.0408   43.0858 O   0  0  0  0  0  0  0  0  0  0  0  0
    5.3889    2.5568   42.1283 N   0  0  0  0  0  0  0  0  0  0  0  0
  1  2  1  0  0  0  0
  1  3  2  0  0  0  0
  4  1  1  6  0  0  0
  4  6  1  0  0  0  0
  4  5  1  0  0  0  0
  6  7  1  0  0  0  0
  7  8  1  0  0  0  0
  8  9  1  0  0  0  0
  9 10  1  0  0  0  0
 10 12  1  0  0  0  0
 10 11  2  0  0  0  0
M  CHG  2   2  -1   5   1
M  END
>  <CHROM.1>
134.47869100,59.10010435,-84.08151506,174.72407458,161.56453023,10.63705337
3.07142832,2.55231580,38.81912181,-2.51395549,1.15697743,2.26275979

>  <Name>
1kod cryst

>  <RI>
0

>  <Rbt.Current_Directory>
/home/itssahil/PROJECTS/Mol_Feturizer/New_Systems/rnas/1kod

>  <Rbt.Executable>
rbdock ($Id: //depot/dev/client3/rdock/2013.1/src/exe/rbdock.cxx#4 $)

>  <Rbt.Library>
libRbt.so (2013.1, Build901 2013/11/27)

>  <Rbt.Parameter_File>
/export/apps/rDock/src/rDock_2013.1_src/data/scripts/dock_solv.prm

>  <Rbt.Receptor>
prm/pocket_docking_7.prm

>  <SCORE>
-17.7674

>  <SCORE.INTER>
-13.1233

>  <SCORE.INTER.CONST>
1

>  <SCORE.INTER.POLAR>
-3.07332

>  <SCORE.INTER.ROT>
5

>  <SCORE.INTER.SOLV>
12.4557

>  <SCORE.INTER.VDW>
-9.58967

>  <SCORE.INTER.norm>
-1.09361

>  <SCORE.INTRA>
-4.64412

>  <SCORE.INTRA.DIHEDRAL>
-2.98306

>  <SCORE.INTRA.DIHEDRAL.0>
7.7847

>  <SCORE.INTRA.POLAR>
0

>  <SCORE.INTRA.POLAR.0>
0

>  <SCORE.INTRA.REPUL>
0

>  <SCORE.INTRA.REPUL.0>
0

>  <SCORE.INTRA.SOLV>
-2.68112

>  <SCORE.INTRA.SOLV.lig_0>
-57.5465

>  <SCORE.INTRA.VDW>
-1.81203

>  <SCORE.INTRA.VDW.0>
1.39369

>  <SCORE.INTRA.norm>
-0.38701

>  <SCORE.RESTR>
0

>  <SCORE.RESTR.CAVITY>
0

>  <SCORE.RESTR.norm>
0

>  <SCORE.SYSTEM>
0

>  <SCORE.SYSTEM.CONST>
0

>  <SCORE.SYSTEM.DIHEDRAL>
0

>  <SCORE.SYSTEM.SOLV>
0

>  <SCORE.SYSTEM.norm>
0

>  <SCORE.heavy>
12

>  <SCORE.norm>
-1.48062

>  <SYMMETRIC_BONDS>
4 1 2

>  <RMSD>
6.907

$$$$
1kod cryst
 OpenBabel11021811393D
libRbt.so/2013.1/901 2013/11/27
 12 11  0  0  0  0  0  0  0  0999 V2000
   -3.9619    3.0471   28.4002 C   0  0  0  0  0  0  0  0  0  0  0  0
   -5.0894    3.4531   28.6396 O   0  5  0  0  0  0  0  0  0  0  0  0
   -2.9521    3.4845   28.9373 O   0  0  0  0  0  0  0  0  0  0  0  0
   -3.8071    1.9170   27.3633 C   0  0  1  0  0  0  0  0  0  0  0  0
   -2.5509    2.1311   26.5819 N   0  3  0  0  0  0  0  0  0  0  0  0
   -3.7518    0.5375   28.0607 C   0  0  0  0  0  0  0  0  0  0  0  0
   -4.0209   -0.5798   27.0612 C   0  0  0  0  0  0  0  0  0  0  0  0
   -2.8973   -0.6328   26.0285 C   0  0  0  0  0  0  0  0  0  0  0  0
   -3.4364   -1.1953   24.7511 N   0  0  0  0  0  0  0  0  0  0  0  0
   -4.0980   -0.4377   23.9179 C   0  0  0  0  0  0  0  0  0  0  0  0
   -5.2148   -0.7651   23.5228 O   0  0  0  0  0  0  0  0  0  0  0  0
   -3.5662    0.6690   23.4871 N   0  0  0  0  0  0  0  0  0  0  0  0
  1  2  1  0  0  0  0
  1  3  2  0  0  0  0
  4  1  1  1  0  0  0
  4  6  1  0  0  0  0
  4  5  1  0  0  0  0
  6  7  1  0  0  0  0
  7  8  1  0  0  0  0
  8  9  1  0  0  0  0
  9 10  1  0  0  0  0
 10 12  1  0  0  0  0
 10 11  2  0  0  0  0
M  CHG  2   2  -1   5   1
M  END
>  <CHROM.1>
144.06894536,162.93600614,95.90905899,65.35674940,-152.54093152,-98.99127686
-3.76105379,0.99711387,26.37190512,1.33806492,-1.38177438,0.65422892

>  <Name>
1kod cryst

>  <RI>
0

>  <Rbt.Current_Directory>
/home/itssahil/PROJECTS/Mol_Feturizer/New_Systems/rnas/1kod

>  <Rbt.Executable>
rbdock ($Id: //depot/dev/client3/rdock/2013.1/src/exe/rbdock.cxx#4 $)

>  <Rbt.Library>
libRbt.so (2013.1, Build901 2013/11/27)

>  <Rbt.Parameter_File>
/export/apps/rDock/src/rDock_2013.1_src/data/scripts/dock_solv.prm

>  <Rbt.Receptor>
prm/blind_docking_100.prm

>  <SCORE>
-22.1431

>  <SCORE.INTER>
-21.7337

>  <SCORE.INTER.CONST>
1

>  <SCORE.INTER.POLAR>
-4.26044

>  <SCORE.INTER.ROT>
5

>  <SCORE.INTER.SOLV>
17.9271

>  <SCORE.INTER.VDW>
-13.1967

>  <SCORE.INTER.norm>
-1.81114

>  <SCORE.INTRA>
-0.409399

>  <SCORE.INTRA.DIHEDRAL>
0.274771

>  <SCORE.INTRA.DIHEDRAL.0>
7.7847

>  <SCORE.INTRA.POLAR>
0

>  <SCORE.INTRA.POLAR.0>
0

>  <SCORE.INTRA.REPUL>
0

>  <SCORE.INTRA.REPUL.0>
0

>  <SCORE.INTRA.SOLV>
1.54267

>  <SCORE.INTRA.SOLV.lig_0>
-57.5465

>  <SCORE.INTRA.VDW>
-1.31812

>  <SCORE.INTRA.VDW.0>
1.39369

>  <SCORE.INTRA.norm>
-0.0341166

>  <SCORE.RESTR>
0

>  <SCORE.RESTR.CAVITY>
0

>  <SCORE.RESTR.norm>
0

>  <SCORE.SYSTEM>
0

>  <SCORE.SYSTEM.CONST>
0

>  <SCORE.SYSTEM.DIHEDRAL>
0

>  <SCORE.SYSTEM.SOLV>
0

>  <SCORE.SYSTEM.norm>
0

>  <SCORE.heavy>
12

>  <SCORE.norm>
-1.84526

>  <SYMMETRIC_BONDS>
4 1 2

>  <RMSD>
10.222

$$$$
1kod cryst
 OpenBabel11021811393D
libRbt.so/2013.1/901 2013/11/27
 12 11  0  0  0  0  0  0  0  0999 V2000
   -3.5566    1.5295   29.2063 C   0  0  0  0  0  0  0  0  0  0  0  0
   -4.0558    1.2883   30.2953 O   0  5  0  0  0  0  0  0  0  0  0  0
   -2.4808    2.0961   29.0606 O   0  0  0  0  0  0  0  0  0  0  0  0
   -4.3282    1.0910   27.9459 C   0  0  1  0  0  0  0  0  0  0  0  0
   -5.7748    0.9246   28.2841 N   0  3  0  0  0  0  0  0  0  0  0  0
   -4.1793    2.1406   26.8197 C   0  0  0  0  0  0  0  0  0  0  0  0
   -4.4977    1.5220   25.4647 C   0  0  0  0  0  0  0  0  0  0  0  0
   -3.4122    0.5170   25.0860 C   0  0  0  0  0  0  0  0  0  0  0  0
   -3.9675   -0.8672   25.2054 N   0  0  0  0  0  0  0  0  0  0  0  0
   -4.6716   -1.3871   24.2359 C   0  0  0  0  0  0  0  0  0  0  0  0
   -5.7883   -1.8532   24.4510 O   0  0  0  0  0  0  0  0  0  0  0  0
   -4.1829   -1.4278   23.0306 N   0  0  0  0  0  0  0  0  0  0  0  0
  1  2  1  0  0  0  0
  1  3  2  0  0  0  0
  4  1  1  1  0  0  0
  4  6  1  0  0  0  0
  4  5  1  0  0  0  0
  6  7  1  0  0  0  0
  7  8  1  0  0  0  0
  8  9  1  0  0  0  0
  9 10  1  0  0  0  0
 10 12  1  0  0  0  0
 10 11  2  0  0  0  0
M  CHG  2   2  -1   5   1
M  END
>  <CHROM.1>
21.87899078,160.06200113,-57.38625319,-68.89222991,107.80047677,-97.26642259
-4.26580992,0.44636677,26.60650330,-1.40299317,-0.65647088,-1.97015022

>  <Name>
1kod cryst

>  <RI>
0

>  <Rbt.Current_Directory>
/home/itssahil/PROJECTS/Mol_Feturizer/New_Systems/rnas/1kod

>  <Rbt.Executable>
rbdock ($Id: //depot/dev/client3/rdock/2013.1/src/exe/rbdock.cxx#4 $)

>  <Rbt.Library>
libRbt.so (2013.1, Build901 2013/11/27)

>  <Rbt.Parameter_File>
/export/apps/rDock/src/rDock_2013.1_src/data/scripts/dock_solv.prm

>  <Rbt.Receptor>
prm/blind_docking_80.prm

>  <SCORE>
-12.4247

>  <SCORE.INTER>
-10.2853

>  <SCORE.INTER.CONST>
1

>  <SCORE.INTER.POLAR>
-2.23712

>  <SCORE.INTER.ROT>
5

>  <SCORE.INTER.SOLV>
14.8541

>  <SCORE.INTER.VDW>
-11.2845

>  <SCORE.INTER.norm>
-0.857108

>  <SCORE.INTRA>
-2.13945

>  <SCORE.INTRA.DIHEDRAL>
1.0556

>  <SCORE.INTRA.DIHEDRAL.0>
7.7847

>  <SCORE.INTRA.POLAR>
0

>  <SCORE.INTRA.POLAR.0>
0

>  <SCORE.INTRA.REPUL>
0

>  <SCORE.INTRA.REPUL.0>
0

>  <SCORE.INTRA.SOLV>
-1.14027

>  <SCORE.INTRA.SOLV.lig_0>
-57.5465

>  <SCORE.INTRA.VDW>
-2.09712

>  <SCORE.INTRA.VDW.0>
1.39369

>  <SCORE.INTRA.norm>
-0.178287

>  <SCORE.RESTR>
0

>  <SCORE.RESTR.CAVITY>
0

>  <SCORE.RESTR.norm>
0

>  <SCORE.SYSTEM>
0

>  <SCORE.SYSTEM.CONST>
0

>  <SCORE.SYSTEM.DIHEDRAL>
0

>  <SCORE.SYSTEM.SOLV>
0

>  <SCORE.SYSTEM.norm>
0

>  <SCORE.heavy>
12

>  <SCORE.norm>
-1.0354

>  <SYMMETRIC_BONDS>
4 1 2

>  <RMSD>
10.299

$$$$
1kod cryst
 OpenBabel11021811393D
libRbt.so/2013.1/901 2013/11/27
 12 11  0  0  0  0  0  0  0  0999 V2000
   -4.4409    1.6915   28.9873 C   0  0  0  0  0  0  0  0  0  0  0  0
   -4.5586    0.5216   29.3203 O   0  5  0  0  0  0  0  0  0  0  0  0
   -5.2811    2.5527   29.2158 O   0  0  0  0  0  0  0  0  0  0  0  0
   -3.1577    2.1029   28.2387 C   0  0  1  0  0  0  0  0  0  0  0  0
   -2.2470    0.9223   28.1318 N   0  3  0  0  0  0  0  0  0  0  0  0
   -3.4936    2.6251   26.8221 C   0  0  0  0  0  0  0  0  0  0  0  0
   -4.1283    1.5249   25.9816 C   0  0  0  0  0  0  0  0  0  0  0  0
   -3.8655    1.7874   24.5004 C   0  0  0  0  0  0  0  0  0  0  0  0
   -4.6938    0.8456   23.6846 N   0  0  0  0  0  0  0  0  0  0  0  0
   -4.2458   -0.3437   23.3834 C   0  0  0  0  0  0  0  0  0  0  0  0
   -4.2185   -0.7273   22.2160 O   0  0  0  0  0  0  0  0  0  0  0  0
   -3.8373   -1.1401   24.3279 N   0  0  0  0  0  0  0  0  0  0  0  0
  1  2  1  0  0  0  0
  1  3  2  0  0  0  0
  4  1  1  6  0  0  0
  4  6  1  0  0  0  0
  4  5  1  0  0  0  0
  6  7  1  0  0  0  0
  7  8  1  0  0  0  0
  8  9  1  0  0  0  0
  9 10  1  0  0  0  0
 10 12  1  0  0  0  0
 10 11  2  0  0  0  0
M  CHG  2   2  -1   5   1
M  END
>  <CHROM.1>
-2.85627327,-63.07131750,36.93268466,-153.74133975,-169.97299873,92.76502232
-4.00547629,0.98976260,26.24519892,-1.50722533,1.25418551,-1.96723400

>  <Name>
1kod cryst

>  <RI>
0

>  <Rbt.Current_Directory>
/home/itssahil/PROJECTS/Mol_Feturizer/New_Systems/rnas/1kod

>  <Rbt.Executable>
rbdock ($Id: //depot/dev/client3/rdock/2013.1/src/exe/rbdock.cxx#4 $)

>  <Rbt.Library>
libRbt.so (2013.1, Build901 2013/11/27)

>  <Rbt.Parameter_File>
/export/apps/rDock/src/rDock_2013.1_src/data/scripts/dock_solv.prm

>  <Rbt.Receptor>
prm/blind_docking_100.prm

>  <SCORE>
-23.6438

>  <SCORE.INTER>
-21.2223

>  <SCORE.INTER.CONST>
1

>  <SCORE.INTER.POLAR>
-4.09265

>  <SCORE.INTER.ROT>
5

>  <SCORE.INTER.SOLV>
18.62

>  <SCORE.INTER.VDW>
-13.646

>  <SCORE.INTER.norm>
-1.76853

>  <SCORE.INTRA>
-2.42141

>  <SCORE.INTRA.DIHEDRAL>
-1.51059

>  <SCORE.INTRA.DIHEDRAL.0>
7.7847

>  <SCORE.INTRA.POLAR>
0

>  <SCORE.INTRA.POLAR.0>
0

>  <SCORE.INTRA.REPUL>
0

>  <SCORE.INTRA.REPUL.0>
0

>  <SCORE.INTRA.SOLV>
-0.669658

>  <SCORE.INTRA.SOLV.lig_0>
-57.5465

>  <SCORE.INTRA.VDW>
-1.33128

>  <SCORE.INTRA.VDW.0>
1.39369

>  <SCORE.INTRA.norm>
-0.201784

>  <SCORE.RESTR>
0

>  <SCORE.RESTR.CAVITY>
0

>  <SCORE.RESTR.norm>
0

>  <SCORE.SYSTEM>
0

>  <SCORE.SYSTEM.CONST>
0

>  <SCORE.SYSTEM.DIHEDRAL>
0

>  <SCORE.SYSTEM.SOLV>
0

>  <SCORE.SYSTEM.norm>
0

>  <SCORE.heavy>
12

>  <SCORE.norm>
-1.97031

>  <SYMMETRIC_BONDS>
4 1 2

>  <RMSD>
10.460

$$$$
1kod cryst
 OpenBabel11021811393D
libRbt.so/2013.1/901 2013/11/27
 12 11  0  0  0  0  0  0  0  0999 V2000
   -3.7734    1.9756   27.9537 C   0  0  0  0  0  0  0  0  0  0  0  0
   -4.8267    2.5798   28.0914 O   0  5  0  0  0  0  0  0  0  0  0  0
   -2.9399    1.8483   28.8417 O   0  0  0  0  0  0  0  0  0  0  0  0
   -3.4828    1.3359   26.5816 C   0  0  1  0  0  0  0  0  0  0  0  0
   -2.1529    1.8072   26.0876 N   0  3  0  0  0  0  0  0  0  0  0  0
   -3.4764   -0.2072   26.6869 C   0  0  0  0  0  0  0  0  0  0  0  0
   -3.3250   -0.8381   25.3089 C   0  0  0  0  0  0  0  0  0  0  0  0
   -4.5067   -1.7643   25.0304 C   0  0  0  0  0  0  0  0  0  0  0  0
   -4.7248   -2.6460   26.2194 N   0  0  0  0  0  0  0  0  0  0  0  0
   -5.8551   -3.2811   26.3778 C   0  0  0  0  0  0  0  0  0  0  0  0
   -6.4924   -3.1773   27.4236 O   0  0  0  0  0  0  0  0  0  0  0  0
   -6.3073   -4.0451   25.4265 N   0  0  0  0  0  0  0  0  0  0  0  0
  1  2  1  0  0  0  0
  1  3  2  0  0  0  0
  4  1  1  1  0  0  0
  4  6  1  0  0  0  0
  4  5  1  0  0  0  0
  6  7  1  0  0  0  0
  7  8  1  0  0  0  0
  8  9  1  0  0  0  0
  9 10  1  0  0  0  0
 10 12  1  0  0  0  0
 10 11  2  0  0  0  0
M  CHG  2   2  -1   5   1
M  END
>  <CHROM.1>
126.25330724,174.46632258,80.67547557,-122.27130467,-47.60524799,-17.36564337
-4.31035482,-0.52420502,26.67832475,0.97189720,0.73710577,0.70253106

>  <Name>
1kod cryst

>  <RI>
0

>  <Rbt.Current_Directory>
/home/itssahil/PROJECTS/Mol_Feturizer/New_Systems/rnas/1kod

>  <Rbt.Executable>
rbdock ($Id: //depot/dev/client3/rdock/2013.1/src/exe/rbdock.cxx#4 $)

>  <Rbt.Library>
libRbt.so (2013.1, Build901 2013/11/27)

>  <Rbt.Parameter_File>
/export/apps/rDock/src/rDock_2013.1_src/data/scripts/dock_solv.prm

>  <Rbt.Receptor>
prm/blind_docking_60.prm

>  <SCORE>
-25.9986

>  <SCORE.INTER>
-24.5722

>  <SCORE.INTER.CONST>
1

>  <SCORE.INTER.POLAR>
-5.18496

>  <SCORE.INTER.ROT>
5

>  <SCORE.INTER.SOLV>
20.555

>  <SCORE.INTER.VDW>
-12.8833

>  <SCORE.INTER.norm>
-2.04768

>  <SCORE.INTRA>
-1.42641

>  <SCORE.INTRA.DIHEDRAL>
2.17919

>  <SCORE.INTRA.DIHEDRAL.0>
7.7847

>  <SCORE.INTRA.POLAR>
0

>  <SCORE.INTRA.POLAR.0>
0

>  <SCORE.INTRA.REPUL>
0

>  <SCORE.INTRA.REPUL.0>
0

>  <SCORE.INTRA.SOLV>
-2.20323

>  <SCORE.INTRA.SOLV.lig_0>
-57.5465

>  <SCORE.INTRA.VDW>
-1.41439

>  <SCORE.INTRA.VDW.0>
1.39369

>  <SCORE.INTRA.norm>
-0.118868

>  <SCORE.RESTR>
0

>  <SCORE.RESTR.CAVITY>
0

>  <SCORE.RESTR.norm>
0

>  <SCORE.SYSTEM>
0

>  <SCORE.SYSTEM.CONST>
0

>  <SCORE.SYSTEM.DIHEDRAL>
0

>  <SCORE.SYSTEM.SOLV>
0

>  <SCORE.SYSTEM.norm>
0

>  <SCORE.heavy>
12

>  <SCORE.norm>
-2.16655

>  <SYMMETRIC_BONDS>
4 1 2

>  <RMSD>
10.586

$$$$
1kod cryst
 OpenBabel11021811393D
libRbt.so/2013.1/901 2013/11/27
 12 11  0  0  0  0  0  0  0  0999 V2000
   -3.3377    1.9501   28.2472 C   0  0  0  0  0  0  0  0  0  0  0  0
   -4.3864    2.3766   28.7071 O   0  5  0  0  0  0  0  0  0  0  0  0
   -2.2477    2.0982   28.7853 O   0  0  0  0  0  0  0  0  0  0  0  0
   -3.3954    1.1794   26.9134 C   0  0  1  0  0  0  0  0  0  0  0  0
   -2.3431    1.7061   25.9915 N   0  3  0  0  0  0  0  0  0  0  0  0
   -3.1686   -0.3330   27.1444 C   0  0  0  0  0  0  0  0  0  0  0  0
   -3.7528   -1.1445   25.9955 C   0  0  0  0  0  0  0  0  0  0  0  0
   -5.2781   -1.1081   26.0585 C   0  0  0  0  0  0  0  0  0  0  0  0
   -5.8295   -2.0882   25.0716 N   0  0  0  0  0  0  0  0  0  0  0  0
   -6.3363   -3.2229   25.4736 C   0  0  0  0  0  0  0  0  0  0  0  0
   -5.9426   -4.2880   25.0033 O   0  0  0  0  0  0  0  0  0  0  0  0
   -7.2791   -3.2294   26.3704 N   0  0  0  0  0  0  0  0  0  0  0  0
  1  2  1  0  0  0  0
  1  3  2  0  0  0  0
  4  1  1  1  0  0  0
  4  6  1  0  0  0  0
  4  5  1  0  0  0  0
  6  7  1  0  0  0  0
  7  8  1  0  0  0  0
  8  9  1  0  0  0  0
  9 10  1  0  0  0  0
 10 12  1  0  0  0  0
 10 11  2  0  0  0  0
M  CHG  2   2  -1   5   1
M  END
>  <CHROM.1>
132.03366885,157.50912259,-163.01662818,-71.24760108,-170.59193665,-74.77415306
-4.43413168,-0.49481726,26.64060824,0.94258718,0.54579975,0.79240114

>  <Name>
1kod cryst

>  <RI>
0

>  <Rbt.Current_Directory>
/home/itssahil/PROJECTS/Mol_Feturizer/New_Systems/rnas/1kod

>  <Rbt.Executable>
rbdock ($Id: //depot/dev/client3/rdock/2013.1/src/exe/rbdock.cxx#4 $)

>  <Rbt.Library>
libRbt.so (2013.1, Build901 2013/11/27)

>  <Rbt.Parameter_File>
/export/apps/rDock/src/rDock_2013.1_src/data/scripts/dock_solv.prm

>  <Rbt.Receptor>
prm/blind_docking_100.prm

>  <SCORE>
-29.575

>  <SCORE.INTER>
-24.8702

>  <SCORE.INTER.CONST>
1

>  <SCORE.INTER.POLAR>
-4.22395

>  <SCORE.INTER.ROT>
5

>  <SCORE.INTER.SOLV>
20.6409

>  <SCORE.INTER.VDW>
-16.3139

>  <SCORE.INTER.norm>
-2.07252

>  <SCORE.INTRA>
-4.70485

>  <SCORE.INTRA.DIHEDRAL>
-2.44761

>  <SCORE.INTRA.DIHEDRAL.0>
7.7847

>  <SCORE.INTRA.POLAR>
0

>  <SCORE.INTRA.POLAR.0>
0

>  <SCORE.INTRA.REPUL>
0

>  <SCORE.INTRA.REPUL.0>
0

>  <SCORE.INTRA.SOLV>
-2.30931

>  <SCORE.INTRA.SOLV.lig_0>
-57.5465

>  <SCORE.INTRA.VDW>
-2.32639

>  <SCORE.INTRA.VDW.0>
1.39369

>  <SCORE.INTRA.norm>
-0.392071

>  <SCORE.RESTR>
0

>  <SCORE.RESTR.CAVITY>
0

>  <SCORE.RESTR.norm>
0

>  <SCORE.SYSTEM>
0

>  <SCORE.SYSTEM.CONST>
0

>  <SCORE.SYSTEM.DIHEDRAL>
0

>  <SCORE.SYSTEM.SOLV>
0

>  <SCORE.SYSTEM.norm>
0

>  <SCORE.heavy>
12

>  <SCORE.norm>
-2.46459

>  <SYMMETRIC_BONDS>
4 1 2

>  <RMSD>
10.693

$$$$
1kod cryst
 OpenBabel11021811393D
libRbt.so/2013.1/901 2013/11/27
 12 11  0  0  0  0  0  0  0  0999 V2000
   -3.3632    1.9160   28.2344 C   0  0  0  0  0  0  0  0  0  0  0  0
   -2.2704    2.0602   28.7622 O   0  5  0  0  0  0  0  0  0  0  0  0
   -4.4108    2.3328   28.7124 O   0  0  0  0  0  0  0  0  0  0  0  0
   -3.4210    1.1677   26.8879 C   0  0  1  0  0  0  0  0  0  0  0  0
   -2.3309    1.6688   25.9961 N   0  3  0  0  0  0  0  0  0  0  0  0
   -3.2545   -0.3553   27.1001 C   0  0  0  0  0  0  0  0  0  0  0  0
   -3.8284   -1.1271   25.9191 C   0  0  0  0  0  0  0  0  0  0  0  0
   -5.3505   -1.0049   25.9107 C   0  0  0  0  0  0  0  0  0  0  0  0
   -5.9173   -2.0448   24.9964 N   0  0  0  0  0  0  0  0  0  0  0  0
   -6.3084   -3.1998   25.4644 C   0  0  0  0  0  0  0  0  0  0  0  0
   -5.8852   -4.2483   24.9827 O   0  0  0  0  0  0  0  0  0  0  0  0
   -7.1670   -3.2454   26.4411 N   0  0  0  0  0  0  0  0  0  0  0  0
  1  2  1  0  0  0  0
  1  3  2  0  0  0  0
  4  1  1  1  0  0  0
  4  6  1  0  0  0  0
  4  5  1  0  0  0  0
  6  7  1  0  0  0  0
  7  8  1  0  0  0  0
  8  9  1  0  0  0  0
  9 10  1  0  0  0  0
 10 12  1  0  0  0  0
 10 11  2  0  0  0  0
M  CHG  2   2  -1   5   1
M  END
>  <CHROM.1>
-45.07262376,158.19788442,-46.97982474,-69.64258036,-164.80300427,-85.77354357
-4.44980709,-0.49420816,26.61312998,0.93395838,0.57574453,0.82119432

>  <Name>
1kod cryst

>  <RI>
0

>  <Rbt.Current_Directory>
/home/itssahil/PROJECTS/Mol_Feturizer/New_Systems/rnas/1kod

>  <Rbt.Executable>
rbdock ($Id: //depot/dev/client3/rdock/2013.1/src/exe/rbdock.cxx#4 $)

>  <Rbt.Library>
libRbt.so (2013.1, Build901 2013/11/27)

>  <Rbt.Parameter_File>
/export/apps/rDock/src/rDock_2013.1_src/data/scripts/dock_solv.prm

>  <Rbt.Receptor>
prm/blind_docking_100.prm

>  <SCORE>
-29.5184

>  <SCORE.INTER>
-24.8946

>  <SCORE.INTER.CONST>
1

>  <SCORE.INTER.POLAR>
-4.21517

>  <SCORE.INTER.ROT>
5

>  <SCORE.INTER.SOLV>
20.3464

>  <SCORE.INTER.VDW>
-16.2613

>  <SCORE.INTER.norm>
-2.07455

>  <SCORE.INTRA>
-4.62385

>  <SCORE.INTRA.DIHEDRAL>
-2.4265

>  <SCORE.INTRA.DIHEDRAL.0>
7.7847

>  <SCORE.INTRA.POLAR>
0

>  <SCORE.INTRA.POLAR.0>
0

>  <SCORE.INTRA.REPUL>
0

>  <SCORE.INTRA.REPUL.0>
0

>  <SCORE.INTRA.SOLV>
-2.17295

>  <SCORE.INTRA.SOLV.lig_0>
-57.5465

>  <SCORE.INTRA.VDW>
-2.32412

>  <SCORE.INTRA.VDW.0>
1.39369

>  <SCORE.INTRA.norm>
-0.38532

>  <SCORE.RESTR>
0

>  <SCORE.RESTR.CAVITY>
0

>  <SCORE.RESTR.norm>
0

>  <SCORE.SYSTEM>
0

>  <SCORE.SYSTEM.CONST>
0

>  <SCORE.SYSTEM.DIHEDRAL>
0

>  <SCORE.SYSTEM.SOLV>
0

>  <SCORE.SYSTEM.norm>
0

>  <SCORE.heavy>
12

>  <SCORE.norm>
-2.45987

>  <SYMMETRIC_BONDS>
4 1 2

>  <RMSD>
10.749

$$$$
1kod cryst
 OpenBabel11021811393D
libRbt.so/2013.1/901 2013/11/27
 12 11  0  0  0  0  0  0  0  0999 V2000
   -4.5742    2.4389   28.0063 C   0  0  0  0  0  0  0  0  0  0  0  0
   -4.6450    2.2846   29.2165 O   0  5  0  0  0  0  0  0  0  0  0  0
   -5.2596    3.2376   27.3802 O   0  0  0  0  0  0  0  0  0  0  0  0
   -3.5603    1.5779   27.2272 C   0  0  1  0  0  0  0  0  0  0  0  0
   -2.1930    1.7901   27.7929 N   0  3  0  0  0  0  0  0  0  0  0  0
   -3.9296    0.0788   27.3196 C   0  0  0  0  0  0  0  0  0  0  0  0
   -3.0898   -0.7411   26.3488 C   0  0  0  0  0  0  0  0  0  0  0  0
   -3.5391   -0.4666   24.9154 C   0  0  0  0  0  0  0  0  0  0  0  0
   -4.1143   -1.7208   24.3369 N   0  0  0  0  0  0  0  0  0  0  0  0
   -5.3950   -1.8170   24.0991 C   0  0  0  0  0  0  0  0  0  0  0  0
   -6.0487   -2.7547   24.5507 O   0  0  0  0  0  0  0  0  0  0  0  0
   -5.9861   -0.9207   23.3640 N   0  0  0  0  0  0  0  0  0  0  0  0
  1  2  1  0  0  0  0
  1  3  2  0  0  0  0
  4  1  1  1  0  0  0
  4  6  1  0  0  0  0
  4  5  1  0  0  0  0
  6  7  1  0  0  0  0
  7  8  1  0  0  0  0
  8  9  1  0  0  0  0
  9 10  1  0  0  0  0
 10 12  1  0  0  0  0
 10 11  2  0  0  0  0
M  CHG  2   2  -1   5   1
M  END
>  <CHROM.1>
-56.61398986,169.53087310,-65.59130604,-71.49233775,-114.95875950,-69.85314946
-4.35762179,0.26491746,26.22100079,1.34300186,-0.32782702,0.69870875

>  <Name>
1kod cryst

>  <RI>
0

>  <Rbt.Current_Directory>
/home/itssahil/PROJECTS/Mol_Feturizer/New_Systems/rnas/1kod

>  <Rbt.Executable>
rbdock ($Id: //depot/dev/client3/rdock/2013.1/src/exe/rbdock.cxx#4 $)

>  <Rbt.Library>
libRbt.so (2013.1, Build901 2013/11/27)

>  <Rbt.Parameter_File>
/export/apps/rDock/src/rDock_2013.1_src/data/scripts/dock_solv.prm

>  <Rbt.Receptor>
prm/blind_docking_100.prm

>  <SCORE>
-25.8674

>  <SCORE.INTER>
-23.0076

>  <SCORE.INTER.CONST>
1

>  <SCORE.INTER.POLAR>
-4.43358

>  <SCORE.INTER.ROT>
5

>  <SCORE.INTER.SOLV>
15.4358

>  <SCORE.INTER.VDW>
-12.6384

>  <SCORE.INTER.norm>
-1.9173

>  <SCORE.INTRA>
-2.85979

>  <SCORE.INTRA.DIHEDRAL>
0.876861

>  <SCORE.INTRA.DIHEDRAL.0>
7.7847

>  <SCORE.INTRA.POLAR>
0

>  <SCORE.INTRA.POLAR.0>
0

>  <SCORE.INTRA.REPUL>
0

>  <SCORE.INTRA.REPUL.0>
0

>  <SCORE.INTRA.SOLV>
-1.98281

>  <SCORE.INTRA.SOLV.lig_0>
-57.5465

>  <SCORE.INTRA.VDW>
-2.30681

>  <SCORE.INTRA.VDW.0>
1.39369

>  <SCORE.INTRA.norm>
-0.238316

>  <SCORE.RESTR>
0

>  <SCORE.RESTR.CAVITY>
0

>  <SCORE.RESTR.norm>
0

>  <SCORE.SYSTEM>
0

>  <SCORE.SYSTEM.CONST>
0

>  <SCORE.SYSTEM.DIHEDRAL>
0

>  <SCORE.SYSTEM.SOLV>
0

>  <SCORE.SYSTEM.norm>
0

>  <SCORE.heavy>
12

>  <SCORE.norm>
-2.15561

>  <SYMMETRIC_BONDS>
4 1 2

>  <RMSD>
10.763

$$$$
1kod cryst
 OpenBabel11021811393D
libRbt.so/2013.1/901 2013/11/27
 12 11  0  0  0  0  0  0  0  0999 V2000
   -3.2442    1.5462   27.8468 C   0  0  0  0  0  0  0  0  0  0  0  0
   -2.4383    2.4258   28.1119 O   0  5  0  0  0  0  0  0  0  0  0  0
   -3.7573    0.8169   28.6863 O   0  0  0  0  0  0  0  0  0  0  0  0
   -3.6366    1.3485   26.3693 C   0  0  1  0  0  0  0  0  0  0  0  0
   -2.9036    2.3412   25.5255 N   0  3  0  0  0  0  0  0  0  0  0  0
   -3.2917   -0.0836   25.8978 C   0  0  0  0  0  0  0  0  0  0  0  0
   -4.3191   -0.5776   24.8878 C   0  0  0  0  0  0  0  0  0  0  0  0
   -4.2245   -2.0957   24.7528 C   0  0  0  0  0  0  0  0  0  0  0  0
   -4.6082   -2.7251   26.0549 N   0  0  0  0  0  0  0  0  0  0  0  0
   -5.7299   -3.3842   26.1698 C   0  0  0  0  0  0  0  0  0  0  0  0
   -6.5326   -3.1075   27.0585 O   0  0  0  0  0  0  0  0  0  0  0  0
   -5.9975   -4.3553   25.3460 N   0  0  0  0  0  0  0  0  0  0  0  0
  1  2  1  0  0  0  0
  1  3  2  0  0  0  0
  4  1  1  1  0  0  0
  4  6  1  0  0  0  0
  4  5  1  0  0  0  0
  6  7  1  0  0  0  0
  7  8  1  0  0  0  0
  8  9  1  0  0  0  0
  9 10  1  0  0  0  0
 10 12  1  0  0  0  0
 10 11  2  0  0  0  0
M  CHG  2   2  -1   5   1
M  END
>  <CHROM.1>
-0.18641859,145.83239558,-129.19573147,-162.96565004,64.84953635,-70.25596028
-4.21616465,-0.63848445,26.39988797,0.52592111,1.03720814,1.22527695

>  <Name>
1kod cryst

>  <RI>
0

>  <Rbt.Current_Directory>
/home/itssahil/PROJECTS/Mol_Feturizer/New_Systems/rnas/1kod

>  <Rbt.Executable>
rbdock ($Id: //depot/dev/client3/rdock/2013.1/src/exe/rbdock.cxx#4 $)

>  <Rbt.Library>
libRbt.so (2013.1, Build901 2013/11/27)

>  <Rbt.Parameter_File>
/export/apps/rDock/src/rDock_2013.1_src/data/scripts/dock_solv.prm

>  <Rbt.Receptor>
prm/blind_docking_100.prm

>  <SCORE>
-24.7442

>  <SCORE.INTER>
-23.1245

>  <SCORE.INTER.CONST>
1

>  <SCORE.INTER.POLAR>
-4.89275

>  <SCORE.INTER.ROT>
5

>  <SCORE.INTER.SOLV>
20.1686

>  <SCORE.INTER.VDW>
-12.7634

>  <SCORE.INTER.norm>
-1.92704

>  <SCORE.INTRA>
-1.65576

>  <SCORE.INTRA.DIHEDRAL>
2.19928

>  <SCORE.INTRA.DIHEDRAL.0>
7.7847

>  <SCORE.INTRA.POLAR>
0

>  <SCORE.INTRA.POLAR.0>
0

>  <SCORE.INTRA.REPUL>
0

>  <SCORE.INTRA.REPUL.0>
0

>  <SCORE.INTRA.SOLV>
-2.24263

>  <SCORE.INTRA.SOLV.lig_0>
-57.5465

>  <SCORE.INTRA.VDW>
-1.63408

>  <SCORE.INTRA.VDW.0>
1.39369

>  <SCORE.INTRA.norm>
-0.13798

>  <SCORE.RESTR>
0.0360406

>  <SCORE.RESTR.CAVITY>
0.0360406

>  <SCORE.RESTR.norm>
0.00300338

>  <SCORE.SYSTEM>
0

>  <SCORE.SYSTEM.CONST>
0

>  <SCORE.SYSTEM.DIHEDRAL>
0

>  <SCORE.SYSTEM.SOLV>
0

>  <SCORE.SYSTEM.norm>
0

>  <SCORE.heavy>
12

>  <SCORE.norm>
-2.06202

>  <SYMMETRIC_BONDS>
4 1 2

>  <RMSD>
10.785

$$$$
1kod cryst
 OpenBabel11021811393D
libRbt.so/2013.1/901 2013/11/27
 12 11  0  0  0  0  0  0  0  0999 V2000
   -4.2475    0.2162   28.0868 C   0  0  0  0  0  0  0  0  0  0  0  0
   -3.6560   -0.8238   27.8381 O   0  5  0  0  0  0  0  0  0  0  0  0
   -5.1118    0.3190   28.9481 O   0  0  0  0  0  0  0  0  0  0  0  0
   -3.8790    1.4693   27.2680 C   0  0  1  0  0  0  0  0  0  0  0  0
   -2.5007    1.9144   27.6377 N   0  3  0  0  0  0  0  0  0  0  0  0
   -3.9346    1.1688   25.7519 C   0  0  0  0  0  0  0  0  0  0  0  0
   -4.3610    2.4075   24.9750 C   0  0  0  0  0  0  0  0  0  0  0  0
   -4.9063    1.9997   23.6082 C   0  0  0  0  0  0  0  0  0  0  0  0
   -3.8727    1.1865   22.8946 N   0  0  0  0  0  0  0  0  0  0  0  0
   -3.9527   -0.1169   22.8700 C   0  0  0  0  0  0  0  0  0  0  0  0
   -3.0034   -0.8111   23.2270 O   0  0  0  0  0  0  0  0  0  0  0  0
   -5.0421   -0.6908   22.4491 N   0  0  0  0  0  0  0  0  0  0  0  0
  1  2  1  0  0  0  0
  1  3  2  0  0  0  0
  4  1  1  1  0  0  0
  4  6  1  0  0  0  0
  4  5  1  0  0  0  0
  6  7  1  0  0  0  0
  7  8  1  0  0  0  0
  8  9  1  0  0  0  0
  9 10  1  0  0  0  0
 10 12  1  0  0  0  0
 10 11  2  0  0  0  0
M  CHG  2   2  -1   5   1
M  END
>  <CHROM.1>
-69.09684678,147.77009924,-168.49109898,-159.13119921,-55.60046075,-80.12945680
-4.01379495,0.66869356,25.47828921,0.94714183,1.49022199,2.11888687

>  <Name>
1kod cryst

>  <RI>
0

>  <Rbt.Current_Directory>
/home/itssahil/PROJECTS/Mol_Feturizer/New_Systems/rnas/1kod

>  <Rbt.Executable>
rbdock ($Id: //depot/dev/client3/rdock/2013.1/src/exe/rbdock.cxx#4 $)

>  <Rbt.Library>
libRbt.so (2013.1, Build901 2013/11/27)

>  <Rbt.Parameter_File>
/export/apps/rDock/src/rDock_2013.1_src/data/scripts/dock_solv.prm

>  <Rbt.Receptor>
prm/blind_docking_60.prm

>  <SCORE>
-28.7966

>  <SCORE.INTER>
-25.0532

>  <SCORE.INTER.CONST>
1

>  <SCORE.INTER.POLAR>
-4.94493

>  <SCORE.INTER.ROT>
5

>  <SCORE.INTER.SOLV>
24.0084

>  <SCORE.INTER.VDW>
-15.1552

>  <SCORE.INTER.norm>
-2.08777

>  <SCORE.INTRA>
-3.74343

>  <SCORE.INTRA.DIHEDRAL>
-0.632209

>  <SCORE.INTRA.DIHEDRAL.0>
7.7847

>  <SCORE.INTRA.POLAR>
0

>  <SCORE.INTRA.POLAR.0>
0

>  <SCORE.INTRA.REPUL>
0

>  <SCORE.INTRA.REPUL.0>
0

>  <SCORE.INTRA.SOLV>
-2.25917

>  <SCORE.INTRA.SOLV.lig_0>
-57.5465

>  <SCORE.INTRA.VDW>
-2.29774

>  <SCORE.INTRA.VDW.0>
1.39369

>  <SCORE.INTRA.norm>
-0.311953

>  <SCORE.RESTR>
0

>  <SCORE.RESTR.CAVITY>
0

>  <SCORE.RESTR.norm>
0

>  <SCORE.SYSTEM>
0

>  <SCORE.SYSTEM.CONST>
0

>  <SCORE.SYSTEM.DIHEDRAL>
0

>  <SCORE.SYSTEM.SOLV>
0

>  <SCORE.SYSTEM.norm>
0

>  <SCORE.heavy>
12

>  <SCORE.norm>
-2.39972

>  <SYMMETRIC_BONDS>
4 1 2

>  <RMSD>
11.158

$$$$
1kod cryst
 OpenBabel11021811393D
libRbt.so/2013.1/901 2013/11/27
 12 11  0  0  0  0  0  0  0  0999 V2000
   -4.1668    0.9412   27.5467 C   0  0  0  0  0  0  0  0  0  0  0  0
   -5.0695    0.1797   27.8605 O   0  5  0  0  0  0  0  0  0  0  0  0
   -3.6691    1.7591   28.3103 O   0  0  0  0  0  0  0  0  0  0  0  0
   -3.6246    0.8624   26.1058 C   0  0  1  0  0  0  0  0  0  0  0  0
   -2.4053    1.7192   25.9883 N   0  3  0  0  0  0  0  0  0  0  0  0
   -3.2680   -0.5959   25.7337 C   0  0  0  0  0  0  0  0  0  0  0  0
   -3.9373   -0.9944   24.4249 C   0  0  0  0  0  0  0  0  0  0  0  0
   -5.4482   -1.0910   24.6240 C   0  0  0  0  0  0  0  0  0  0  0  0
   -5.7256   -1.8420   25.8881 N   0  0  0  0  0  0  0  0  0  0  0  0
   -6.1018   -3.0922   25.8498 C   0  0  0  0  0  0  0  0  0  0  0  0
   -7.1216   -3.4589   26.4294 O   0  0  0  0  0  0  0  0  0  0  0  0
   -5.3837   -3.9649   25.2049 N   0  0  0  0  0  0  0  0  0  0  0  0
  1  2  1  0  0  0  0
  1  3  2  0  0  0  0
  4  1  1  1  0  0  0
  4  6  1  0  0  0  0
  4  5  1  0  0  0  0
  6  7  1  0  0  0  0
  7  8  1  0  0  0  0
  8  9  1  0  0  0  0
  9 10  1  0  0  0  0
 10 12  1  0  0  0  0
 10 11  2  0  0  0  0
M  CHG  2   2  -1   5   1
M  END
>  <CHROM.1>
-171.60938363,127.87099830,67.39273014,-68.73808637,-45.48738569,77.48847283
-4.64340048,-0.78819432,26.18449300,0.80304671,0.77250430,0.88374384

>  <Name>
1kod cryst

>  <RI>
0

>  <Rbt.Current_Directory>
/home/itssahil/PROJECTS/Mol_Feturizer/New_Systems/rnas/1kod

>  <Rbt.Executable>
rbdock ($Id: //depot/dev/client3/rdock/2013.1/src/exe/rbdock.cxx#4 $)

>  <Rbt.Library>
libRbt.so (2013.1, Build901 2013/11/27)

>  <Rbt.Parameter_File>
/export/apps/rDock/src/rDock_2013.1_src/data/scripts/dock_solv.prm

>  <Rbt.Receptor>
prm/blind_docking_40.prm

>  <SCORE>
-26.201

>  <SCORE.INTER>
-20.6698

>  <SCORE.INTER.CONST>
1

>  <SCORE.INTER.POLAR>
-3.69852

>  <SCORE.INTER.ROT>
5

>  <SCORE.INTER.SOLV>
16.3934

>  <SCORE.INTER.VDW>
-13.8493

>  <SCORE.INTER.norm>
-1.72248

>  <SCORE.INTRA>
-5.53929

>  <SCORE.INTRA.DIHEDRAL>
0.583429

>  <SCORE.INTRA.DIHEDRAL.0>
7.7847

>  <SCORE.INTRA.POLAR>
-1.25

>  <SCORE.INTRA.POLAR.0>
0

>  <SCORE.INTRA.REPUL>
0

>  <SCORE.INTRA.REPUL.0>
0

>  <SCORE.INTRA.SOLV>
0.610706

>  <SCORE.INTRA.SOLV.lig_0>
-57.5465

>  <SCORE.INTRA.VDW>
-1.88636

>  <SCORE.INTRA.VDW.0>
1.39369

>  <SCORE.INTRA.norm>
-0.461608

>  <SCORE.RESTR>
0.00813237

>  <SCORE.RESTR.CAVITY>
0.00813237

>  <SCORE.RESTR.norm>
0.000677698

>  <SCORE.SYSTEM>
0

>  <SCORE.SYSTEM.CONST>
0

>  <SCORE.SYSTEM.DIHEDRAL>
0

>  <SCORE.SYSTEM.SOLV>
0

>  <SCORE.SYSTEM.norm>
0

>  <SCORE.heavy>
12

>  <SCORE.norm>
-2.18341

>  <SYMMETRIC_BONDS>
4 1 2

>  <RMSD>
11.207

$$$$
1kod cryst
 OpenBabel11021811393D
libRbt.so/2013.1/901 2013/11/27
 12 11  0  0  0  0  0  0  0  0999 V2000
   -4.5352    3.1415   25.9445 C   0  0  0  0  0  0  0  0  0  0  0  0
   -4.4294    4.1551   25.2702 O   0  5  0  0  0  0  0  0  0  0  0  0
   -5.4292    2.9567   26.7608 O   0  0  0  0  0  0  0  0  0  0  0  0
   -3.4816    2.0330   25.7511 C   0  0  1  0  0  0  0  0  0  0  0  0
   -2.5575    2.0182   26.9259 N   0  3  0  0  0  0  0  0  0  0  0  0
   -4.1606    0.6503   25.6116 C   0  0  0  0  0  0  0  0  0  0  0  0
   -4.0823    0.1572   24.1727 C   0  0  0  0  0  0  0  0  0  0  0  0
   -4.8570   -1.1510   24.0304 C   0  0  0  0  0  0  0  0  0  0  0  0
   -4.3825   -2.1136   25.0729 N   0  0  0  0  0  0  0  0  0  0  0  0
   -5.0770   -2.3106   26.1615 C   0  0  0  0  0  0  0  0  0  0  0  0
   -4.5553   -2.1957   27.2684 O   0  0  0  0  0  0  0  0  0  0  0  0
   -6.3311   -2.6471   26.0773 N   0  0  0  0  0  0  0  0  0  0  0  0
  1  2  1  0  0  0  0
  1  3  2  0  0  0  0
  4  1  1  1  0  0  0
  4  6  1  0  0  0  0
  4  5  1  0  0  0  0
  6  7  1  0  0  0  0
  7  8  1  0  0  0  0
  8  9  1  0  0  0  0
  9 10  1  0  0  0  0
 10 12  1  0  0  0  0
 10 11  2  0  0  0  0
M  CHG  2   2  -1   5   1
M  END
>  <CHROM.1>
106.25273822,107.40630057,-58.05206963,-175.31140952,-52.29670293,-78.98528828
-4.48331468,0.39801837,25.79338555,-0.30221347,1.37988218,1.91439472

>  <Name>
1kod cryst

>  <RI>
0

>  <Rbt.Current_Directory>
/home/itssahil/PROJECTS/Mol_Feturizer/New_Systems/rnas/1kod

>  <Rbt.Executable>
rbdock ($Id: //depot/dev/client3/rdock/2013.1/src/exe/rbdock.cxx#4 $)

>  <Rbt.Library>
libRbt.so (2013.1, Build901 2013/11/27)

>  <Rbt.Parameter_File>
/export/apps/rDock/src/rDock_2013.1_src/data/scripts/dock_solv.prm

>  <Rbt.Receptor>
prm/blind_docking_100.prm

>  <SCORE>
-28.1975

>  <SCORE.INTER>
-24.4861

>  <SCORE.INTER.CONST>
1

>  <SCORE.INTER.POLAR>
-4.92323

>  <SCORE.INTER.ROT>
5

>  <SCORE.INTER.SOLV>
11.1645

>  <SCORE.INTER.VDW>
-10.5681

>  <SCORE.INTER.norm>
-2.04051

>  <SCORE.INTRA>
-3.71143

>  <SCORE.INTRA.DIHEDRAL>
-0.626395

>  <SCORE.INTRA.DIHEDRAL.0>
7.7847

>  <SCORE.INTRA.POLAR>
0

>  <SCORE.INTRA.POLAR.0>
0

>  <SCORE.INTRA.REPUL>
0

>  <SCORE.INTRA.REPUL.0>
0

>  <SCORE.INTRA.SOLV>
-2.38823

>  <SCORE.INTRA.SOLV.lig_0>
-57.5465

>  <SCORE.INTRA.VDW>
-2.20412

>  <SCORE.INTRA.VDW.0>
1.39369

>  <SCORE.INTRA.norm>
-0.309286

>  <SCORE.RESTR>
0

>  <SCORE.RESTR.CAVITY>
0

>  <SCORE.RESTR.norm>
0

>  <SCORE.SYSTEM>
0

>  <SCORE.SYSTEM.CONST>
0

>  <SCORE.SYSTEM.DIHEDRAL>
0

>  <SCORE.SYSTEM.SOLV>
0

>  <SCORE.SYSTEM.norm>
0

>  <SCORE.heavy>
12

>  <SCORE.norm>
-2.34979

>  <SYMMETRIC_BONDS>
4 1 2

>  <RMSD>
11.213

$$$$
1kod cryst
 OpenBabel11021811393D
libRbt.so/2013.1/901 2013/11/27
 12 11  0  0  0  0  0  0  0  0999 V2000
   -4.9183    2.2132   26.9041 C   0  0  0  0  0  0  0  0  0  0  0  0
   -5.1141    1.7021   27.9967 O   0  5  0  0  0  0  0  0  0  0  0  0
   -5.6970    2.9906   26.3664 O   0  0  0  0  0  0  0  0  0  0  0  0
   -3.6132    1.8579   26.1647 C   0  0  1  0  0  0  0  0  0  0  0  0
   -2.4801    1.8445   27.1396 N   0  3  0  0  0  0  0  0  0  0  0  0
   -3.7272    0.4720   25.4875 C   0  0  0  0  0  0  0  0  0  0  0  0
   -4.9576    0.4126   24.5916 C   0  0  0  0  0  0  0  0  0  0  0  0
   -4.9702   -0.9023   23.8152 C   0  0  0  0  0  0  0  0  0  0  0  0
   -4.6503   -2.0240   24.7523 N   0  0  0  0  0  0  0  0  0  0  0  0
   -5.4808   -2.3511   25.7059 C   0  0  0  0  0  0  0  0  0  0  0  0
   -5.1015   -2.4188   26.8730 O   0  0  0  0  0  0  0  0  0  0  0  0
   -6.7204   -2.6240   25.4194 N   0  0  0  0  0  0  0  0  0  0  0  0
  1  2  1  0  0  0  0
  1  3  2  0  0  0  0
  4  1  1  1  0  0  0
  4  6  1  0  0  0  0
  4  5  1  0  0  0  0
  6  7  1  0  0  0  0
  7  8  1  0  0  0  0
  8  9  1  0  0  0  0
  9 10  1  0  0  0  0
 10 12  1  0  0  0  0
 10 11  2  0  0  0  0
M  CHG  2   2  -1   5   1
M  END
>  <CHROM.1>
-41.93010193,53.75663851,-83.72338675,173.79696858,45.61454778,-112.85165384
-4.77852082,0.09652584,25.97353799,1.15591260,0.83083746,0.65650115

>  <Name>
1kod cryst

>  <RI>
0

>  <Rbt.Current_Directory>
/home/itssahil/PROJECTS/Mol_Feturizer/New_Systems/rnas/1kod

>  <Rbt.Executable>
rbdock ($Id: //depot/dev/client3/rdock/2013.1/src/exe/rbdock.cxx#4 $)

>  <Rbt.Library>
libRbt.so (2013.1, Build901 2013/11/27)

>  <Rbt.Parameter_File>
/export/apps/rDock/src/rDock_2013.1_src/data/scripts/dock_solv.prm

>  <Rbt.Receptor>
prm/blind_docking_100.prm

>  <SCORE>
-25.5579

>  <SCORE.INTER>
-21.7842

>  <SCORE.INTER.CONST>
1

>  <SCORE.INTER.POLAR>
-4.25535

>  <SCORE.INTER.ROT>
5

>  <SCORE.INTER.SOLV>
10.6252

>  <SCORE.INTER.VDW>
-10.8134

>  <SCORE.INTER.norm>
-1.81535

>  <SCORE.INTRA>
-3.77367

>  <SCORE.INTRA.DIHEDRAL>
-3.27715

>  <SCORE.INTRA.DIHEDRAL.0>
7.7847

>  <SCORE.INTRA.POLAR>
0

>  <SCORE.INTRA.POLAR.0>
0

>  <SCORE.INTRA.REPUL>
0

>  <SCORE.INTRA.REPUL.0>
0

>  <SCORE.INTRA.SOLV>
-1.56348

>  <SCORE.INTRA.SOLV.lig_0>
-57.5465

>  <SCORE.INTRA.VDW>
-1.35336

>  <SCORE.INTRA.VDW.0>
1.39369

>  <SCORE.INTRA.norm>
-0.314473

>  <SCORE.RESTR>
0

>  <SCORE.RESTR.CAVITY>
0

>  <SCORE.RESTR.norm>
0

>  <SCORE.SYSTEM>
0

>  <SCORE.SYSTEM.CONST>
0

>  <SCORE.SYSTEM.DIHEDRAL>
0

>  <SCORE.SYSTEM.SOLV>
0

>  <SCORE.SYSTEM.norm>
0

>  <SCORE.heavy>
12

>  <SCORE.norm>
-2.12983

>  <SYMMETRIC_BONDS>
4 1 2

>  <RMSD>
11.214

$$$$
1kod cryst
 OpenBabel11021811393D
libRbt.so/2013.1/901 2013/11/27
 12 11  0  0  0  0  0  0  0  0999 V2000
   -4.7864    2.2615   27.3038 C   0  0  0  0  0  0  0  0  0  0  0  0
   -5.0902    1.3692   28.0815 O   0  5  0  0  0  0  0  0  0  0  0  0
   -5.5897    3.0559   26.8311 O   0  0  0  0  0  0  0  0  0  0  0  0
   -3.3048    2.3924   26.8991 C   0  0  1  0  0  0  0  0  0  0  0  0
   -2.4663    1.5594   27.8144 N   0  3  0  0  0  0  0  0  0  0  0  0
   -3.0925    1.9275   25.4393 C   0  0  0  0  0  0  0  0  0  0  0  0
   -3.3695    0.4357   25.3060 C   0  0  0  0  0  0  0  0  0  0  0  0
   -3.4926    0.0615   23.8306 C   0  0  0  0  0  0  0  0  0  0  0  0
   -4.1057   -1.2991   23.7231 N   0  0  0  0  0  0  0  0  0  0  0  0
   -5.3961   -1.4371   23.5751 C   0  0  0  0  0  0  0  0  0  0  0  0
   -6.0420   -2.1549   24.3355 O   0  0  0  0  0  0  0  0  0  0  0  0
   -6.0058   -0.8218   22.6042 N   0  0  0  0  0  0  0  0  0  0  0  0
  1  2  1  0  0  0  0
  1  3  2  0  0  0  0
  4  1  1  1  0  0  0
  4  6  1  0  0  0  0
  4  5  1  0  0  0  0
  6  7  1  0  0  0  0
  7  8  1  0  0  0  0
  8  9  1  0  0  0  0
  9 10  1  0  0  0  0
 10 12  1  0  0  0  0
 10 11  2  0  0  0  0
M  CHG  2   2  -1   5   1
M  END
>  <CHROM.1>
-13.13456469,-65.73682986,-61.72508809,166.20089563,-165.47244258,-86.53659226
-4.40495396,0.59564618,25.49989917,1.32135603,0.10094143,0.86775085

>  <Name>
1kod cryst

>  <RI>
0

>  <Rbt.Current_Directory>
/home/itssahil/PROJECTS/Mol_Feturizer/New_Systems/rnas/1kod

>  <Rbt.Executable>
rbdock ($Id: //depot/dev/client3/rdock/2013.1/src/exe/rbdock.cxx#4 $)

>  <Rbt.Library>
libRbt.so (2013.1, Build901 2013/11/27)

>  <Rbt.Parameter_File>
/export/apps/rDock/src/rDock_2013.1_src/data/scripts/dock_solv.prm

>  <Rbt.Receptor>
prm/blind_docking_100.prm

>  <SCORE>
-23.33

>  <SCORE.INTER>
-19.0146

>  <SCORE.INTER.CONST>
1

>  <SCORE.INTER.POLAR>
-3.51462

>  <SCORE.INTER.ROT>
5

>  <SCORE.INTER.SOLV>
13.8677

>  <SCORE.INTER.VDW>
-12.5169

>  <SCORE.INTER.norm>
-1.58455

>  <SCORE.INTRA>
-4.31539

>  <SCORE.INTRA.DIHEDRAL>
-3.89

>  <SCORE.INTRA.DIHEDRAL.0>
7.7847

>  <SCORE.INTRA.POLAR>
0

>  <SCORE.INTRA.POLAR.0>
0

>  <SCORE.INTRA.REPUL>
0

>  <SCORE.INTRA.REPUL.0>
0

>  <SCORE.INTRA.SOLV>
-1.06729

>  <SCORE.INTRA.SOLV.lig_0>
-57.5465

>  <SCORE.INTRA.VDW>
-1.83675

>  <SCORE.INTRA.VDW.0>
1.39369

>  <SCORE.INTRA.norm>
-0.359616

>  <SCORE.RESTR>
0

>  <SCORE.RESTR.CAVITY>
0

>  <SCORE.RESTR.norm>
0

>  <SCORE.SYSTEM>
0

>  <SCORE.SYSTEM.CONST>
0

>  <SCORE.SYSTEM.DIHEDRAL>
0

>  <SCORE.SYSTEM.SOLV>
0

>  <SCORE.SYSTEM.norm>
0

>  <SCORE.heavy>
12

>  <SCORE.norm>
-1.94417

>  <SYMMETRIC_BONDS>
4 1 2

>  <RMSD>
11.230

$$$$
1kod cryst
 OpenBabel11021811393D
libRbt.so/2013.1/901 2013/11/27
 12 11  0  0  0  0  0  0  0  0999 V2000
   -2.7720    1.6013   27.7390 C   0  0  0  0  0  0  0  0  0  0  0  0
   -2.1775    0.6144   28.1462 O   0  5  0  0  0  0  0  0  0  0  0  0
   -2.7953    2.6742   28.3290 O   0  0  0  0  0  0  0  0  0  0  0  0
   -3.5330    1.4852   26.4034 C   0  0  1  0  0  0  0  0  0  0  0  0
   -3.0075    2.5041   25.4442 N   0  3  0  0  0  0  0  0  0  0  0  0
   -3.3645    0.0719   25.7981 C   0  0  0  0  0  0  0  0  0  0  0  0
   -4.6762   -0.6994   25.8636 C   0  0  0  0  0  0  0  0  0  0  0  0
   -5.7562    0.0478   25.0845 C   0  0  0  0  0  0  0  0  0  0  0  0
   -5.1475    0.6354   23.8504 N   0  0  0  0  0  0  0  0  0  0  0  0
   -4.9195   -0.1095   22.8020 C   0  0  0  0  0  0  0  0  0  0  0  0
   -3.8034   -0.1465   22.2888 O   0  0  0  0  0  0  0  0  0  0  0  0
   -5.8857   -0.8097   22.2829 N   0  0  0  0  0  0  0  0  0  0  0  0
  1  2  1  0  0  0  0
  1  3  2  0  0  0  0
  4  1  1  1  0  0  0
  4  6  1  0  0  0  0
  4  5  1  0  0  0  0
  6  7  1  0  0  0  0
  7  8  1  0  0  0  0
  8  9  1  0  0  0  0
  9 10  1  0  0  0  0
 10 12  1  0  0  0  0
 10 11  2  0  0  0  0
M  CHG  2   2  -1   5   1
M  END
>  <CHROM.1>
-121.72208871,110.13922622,-141.69656493,59.71773867,38.60673383,-101.24497008
-3.96881819,0.68350949,25.31490385,0.76768121,0.94657595,1.87048902

>  <Name>
1kod cryst

>  <RI>
0

>  <Rbt.Current_Directory>
/home/itssahil/PROJECTS/Mol_Feturizer/New_Systems/rnas/1kod

>  <Rbt.Executable>
rbdock ($Id: //depot/dev/client3/rdock/2013.1/src/exe/rbdock.cxx#4 $)

>  <Rbt.Library>
libRbt.so (2013.1, Build901 2013/11/27)

>  <Rbt.Parameter_File>
/export/apps/rDock/src/rDock_2013.1_src/data/scripts/dock_solv.prm

>  <Rbt.Receptor>
prm/blind_docking_60.prm

>  <SCORE>
-30.1879

>  <SCORE.INTER>
-32.3254

>  <SCORE.INTER.CONST>
1

>  <SCORE.INTER.POLAR>
-6.41975

>  <SCORE.INTER.ROT>
5

>  <SCORE.INTER.SOLV>
21.4566

>  <SCORE.INTER.VDW>
-14.2366

>  <SCORE.INTER.norm>
-2.69378

>  <SCORE.INTRA>
2.07849

>  <SCORE.INTRA.DIHEDRAL>
3.36417

>  <SCORE.INTRA.DIHEDRAL.0>
7.7847

>  <SCORE.INTRA.POLAR>
0

>  <SCORE.INTRA.POLAR.0>
0

>  <SCORE.INTRA.REPUL>
0

>  <SCORE.INTRA.REPUL.0>
0

>  <SCORE.INTRA.SOLV>
0.898125

>  <SCORE.INTRA.SOLV.lig_0>
-57.5465

>  <SCORE.INTRA.VDW>
-0.0526528

>  <SCORE.INTRA.VDW.0>
1.39369

>  <SCORE.INTRA.norm>
0.173208

>  <SCORE.RESTR>
0.0590575

>  <SCORE.RESTR.CAVITY>
0.0590575

>  <SCORE.RESTR.norm>
0.00492146

>  <SCORE.SYSTEM>
0

>  <SCORE.SYSTEM.CONST>
0

>  <SCORE.SYSTEM.DIHEDRAL>
0

>  <SCORE.SYSTEM.SOLV>
0

>  <SCORE.SYSTEM.norm>
0

>  <SCORE.heavy>
12

>  <SCORE.norm>
-2.51566

>  <SYMMETRIC_BONDS>
4 1 2

>  <RMSD>
11.244

$$$$
1kod cryst
 OpenBabel11021811393D
libRbt.so/2013.1/901 2013/11/27
 12 11  0  0  0  0  0  0  0  0999 V2000
   -4.4516    2.7135   25.8565 C   0  0  0  0  0  0  0  0  0  0  0  0
   -5.0896    3.1712   26.7929 O   0  5  0  0  0  0  0  0  0  0  0  0
   -4.4964    3.1618   24.7179 O   0  0  0  0  0  0  0  0  0  0  0  0
   -3.5367    1.5032   26.1299 C   0  0  1  0  0  0  0  0  0  0  0  0
   -2.5676    1.8502   27.2138 N   0  3  0  0  0  0  0  0  0  0  0  0
   -4.3699    0.2724   26.5577 C   0  0  0  0  0  0  0  0  0  0  0  0
   -5.0571   -0.3553   25.3520 C   0  0  0  0  0  0  0  0  0  0  0  0
   -4.4681   -1.7379   25.0815 C   0  0  0  0  0  0  0  0  0  0  0  0
   -4.7058   -2.6101   26.2738 N   0  0  0  0  0  0  0  0  0  0  0  0
   -5.8495   -3.2202   26.4338 C   0  0  0  0  0  0  0  0  0  0  0  0
   -6.4851   -3.0987   27.4787 O   0  0  0  0  0  0  0  0  0  0  0  0
   -6.3173   -3.9780   25.4852 N   0  0  0  0  0  0  0  0  0  0  0  0
  1  2  1  0  0  0  0
  1  3  2  0  0  0  0
  4  1  1  1  0  0  0
  4  6  1  0  0  0  0
  4  5  1  0  0  0  0
  6  7  1  0  0  0  0
  7  8  1  0  0  0  0
  8  9  1  0  0  0  0
  9 10  1  0  0  0  0
 10 12  1  0  0  0  0
 10 11  2  0  0  0  0
M  CHG  2   2  -1   5   1
M  END
>  <CHROM.1>
-56.60033337,76.16936715,-42.06597405,113.01901254,61.14564524,-97.22439276
-4.77419578,-0.18382994,26.13747199,1.10589346,-0.86475980,-0.38078129

>  <Name>
1kod cryst

>  <RI>
0

>  <Rbt.Current_Directory>
/home/itssahil/PROJECTS/Mol_Feturizer/New_Systems/rnas/1kod

>  <Rbt.Executable>
rbdock ($Id: //depot/dev/client3/rdock/2013.1/src/exe/rbdock.cxx#4 $)

>  <Rbt.Library>
libRbt.so (2013.1, Build901 2013/11/27)

>  <Rbt.Parameter_File>
/export/apps/rDock/src/rDock_2013.1_src/data/scripts/dock_solv.prm

>  <Rbt.Receptor>
prm/blind_docking_100.prm

>  <SCORE>
-24.4712

>  <SCORE.INTER>
-21.9197

>  <SCORE.INTER.CONST>
1

>  <SCORE.INTER.POLAR>
-4.74996

>  <SCORE.INTER.ROT>
5

>  <SCORE.INTER.SOLV>
13.4324

>  <SCORE.INTER.VDW>
-10.1907

>  <SCORE.INTER.norm>
-1.82664

>  <SCORE.INTRA>
-2.55155

>  <SCORE.INTRA.DIHEDRAL>
1.98038

>  <SCORE.INTRA.DIHEDRAL.0>
7.7847

>  <SCORE.INTRA.POLAR>
0

>  <SCORE.INTRA.POLAR.0>
0

>  <SCORE.INTRA.REPUL>
0

>  <SCORE.INTRA.REPUL.0>
0

>  <SCORE.INTRA.SOLV>
-2.33893

>  <SCORE.INTRA.SOLV.lig_0>
-57.5465

>  <SCORE.INTRA.VDW>
-2.37228

>  <SCORE.INTRA.VDW.0>
1.39369

>  <SCORE.INTRA.norm>
-0.212629

>  <SCORE.RESTR>
0

>  <SCORE.RESTR.CAVITY>
0

>  <SCORE.RESTR.norm>
0

>  <SCORE.SYSTEM>
0

>  <SCORE.SYSTEM.CONST>
0

>  <SCORE.SYSTEM.DIHEDRAL>
0

>  <SCORE.SYSTEM.SOLV>
0

>  <SCORE.SYSTEM.norm>
0

>  <SCORE.heavy>
12

>  <SCORE.norm>
-2.03927

>  <SYMMETRIC_BONDS>
4 1 2

>  <RMSD>
11.257

$$$$
1kod cryst
 OpenBabel11021811393D
libRbt.so/2013.1/901 2013/11/27
 12 11  0  0  0  0  0  0  0  0999 V2000
   -3.7103    1.8315   26.6285 C   0  0  0  0  0  0  0  0  0  0  0  0
   -2.5655    1.4212   26.7486 O   0  5  0  0  0  0  0  0  0  0  0  0
   -4.4889    1.9617   27.5647 O   0  0  0  0  0  0  0  0  0  0  0  0
   -4.1973    2.2081   25.2153 C   0  0  1  0  0  0  0  0  0  0  0  0
   -3.2663    3.2169   24.6235 N   0  3  0  0  0  0  0  0  0  0  0  0
   -4.2519    0.9597   24.3039 C   0  0  0  0  0  0  0  0  0  0  0  0
   -5.5564    0.2013   24.5108 C   0  0  0  0  0  0  0  0  0  0  0  0
   -5.4154   -1.2254   23.9850 C   0  0  0  0  0  0  0  0  0  0  0  0
   -4.5811   -2.0168   24.9422 N   0  0  0  0  0  0  0  0  0  0  0  0
   -5.0942   -2.4685   26.0552 C   0  0  0  0  0  0  0  0  0  0  0  0
   -4.5596   -2.2291   27.1356 O   0  0  0  0  0  0  0  0  0  0  0  0
   -6.1746   -3.1930   26.0228 N   0  0  0  0  0  0  0  0  0  0  0  0
  1  2  1  0  0  0  0
  1  3  2  0  0  0  0
  4  1  1  1  0  0  0
  4  6  1  0  0  0  0
  4  5  1  0  0  0  0
  6  7  1  0  0  0  0
  7  8  1  0  0  0  0
  8  9  1  0  0  0  0
  9 10  1  0  0  0  0
 10 12  1  0  0  0  0
 10 11  2  0  0  0  0
M  CHG  2   2  -1   5   1
M  END
>  <CHROM.1>
-55.44743501,83.42017318,86.55470350,-161.37634052,74.50196863,-102.22797084
-4.46567880,0.06807691,25.66112216,-0.57449873,1.14331370,2.18180460

>  <Name>
1kod cryst

>  <RI>
0

>  <Rbt.Current_Directory>
/home/itssahil/PROJECTS/Mol_Feturizer/New_Systems/rnas/1kod

>  <Rbt.Executable>
rbdock ($Id: //depot/dev/client3/rdock/2013.1/src/exe/rbdock.cxx#4 $)

>  <Rbt.Library>
libRbt.so (2013.1, Build901 2013/11/27)

>  <Rbt.Parameter_File>
/export/apps/rDock/src/rDock_2013.1_src/data/scripts/dock_solv.prm

>  <Rbt.Receptor>
prm/blind_docking_100.prm

>  <SCORE>
-27.8952

>  <SCORE.INTER>
-24.095

>  <SCORE.INTER.CONST>
1

>  <SCORE.INTER.POLAR>
-4.59306

>  <SCORE.INTER.ROT>
5

>  <SCORE.INTER.SOLV>
11.9879

>  <SCORE.INTER.VDW>
-11.6824

>  <SCORE.INTER.norm>
-2.00792

>  <SCORE.INTRA>
-3.90881

>  <SCORE.INTRA.DIHEDRAL>
-0.270398

>  <SCORE.INTRA.DIHEDRAL.0>
7.7847

>  <SCORE.INTRA.POLAR>
0

>  <SCORE.INTRA.POLAR.0>
0

>  <SCORE.INTRA.REPUL>
0

>  <SCORE.INTRA.REPUL.0>
0

>  <SCORE.INTRA.SOLV>
-2.13459

>  <SCORE.INTRA.SOLV.lig_0>
-57.5465

>  <SCORE.INTRA.VDW>
-2.70632

>  <SCORE.INTRA.VDW.0>
1.39369

>  <SCORE.INTRA.norm>
-0.325734

>  <SCORE.RESTR>
0.108645

>  <SCORE.RESTR.CAVITY>
0.108645

>  <SCORE.RESTR.norm>
0.00905371

>  <SCORE.SYSTEM>
0

>  <SCORE.SYSTEM.CONST>
0

>  <SCORE.SYSTEM.DIHEDRAL>
0

>  <SCORE.SYSTEM.SOLV>
0

>  <SCORE.SYSTEM.norm>
0

>  <SCORE.heavy>
12

>  <SCORE.norm>
-2.3246

>  <SYMMETRIC_BONDS>
4 1 2

>  <RMSD>
11.301

$$$$
1kod cryst
 OpenBabel11021811393D
libRbt.so/2013.1/901 2013/11/27
 12 11  0  0  0  0  0  0  0  0999 V2000
   -4.2458    1.1920   27.1843 C   0  0  0  0  0  0  0  0  0  0  0  0
   -3.4563    0.8445   28.0500 O   0  5  0  0  0  0  0  0  0  0  0  0
   -5.4216    1.4568   27.4012 O   0  0  0  0  0  0  0  0  0  0  0  0
   -3.7263    1.3045   25.7373 C   0  0  1  0  0  0  0  0  0  0  0  0
   -2.3767    1.9473   25.7445 N   0  3  0  0  0  0  0  0  0  0  0  0
   -3.6287   -0.0923   25.0802 C   0  0  0  0  0  0  0  0  0  0  0  0
   -4.9605   -0.4845   24.4539 C   0  0  0  0  0  0  0  0  0  0  0  0
   -4.9972   -1.9924   24.2161 C   0  0  0  0  0  0  0  0  0  0  0  0
   -4.8276   -2.6960   25.5256 N   0  0  0  0  0  0  0  0  0  0  0  0
   -5.8420   -3.2848   26.1003 C   0  0  0  0  0  0  0  0  0  0  0  0
   -6.1415   -3.0260   27.2639 O   0  0  0  0  0  0  0  0  0  0  0  0
   -6.5364   -4.1669   25.4422 N   0  0  0  0  0  0  0  0  0  0  0  0
  1  2  1  0  0  0  0
  1  3  2  0  0  0  0
  4  1  1  1  0  0  0
  4  6  1  0  0  0  0
  4  5  1  0  0  0  0
  6  7  1  0  0  0  0
  7  8  1  0  0  0  0
  8  9  1  0  0  0  0
  9 10  1  0  0  0  0
 10 12  1  0  0  0  0
 10 11  2  0  0  0  0
M  CHG  2   2  -1   5   1
M  END
>  <CHROM.1>
-42.03630640,86.58501510,-61.50043402,-161.91882697,59.73506529,-73.61946496
-4.66332972,-0.74285325,26.04204164,0.65844209,0.97442740,0.98694491

>  <Name>
1kod cryst

>  <RI>
0

>  <Rbt.Current_Directory>
/home/itssahil/PROJECTS/Mol_Feturizer/New_Systems/rnas/1kod

>  <Rbt.Executable>
rbdock ($Id: //depot/dev/client3/rdock/2013.1/src/exe/rbdock.cxx#4 $)

>  <Rbt.Library>
libRbt.so (2013.1, Build901 2013/11/27)

>  <Rbt.Parameter_File>
/export/apps/rDock/src/rDock_2013.1_src/data/scripts/dock_solv.prm

>  <Rbt.Receptor>
prm/blind_docking_60.prm

>  <SCORE>
-27.7142

>  <SCORE.INTER>
-22.8855

>  <SCORE.INTER.CONST>
1

>  <SCORE.INTER.POLAR>
-4.75676

>  <SCORE.INTER.ROT>
5

>  <SCORE.INTER.SOLV>
17.6779

>  <SCORE.INTER.VDW>
-12.2271

>  <SCORE.INTER.norm>
-1.90713

>  <SCORE.INTRA>
-4.96385

>  <SCORE.INTRA.DIHEDRAL>
-2.15583

>  <SCORE.INTRA.DIHEDRAL.0>
7.7847

>  <SCORE.INTRA.POLAR>
0

>  <SCORE.INTRA.POLAR.0>
0

>  <SCORE.INTRA.REPUL>
0

>  <SCORE.INTRA.REPUL.0>
0

>  <SCORE.INTRA.SOLV>
-2.29961

>  <SCORE.INTRA.SOLV.lig_0>
-57.5465

>  <SCORE.INTRA.VDW>
-2.73613

>  <SCORE.INTRA.VDW.0>
1.39369

>  <SCORE.INTRA.norm>
-0.413654

>  <SCORE.RESTR>
0.135183

>  <SCORE.RESTR.CAVITY>
0.135183

>  <SCORE.RESTR.norm>
0.0112653

>  <SCORE.SYSTEM>
0

>  <SCORE.SYSTEM.CONST>
0

>  <SCORE.SYSTEM.DIHEDRAL>
0

>  <SCORE.SYSTEM.SOLV>
0

>  <SCORE.SYSTEM.norm>
0

>  <SCORE.heavy>
12

>  <SCORE.norm>
-2.30951

>  <SYMMETRIC_BONDS>
4 1 2

>  <RMSD>
11.342

$$$$
1kod cryst
 OpenBabel11021811393D
libRbt.so/2013.1/901 2013/11/27
 12 11  0  0  0  0  0  0  0  0999 V2000
   -3.0035    0.3524   27.1407 C   0  0  0  0  0  0  0  0  0  0  0  0
   -2.3115    1.1142   27.7996 O   0  5  0  0  0  0  0  0  0  0  0  0
   -3.2392   -0.8052   27.4632 O   0  0  0  0  0  0  0  0  0  0  0  0
   -3.6152    0.8847   25.8296 C   0  0  1  0  0  0  0  0  0  0  0  0
   -3.0092    2.2118   25.5038 N   0  3  0  0  0  0  0  0  0  0  0  0
   -3.3567   -0.1001   24.6653 C   0  0  0  0  0  0  0  0  0  0  0  0
   -4.6705   -0.5340   24.0283 C   0  0  0  0  0  0  0  0  0  0  0  0
   -4.8061   -2.0531   24.1040 C   0  0  0  0  0  0  0  0  0  0  0  0
   -5.0365   -2.4509   25.5279 N   0  0  0  0  0  0  0  0  0  0  0  0
   -5.9581   -3.3245   25.8334 C   0  0  0  0  0  0  0  0  0  0  0  0
   -6.8161   -3.0641   26.6739 O   0  0  0  0  0  0  0  0  0  0  0  0
   -5.9624   -4.4901   25.2550 N   0  0  0  0  0  0  0  0  0  0  0  0
  1  2  1  0  0  0  0
  1  3  2  0  0  0  0
  4  1  1  1  0  0  0
  4  6  1  0  0  0  0
  4  5  1  0  0  0  0
  6  7  1  0  0  0  0
  7  8  1  0  0  0  0
  8  9  1  0  0  0  0
  9 10  1  0  0  0  0
 10 12  1  0  0  0  0
 10 11  2  0  0  0  0
M  CHG  2   2  -1   5   1
M  END
>  <CHROM.1>
10.31146340,122.85398009,102.35158283,-121.63128389,70.30286258,-45.15369305
-4.30399254,-1.00820332,25.84065211,-0.09459680,0.98785679,1.87333933

>  <Name>
1kod cryst

>  <RI>
0

>  <Rbt.Current_Directory>
/home/itssahil/PROJECTS/Mol_Feturizer/New_Systems/rnas/1kod

>  <Rbt.Executable>
rbdock ($Id: //depot/dev/client3/rdock/2013.1/src/exe/rbdock.cxx#4 $)

>  <Rbt.Library>
libRbt.so (2013.1, Build901 2013/11/27)

>  <Rbt.Parameter_File>
/export/apps/rDock/src/rDock_2013.1_src/data/scripts/dock_solv.prm

>  <Rbt.Receptor>
prm/blind_docking_40.prm

>  <SCORE>
-27.2606

>  <SCORE.INTER>
-25.3443

>  <SCORE.INTER.CONST>
1

>  <SCORE.INTER.POLAR>
-4.53425

>  <SCORE.INTER.ROT>
5

>  <SCORE.INTER.SOLV>
19.7938

>  <SCORE.INTER.VDW>
-15.3133

>  <SCORE.INTER.norm>
-2.11202

>  <SCORE.INTRA>
-1.91631

>  <SCORE.INTRA.DIHEDRAL>
8.93946

>  <SCORE.INTRA.DIHEDRAL.0>
7.7847

>  <SCORE.INTRA.POLAR>
-1.25

>  <SCORE.INTRA.POLAR.0>
0

>  <SCORE.INTRA.REPUL>
0

>  <SCORE.INTRA.REPUL.0>
0

>  <SCORE.INTRA.SOLV>
-0.201537

>  <SCORE.INTRA.SOLV.lig_0>
-57.5465

>  <SCORE.INTRA.VDW>
-2.03527

>  <SCORE.INTRA.VDW.0>
1.39369

>  <SCORE.INTRA.norm>
-0.159692

>  <SCORE.RESTR>
0

>  <SCORE.RESTR.CAVITY>
0

>  <SCORE.RESTR.norm>
0

>  <SCORE.SYSTEM>
0

>  <SCORE.SYSTEM.CONST>
0

>  <SCORE.SYSTEM.DIHEDRAL>
0

>  <SCORE.SYSTEM.SOLV>
0

>  <SCORE.SYSTEM.norm>
0

>  <SCORE.heavy>
12

>  <SCORE.norm>
-2.27171

>  <SYMMETRIC_BONDS>
4 1 2

>  <RMSD>
11.390

$$$$
1kod cryst
 OpenBabel11021811393D
libRbt.so/2013.1/901 2013/11/27
 12 11  0  0  0  0  0  0  0  0999 V2000
   -3.9107    0.7827   23.3891 C   0  0  0  0  0  0  0  0  0  0  0  0
   -4.1880    1.9725   23.3582 O   0  5  0  0  0  0  0  0  0  0  0  0
   -3.3720    0.1846   22.4662 O   0  0  0  0  0  0  0  0  0  0  0  0
   -4.2586   -0.0063   24.6669 C   0  0  1  0  0  0  0  0  0  0  0  0
   -4.6333   -1.4055   24.2979 N   0  3  0  0  0  0  0  0  0  0  0  0
   -3.0554   -0.0337   25.6384 C   0  0  0  0  0  0  0  0  0  0  0  0
   -3.5220   -0.3071   27.0623 C   0  0  0  0  0  0  0  0  0  0  0  0
   -4.3222    0.8847   27.5831 C   0  0  0  0  0  0  0  0  0  0  0  0
   -5.0276    0.4851   28.8406 N   0  0  0  0  0  0  0  0  0  0  0  0
   -5.0945    1.3054   29.8548 C   0  0  0  0  0  0  0  0  0  0  0  0
   -4.7294    0.9514   30.9737 O   0  0  0  0  0  0  0  0  0  0  0  0
   -5.5664    2.5063   29.6862 N   0  0  0  0  0  0  0  0  0  0  0  0
  1  2  1  0  0  0  0
  1  3  2  0  0  0  0
  4  1  1  6  0  0  0
  4  6  1  0  0  0  0
  4  5  1  0  0  0  0
  6  7  1  0  0  0  0
  7  8  1  0  0  0  0
  8  9  1  0  0  0  0
  9 10  1  0  0  0  0
 10 12  1  0  0  0  0
 10 11  2  0  0  0  0
M  CHG  2   2  -1   5   1
M  END
>  <CHROM.1>
146.24238336,157.94001418,-51.45451629,-68.21810811,167.28390238,-40.80523356
-4.32538587,0.59899210,26.47265020,0.80561766,1.32086056,-0.98245662

>  <Name>
1kod cryst

>  <RI>
0

>  <Rbt.Current_Directory>
/home/itssahil/PROJECTS/Mol_Feturizer/New_Systems/rnas/1kod

>  <Rbt.Executable>
rbdock ($Id: //depot/dev/client3/rdock/2013.1/src/exe/rbdock.cxx#4 $)

>  <Rbt.Library>
libRbt.so (2013.1, Build901 2013/11/27)

>  <Rbt.Parameter_File>
/export/apps/rDock/src/rDock_2013.1_src/data/scripts/dock_solv.prm

>  <Rbt.Receptor>
prm/blind_docking_60.prm

>  <SCORE>
-20.4733

>  <SCORE.INTER>
-15.7206

>  <SCORE.INTER.CONST>
1

>  <SCORE.INTER.POLAR>
-3.06518

>  <SCORE.INTER.ROT>
5

>  <SCORE.INTER.SOLV>
18.9244

>  <SCORE.INTER.VDW>
-13.5046

>  <SCORE.INTER.norm>
-1.31005

>  <SCORE.INTRA>
-4.75277

>  <SCORE.INTRA.DIHEDRAL>
-2.96465

>  <SCORE.INTRA.DIHEDRAL.0>
7.7847

>  <SCORE.INTRA.POLAR>
0

>  <SCORE.INTRA.POLAR.0>
0

>  <SCORE.INTRA.REPUL>
0

>  <SCORE.INTRA.REPUL.0>
0

>  <SCORE.INTRA.SOLV>
-2.18829

>  <SCORE.INTRA.SOLV.lig_0>
-57.5465

>  <SCORE.INTRA.VDW>
-2.1763

>  <SCORE.INTRA.VDW.0>
1.39369

>  <SCORE.INTRA.norm>
-0.396064

>  <SCORE.RESTR>
0

>  <SCORE.RESTR.CAVITY>
0

>  <SCORE.RESTR.norm>
0

>  <SCORE.SYSTEM>
0

>  <SCORE.SYSTEM.CONST>
0

>  <SCORE.SYSTEM.DIHEDRAL>
0

>  <SCORE.SYSTEM.SOLV>
0

>  <SCORE.SYSTEM.norm>
0

>  <SCORE.heavy>
12

>  <SCORE.norm>
-1.70611

>  <SYMMETRIC_BONDS>
4 1 2

>  <RMSD>
11.402

$$$$
1kod cryst
 OpenBabel11021811393D
libRbt.so/2013.1/901 2013/11/27
 12 11  0  0  0  0  0  0  0  0999 V2000
   -4.6145   -2.0642   26.5152 C   0  0  0  0  0  0  0  0  0  0  0  0
   -3.6930   -2.1083   27.3166 O   0  5  0  0  0  0  0  0  0  0  0  0
   -5.7962   -2.1179   26.8322 O   0  0  0  0  0  0  0  0  0  0  0  0
   -4.2645   -1.9305   25.0199 C   0  0  1  0  0  0  0  0  0  0  0  0
   -4.8143   -3.1047   24.2760 N   0  3  0  0  0  0  0  0  0  0  0  0
   -4.8544   -0.6264   24.4337 C   0  0  0  0  0  0  0  0  0  0  0  0
   -3.7483    0.3804   24.1456 C   0  0  0  0  0  0  0  0  0  0  0  0
   -2.8177    0.4870   25.3515 C   0  0  0  0  0  0  0  0  0  0  0  0
   -3.5473    1.1594   26.4715 N   0  0  0  0  0  0  0  0  0  0  0  0
   -3.2224    0.9218   27.7141 C   0  0  0  0  0  0  0  0  0  0  0  0
   -4.0715    0.5650   28.5278 O   0  0  0  0  0  0  0  0  0  0  0  0
   -1.9903    1.0782   28.1023 N   0  0  0  0  0  0  0  0  0  0  0  0
  1  2  1  0  0  0  0
  1  3  2  0  0  0  0
  4  1  1  1  0  0  0
  4  6  1  0  0  0  0
  4  5  1  0  0  0  0
  6  7  1  0  0  0  0
  7  8  1  0  0  0  0
  8  9  1  0  0  0  0
  9 10  1  0  0  0  0
 10 12  1  0  0  0  0
 10 11  2  0  0  0  0
M  CHG  2   2  -1   5   1
M  END
>  <CHROM.1>
120.27636947,108.72926579,-71.95086534,-47.72002469,-69.66970715,-27.10471855
-3.96210004,-0.64086402,26.24408669,2.57619025,-1.06693673,-1.50174255

>  <Name>
1kod cryst

>  <RI>
0

>  <Rbt.Current_Directory>
/home/itssahil/PROJECTS/Mol_Feturizer/New_Systems/rnas/1kod

>  <Rbt.Executable>
rbdock ($Id: //depot/dev/client3/rdock/2013.1/src/exe/rbdock.cxx#4 $)

>  <Rbt.Library>
libRbt.so (2013.1, Build901 2013/11/27)

>  <Rbt.Parameter_File>
/export/apps/rDock/src/rDock_2013.1_src/data/scripts/dock_solv.prm

>  <Rbt.Receptor>
prm/blind_docking_40.prm

>  <SCORE>
-26.8137

>  <SCORE.INTER>
-26.0175

>  <SCORE.INTER.CONST>
1

>  <SCORE.INTER.POLAR>
-5.66164

>  <SCORE.INTER.ROT>
5

>  <SCORE.INTER.SOLV>
20.0285

>  <SCORE.INTER.VDW>
-12.0823

>  <SCORE.INTER.norm>
-2.16812

>  <SCORE.INTRA>
-0.796183

>  <SCORE.INTRA.DIHEDRAL>
0.452017

>  <SCORE.INTRA.DIHEDRAL.0>
7.7847

>  <SCORE.INTRA.POLAR>
0

>  <SCORE.INTRA.POLAR.0>
0

>  <SCORE.INTRA.REPUL>
0

>  <SCORE.INTRA.REPUL.0>
0

>  <SCORE.INTRA.SOLV>
2.09133

>  <SCORE.INTRA.SOLV.lig_0>
-57.5465

>  <SCORE.INTRA.VDW>
-2.06786

>  <SCORE.INTRA.VDW.0>
1.39369

>  <SCORE.INTRA.norm>
-0.0663486

>  <SCORE.RESTR>
0

>  <SCORE.RESTR.CAVITY>
0

>  <SCORE.RESTR.norm>
0

>  <SCORE.SYSTEM>
0

>  <SCORE.SYSTEM.CONST>
0

>  <SCORE.SYSTEM.DIHEDRAL>
0

>  <SCORE.SYSTEM.SOLV>
0

>  <SCORE.SYSTEM.norm>
0

>  <SCORE.heavy>
12

>  <SCORE.norm>
-2.23447

>  <SYMMETRIC_BONDS>
4 1 2

>  <RMSD>
11.457

$$$$
1kod cryst
 OpenBabel11021811393D
libRbt.so/2013.1/901 2013/11/27
 12 11  0  0  0  0  0  0  0  0999 V2000
   -3.6560    0.1756   27.2333 C   0  0  0  0  0  0  0  0  0  0  0  0
   -3.6517    0.9209   28.2017 O   0  5  0  0  0  0  0  0  0  0  0  0
   -3.7655   -1.0416   27.3110 O   0  0  0  0  0  0  0  0  0  0  0  0
   -3.5180    0.8091   25.8347 C   0  0  1  0  0  0  0  0  0  0  0  0
   -2.3619    1.7567   25.8325 N   0  3  0  0  0  0  0  0  0  0  0  0
   -3.2941   -0.2801   24.7597 C   0  0  0  0  0  0  0  0  0  0  0  0
   -4.6143   -0.6690   24.1072 C   0  0  0  0  0  0  0  0  0  0  0  0
   -4.7744   -2.1875   24.1267 C   0  0  0  0  0  0  0  0  0  0  0  0
   -4.9996   -2.6351   25.5365 N   0  0  0  0  0  0  0  0  0  0  0  0
   -5.9785   -3.4496   25.8272 C   0  0  0  0  0  0  0  0  0  0  0  0
   -6.7925   -3.1654   26.7031 O   0  0  0  0  0  0  0  0  0  0  0  0
   -6.0877   -4.5820   25.1956 N   0  0  0  0  0  0  0  0  0  0  0  0
  1  2  1  0  0  0  0
  1  3  2  0  0  0  0
  4  1  1  1  0  0  0
  4  6  1  0  0  0  0
  4  5  1  0  0  0  0
  6  7  1  0  0  0  0
  7  8  1  0  0  0  0
  8  9  1  0  0  0  0
  9 10  1  0  0  0  0
 10 12  1  0  0  0  0
 10 11  2  0  0  0  0
M  CHG  2   2  -1   5   1
M  END
>  <CHROM.1>
49.35704306,95.34259896,41.25529908,-129.22699460,69.79446005,-48.83439010
-4.44257981,-1.18921276,25.91643726,0.37757425,0.96695989,1.32900485

>  <Name>
1kod cryst

>  <RI>
0

>  <Rbt.Current_Directory>
/home/itssahil/PROJECTS/Mol_Feturizer/New_Systems/rnas/1kod

>  <Rbt.Executable>
rbdock ($Id: //depot/dev/client3/rdock/2013.1/src/exe/rbdock.cxx#4 $)

>  <Rbt.Library>
libRbt.so (2013.1, Build901 2013/11/27)

>  <Rbt.Parameter_File>
/export/apps/rDock/src/rDock_2013.1_src/data/scripts/dock_solv.prm

>  <Rbt.Receptor>
prm/blind_docking_80.prm

>  <SCORE>
-32.1517

>  <SCORE.INTER>
-28.6582

>  <SCORE.INTER.CONST>
1

>  <SCORE.INTER.POLAR>
-5.42681

>  <SCORE.INTER.ROT>
5

>  <SCORE.INTER.SOLV>
20.6163

>  <SCORE.INTER.VDW>
-14.8215

>  <SCORE.INTER.norm>
-2.38818

>  <SCORE.INTRA>
-3.60365

>  <SCORE.INTRA.DIHEDRAL>
4.65217

>  <SCORE.INTRA.DIHEDRAL.0>
7.7847

>  <SCORE.INTRA.POLAR>
-1.25

>  <SCORE.INTRA.POLAR.0>
0

>  <SCORE.INTRA.REPUL>
0

>  <SCORE.INTRA.REPUL.0>
0

>  <SCORE.INTRA.SOLV>
0.48703

>  <SCORE.INTRA.SOLV.lig_0>
-57.5465

>  <SCORE.INTRA.VDW>
-1.92325

>  <SCORE.INTRA.VDW.0>
1.39369

>  <SCORE.INTRA.norm>
-0.300304

>  <SCORE.RESTR>
0.110179

>  <SCORE.RESTR.CAVITY>
0.110179

>  <SCORE.RESTR.norm>
0.00918156

>  <SCORE.SYSTEM>
0

>  <SCORE.SYSTEM.CONST>
0

>  <SCORE.SYSTEM.DIHEDRAL>
0

>  <SCORE.SYSTEM.SOLV>
0

>  <SCORE.SYSTEM.norm>
0

>  <SCORE.heavy>
12

>  <SCORE.norm>
-2.67931

>  <SYMMETRIC_BONDS>
4 1 2

>  <RMSD>
11.460

$$$$
1kod cryst
 OpenBabel11021811393D
libRbt.so/2013.1/901 2013/11/27
 12 11  0  0  0  0  0  0  0  0999 V2000
   -4.3474    1.7339   25.9397 C   0  0  0  0  0  0  0  0  0  0  0  0
   -5.0866    2.1037   26.8399 O   0  5  0  0  0  0  0  0  0  0  0  0
   -4.5662    1.9366   24.7520 O   0  0  0  0  0  0  0  0  0  0  0  0
   -3.0653    0.9706   26.3267 C   0  0  1  0  0  0  0  0  0  0  0  0
   -2.2649    1.7986   27.2798 N   0  3  0  0  0  0  0  0  0  0  0  0
   -3.4126   -0.3844   26.9869 C   0  0  0  0  0  0  0  0  0  0  0  0
   -4.0316   -1.3336   25.9692 C   0  0  0  0  0  0  0  0  0  0  0  0
   -5.5116   -1.0045   25.7869 C   0  0  0  0  0  0  0  0  0  0  0  0
   -6.1421   -2.0561   24.9295 N   0  0  0  0  0  0  0  0  0  0  0  0
   -6.4880   -3.2087   25.4374 C   0  0  0  0  0  0  0  0  0  0  0  0
   -6.0975   -4.2594   24.9334 O   0  0  0  0  0  0  0  0  0  0  0  0
   -7.2668   -3.2497   26.4790 N   0  0  0  0  0  0  0  0  0  0  0  0
  1  2  1  0  0  0  0
  1  3  2  0  0  0  0
  4  1  1  1  0  0  0
  4  6  1  0  0  0  0
  4  5  1  0  0  0  0
  6  7  1  0  0  0  0
  7  8  1  0  0  0  0
  8  9  1  0  0  0  0
  9 10  1  0  0  0  0
 10 12  1  0  0  0  0
 10 11  2  0  0  0  0
M  CHG  2   2  -1   5   1
M  END
>  <CHROM.1>
-55.82858970,68.42776513,69.38618230,-80.74705245,-172.45613783,-100.31487135
-4.85897213,-0.56150316,25.98556335,0.97805810,-0.47448097,-0.10606593

>  <Name>
1kod cryst

>  <RI>
0

>  <Rbt.Current_Directory>
/home/itssahil/PROJECTS/Mol_Feturizer/New_Systems/rnas/1kod

>  <Rbt.Executable>
rbdock ($Id: //depot/dev/client3/rdock/2013.1/src/exe/rbdock.cxx#4 $)

>  <Rbt.Library>
libRbt.so (2013.1, Build901 2013/11/27)

>  <Rbt.Parameter_File>
/export/apps/rDock/src/rDock_2013.1_src/data/scripts/dock_solv.prm

>  <Rbt.Receptor>
prm/blind_docking_100.prm

>  <SCORE>
-25.6195

>  <SCORE.INTER>
-21.3316

>  <SCORE.INTER.CONST>
1

>  <SCORE.INTER.POLAR>
-3.39813

>  <SCORE.INTER.ROT>
5

>  <SCORE.INTER.SOLV>
14.509

>  <SCORE.INTER.VDW>
-14.6637

>  <SCORE.INTER.norm>
-1.77763

>  <SCORE.INTRA>
-4.28791

>  <SCORE.INTRA.DIHEDRAL>
-3.23618

>  <SCORE.INTRA.DIHEDRAL.0>
7.7847

>  <SCORE.INTRA.POLAR>
0

>  <SCORE.INTRA.POLAR.0>
0

>  <SCORE.INTRA.REPUL>
0

>  <SCORE.INTRA.REPUL.0>
0

>  <SCORE.INTRA.SOLV>
-1.17636

>  <SCORE.INTRA.SOLV.lig_0>
-57.5465

>  <SCORE.INTRA.VDW>
-2.08164

>  <SCORE.INTRA.VDW.0>
1.39369

>  <SCORE.INTRA.norm>
-0.357326

>  <SCORE.RESTR>
0

>  <SCORE.RESTR.CAVITY>
0

>  <SCORE.RESTR.norm>
0

>  <SCORE.SYSTEM>
0

>  <SCORE.SYSTEM.CONST>
0

>  <SCORE.SYSTEM.DIHEDRAL>
0

>  <SCORE.SYSTEM.SOLV>
0

>  <SCORE.SYSTEM.norm>
0

>  <SCORE.heavy>
12

>  <SCORE.norm>
-2.13496

>  <SYMMETRIC_BONDS>
4 1 2

>  <RMSD>
11.511

$$$$
1kod cryst
 OpenBabel11021811393D
libRbt.so/2013.1/901 2013/11/27
 12 11  0  0  0  0  0  0  0  0999 V2000
   -3.0105   -0.5633   26.4554 C   0  0  0  0  0  0  0  0  0  0  0  0
   -1.9926   -1.0670   26.0043 O   0  5  0  0  0  0  0  0  0  0  0  0
   -3.6324   -1.0194   27.4067 O   0  0  0  0  0  0  0  0  0  0  0  0
   -3.5371    0.7219   25.7867 C   0  0  1  0  0  0  0  0  0  0  0  0
   -2.4719    1.7701   25.8216 N   0  3  0  0  0  0  0  0  0  0  0  0
   -3.9441    0.4488   24.3197 C   0  0  0  0  0  0  0  0  0  0  0  0
   -5.3492   -0.1353   24.2529 C   0  0  0  0  0  0  0  0  0  0  0  0
   -5.2744   -1.6336   23.9675 C   0  0  0  0  0  0  0  0  0  0  0  0
   -4.8626   -2.3470   25.2165 N   0  0  0  0  0  0  0  0  0  0  0  0
   -5.7585   -2.8756   26.0065 C   0  0  0  0  0  0  0  0  0  0  0  0
   -5.7801   -2.6006   27.2042 O   0  0  0  0  0  0  0  0  0  0  0  0
   -6.6300   -3.7146   25.5272 N   0  0  0  0  0  0  0  0  0  0  0  0
  1  2  1  0  0  0  0
  1  3  2  0  0  0  0
  4  1  1  6  0  0  0
  4  6  1  0  0  0  0
  4  5  1  0  0  0  0
  6  7  1  0  0  0  0
  7  8  1  0  0  0  0
  8  9  1  0  0  0  0
  9 10  1  0  0  0  0
 10 12  1  0  0  0  0
 10 11  2  0  0  0  0
M  CHG  2   2  -1   5   1
M  END
>  <CHROM.1>
-57.26254131,82.76569455,-13.34145376,-104.34628439,75.81051237,-84.02900838
-4.32962979,-1.08481342,25.68914750,-0.51030550,0.72308943,2.27227151

>  <Name>
1kod cryst

>  <RI>
0

>  <Rbt.Current_Directory>
/home/itssahil/PROJECTS/Mol_Feturizer/New_Systems/rnas/1kod

>  <Rbt.Executable>
rbdock ($Id: //depot/dev/client3/rdock/2013.1/src/exe/rbdock.cxx#4 $)

>  <Rbt.Library>
libRbt.so (2013.1, Build901 2013/11/27)

>  <Rbt.Parameter_File>
/export/apps/rDock/src/rDock_2013.1_src/data/scripts/dock_solv.prm

>  <Rbt.Receptor>
prm/blind_docking_60.prm

>  <SCORE>
-25.7038

>  <SCORE.INTER>
-27.663

>  <SCORE.INTER.CONST>
1

>  <SCORE.INTER.POLAR>
-5.32433

>  <SCORE.INTER.ROT>
5

>  <SCORE.INTER.SOLV>
21.5944

>  <SCORE.INTER.VDW>
-14.8257

>  <SCORE.INTER.norm>
-2.30525

>  <SCORE.INTRA>
1.95818

>  <SCORE.INTRA.DIHEDRAL>
5.28581

>  <SCORE.INTRA.DIHEDRAL.0>
7.7847

>  <SCORE.INTRA.POLAR>
0

>  <SCORE.INTRA.POLAR.0>
0

>  <SCORE.INTRA.REPUL>
0

>  <SCORE.INTRA.REPUL.0>
0

>  <SCORE.INTRA.SOLV>
3.13562

>  <SCORE.INTRA.SOLV.lig_0>
-57.5465

>  <SCORE.INTRA.VDW>
-2.25253

>  <SCORE.INTRA.VDW.0>
1.39369

>  <SCORE.INTRA.norm>
0.163182

>  <SCORE.RESTR>
0.000991828

>  <SCORE.RESTR.CAVITY>
0.000991828

>  <SCORE.RESTR.norm>
8.26523e-05

>  <SCORE.SYSTEM>
0

>  <SCORE.SYSTEM.CONST>
0

>  <SCORE.SYSTEM.DIHEDRAL>
0

>  <SCORE.SYSTEM.SOLV>
0

>  <SCORE.SYSTEM.norm>
0

>  <SCORE.heavy>
12

>  <SCORE.norm>
-2.14198

>  <SYMMETRIC_BONDS>
4 1 2

>  <RMSD>
11.575

$$$$
1kod cryst
 OpenBabel11021811393D
libRbt.so/2013.1/901 2013/11/27
 12 11  0  0  0  0  0  0  0  0999 V2000
   -4.0429   -0.1454   27.5450 C   0  0  0  0  0  0  0  0  0  0  0  0
   -5.1140    0.0082   28.1128 O   0  5  0  0  0  0  0  0  0  0  0  0
   -3.3233   -1.1240   27.7012 O   0  0  0  0  0  0  0  0  0  0  0  0
   -3.5757    0.9577   26.5749 C   0  0  1  0  0  0  0  0  0  0  0  0
   -2.4279    1.6977   27.1828 N   0  3  0  0  0  0  0  0  0  0  0  0
   -3.1382    0.3484   25.2223 C   0  0  0  0  0  0  0  0  0  0  0  0
   -4.0945   -0.7587   24.7985 C   0  0  0  0  0  0  0  0  0  0  0  0
   -4.3636   -0.6647   23.2983 C   0  0  0  0  0  0  0  0  0  0  0  0
   -5.5431    0.2271   23.0702 N   0  0  0  0  0  0  0  0  0  0  0  0
   -5.5271    1.4680   23.4776 C   0  0  0  0  0  0  0  0  0  0  0  0
   -6.4276    1.9067   24.1898 O   0  0  0  0  0  0  0  0  0  0  0  0
   -4.5570    2.2559   23.1151 N   0  0  0  0  0  0  0  0  0  0  0  0
  1  2  1  0  0  0  0
  1  3  2  0  0  0  0
  4  1  1  1  0  0  0
  4  6  1  0  0  0  0
  4  5  1  0  0  0  0
  6  7  1  0  0  0  0
  7  8  1  0  0  0  0
  8  9  1  0  0  0  0
  9 10  1  0  0  0  0
 10 12  1  0  0  0  0
 10 11  2  0  0  0  0
M  CHG  2   2  -1   5   1
M  END
>  <CHROM.1>
108.66931282,41.05647092,-170.48940694,139.11445687,-89.59867178,-120.72971131
-4.33171893,0.54317921,25.38198304,0.31731964,1.17331959,3.04208495

>  <Name>
1kod cryst

>  <RI>
0

>  <Rbt.Current_Directory>
/home/itssahil/PROJECTS/Mol_Feturizer/New_Systems/rnas/1kod

>  <Rbt.Executable>
rbdock ($Id: //depot/dev/client3/rdock/2013.1/src/exe/rbdock.cxx#4 $)

>  <Rbt.Library>
libRbt.so (2013.1, Build901 2013/11/27)

>  <Rbt.Parameter_File>
/export/apps/rDock/src/rDock_2013.1_src/data/scripts/dock_solv.prm

>  <Rbt.Receptor>
prm/blind_docking_80.prm

>  <SCORE>
-22.4852

>  <SCORE.INTER>
-21.9718

>  <SCORE.INTER.CONST>
1

>  <SCORE.INTER.POLAR>
-3.83278

>  <SCORE.INTER.ROT>
5

>  <SCORE.INTER.SOLV>
21.1044

>  <SCORE.INTER.VDW>
-15.84

>  <SCORE.INTER.norm>
-1.83098

>  <SCORE.INTRA>
-0.513426

>  <SCORE.INTRA.DIHEDRAL>
3.25643

>  <SCORE.INTRA.DIHEDRAL.0>
7.7847

>  <SCORE.INTRA.POLAR>
0

>  <SCORE.INTRA.POLAR.0>
0

>  <SCORE.INTRA.REPUL>
0

>  <SCORE.INTRA.REPUL.0>
0

>  <SCORE.INTRA.SOLV>
-1.25018

>  <SCORE.INTRA.SOLV.lig_0>
-57.5465

>  <SCORE.INTRA.VDW>
-1.51655

>  <SCORE.INTRA.VDW.0>
1.39369

>  <SCORE.INTRA.norm>
-0.0427855

>  <SCORE.RESTR>
0

>  <SCORE.RESTR.CAVITY>
0

>  <SCORE.RESTR.norm>
0

>  <SCORE.SYSTEM>
0

>  <SCORE.SYSTEM.CONST>
0

>  <SCORE.SYSTEM.DIHEDRAL>
0

>  <SCORE.SYSTEM.SOLV>
0

>  <SCORE.SYSTEM.norm>
0

>  <SCORE.heavy>
12

>  <SCORE.norm>
-1.87377

>  <SYMMETRIC_BONDS>
4 1 2

>  <RMSD>
11.586

$$$$
1kod cryst
 OpenBabel11021811393D
libRbt.so/2013.1/901 2013/11/27
 12 11  0  0  0  0  0  0  0  0999 V2000
   -3.3716    1.4832   26.3552 C   0  0  0  0  0  0  0  0  0  0  0  0
   -3.7652    2.1834   27.2762 O   0  5  0  0  0  0  0  0  0  0  0  0
   -2.6107    0.5344   26.4978 O   0  0  0  0  0  0  0  0  0  0  0  0
   -3.8664    1.8158   24.9337 C   0  0  1  0  0  0  0  0  0  0  0  0
   -2.9762    2.8539   24.3300 N   0  3  0  0  0  0  0  0  0  0  0  0
   -3.8625    0.5517   24.0425 C   0  0  0  0  0  0  0  0  0  0  0  0
   -4.8045   -0.5044   24.6058 C   0  0  0  0  0  0  0  0  0  0  0  0
   -4.6104   -1.8226   23.8599 C   0  0  0  0  0  0  0  0  0  0  0  0
   -4.9389   -2.9556   24.7802 N   0  0  0  0  0  0  0  0  0  0  0  0
   -5.9114   -2.8488   25.6456 C   0  0  0  0  0  0  0  0  0  0  0  0
   -5.7186   -3.0754   26.8380 O   0  0  0  0  0  0  0  0  0  0  0  0
   -7.1026   -2.5139   25.2427 N   0  0  0  0  0  0  0  0  0  0  0  0
  1  2  1  0  0  0  0
  1  3  2  0  0  0  0
  4  1  1  1  0  0  0
  4  6  1  0  0  0  0
  4  5  1  0  0  0  0
  6  7  1  0  0  0  0
  7  8  1  0  0  0  0
  8  9  1  0  0  0  0
  9 10  1  0  0  0  0
 10 12  1  0  0  0  0
 10 11  2  0  0  0  0
M  CHG  2   2  -1   5   1
M  END
>  <CHROM.1>
86.10187460,61.56428179,85.37193830,-170.30892933,150.99070617,-143.53452565
-4.45244374,-0.33869739,25.37911132,0.03331264,1.07167899,1.55865645

>  <Name>
1kod cryst

>  <RI>
0

>  <Rbt.Current_Directory>
/home/itssahil/PROJECTS/Mol_Feturizer/New_Systems/rnas/1kod

>  <Rbt.Executable>
rbdock ($Id: //depot/dev/client3/rdock/2013.1/src/exe/rbdock.cxx#4 $)

>  <Rbt.Library>
libRbt.so (2013.1, Build901 2013/11/27)

>  <Rbt.Parameter_File>
/export/apps/rDock/src/rDock_2013.1_src/data/scripts/dock_solv.prm

>  <Rbt.Receptor>
prm/blind_docking_100.prm

>  <SCORE>
-20.0474

>  <SCORE.INTER>
-18.2782

>  <SCORE.INTER.CONST>
1

>  <SCORE.INTER.POLAR>
-3.49403

>  <SCORE.INTER.ROT>
5

>  <SCORE.INTER.SOLV>
14.6878

>  <SCORE.INTER.VDW>
-12.368

>  <SCORE.INTER.norm>
-1.52319

>  <SCORE.INTRA>
-1.99922

>  <SCORE.INTRA.DIHEDRAL>
-1.16417

>  <SCORE.INTRA.DIHEDRAL.0>
7.7847

>  <SCORE.INTRA.POLAR>
0

>  <SCORE.INTRA.POLAR.0>
0

>  <SCORE.INTRA.REPUL>
0

>  <SCORE.INTRA.REPUL.0>
0

>  <SCORE.INTRA.SOLV>
-2.12776

>  <SCORE.INTRA.SOLV.lig_0>
-57.5465

>  <SCORE.INTRA.VDW>
-0.353249

>  <SCORE.INTRA.VDW.0>
1.39369

>  <SCORE.INTRA.norm>
-0.166601

>  <SCORE.RESTR>
0.230026

>  <SCORE.RESTR.CAVITY>
0.230026

>  <SCORE.RESTR.norm>
0.0191688

>  <SCORE.SYSTEM>
0

>  <SCORE.SYSTEM.CONST>
0

>  <SCORE.SYSTEM.DIHEDRAL>
0

>  <SCORE.SYSTEM.SOLV>
0

>  <SCORE.SYSTEM.norm>
0

>  <SCORE.heavy>
12

>  <SCORE.norm>
-1.67062

>  <SYMMETRIC_BONDS>
4 1 2

>  <RMSD>
11.615

$$$$
1kod cryst
 OpenBabel11021811393D
libRbt.so/2013.1/901 2013/11/27
 12 11  0  0  0  0  0  0  0  0999 V2000
   -5.1176    3.3375   25.7372 C   0  0  0  0  0  0  0  0  0  0  0  0
   -5.5224    4.4733   25.5389 O   0  5  0  0  0  0  0  0  0  0  0  0
   -5.2505    2.7427   26.7994 O   0  0  0  0  0  0  0  0  0  0  0  0
   -4.4012    2.6144   24.5795 C   0  0  1  0  0  0  0  0  0  0  0  0
   -3.1486    3.3536   24.2341 N   0  3  0  0  0  0  0  0  0  0  0  0
   -4.0498    1.1611   24.9753 C   0  0  0  0  0  0  0  0  0  0  0  0
   -4.1017    0.2465   23.7585 C   0  0  0  0  0  0  0  0  0  0  0  0
   -5.0398   -0.9270   24.0320 C   0  0  0  0  0  0  0  0  0  0  0  0
   -4.3808   -1.8625   24.9960 N   0  0  0  0  0  0  0  0  0  0  0  0
   -5.0065   -2.2576   26.0723 C   0  0  0  0  0  0  0  0  0  0  0  0
   -4.4902   -2.1318   27.1805 O   0  0  0  0  0  0  0  0  0  0  0  0
   -6.1829   -2.8048   25.9731 N   0  0  0  0  0  0  0  0  0  0  0  0
  1  2  1  0  0  0  0
  1  3  2  0  0  0  0
  4  1  1  1  0  0  0
  4  6  1  0  0  0  0
  4  5  1  0  0  0  0
  6  7  1  0  0  0  0
  7  8  1  0  0  0  0
  8  9  1  0  0  0  0
  9 10  1  0  0  0  0
 10 12  1  0  0  0  0
 10 11  2  0  0  0  0
M  CHG  2   2  -1   5   1
M  END
>  <CHROM.1>
63.31285294,147.85141347,-87.26620053,-125.31393713,-72.68840450,-51.32769882
-4.71334589,0.67954044,25.33799179,1.39928853,1.04285901,0.04518791

>  <Name>
1kod cryst

>  <RI>
0

>  <Rbt.Current_Directory>
/home/itssahil/PROJECTS/Mol_Feturizer/New_Systems/rnas/1kod

>  <Rbt.Executable>
rbdock ($Id: //depot/dev/client3/rdock/2013.1/src/exe/rbdock.cxx#4 $)

>  <Rbt.Library>
libRbt.so (2013.1, Build901 2013/11/27)

>  <Rbt.Parameter_File>
/export/apps/rDock/src/rDock_2013.1_src/data/scripts/dock_solv.prm

>  <Rbt.Receptor>
prm/blind_docking_60.prm

>  <SCORE>
-24.041

>  <SCORE.INTER>
-24.1134

>  <SCORE.INTER.CONST>
1

>  <SCORE.INTER.POLAR>
-4.47165

>  <SCORE.INTER.ROT>
5

>  <SCORE.INTER.SOLV>
9.2482

>  <SCORE.INTER.VDW>
-11.1861

>  <SCORE.INTER.norm>
-2.00945

>  <SCORE.INTRA>
0.00783148

>  <SCORE.INTRA.DIHEDRAL>
5.44766

>  <SCORE.INTRA.DIHEDRAL.0>
7.7847

>  <SCORE.INTRA.POLAR>
0

>  <SCORE.INTRA.POLAR.0>
0

>  <SCORE.INTRA.REPUL>
0

>  <SCORE.INTRA.REPUL.0>
0

>  <SCORE.INTRA.SOLV>
-2.48645

>  <SCORE.INTRA.SOLV.lig_0>
-57.5465

>  <SCORE.INTRA.VDW>
-1.47277

>  <SCORE.INTRA.VDW.0>
1.39369

>  <SCORE.INTRA.norm>
0.000652623

>  <SCORE.RESTR>
0.0645176

>  <SCORE.RESTR.CAVITY>
0.0645176

>  <SCORE.RESTR.norm>
0.00537646

>  <SCORE.SYSTEM>
0

>  <SCORE.SYSTEM.CONST>
0

>  <SCORE.SYSTEM.DIHEDRAL>
0

>  <SCORE.SYSTEM.SOLV>
0

>  <SCORE.SYSTEM.norm>
0

>  <SCORE.heavy>
12

>  <SCORE.norm>
-2.00342

>  <SYMMETRIC_BONDS>
4 1 2

>  <RMSD>
11.617

$$$$
1kod cryst
 OpenBabel11021811393D
libRbt.so/2013.1/901 2013/11/27
 12 11  0  0  0  0  0  0  0  0999 V2000
   -6.2816   -1.9420   26.2794 C   0  0  0  0  0  0  0  0  0  0  0  0
   -6.8750   -1.4168   25.3492 O   0  5  0  0  0  0  0  0  0  0  0  0
   -6.6443   -1.8690   27.4468 O   0  0  0  0  0  0  0  0  0  0  0  0
   -5.0046   -2.7441   25.9598 C   0  0  1  0  0  0  0  0  0  0  0  0
   -5.3618   -3.9307   25.1239 N   0  3  0  0  0  0  0  0  0  0  0  0
   -3.9826   -1.8666   25.1997 C   0  0  0  0  0  0  0  0  0  0  0  0
   -3.1433   -1.0531   26.1762 C   0  0  0  0  0  0  0  0  0  0  0  0
   -3.8099    0.2966   26.4329 C   0  0  0  0  0  0  0  0  0  0  0  0
   -2.8648    1.1686   27.1977 N   0  0  0  0  0  0  0  0  0  0  0  0
   -3.2680    1.8166   28.2577 C   0  0  0  0  0  0  0  0  0  0  0  0
   -3.0995    3.0303   28.3535 O   0  0  0  0  0  0  0  0  0  0  0  0
   -3.8410    1.1716   29.2318 N   0  0  0  0  0  0  0  0  0  0  0  0
  1  2  1  0  0  0  0
  1  3  2  0  0  0  0
  4  1  1  6  0  0  0
  4  6  1  0  0  0  0
  4  5  1  0  0  0  0
  6  7  1  0  0  0  0
  7  8  1  0  0  0  0
  8  9  1  0  0  0  0
  9 10  1  0  0  0  0
 10 12  1  0  0  0  0
 10 11  2  0  0  0  0
M  CHG  2   2  -1   5   1
M  END
>  <CHROM.1>
-64.76792644,84.81915677,35.62583278,-90.71059741,-170.28270226,48.04539164
-4.53650911,-0.62762913,26.75571916,2.04748051,-0.36412527,-2.45138279

>  <Name>
1kod cryst

>  <RI>
0

>  <Rbt.Current_Directory>
/home/itssahil/PROJECTS/Mol_Feturizer/New_Systems/rnas/1kod

>  <Rbt.Executable>
rbdock ($Id: //depot/dev/client3/rdock/2013.1/src/exe/rbdock.cxx#4 $)

>  <Rbt.Library>
libRbt.so (2013.1, Build901 2013/11/27)

>  <Rbt.Parameter_File>
/export/apps/rDock/src/rDock_2013.1_src/data/scripts/dock_solv.prm

>  <Rbt.Receptor>
prm/blind_docking_40.prm

>  <SCORE>
-24.433

>  <SCORE.INTER>
-21.6108

>  <SCORE.INTER.CONST>
1

>  <SCORE.INTER.POLAR>
-4.01683

>  <SCORE.INTER.ROT>
5

>  <SCORE.INTER.SOLV>
18.9405

>  <SCORE.INTER.VDW>
-14.2646

>  <SCORE.INTER.norm>
-1.8009

>  <SCORE.INTRA>
-2.84126

>  <SCORE.INTRA.DIHEDRAL>
1.13318

>  <SCORE.INTRA.DIHEDRAL.0>
7.7847

>  <SCORE.INTRA.POLAR>
0

>  <SCORE.INTRA.POLAR.0>
0

>  <SCORE.INTRA.REPUL>
0

>  <SCORE.INTRA.REPUL.0>
0

>  <SCORE.INTRA.SOLV>
-1.91491

>  <SCORE.INTRA.SOLV.lig_0>
-57.5465

>  <SCORE.INTRA.VDW>
-2.4504

>  <SCORE.INTRA.VDW.0>
1.39369

>  <SCORE.INTRA.norm>
-0.236772

>  <SCORE.RESTR>
0.0190746

>  <SCORE.RESTR.CAVITY>
0.0190746

>  <SCORE.RESTR.norm>
0.00158955

>  <SCORE.SYSTEM>
0

>  <SCORE.SYSTEM.CONST>
0

>  <SCORE.SYSTEM.DIHEDRAL>
0

>  <SCORE.SYSTEM.SOLV>
0

>  <SCORE.SYSTEM.norm>
0

>  <SCORE.heavy>
12

>  <SCORE.norm>
-2.03609

>  <SYMMETRIC_BONDS>
4 1 2

>  <RMSD>
11.646

$$$$
1kod cryst
 OpenBabel11021811393D
libRbt.so/2013.1/901 2013/11/27
 12 11  0  0  0  0  0  0  0  0999 V2000
   -4.5843    2.0038   25.6220 C   0  0  0  0  0  0  0  0  0  0  0  0
   -5.0217    2.6467   24.6793 O   0  5  0  0  0  0  0  0  0  0  0  0
   -5.1778    1.8622   26.6838 O   0  0  0  0  0  0  0  0  0  0  0  0
   -3.2065    1.3319   25.4598 C   0  0  1  0  0  0  0  0  0  0  0  0
   -2.3252    1.7282   26.6004 N   0  3  0  0  0  0  0  0  0  0  0  0
   -3.3483   -0.2079   25.4285 C   0  0  0  0  0  0  0  0  0  0  0  0
   -4.3475   -0.6328   24.3604 C   0  0  0  0  0  0  0  0  0  0  0  0
   -4.5311   -2.1484   24.3962 C   0  0  0  0  0  0  0  0  0  0  0  0
   -4.9380   -2.5568   25.7769 N   0  0  0  0  0  0  0  0  0  0  0  0
   -5.9666   -3.3401   25.9626 C   0  0  0  0  0  0  0  0  0  0  0  0
   -6.8730   -3.0155   26.7265 O   0  0  0  0  0  0  0  0  0  0  0  0
   -6.0288   -4.4842   25.3458 N   0  0  0  0  0  0  0  0  0  0  0  0
  1  2  1  0  0  0  0
  1  3  2  0  0  0  0
  4  1  1  1  0  0  0
  4  6  1  0  0  0  0
  4  5  1  0  0  0  0
  6  7  1  0  0  0  0
  7  8  1  0  0  0  0
  8  9  1  0  0  0  0
  9 10  1  0  0  0  0
 10 12  1  0  0  0  0
 10 11  2  0  0  0  0
M  CHG  2   2  -1   5   1
M  END
>  <CHROM.1>
127.28915033,53.90923469,-62.42699888,-176.91537579,55.56570580,-49.60437599
-4.69434076,-0.55848358,25.61979504,1.18802396,0.32663835,0.13770112

>  <Name>
1kod cryst

>  <RI>
0

>  <Rbt.Current_Directory>
/home/itssahil/PROJECTS/Mol_Feturizer/New_Systems/rnas/1kod

>  <Rbt.Executable>
rbdock ($Id: //depot/dev/client3/rdock/2013.1/src/exe/rbdock.cxx#4 $)

>  <Rbt.Library>
libRbt.so (2013.1, Build901 2013/11/27)

>  <Rbt.Parameter_File>
/export/apps/rDock/src/rDock_2013.1_src/data/scripts/dock_solv.prm

>  <Rbt.Receptor>
prm/blind_docking_60.prm

>  <SCORE>
-29.1566

>  <SCORE.INTER>
-23.7852

>  <SCORE.INTER.CONST>
1

>  <SCORE.INTER.POLAR>
-4.24079

>  <SCORE.INTER.ROT>
5

>  <SCORE.INTER.SOLV>
14.1485

>  <SCORE.INTER.VDW>
-13.3703

>  <SCORE.INTER.norm>
-1.9821

>  <SCORE.INTRA>
-5.37136

>  <SCORE.INTRA.DIHEDRAL>
-5.2818

>  <SCORE.INTRA.DIHEDRAL.0>
7.7847

>  <SCORE.INTRA.POLAR>
0

>  <SCORE.INTRA.POLAR.0>
0

>  <SCORE.INTRA.REPUL>
0

>  <SCORE.INTRA.REPUL.0>
0

>  <SCORE.INTRA.SOLV>
-2.23401

>  <SCORE.INTRA.SOLV.lig_0>
-57.5465

>  <SCORE.INTRA.VDW>
-1.61345

>  <SCORE.INTRA.VDW.0>
1.39369

>  <SCORE.INTRA.norm>
-0.447613

>  <SCORE.RESTR>
0

>  <SCORE.RESTR.CAVITY>
0

>  <SCORE.RESTR.norm>
0

>  <SCORE.SYSTEM>
0

>  <SCORE.SYSTEM.CONST>
0

>  <SCORE.SYSTEM.DIHEDRAL>
0

>  <SCORE.SYSTEM.SOLV>
0

>  <SCORE.SYSTEM.norm>
0

>  <SCORE.heavy>
12

>  <SCORE.norm>
-2.42971

>  <SYMMETRIC_BONDS>
4 1 2

>  <RMSD>
11.702

$$$$
1kod cryst
 OpenBabel11021811393D
libRbt.so/2013.1/901 2013/11/27
 12 11  0  0  0  0  0  0  0  0999 V2000
   -6.5584   -2.1352   26.3134 C   0  0  0  0  0  0  0  0  0  0  0  0
   -7.2233   -1.6331   25.4195 O   0  5  0  0  0  0  0  0  0  0  0  0
   -6.8512   -2.0671   27.5006 O   0  0  0  0  0  0  0  0  0  0  0  0
   -5.2793   -2.8998   25.9189 C   0  0  1  0  0  0  0  0  0  0  0  0
   -5.6461   -4.0707   25.0652 N   0  3  0  0  0  0  0  0  0  0  0  0
   -4.3086   -1.9795   25.1425 C   0  0  0  0  0  0  0  0  0  0  0  0
   -3.3302   -1.3059   26.0959 C   0  0  0  0  0  0  0  0  0  0  0  0
   -4.0539   -0.2361   26.9104 C   0  0  0  0  0  0  0  0  0  0  0  0
   -3.1728    0.1942   28.0406 N   0  0  0  0  0  0  0  0  0  0  0  0
   -3.5897    1.0747   28.9107 C   0  0  0  0  0  0  0  0  0  0  0  0
   -2.9265    2.0807   29.1529 O   0  0  0  0  0  0  0  0  0  0  0  0
   -4.7113    0.8808   29.5413 N   0  0  0  0  0  0  0  0  0  0  0  0
  1  2  1  0  0  0  0
  1  3  2  0  0  0  0
  4  1  1  6  0  0  0
  4  6  1  0  0  0  0
  4  5  1  0  0  0  0
  6  7  1  0  0  0  0
  7  8  1  0  0  0  0
  8  9  1  0  0  0  0
  9 10  1  0  0  0  0
 10 12  1  0  0  0  0
 10 11  2  0  0  0  0
M  CHG  2   2  -1   5   1
M  END
>  <CHROM.1>
-62.55109246,91.88709327,155.05347383,-72.29109037,167.33184373,2.27640382
-4.82975193,-1.02424834,27.00686129,2.03121436,-0.25572690,-2.32766918

>  <Name>
1kod cryst

>  <RI>
0

>  <Rbt.Current_Directory>
/home/itssahil/PROJECTS/Mol_Feturizer/New_Systems/rnas/1kod

>  <Rbt.Executable>
rbdock ($Id: //depot/dev/client3/rdock/2013.1/src/exe/rbdock.cxx#4 $)

>  <Rbt.Library>
libRbt.so (2013.1, Build901 2013/11/27)

>  <Rbt.Parameter_File>
/export/apps/rDock/src/rDock_2013.1_src/data/scripts/dock_solv.prm

>  <Rbt.Receptor>
prm/blind_docking_100.prm

>  <SCORE>
-25.9891

>  <SCORE.INTER>
-23.1996

>  <SCORE.INTER.CONST>
1

>  <SCORE.INTER.POLAR>
-3.98079

>  <SCORE.INTER.ROT>
5

>  <SCORE.INTER.SOLV>
21.8594

>  <SCORE.INTER.VDW>
-16.4169

>  <SCORE.INTER.norm>
-1.9333

>  <SCORE.INTRA>
-2.78949

>  <SCORE.INTRA.DIHEDRAL>
-0.20094

>  <SCORE.INTRA.DIHEDRAL.0>
7.7847

>  <SCORE.INTRA.POLAR>
0

>  <SCORE.INTRA.POLAR.0>
0

>  <SCORE.INTRA.REPUL>
0

>  <SCORE.INTRA.REPUL.0>
0

>  <SCORE.INTRA.SOLV>
-1.51546

>  <SCORE.INTRA.SOLV.lig_0>
-57.5465

>  <SCORE.INTRA.VDW>
-1.9313

>  <SCORE.INTRA.VDW.0>
1.39369

>  <SCORE.INTRA.norm>
-0.232458

>  <SCORE.RESTR>
0

>  <SCORE.RESTR.CAVITY>
0

>  <SCORE.RESTR.norm>
0

>  <SCORE.SYSTEM>
0

>  <SCORE.SYSTEM.CONST>
0

>  <SCORE.SYSTEM.DIHEDRAL>
0

>  <SCORE.SYSTEM.SOLV>
0

>  <SCORE.SYSTEM.norm>
0

>  <SCORE.heavy>
12

>  <SCORE.norm>
-2.16575

>  <SYMMETRIC_BONDS>
4 1 2

>  <RMSD>
11.726

$$$$
1kod cryst
 OpenBabel11021811393D
libRbt.so/2013.1/901 2013/11/27
 12 11  0  0  0  0  0  0  0  0999 V2000
   -3.7713    2.7447   24.3693 C   0  0  0  0  0  0  0  0  0  0  0  0
   -4.4274    3.4936   25.0778 O   0  5  0  0  0  0  0  0  0  0  0  0
   -3.6192    2.9059   23.1649 O   0  0  0  0  0  0  0  0  0  0  0  0
   -3.0956    1.5296   25.0350 C   0  0  1  0  0  0  0  0  0  0  0  0
   -2.6798    1.8939   26.4239 N   0  3  0  0  0  0  0  0  0  0  0  0
   -4.0636    0.3243   25.0859 C   0  0  0  0  0  0  0  0  0  0  0  0
   -3.2963   -0.9702   25.3210 C   0  0  0  0  0  0  0  0  0  0  0  0
   -4.2428   -2.1625   25.2019 C   0  0  0  0  0  0  0  0  0  0  0  0
   -5.1417   -2.1918   26.3977 N   0  0  0  0  0  0  0  0  0  0  0  0
   -6.3031   -2.7869   26.3421 C   0  0  0  0  0  0  0  0  0  0  0  0
   -7.3292   -2.1924   26.6649 O   0  0  0  0  0  0  0  0  0  0  0  0
   -6.3771   -4.0273   25.9560 N   0  0  0  0  0  0  0  0  0  0  0  0
  1  2  1  0  0  0  0
  1  3  2  0  0  0  0
  4  1  1  1  0  0  0
  4  6  1  0  0  0  0
  4  5  1  0  0  0  0
  6  7  1  0  0  0  0
  7  8  1  0  0  0  0
  8  9  1  0  0  0  0
  9 10  1  0  0  0  0
 10 12  1  0  0  0  0
 10 11  2  0  0  0  0
M  CHG  2   2  -1   5   1
M  END
>  <CHROM.1>
-33.71391901,162.06282363,85.85393114,-173.26651764,-72.12255126,-23.82323761
-4.53549451,-0.10349823,25.44596025,1.15028764,0.07162804,-0.23100322

>  <Name>
1kod cryst

>  <RI>
0

>  <Rbt.Current_Directory>
/home/itssahil/PROJECTS/Mol_Feturizer/New_Systems/rnas/1kod

>  <Rbt.Executable>
rbdock ($Id: //depot/dev/client3/rdock/2013.1/src/exe/rbdock.cxx#4 $)

>  <Rbt.Library>
libRbt.so (2013.1, Build901 2013/11/27)

>  <Rbt.Parameter_File>
/export/apps/rDock/src/rDock_2013.1_src/data/scripts/dock_solv.prm

>  <Rbt.Receptor>
prm/blind_docking_40.prm

>  <SCORE>
-25.0322

>  <SCORE.INTER>
-20.4249

>  <SCORE.INTER.CONST>
1

>  <SCORE.INTER.POLAR>
-3.43511

>  <SCORE.INTER.ROT>
5

>  <SCORE.INTER.SOLV>
15.6295

>  <SCORE.INTER.VDW>
-14.3094

>  <SCORE.INTER.norm>
-1.70208

>  <SCORE.INTRA>
-4.60726

>  <SCORE.INTRA.DIHEDRAL>
-2.35128

>  <SCORE.INTRA.DIHEDRAL.0>
7.7847

>  <SCORE.INTRA.POLAR>
0

>  <SCORE.INTRA.POLAR.0>
0

>  <SCORE.INTRA.REPUL>
0

>  <SCORE.INTRA.REPUL.0>
0

>  <SCORE.INTRA.SOLV>
-2.42715

>  <SCORE.INTRA.SOLV.lig_0>
-57.5465

>  <SCORE.INTRA.VDW>
-2.21804

>  <SCORE.INTRA.VDW.0>
1.39369

>  <SCORE.INTRA.norm>
-0.383938

>  <SCORE.RESTR>
0

>  <SCORE.RESTR.CAVITY>
0

>  <SCORE.RESTR.norm>
0

>  <SCORE.SYSTEM>
0

>  <SCORE.SYSTEM.CONST>
0

>  <SCORE.SYSTEM.DIHEDRAL>
0

>  <SCORE.SYSTEM.SOLV>
0

>  <SCORE.SYSTEM.norm>
0

>  <SCORE.heavy>
12

>  <SCORE.norm>
-2.08602

>  <SYMMETRIC_BONDS>
4 1 2

>  <RMSD>
11.752

$$$$
1kod cryst
 OpenBabel11021811393D
libRbt.so/2013.1/901 2013/11/27
 12 11  0  0  0  0  0  0  0  0999 V2000
   -4.3443    2.1782   26.0178 C   0  0  0  0  0  0  0  0  0  0  0  0
   -3.3542    2.2272   26.7324 O   0  5  0  0  0  0  0  0  0  0  0  0
   -5.4857    2.0515   26.4430 O   0  0  0  0  0  0  0  0  0  0  0  0
   -4.1400    2.2851   24.4936 C   0  0  1  0  0  0  0  0  0  0  0  0
   -2.9613    3.1604   24.2125 N   0  3  0  0  0  0  0  0  0  0  0  0
   -3.9045    0.8880   23.8732 C   0  0  0  0  0  0  0  0  0  0  0  0
   -5.2170    0.1238   23.7591 C   0  0  0  0  0  0  0  0  0  0  0  0
   -4.9396   -1.3767   23.7017 C   0  0  0  0  0  0  0  0  0  0  0  0
   -4.4909   -1.8408   25.0514 N   0  0  0  0  0  0  0  0  0  0  0  0
   -5.0924   -2.8360   25.6463 C   0  0  0  0  0  0  0  0  0  0  0  0
   -5.5274   -2.7139   26.7893 O   0  0  0  0  0  0  0  0  0  0  0  0
   -5.2210   -3.9755   25.0314 N   0  0  0  0  0  0  0  0  0  0  0  0
  1  2  1  0  0  0  0
  1  3  2  0  0  0  0
  4  1  1  1  0  0  0
  4  6  1  0  0  0  0
  4  5  1  0  0  0  0
  6  7  1  0  0  0  0
  7  8  1  0  0  0  0
  8  9  1  0  0  0  0
  9 10  1  0  0  0  0
 10 12  1  0  0  0  0
 10 11  2  0  0  0  0
M  CHG  2   2  -1   5   1
M  END
>  <CHROM.1>
-31.97969975,76.81781020,105.38966434,-157.07339557,71.59785522,-53.67467494
-4.53444450,0.02523020,25.16588207,0.61029606,1.26995826,0.90862450

>  <Name>
1kod cryst

>  <RI>
0

>  <Rbt.Current_Directory>
/home/itssahil/PROJECTS/Mol_Feturizer/New_Systems/rnas/1kod

>  <Rbt.Executable>
rbdock ($Id: //depot/dev/client3/rdock/2013.1/src/exe/rbdock.cxx#4 $)

>  <Rbt.Library>
libRbt.so (2013.1, Build901 2013/11/27)

>  <Rbt.Parameter_File>
/export/apps/rDock/src/rDock_2013.1_src/data/scripts/dock_solv.prm

>  <Rbt.Receptor>
prm/blind_docking_80.prm

>  <SCORE>
-26.8276

>  <SCORE.INTER>
-24.5393

>  <SCORE.INTER.CONST>
1

>  <SCORE.INTER.POLAR>
-4.28107

>  <SCORE.INTER.ROT>
5

>  <SCORE.INTER.SOLV>
12.7904

>  <SCORE.INTER.VDW>
-13.2861

>  <SCORE.INTER.norm>
-2.04494

>  <SCORE.INTRA>
-2.56711

>  <SCORE.INTRA.DIHEDRAL>
0.927417

>  <SCORE.INTRA.DIHEDRAL.0>
7.7847

>  <SCORE.INTRA.POLAR>
0

>  <SCORE.INTRA.POLAR.0>
0

>  <SCORE.INTRA.REPUL>
0

>  <SCORE.INTRA.REPUL.0>
0

>  <SCORE.INTRA.SOLV>
-2.0211

>  <SCORE.INTRA.SOLV.lig_0>
-57.5465

>  <SCORE.INTRA.VDW>
-2.02027

>  <SCORE.INTRA.VDW.0>
1.39369

>  <SCORE.INTRA.norm>
-0.213926

>  <SCORE.RESTR>
0.278774

>  <SCORE.RESTR.CAVITY>
0.278774

>  <SCORE.RESTR.norm>
0.0232312

>  <SCORE.SYSTEM>
0

>  <SCORE.SYSTEM.CONST>
0

>  <SCORE.SYSTEM.DIHEDRAL>
0

>  <SCORE.SYSTEM.SOLV>
0

>  <SCORE.SYSTEM.norm>
0

>  <SCORE.heavy>
12

>  <SCORE.norm>
-2.23563

>  <SYMMETRIC_BONDS>
4 1 2

>  <RMSD>
11.756

$$$$
1kod cryst
 OpenBabel11021811393D
libRbt.so/2013.1/901 2013/11/27
 12 11  0  0  0  0  0  0  0  0999 V2000
   -6.1954   -3.0882   26.2239 C   0  0  0  0  0  0  0  0  0  0  0  0
   -6.8885   -3.6100   25.3633 O   0  5  0  0  0  0  0  0  0  0  0  0
   -6.5543   -2.9294   27.3839 O   0  0  0  0  0  0  0  0  0  0  0  0
   -4.7875   -2.6058   25.8220 C   0  0  1  0  0  0  0  0  0  0  0  0
   -4.5187   -2.9912   24.4029 N   0  3  0  0  0  0  0  0  0  0  0  0
   -4.6715   -1.0706   25.9703 C   0  0  0  0  0  0  0  0  0  0  0  0
   -3.2301   -0.6201   25.7721 C   0  0  0  0  0  0  0  0  0  0  0  0
   -3.1894    0.8818   25.4995 C   0  0  0  0  0  0  0  0  0  0  0  0
   -3.6327    1.6117   26.7280 N   0  0  0  0  0  0  0  0  0  0  0  0
   -3.2125    1.2429   27.9085 C   0  0  0  0  0  0  0  0  0  0  0  0
   -4.0101    1.0050   28.8128 O   0  0  0  0  0  0  0  0  0  0  0  0
   -1.9358    1.1399   28.1382 N   0  0  0  0  0  0  0  0  0  0  0  0
  1  2  1  0  0  0  0
  1  3  2  0  0  0  0
  4  1  1  6  0  0  0
  4  6  1  0  0  0  0
  4  5  1  0  0  0  0
  6  7  1  0  0  0  0
  7  8  1  0  0  0  0
  8  9  1  0  0  0  0
  9 10  1  0  0  0  0
 10 12  1  0  0  0  0
 10 11  2  0  0  0  0
M  CHG  2   2  -1   5   1
M  END
>  <CHROM.1>
-4.25860201,171.67581148,-177.17513283,162.93503424,66.59698424,-137.09985240
-4.40730042,-0.93620080,26.49514393,2.38245869,-0.75372801,-2.11339488

>  <Name>
1kod cryst

>  <RI>
0

>  <Rbt.Current_Directory>
/home/itssahil/PROJECTS/Mol_Feturizer/New_Systems/rnas/1kod

>  <Rbt.Executable>
rbdock ($Id: //depot/dev/client3/rdock/2013.1/src/exe/rbdock.cxx#4 $)

>  <Rbt.Library>
libRbt.so (2013.1, Build901 2013/11/27)

>  <Rbt.Parameter_File>
/export/apps/rDock/src/rDock_2013.1_src/data/scripts/dock_solv.prm

>  <Rbt.Receptor>
prm/blind_docking_60.prm

>  <SCORE>
-27.6733

>  <SCORE.INTER>
-23.6168

>  <SCORE.INTER.CONST>
1

>  <SCORE.INTER.POLAR>
-4.61458

>  <SCORE.INTER.ROT>
5

>  <SCORE.INTER.SOLV>
21.6638

>  <SCORE.INTER.VDW>
-14.5172

>  <SCORE.INTER.norm>
-1.96806

>  <SCORE.INTRA>
-4.05654

>  <SCORE.INTRA.DIHEDRAL>
-3.97377

>  <SCORE.INTRA.DIHEDRAL.0>
7.7847

>  <SCORE.INTRA.POLAR>
0

>  <SCORE.INTRA.POLAR.0>
0

>  <SCORE.INTRA.REPUL>
0

>  <SCORE.INTRA.REPUL.0>
0

>  <SCORE.INTRA.SOLV>
-1.2947

>  <SCORE.INTRA.SOLV.lig_0>
-57.5465

>  <SCORE.INTRA.VDW>
-1.4223

>  <SCORE.INTRA.VDW.0>
1.39369

>  <SCORE.INTRA.norm>
-0.338045

>  <SCORE.RESTR>
0

>  <SCORE.RESTR.CAVITY>
0

>  <SCORE.RESTR.norm>
0

>  <SCORE.SYSTEM>
0

>  <SCORE.SYSTEM.CONST>
0

>  <SCORE.SYSTEM.DIHEDRAL>
0

>  <SCORE.SYSTEM.SOLV>
0

>  <SCORE.SYSTEM.norm>
0

>  <SCORE.heavy>
12

>  <SCORE.norm>
-2.30611

>  <SYMMETRIC_BONDS>
4 1 2

>  <RMSD>
11.771

$$$$
1kod cryst
 OpenBabel11021811393D
libRbt.so/2013.1/901 2013/11/27
 12 11  0  0  0  0  0  0  0  0999 V2000
   -5.3415    2.1277   25.5018 C   0  0  0  0  0  0  0  0  0  0  0  0
   -6.4929    2.0651   25.0974 O   0  5  0  0  0  0  0  0  0  0  0  0
   -5.0194    1.9526   26.6702 O   0  0  0  0  0  0  0  0  0  0  0  0
   -4.2332    2.4431   24.4777 C   0  0  1  0  0  0  0  0  0  0  0  0
   -2.8971    2.2702   25.1254 N   0  3  0  0  0  0  0  0  0  0  0  0
   -4.3373    1.5056   23.2519 C   0  0  0  0  0  0  0  0  0  0  0  0
   -3.8364    0.1100   23.6002 C   0  0  0  0  0  0  0  0  0  0  0  0
   -4.9650   -0.7033   24.2301 C   0  0  0  0  0  0  0  0  0  0  0  0
   -4.3717   -1.7740   25.0905 N   0  0  0  0  0  0  0  0  0  0  0  0
   -5.0104   -2.2117   26.1424 C   0  0  0  0  0  0  0  0  0  0  0  0
   -4.4665   -2.2304   27.2444 O   0  0  0  0  0  0  0  0  0  0  0  0
   -6.2306   -2.6477   26.0240 N   0  0  0  0  0  0  0  0  0  0  0  0
  1  2  1  0  0  0  0
  1  3  2  0  0  0  0
  4  1  1  1  0  0  0
  4  6  1  0  0  0  0
  4  5  1  0  0  0  0
  6  7  1  0  0  0  0
  7  8  1  0  0  0  0
  8  9  1  0  0  0  0
  9 10  1  0  0  0  0
 10 12  1  0  0  0  0
 10 11  2  0  0  0  0
M  CHG  2   2  -1   5   1
M  END
>  <CHROM.1>
-171.50003789,-74.92865139,-76.03452338,85.18909259,-155.15592135,-29.78962432
-4.75685077,0.23370291,25.24090762,1.29651979,0.97715539,-0.06159856

>  <Name>
1kod cryst

>  <RI>
0

>  <Rbt.Current_Directory>
/home/itssahil/PROJECTS/Mol_Feturizer/New_Systems/rnas/1kod

>  <Rbt.Executable>
rbdock ($Id: //depot/dev/client3/rdock/2013.1/src/exe/rbdock.cxx#4 $)

>  <Rbt.Library>
libRbt.so (2013.1, Build901 2013/11/27)

>  <Rbt.Parameter_File>
/export/apps/rDock/src/rDock_2013.1_src/data/scripts/dock_solv.prm

>  <Rbt.Receptor>
prm/blind_docking_100.prm

>  <SCORE>
-27.3876

>  <SCORE.INTER>
-26.453

>  <SCORE.INTER.CONST>
1

>  <SCORE.INTER.POLAR>
-4.85574

>  <SCORE.INTER.ROT>
5

>  <SCORE.INTER.SOLV>
11.0854

>  <SCORE.INTER.VDW>
-12.078

>  <SCORE.INTER.norm>
-2.20442

>  <SCORE.INTRA>
-0.937429

>  <SCORE.INTRA.DIHEDRAL>
0.126459

>  <SCORE.INTRA.DIHEDRAL.0>
7.7847

>  <SCORE.INTRA.POLAR>
0

>  <SCORE.INTRA.POLAR.0>
0

>  <SCORE.INTRA.REPUL>
0

>  <SCORE.INTRA.REPUL.0>
0

>  <SCORE.INTRA.SOLV>
1.11477

>  <SCORE.INTRA.SOLV.lig_0>
-57.5465

>  <SCORE.INTRA.VDW>
-1.55804

>  <SCORE.INTRA.VDW.0>
1.39369

>  <SCORE.INTRA.norm>
-0.078119

>  <SCORE.RESTR>
0.00285844

>  <SCORE.RESTR.CAVITY>
0.00285844

>  <SCORE.RESTR.norm>
0.000238204

>  <SCORE.SYSTEM>
0

>  <SCORE.SYSTEM.CONST>
0

>  <SCORE.SYSTEM.DIHEDRAL>
0

>  <SCORE.SYSTEM.SOLV>
0

>  <SCORE.SYSTEM.norm>
0

>  <SCORE.heavy>
12

>  <SCORE.norm>
-2.2823

>  <SYMMETRIC_BONDS>
4 1 2

>  <RMSD>
11.784

$$$$
1kod cryst
 OpenBabel11021811393D
libRbt.so/2013.1/901 2013/11/27
 12 11  0  0  0  0  0  0  0  0999 V2000
   -5.3468   -2.5118   24.7847 C   0  0  0  0  0  0  0  0  0  0  0  0
   -4.8485   -3.5988   25.0368 O   0  5  0  0  0  0  0  0  0  0  0  0
   -6.5418   -2.2681   24.8957 O   0  0  0  0  0  0  0  0  0  0  0  0
   -4.4129   -1.3844   24.3020 C   0  0  1  0  0  0  0  0  0  0  0  0
   -4.8562   -0.9183   22.9526 N   0  3  0  0  0  0  0  0  0  0  0  0
   -4.4333   -0.1952   25.2907 C   0  0  0  0  0  0  0  0  0  0  0  0
   -3.3284    0.7986   24.9569 C   0  0  0  0  0  0  0  0  0  0  0  0
   -3.2972    1.9096   26.0041 C   0  0  0  0  0  0  0  0  0  0  0  0
   -2.5250    1.4350   27.1945 N   0  0  0  0  0  0  0  0  0  0  0  0
   -3.0811    1.3968   28.3757 C   0  0  0  0  0  0  0  0  0  0  0  0
   -2.5516    1.9498   29.3371 O   0  0  0  0  0  0  0  0  0  0  0  0
   -4.2002    0.7544   28.5439 N   0  0  0  0  0  0  0  0  0  0  0  0
  1  2  1  0  0  0  0
  1  3  2  0  0  0  0
  4  1  1  1  0  0  0
  4  6  1  0  0  0  0
  4  5  1  0  0  0  0
  6  7  1  0  0  0  0
  7  8  1  0  0  0  0
  8  9  1  0  0  0  0
  9 10  1  0  0  0  0
 10 12  1  0  0  0  0
 10 11  2  0  0  0  0
M  CHG  2   2  -1   5   1
M  END
>  <CHROM.1>
121.00098885,169.49622906,-54.24351191,-175.76217947,82.41698784,58.54600360
-4.13833338,-0.23590139,25.96302387,2.45213081,-1.04021911,-1.53322470

>  <Name>
1kod cryst

>  <RI>
0

>  <Rbt.Current_Directory>
/home/itssahil/PROJECTS/Mol_Feturizer/New_Systems/rnas/1kod

>  <Rbt.Executable>
rbdock ($Id: //depot/dev/client3/rdock/2013.1/src/exe/rbdock.cxx#4 $)

>  <Rbt.Library>
libRbt.so (2013.1, Build901 2013/11/27)

>  <Rbt.Parameter_File>
/export/apps/rDock/src/rDock_2013.1_src/data/scripts/dock_solv.prm

>  <Rbt.Receptor>
prm/blind_docking_80.prm

>  <SCORE>
-23.8067

>  <SCORE.INTER>
-18.634

>  <SCORE.INTER.CONST>
1

>  <SCORE.INTER.POLAR>
-3.26321

>  <SCORE.INTER.ROT>
5

>  <SCORE.INTER.SOLV>
20.4663

>  <SCORE.INTER.VDW>
-15.3007

>  <SCORE.INTER.norm>
-1.55283

>  <SCORE.INTRA>
-5.17271

>  <SCORE.INTRA.DIHEDRAL>
-3.31155

>  <SCORE.INTRA.DIHEDRAL.0>
7.7847

>  <SCORE.INTRA.POLAR>
0

>  <SCORE.INTRA.POLAR.0>
0

>  <SCORE.INTRA.REPUL>
0

>  <SCORE.INTRA.REPUL.0>
0

>  <SCORE.INTRA.SOLV>
-2.0678

>  <SCORE.INTRA.SOLV.lig_0>
-57.5465

>  <SCORE.INTRA.VDW>
-2.48303

>  <SCORE.INTRA.VDW.0>
1.39369

>  <SCORE.INTRA.norm>
-0.431059

>  <SCORE.RESTR>
0

>  <SCORE.RESTR.CAVITY>
0

>  <SCORE.RESTR.norm>
0

>  <SCORE.SYSTEM>
0

>  <SCORE.SYSTEM.CONST>
0

>  <SCORE.SYSTEM.DIHEDRAL>
0

>  <SCORE.SYSTEM.SOLV>
0

>  <SCORE.SYSTEM.norm>
0

>  <SCORE.heavy>
12

>  <SCORE.norm>
-1.98389

>  <SYMMETRIC_BONDS>
4 1 2

>  <RMSD>
11.818

$$$$
1kod cryst
 OpenBabel11021811393D
libRbt.so/2013.1/901 2013/11/27
 12 11  0  0  0  0  0  0  0  0999 V2000
   -5.3617    2.0972   25.4465 C   0  0  0  0  0  0  0  0  0  0  0  0
   -5.0615    1.5469   26.4955 O   0  5  0  0  0  0  0  0  0  0  0  0
   -6.5052    2.4191   25.1491 O   0  0  0  0  0  0  0  0  0  0  0  0
   -4.2319    2.4044   24.4438 C   0  0  1  0  0  0  0  0  0  0  0  0
   -2.9096    2.1947   25.1087 N   0  3  0  0  0  0  0  0  0  0  0  0
   -4.3364    1.4872   23.2029 C   0  0  0  0  0  0  0  0  0  0  0  0
   -3.8447    0.0834   23.5308 C   0  0  0  0  0  0  0  0  0  0  0  0
   -4.9613   -0.7130   24.2024 C   0  0  0  0  0  0  0  0  0  0  0  0
   -4.3520   -1.7602   25.0803 N   0  0  0  0  0  0  0  0  0  0  0  0
   -4.9909   -2.2011   26.1308 C   0  0  0  0  0  0  0  0  0  0  0  0
   -4.4576   -2.1953   27.2382 O   0  0  0  0  0  0  0  0  0  0  0  0
   -6.1995   -2.6667   26.0054 N   0  0  0  0  0  0  0  0  0  0  0  0
  1  2  1  0  0  0  0
  1  3  2  0  0  0  0
  4  1  1  1  0  0  0
  4  6  1  0  0  0  0
  4  5  1  0  0  0  0
  6  7  1  0  0  0  0
  7  8  1  0  0  0  0
  8  9  1  0  0  0  0
  9 10  1  0  0  0  0
 10 12  1  0  0  0  0
 10 11  2  0  0  0  0
M  CHG  2   2  -1   5   1
M  END
>  <CHROM.1>
-11.46064535,-75.99797931,45.03100400,82.58721507,-152.98791436,-27.54405842
-4.75786671,0.21549841,25.20622321,1.36319298,0.89588810,-0.14778857

>  <Name>
1kod cryst

>  <RI>
0

>  <Rbt.Current_Directory>
/home/itssahil/PROJECTS/Mol_Feturizer/New_Systems/rnas/1kod

>  <Rbt.Executable>
rbdock ($Id: //depot/dev/client3/rdock/2013.1/src/exe/rbdock.cxx#4 $)

>  <Rbt.Library>
libRbt.so (2013.1, Build901 2013/11/27)

>  <Rbt.Parameter_File>
/export/apps/rDock/src/rDock_2013.1_src/data/scripts/dock_solv.prm

>  <Rbt.Receptor>
prm/blind_docking_60.prm

>  <SCORE>
-27.6118

>  <SCORE.INTER>
-26.7957

>  <SCORE.INTER.CONST>
1

>  <SCORE.INTER.POLAR>
-4.872

>  <SCORE.INTER.ROT>
5

>  <SCORE.INTER.SOLV>
10.7828

>  <SCORE.INTER.VDW>
-12.1514

>  <SCORE.INTER.norm>
-2.23298

>  <SCORE.INTRA>
-0.816052

>  <SCORE.INTRA.DIHEDRAL>
0.0687576

>  <SCORE.INTRA.DIHEDRAL.0>
7.7847

>  <SCORE.INTRA.POLAR>
0

>  <SCORE.INTRA.POLAR.0>
0

>  <SCORE.INTRA.REPUL>
0

>  <SCORE.INTRA.REPUL.0>
0

>  <SCORE.INTRA.SOLV>
1.80564

>  <SCORE.INTRA.SOLV.lig_0>
-57.5465

>  <SCORE.INTRA.VDW>
-1.75325

>  <SCORE.INTRA.VDW.0>
1.39369

>  <SCORE.INTRA.norm>
-0.0680043

>  <SCORE.RESTR>
0

>  <SCORE.RESTR.CAVITY>
0

>  <SCORE.RESTR.norm>
0

>  <SCORE.SYSTEM>
0

>  <SCORE.SYSTEM.CONST>
0

>  <SCORE.SYSTEM.DIHEDRAL>
0

>  <SCORE.SYSTEM.SOLV>
0

>  <SCORE.SYSTEM.norm>
0

>  <SCORE.heavy>
12

>  <SCORE.norm>
-2.30098

>  <SYMMETRIC_BONDS>
4 1 2

>  <RMSD>
11.837

$$$$
1kod cryst
 OpenBabel11021811393D
libRbt.so/2013.1/901 2013/11/27
 12 11  0  0  0  0  0  0  0  0999 V2000
   -4.5325    2.0062   25.2682 C   0  0  0  0  0  0  0  0  0  0  0  0
   -4.9208    2.4798   24.2107 O   0  5  0  0  0  0  0  0  0  0  0  0
   -5.1747    2.0481   26.3100 O   0  0  0  0  0  0  0  0  0  0  0  0
   -3.1549    1.3146   25.2863 C   0  0  1  0  0  0  0  0  0  0  0  0
   -2.4013    1.7445   26.5036 N   0  3  0  0  0  0  0  0  0  0  0  0
   -3.3144   -0.2238   25.2952 C   0  0  0  0  0  0  0  0  0  0  0  0
   -4.2818   -0.6689   24.2061 C   0  0  0  0  0  0  0  0  0  0  0  0
   -4.5273   -2.1722   24.3139 C   0  0  0  0  0  0  0  0  0  0  0  0
   -5.0008   -2.4901   25.6971 N   0  0  0  0  0  0  0  0  0  0  0  0
   -6.0249   -3.2790   25.8845 C   0  0  0  0  0  0  0  0  0  0  0  0
   -6.9763   -2.9196   26.5746 O   0  0  0  0  0  0  0  0  0  0  0  0
   -6.0350   -4.4648   25.3490 N   0  0  0  0  0  0  0  0  0  0  0  0
  1  2  1  0  0  0  0
  1  3  2  0  0  0  0
  4  1  1  1  0  0  0
  4  6  1  0  0  0  0
  4  5  1  0  0  0  0
  6  7  1  0  0  0  0
  7  8  1  0  0  0  0
  8  9  1  0  0  0  0
  9 10  1  0  0  0  0
 10 12  1  0  0  0  0
 10 11  2  0  0  0  0
M  CHG  2   2  -1   5   1
M  END
>  <CHROM.1>
135.86174583,49.40784804,57.17220622,-174.72811367,55.14826470,-46.03705406
-4.69651134,-0.54160877,25.44158662,1.18007045,0.26977236,0.08012314

>  <Name>
1kod cryst

>  <RI>
0

>  <Rbt.Current_Directory>
/home/itssahil/PROJECTS/Mol_Feturizer/New_Systems/rnas/1kod

>  <Rbt.Executable>
rbdock ($Id: //depot/dev/client3/rdock/2013.1/src/exe/rbdock.cxx#4 $)

>  <Rbt.Library>
libRbt.so (2013.1, Build901 2013/11/27)

>  <Rbt.Parameter_File>
/export/apps/rDock/src/rDock_2013.1_src/data/scripts/dock_solv.prm

>  <Rbt.Receptor>
prm/blind_docking_80.prm

>  <SCORE>
-29.0721

>  <SCORE.INTER>
-24.2086

>  <SCORE.INTER.CONST>
1

>  <SCORE.INTER.POLAR>
-4.20616

>  <SCORE.INTER.ROT>
5

>  <SCORE.INTER.SOLV>
14.1476

>  <SCORE.INTER.VDW>
-13.7678

>  <SCORE.INTER.norm>
-2.01738

>  <SCORE.INTRA>
-4.86346

>  <SCORE.INTRA.DIHEDRAL>
-4.93075

>  <SCORE.INTRA.DIHEDRAL.0>
7.7847

>  <SCORE.INTRA.POLAR>
0

>  <SCORE.INTRA.POLAR.0>
0

>  <SCORE.INTRA.REPUL>
0

>  <SCORE.INTRA.REPUL.0>
0

>  <SCORE.INTRA.SOLV>
-2.09176

>  <SCORE.INTRA.SOLV.lig_0>
-57.5465

>  <SCORE.INTRA.VDW>
-1.3522

>  <SCORE.INTRA.VDW.0>
1.39369

>  <SCORE.INTRA.norm>
-0.405288

>  <SCORE.RESTR>
0

>  <SCORE.RESTR.CAVITY>
0

>  <SCORE.RESTR.norm>
0

>  <SCORE.SYSTEM>
0

>  <SCORE.SYSTEM.CONST>
0

>  <SCORE.SYSTEM.DIHEDRAL>
0

>  <SCORE.SYSTEM.SOLV>
0

>  <SCORE.SYSTEM.norm>
0

>  <SCORE.heavy>
12

>  <SCORE.norm>
-2.42267

>  <SYMMETRIC_BONDS>
4 1 2

>  <RMSD>
11.849

$$$$
1kod cryst
 OpenBabel11021811393D
libRbt.so/2013.1/901 2013/11/27
 12 11  0  0  0  0  0  0  0  0999 V2000
   -3.9975    2.6628   24.5233 C   0  0  0  0  0  0  0  0  0  0  0  0
   -3.4196    3.6547   24.1042 O   0  5  0  0  0  0  0  0  0  0  0  0
   -5.2150    2.5314   24.5197 O   0  0  0  0  0  0  0  0  0  0  0  0
   -3.1399    1.5120   25.0858 C   0  0  1  0  0  0  0  0  0  0  0  0
   -2.5766    1.9161   26.4101 N   0  3  0  0  0  0  0  0  0  0  0  0
   -3.9878    0.2296   25.2558 C   0  0  0  0  0  0  0  0  0  0  0  0
   -3.8596   -0.6645   24.0294 C   0  0  0  0  0  0  0  0  0  0  0  0
   -4.8502   -1.8225   24.1266 C   0  0  0  0  0  0  0  0  0  0  0  0
   -4.6405   -2.5346   25.4257 N   0  0  0  0  0  0  0  0  0  0  0  0
   -5.6528   -3.0423   26.0766 C   0  0  0  0  0  0  0  0  0  0  0  0
   -5.8462   -2.7590   27.2568 O   0  0  0  0  0  0  0  0  0  0  0  0
   -6.4588   -3.8694   25.4770 N   0  0  0  0  0  0  0  0  0  0  0  0
  1  2  1  0  0  0  0
  1  3  2  0  0  0  0
  4  1  1  1  0  0  0
  4  6  1  0  0  0  0
  4  5  1  0  0  0  0
  6  7  1  0  0  0  0
  7  8  1  0  0  0  0
  8  9  1  0  0  0  0
  9 10  1  0  0  0  0
 10 12  1  0  0  0  0
 10 11  2  0  0  0  0
M  CHG  2   2  -1   5   1
M  END
>  <CHROM.1>
72.64332268,94.36102462,-41.51392744,-172.01917685,-54.35631326,-35.38741899
-4.46912053,-0.16891296,25.22262606,0.87425105,-1.01339662,-0.79450961

>  <Name>
1kod cryst

>  <RI>
0

>  <Rbt.Current_Directory>
/home/itssahil/PROJECTS/Mol_Feturizer/New_Systems/rnas/1kod

>  <Rbt.Executable>
rbdock ($Id: //depot/dev/client3/rdock/2013.1/src/exe/rbdock.cxx#4 $)

>  <Rbt.Library>
libRbt.so (2013.1, Build901 2013/11/27)

>  <Rbt.Parameter_File>
/export/apps/rDock/src/rDock_2013.1_src/data/scripts/dock_solv.prm

>  <Rbt.Receptor>
prm/blind_docking_60.prm

>  <SCORE>
-27.5229

>  <SCORE.INTER>
-24.3633

>  <SCORE.INTER.CONST>
1

>  <SCORE.INTER.POLAR>
-4.33621

>  <SCORE.INTER.ROT>
5

>  <SCORE.INTER.SOLV>
15.1688

>  <SCORE.INTER.VDW>
-13.7778

>  <SCORE.INTER.norm>
-2.03028

>  <SCORE.INTRA>
-3.15958

>  <SCORE.INTRA.DIHEDRAL>
-1.23806

>  <SCORE.INTRA.DIHEDRAL.0>
7.7847

>  <SCORE.INTRA.POLAR>
0

>  <SCORE.INTRA.POLAR.0>
0

>  <SCORE.INTRA.REPUL>
0

>  <SCORE.INTRA.REPUL.0>
0

>  <SCORE.INTRA.SOLV>
-2.44256

>  <SCORE.INTRA.SOLV.lig_0>
-57.5465

>  <SCORE.INTRA.VDW>
-1.31927

>  <SCORE.INTRA.VDW.0>
1.39369

>  <SCORE.INTRA.norm>
-0.263298

>  <SCORE.RESTR>
0

>  <SCORE.RESTR.CAVITY>
0

>  <SCORE.RESTR.norm>
0

>  <SCORE.SYSTEM>
0

>  <SCORE.SYSTEM.CONST>
0

>  <SCORE.SYSTEM.DIHEDRAL>
0

>  <SCORE.SYSTEM.SOLV>
0

>  <SCORE.SYSTEM.norm>
0

>  <SCORE.heavy>
12

>  <SCORE.norm>
-2.29357

>  <SYMMETRIC_BONDS>
4 1 2

>  <RMSD>
11.866

$$$$
1kod cryst
 OpenBabel11021811393D
libRbt.so/2013.1/901 2013/11/27
 12 11  0  0  0  0  0  0  0  0999 V2000
   -3.3025    1.5004   25.7378 C   0  0  0  0  0  0  0  0  0  0  0  0
   -2.1374    1.1574   25.6025 O   0  5  0  0  0  0  0  0  0  0  0  0
   -3.8489    1.6425   26.8244 O   0  0  0  0  0  0  0  0  0  0  0  0
   -4.1274    1.7711   24.4640 C   0  0  1  0  0  0  0  0  0  0  0  0
   -3.2009    2.0458   23.3235 N   0  3  0  0  0  0  0  0  0  0  0  0
   -5.0209    0.5560   24.1215 C   0  0  0  0  0  0  0  0  0  0  0  0
   -4.1690   -0.6793   23.8604 C   0  0  0  0  0  0  0  0  0  0  0  0
   -5.0256   -1.9366   23.9920 C   0  0  0  0  0  0  0  0  0  0  0  0
   -4.7363   -2.5872   25.3080 N   0  0  0  0  0  0  0  0  0  0  0  0
   -5.7076   -3.0491   26.0491 C   0  0  0  0  0  0  0  0  0  0  0  0
   -5.8186   -2.7060   27.2240 O   0  0  0  0  0  0  0  0  0  0  0  0
   -6.5602   -3.8937   25.5462 N   0  0  0  0  0  0  0  0  0  0  0  0
  1  2  1  0  0  0  0
  1  3  2  0  0  0  0
  4  1  1  1  0  0  0
  4  6  1  0  0  0  0
  4  5  1  0  0  0  0
  6  7  1  0  0  0  0
  7  8  1  0  0  0  0
  8  9  1  0  0  0  0
  9 10  1  0  0  0  0
 10 12  1  0  0  0  0
 10 11  2  0  0  0  0
M  CHG  2   2  -1   5   1
M  END
>  <CHROM.1>
-20.95405838,-60.96493701,91.48254971,160.97868514,-102.96986230,-43.39005115
-4.45259005,-0.51308458,25.17369156,-0.26735243,1.07458675,1.66166239

>  <Name>
1kod cryst

>  <RI>
0

>  <Rbt.Current_Directory>
/home/itssahil/PROJECTS/Mol_Feturizer/New_Systems/rnas/1kod

>  <Rbt.Executable>
rbdock ($Id: //depot/dev/client3/rdock/2013.1/src/exe/rbdock.cxx#4 $)

>  <Rbt.Library>
libRbt.so (2013.1, Build901 2013/11/27)

>  <Rbt.Parameter_File>
/export/apps/rDock/src/rDock_2013.1_src/data/scripts/dock_solv.prm

>  <Rbt.Receptor>
prm/blind_docking_80.prm

>  <SCORE>
-21.6738

>  <SCORE.INTER>
-21.1875

>  <SCORE.INTER.CONST>
1

>  <SCORE.INTER.POLAR>
-3.57374

>  <SCORE.INTER.ROT>
5

>  <SCORE.INTER.SOLV>
19.6968

>  <SCORE.INTER.VDW>
-15.7115

>  <SCORE.INTER.norm>
-1.76563

>  <SCORE.INTRA>
-0.500457

>  <SCORE.INTRA.DIHEDRAL>
2.28866

>  <SCORE.INTRA.DIHEDRAL.0>
7.7847

>  <SCORE.INTRA.POLAR>
0

>  <SCORE.INTRA.POLAR.0>
0

>  <SCORE.INTRA.REPUL>
0

>  <SCORE.INTRA.REPUL.0>
0

>  <SCORE.INTRA.SOLV>
-0.972035

>  <SCORE.INTRA.SOLV.lig_0>
-57.5465

>  <SCORE.INTRA.VDW>
-1.15877

>  <SCORE.INTRA.VDW.0>
1.39369

>  <SCORE.INTRA.norm>
-0.0417047

>  <SCORE.RESTR>
0.0141787

>  <SCORE.RESTR.CAVITY>
0.0141787

>  <SCORE.RESTR.norm>
0.00118155

>  <SCORE.SYSTEM>
0

>  <SCORE.SYSTEM.CONST>
0

>  <SCORE.SYSTEM.DIHEDRAL>
0

>  <SCORE.SYSTEM.SOLV>
0

>  <SCORE.SYSTEM.norm>
0

>  <SCORE.heavy>
12

>  <SCORE.norm>
-1.80615

>  <SYMMETRIC_BONDS>
4 1 2

>  <RMSD>
11.880

$$$$
1kod cryst
 OpenBabel11021811393D
libRbt.so/2013.1/901 2013/11/27
 12 11  0  0  0  0  0  0  0  0999 V2000
   -3.4636    1.0136   26.2157 C   0  0  0  0  0  0  0  0  0  0  0  0
   -2.4193    0.3801   26.1777 O   0  5  0  0  0  0  0  0  0  0  0  0
   -4.1326    1.1639   27.2304 O   0  0  0  0  0  0  0  0  0  0  0  0
   -3.9624    1.6615   24.9090 C   0  0  1  0  0  0  0  0  0  0  0  0
   -3.0608    2.7965   24.5437 N   0  3  0  0  0  0  0  0  0  0  0  0
   -3.9828    0.6283   23.7583 C   0  0  0  0  0  0  0  0  0  0  0  0
   -5.3815    0.0525   23.5793 C   0  0  0  0  0  0  0  0  0  0  0  0
   -5.3967   -1.4138   24.0054 C   0  0  0  0  0  0  0  0  0  0  0  0
   -5.8390   -1.5016   25.4320 N   0  0  0  0  0  0  0  0  0  0  0  0
   -6.6924   -2.4160   25.8084 C   0  0  0  0  0  0  0  0  0  0  0  0
   -7.7160   -2.1078   26.4148 O   0  0  0  0  0  0  0  0  0  0  0  0
   -6.4526   -3.6694   25.5540 N   0  0  0  0  0  0  0  0  0  0  0  0
  1  2  1  0  0  0  0
  1  3  2  0  0  0  0
  4  1  1  1  0  0  0
  4  6  1  0  0  0  0
  4  5  1  0  0  0  0
  6  7  1  0  0  0  0
  7  8  1  0  0  0  0
  8  9  1  0  0  0  0
  9 10  1  0  0  0  0
 10 12  1  0  0  0  0
 10 11  2  0  0  0  0
M  CHG  2   2  -1   5   1
M  END
>  <CHROM.1>
-70.05763829,97.43233165,-39.83168238,-110.93707767,94.59570525,-43.19563054
-4.85718986,-0.27273381,25.32438947,-0.19895239,0.87814849,1.73455330

>  <Name>
1kod cryst

>  <RI>
0

>  <Rbt.Current_Directory>
/home/itssahil/PROJECTS/Mol_Feturizer/New_Systems/rnas/1kod

>  <Rbt.Executable>
rbdock ($Id: //depot/dev/client3/rdock/2013.1/src/exe/rbdock.cxx#4 $)

>  <Rbt.Library>
libRbt.so (2013.1, Build901 2013/11/27)

>  <Rbt.Parameter_File>
/export/apps/rDock/src/rDock_2013.1_src/data/scripts/dock_solv.prm

>  <Rbt.Receptor>
prm/blind_docking_40.prm

>  <SCORE>
-18.6912

>  <SCORE.INTER>
-19.4995

>  <SCORE.INTER.CONST>
1

>  <SCORE.INTER.POLAR>
-3.03825

>  <SCORE.INTER.ROT>
5

>  <SCORE.INTER.SOLV>
13.1827

>  <SCORE.INTER.VDW>
-14.1997

>  <SCORE.INTER.norm>
-1.62496

>  <SCORE.INTRA>
0.808268

>  <SCORE.INTRA.DIHEDRAL>
8.10373

>  <SCORE.INTRA.DIHEDRAL.0>
7.7847

>  <SCORE.INTRA.POLAR>
0

>  <SCORE.INTRA.POLAR.0>
0

>  <SCORE.INTRA.REPUL>
0

>  <SCORE.INTRA.REPUL.0>
0

>  <SCORE.INTRA.SOLV>
-0.722163

>  <SCORE.INTRA.SOLV.lig_0>
-57.5465

>  <SCORE.INTRA.VDW>
-2.88251

>  <SCORE.INTRA.VDW.0>
1.39369

>  <SCORE.INTRA.norm>
0.0673556

>  <SCORE.RESTR>
0

>  <SCORE.RESTR.CAVITY>
0

>  <SCORE.RESTR.norm>
0

>  <SCORE.SYSTEM>
0

>  <SCORE.SYSTEM.CONST>
0

>  <SCORE.SYSTEM.DIHEDRAL>
0

>  <SCORE.SYSTEM.SOLV>
0

>  <SCORE.SYSTEM.norm>
0

>  <SCORE.heavy>
12

>  <SCORE.norm>
-1.5576

>  <SYMMETRIC_BONDS>
4 1 2

>  <RMSD>
11.900

$$$$
1kod cryst
 OpenBabel11021811393D
libRbt.so/2013.1/901 2013/11/27
 12 11  0  0  0  0  0  0  0  0999 V2000
   -7.1392   -2.6819   26.4940 C   0  0  0  0  0  0  0  0  0  0  0  0
   -7.6235   -1.8461   25.7455 O   0  5  0  0  0  0  0  0  0  0  0  0
   -7.7398   -3.1811   27.4372 O   0  0  0  0  0  0  0  0  0  0  0  0
   -5.6888   -3.1327   26.2302 C   0  0  1  0  0  0  0  0  0  0  0  0
   -5.6825   -4.1808   25.1644 N   0  3  0  0  0  0  0  0  0  0  0  0
   -4.8164   -1.9366   25.7825 C   0  0  0  0  0  0  0  0  0  0  0  0
   -4.6950   -0.9123   26.9031 C   0  0  0  0  0  0  0  0  0  0  0  0
   -4.0330    0.3582   26.3743 C   0  0  0  0  0  0  0  0  0  0  0  0
   -3.9815    1.3734   27.4722 N   0  0  0  0  0  0  0  0  0  0  0  0
   -3.1590    1.2261   28.4760 C   0  0  0  0  0  0  0  0  0  0  0  0
   -3.5683    1.2659   29.6342 O   0  0  0  0  0  0  0  0  0  0  0  0
   -1.8893    1.0503   28.2522 N   0  0  0  0  0  0  0  0  0  0  0  0
  1  2  1  0  0  0  0
  1  3  2  0  0  0  0
  4  1  1  6  0  0  0
  4  6  1  0  0  0  0
  4  5  1  0  0  0  0
  6  7  1  0  0  0  0
  7  8  1  0  0  0  0
  8  9  1  0  0  0  0
  9 10  1  0  0  0  0
 10 12  1  0  0  0  0
 10 11  2  0  0  0  0
M  CHG  2   2  -1   5   1
M  END
>  <CHROM.1>
-82.38738239,64.82926427,-75.13641484,-170.62185581,177.37071553,-108.08992329
-5.00648605,-1.06842497,26.99112982,2.26188592,-0.34770826,-2.37969304

>  <Name>
1kod cryst

>  <RI>
0

>  <Rbt.Current_Directory>
/home/itssahil/PROJECTS/Mol_Feturizer/New_Systems/rnas/1kod

>  <Rbt.Executable>
rbdock ($Id: //depot/dev/client3/rdock/2013.1/src/exe/rbdock.cxx#4 $)

>  <Rbt.Library>
libRbt.so (2013.1, Build901 2013/11/27)

>  <Rbt.Parameter_File>
/export/apps/rDock/src/rDock_2013.1_src/data/scripts/dock_solv.prm

>  <Rbt.Receptor>
prm/blind_docking_40.prm

>  <SCORE>
-24.535

>  <SCORE.INTER>
-19.2223

>  <SCORE.INTER.CONST>
1

>  <SCORE.INTER.POLAR>
-3.87591

>  <SCORE.INTER.ROT>
5

>  <SCORE.INTER.SOLV>
23.7863

>  <SCORE.INTER.VDW>
-14.7572

>  <SCORE.INTER.norm>
-1.60186

>  <SCORE.INTRA>
-5.31272

>  <SCORE.INTRA.DIHEDRAL>
-4.53695

>  <SCORE.INTRA.DIHEDRAL.0>
7.7847

>  <SCORE.INTRA.POLAR>
0

>  <SCORE.INTRA.POLAR.0>
0

>  <SCORE.INTRA.REPUL>
0

>  <SCORE.INTRA.REPUL.0>
0

>  <SCORE.INTRA.SOLV>
-2.43721

>  <SCORE.INTRA.SOLV.lig_0>
-57.5465

>  <SCORE.INTRA.VDW>
-1.82564

>  <SCORE.INTRA.VDW.0>
1.39369

>  <SCORE.INTRA.norm>
-0.442726

>  <SCORE.RESTR>
0

>  <SCORE.RESTR.CAVITY>
0

>  <SCORE.RESTR.norm>
0

>  <SCORE.SYSTEM>
0

>  <SCORE.SYSTEM.CONST>
0

>  <SCORE.SYSTEM.DIHEDRAL>
0

>  <SCORE.SYSTEM.SOLV>
0

>  <SCORE.SYSTEM.norm>
0

>  <SCORE.heavy>
12

>  <SCORE.norm>
-2.04458

>  <SYMMETRIC_BONDS>
4 1 2

>  <RMSD>
11.922

$$$$
1kod cryst
 OpenBabel11021811393D
libRbt.so/2013.1/901 2013/11/27
 12 11  0  0  0  0  0  0  0  0999 V2000
   -3.2605    1.6323   25.6952 C   0  0  0  0  0  0  0  0  0  0  0  0
   -3.7785    1.9630   26.7514 O   0  5  0  0  0  0  0  0  0  0  0  0
   -2.1354    1.1568   25.6077 O   0  0  0  0  0  0  0  0  0  0  0  0
   -4.0754    1.8241   24.4008 C   0  0  1  0  0  0  0  0  0  0  0  0
   -3.2443    2.5561   23.3967 N   0  3  0  0  0  0  0  0  0  0  0  0
   -4.5055    0.4581   23.8167 C   0  0  0  0  0  0  0  0  0  0  0  0
   -5.9002    0.0831   24.3007 C   0  0  0  0  0  0  0  0  0  0  0  0
   -6.0763   -1.4328   24.2492 C   0  0  0  0  0  0  0  0  0  0  0  0
   -5.3957   -2.0425   25.4340 N   0  0  0  0  0  0  0  0  0  0  0  0
   -5.9314   -3.0561   26.0598 C   0  0  0  0  0  0  0  0  0  0  0  0
   -6.1152   -3.0181   27.2745 O   0  0  0  0  0  0  0  0  0  0  0  0
   -6.2615   -4.1256   25.3962 N   0  0  0  0  0  0  0  0  0  0  0  0
  1  2  1  0  0  0  0
  1  3  2  0  0  0  0
  4  1  1  1  0  0  0
  4  6  1  0  0  0  0
  4  5  1  0  0  0  0
  6  7  1  0  0  0  0
  7  8  1  0  0  0  0
  8  9  1  0  0  0  0
  9 10  1  0  0  0  0
 10 12  1  0  0  0  0
 10 11  2  0  0  0  0
M  CHG  2   2  -1   5   1
M  END
>  <CHROM.1>
129.35285800,94.05614282,159.12930572,-155.65864562,78.65552893,-38.62646973
-4.69501598,-0.32783598,25.20069040,-0.65163958,0.93382456,2.11986913

>  <Name>
1kod cryst

>  <RI>
0

>  <Rbt.Current_Directory>
/home/itssahil/PROJECTS/Mol_Feturizer/New_Systems/rnas/1kod

>  <Rbt.Executable>
rbdock ($Id: //depot/dev/client3/rdock/2013.1/src/exe/rbdock.cxx#4 $)

>  <Rbt.Library>
libRbt.so (2013.1, Build901 2013/11/27)

>  <Rbt.Parameter_File>
/export/apps/rDock/src/rDock_2013.1_src/data/scripts/dock_solv.prm

>  <Rbt.Receptor>
prm/blind_docking_80.prm

>  <SCORE>
-25.581

>  <SCORE.INTER>
-22.7561

>  <SCORE.INTER.CONST>
1

>  <SCORE.INTER.POLAR>
-4.04516

>  <SCORE.INTER.ROT>
5

>  <SCORE.INTER.SOLV>
18.624

>  <SCORE.INTER.VDW>
-14.8282

>  <SCORE.INTER.norm>
-1.89634

>  <SCORE.INTRA>
-2.83923

>  <SCORE.INTRA.DIHEDRAL>
1.91377

>  <SCORE.INTRA.DIHEDRAL.0>
7.7847

>  <SCORE.INTRA.POLAR>
0

>  <SCORE.INTRA.POLAR.0>
0

>  <SCORE.INTRA.REPUL>
0

>  <SCORE.INTRA.REPUL.0>
0

>  <SCORE.INTRA.SOLV>
-2.47734

>  <SCORE.INTRA.SOLV.lig_0>
-57.5465

>  <SCORE.INTRA.VDW>
-2.55745

>  <SCORE.INTRA.VDW.0>
1.39369

>  <SCORE.INTRA.norm>
-0.236603

>  <SCORE.RESTR>
0.0143673

>  <SCORE.RESTR.CAVITY>
0.0143673

>  <SCORE.RESTR.norm>
0.00119728

>  <SCORE.SYSTEM>
0

>  <SCORE.SYSTEM.CONST>
0

>  <SCORE.SYSTEM.DIHEDRAL>
0

>  <SCORE.SYSTEM.SOLV>
0

>  <SCORE.SYSTEM.norm>
0

>  <SCORE.heavy>
12

>  <SCORE.norm>
-2.13175

>  <SYMMETRIC_BONDS>
4 1 2

>  <RMSD>
11.938

$$$$
1kod cryst
 OpenBabel11021811393D
libRbt.so/2013.1/901 2013/11/27
 12 11  0  0  0  0  0  0  0  0999 V2000
   -3.6309   -0.1793   23.4719 C   0  0  0  0  0  0  0  0  0  0  0  0
   -3.3811    0.3800   22.4144 O   0  5  0  0  0  0  0  0  0  0  0  0
   -2.7743   -0.6100   24.2337 O   0  0  0  0  0  0  0  0  0  0  0  0
   -5.1114   -0.3478   23.8667 C   0  0  1  0  0  0  0  0  0  0  0  0
   -5.8962   -0.7823   22.6709 N   0  3  0  0  0  0  0  0  0  0  0  0
   -5.2621   -1.3982   24.9919 C   0  0  0  0  0  0  0  0  0  0  0  0
   -5.3843   -0.7169   26.3487 C   0  0  0  0  0  0  0  0  0  0  0  0
   -3.9943   -0.4595   26.9263 C   0  0  0  0  0  0  0  0  0  0  0  0
   -4.1051    0.5395   28.0346 N   0  0  0  0  0  0  0  0  0  0  0  0
   -3.2870    1.5557   28.0980 C   0  0  0  0  0  0  0  0  0  0  0  0
   -2.6463    1.7830   29.1219 O   0  0  0  0  0  0  0  0  0  0  0  0
   -3.1575    2.3474   27.0735 N   0  0  0  0  0  0  0  0  0  0  0  0
  1  2  1  0  0  0  0
  1  3  2  0  0  0  0
  4  1  1  6  0  0  0
  4  6  1  0  0  0  0
  4  5  1  0  0  0  0
  6  7  1  0  0  0  0
  7  8  1  0  0  0  0
  8  9  1  0  0  0  0
  9 10  1  0  0  0  0
 10 12  1  0  0  0  0
 10 11  2  0  0  0  0
M  CHG  2   2  -1   5   1
M  END
>  <CHROM.1>
43.30858733,98.65102411,-179.77902590,-86.91408561,163.77019302,47.09354571
-4.05059740,0.19030922,25.57346299,-1.89202715,0.68871458,1.41163461

>  <Name>
1kod cryst

>  <RI>
0

>  <Rbt.Current_Directory>
/home/itssahil/PROJECTS/Mol_Feturizer/New_Systems/rnas/1kod

>  <Rbt.Executable>
rbdock ($Id: //depot/dev/client3/rdock/2013.1/src/exe/rbdock.cxx#4 $)

>  <Rbt.Library>
libRbt.so (2013.1, Build901 2013/11/27)

>  <Rbt.Parameter_File>
/export/apps/rDock/src/rDock_2013.1_src/data/scripts/dock_solv.prm

>  <Rbt.Receptor>
prm/blind_docking_100.prm

>  <SCORE>
-28.1941

>  <SCORE.INTER>
-26.3985

>  <SCORE.INTER.CONST>
1

>  <SCORE.INTER.POLAR>
-6.12771

>  <SCORE.INTER.ROT>
5

>  <SCORE.INTER.SOLV>
26.157

>  <SCORE.INTER.VDW>
-12.8256

>  <SCORE.INTER.norm>
-2.19988

>  <SCORE.INTRA>
-1.7956

>  <SCORE.INTRA.DIHEDRAL>
1.64872

>  <SCORE.INTRA.DIHEDRAL.0>
7.7847

>  <SCORE.INTRA.POLAR>
0

>  <SCORE.INTRA.POLAR.0>
0

>  <SCORE.INTRA.REPUL>
0

>  <SCORE.INTRA.REPUL.0>
0

>  <SCORE.INTRA.SOLV>
-1.34191

>  <SCORE.INTRA.SOLV.lig_0>
-57.5465

>  <SCORE.INTRA.VDW>
-1.94901

>  <SCORE.INTRA.VDW.0>
1.39369

>  <SCORE.INTRA.norm>
-0.149634

>  <SCORE.RESTR>
0

>  <SCORE.RESTR.CAVITY>
0

>  <SCORE.RESTR.norm>
0

>  <SCORE.SYSTEM>
0

>  <SCORE.SYSTEM.CONST>
0

>  <SCORE.SYSTEM.DIHEDRAL>
0

>  <SCORE.SYSTEM.SOLV>
0

>  <SCORE.SYSTEM.norm>
0

>  <SCORE.heavy>
12

>  <SCORE.norm>
-2.34951

>  <SYMMETRIC_BONDS>
4 1 2

>  <RMSD>
11.948

$$$$
1kod cryst
 OpenBabel11021811393D
libRbt.so/2013.1/901 2013/11/27
 12 11  0  0  0  0  0  0  0  0999 V2000
   -4.6977    1.8766   25.3617 C   0  0  0  0  0  0  0  0  0  0  0  0
   -3.7635    1.5241   26.0662 O   0  5  0  0  0  0  0  0  0  0  0  0
   -5.8490    1.9896   25.7635 O   0  0  0  0  0  0  0  0  0  0  0  0
   -4.4048    2.1993   23.8831 C   0  0  1  0  0  0  0  0  0  0  0  0
   -3.3124    3.2168   23.8056 N   0  3  0  0  0  0  0  0  0  0  0  0
   -3.9774    0.9245   23.1186 C   0  0  0  0  0  0  0  0  0  0  0  0
   -5.1797    0.0262   22.8594 C   0  0  0  0  0  0  0  0  0  0  0  0
   -5.4255   -0.8725   24.0692 C   0  0  0  0  0  0  0  0  0  0  0  0
   -4.2010   -1.6945   24.3216 N   0  0  0  0  0  0  0  0  0  0  0  0
   -3.8007   -1.9338   25.5417 C   0  0  0  0  0  0  0  0  0  0  0  0
   -2.6479   -1.6816   25.8851 O   0  0  0  0  0  0  0  0  0  0  0  0
   -4.6238   -2.4591   26.4018 N   0  0  0  0  0  0  0  0  0  0  0  0
  1  2  1  0  0  0  0
  1  3  2  0  0  0  0
  4  1  1  1  0  0  0
  4  6  1  0  0  0  0
  4  5  1  0  0  0  0
  6  7  1  0  0  0  0
  7  8  1  0  0  0  0
  8  9  1  0  0  0  0
  9 10  1  0  0  0  0
 10 12  1  0  0  0  0
 10 11  2  0  0  0  0
M  CHG  2   2  -1   5   1
M  END
>  <CHROM.1>
-54.23470905,74.43488659,-51.81659040,-85.40985717,-58.77551917,-38.96373551
-4.29865823,0.27513248,24.78334188,-1.82837129,1.39348868,3.11741246

>  <Name>
1kod cryst

>  <RI>
0

>  <Rbt.Current_Directory>
/home/itssahil/PROJECTS/Mol_Feturizer/New_Systems/rnas/1kod

>  <Rbt.Executable>
rbdock ($Id: //depot/dev/client3/rdock/2013.1/src/exe/rbdock.cxx#4 $)

>  <Rbt.Library>
libRbt.so (2013.1, Build901 2013/11/27)

>  <Rbt.Parameter_File>
/export/apps/rDock/src/rDock_2013.1_src/data/scripts/dock_solv.prm

>  <Rbt.Receptor>
prm/blind_docking_60.prm

>  <SCORE>
-21.016

>  <SCORE.INTER>
-17.36

>  <SCORE.INTER.CONST>
1

>  <SCORE.INTER.POLAR>
-2.83886

>  <SCORE.INTER.ROT>
5

>  <SCORE.INTER.SOLV>
11.4272

>  <SCORE.INTER.VDW>
-12.8529

>  <SCORE.INTER.norm>
-1.44667

>  <SCORE.INTRA>
-3.65598

>  <SCORE.INTRA.DIHEDRAL>
-2.34519

>  <SCORE.INTRA.DIHEDRAL.0>
7.7847

>  <SCORE.INTRA.POLAR>
0

>  <SCORE.INTRA.POLAR.0>
0

>  <SCORE.INTRA.REPUL>
0

>  <SCORE.INTRA.REPUL.0>
0

>  <SCORE.INTRA.SOLV>
0.779033

>  <SCORE.INTRA.SOLV.lig_0>
-57.5465

>  <SCORE.INTRA.VDW>
-2.87291

>  <SCORE.INTRA.VDW.0>
1.39369

>  <SCORE.INTRA.norm>
-0.304665

>  <SCORE.RESTR>
0

>  <SCORE.RESTR.CAVITY>
0

>  <SCORE.RESTR.norm>
0

>  <SCORE.SYSTEM>
0

>  <SCORE.SYSTEM.CONST>
0

>  <SCORE.SYSTEM.DIHEDRAL>
0

>  <SCORE.SYSTEM.SOLV>
0

>  <SCORE.SYSTEM.norm>
0

>  <SCORE.heavy>
12

>  <SCORE.norm>
-1.75133

>  <SYMMETRIC_BONDS>
4 1 2

>  <RMSD>
11.962

$$$$
1kod cryst
 OpenBabel11021811393D
libRbt.so/2013.1/901 2013/11/27
 12 11  0  0  0  0  0  0  0  0999 V2000
   -5.3075    1.9646   25.4198 C   0  0  0  0  0  0  0  0  0  0  0  0
   -6.4334    2.2914   25.0751 O   0  5  0  0  0  0  0  0  0  0  0  0
   -5.0364    1.5206   26.5285 O   0  0  0  0  0  0  0  0  0  0  0  0
   -4.1659    2.1194   24.3956 C   0  0  1  0  0  0  0  0  0  0  0  0
   -2.8557    2.1441   25.1148 N   0  3  0  0  0  0  0  0  0  0  0  0
   -4.1764    0.9505   23.3828 C   0  0  0  0  0  0  0  0  0  0  0  0
   -3.8230   -0.3603   24.0732 C   0  0  0  0  0  0  0  0  0  0  0  0
   -5.1000   -1.1059   24.4544 C   0  0  0  0  0  0  0  0  0  0  0  0
   -4.8607   -1.8651   25.7212 N   0  0  0  0  0  0  0  0  0  0  0  0
   -5.4634   -3.0034   25.9381 C   0  0  0  0  0  0  0  0  0  0  0  0
   -6.1072   -3.1866   26.9690 O   0  0  0  0  0  0  0  0  0  0  0  0
   -5.3712   -3.9619   25.0629 N   0  0  0  0  0  0  0  0  0  0  0  0
  1  2  1  0  0  0  0
  1  3  2  0  0  0  0
  4  1  1  1  0  0  0
  4  6  1  0  0  0  0
  4  5  1  0  0  0  0
  6  7  1  0  0  0  0
  7  8  1  0  0  0  0
  8  9  1  0  0  0  0
  9 10  1  0  0  0  0
 10 12  1  0  0  0  0
 10 11  2  0  0  0  0
M  CHG  2   2  -1   5   1
M  END
>  <CHROM.1>
160.06802562,-67.10529778,168.67680844,95.98109900,-147.15124643,32.38888260
-4.87847461,-0.21373947,25.20871341,1.28158650,0.80370388,0.04000038

>  <Name>
1kod cryst

>  <RI>
0

>  <Rbt.Current_Directory>
/home/itssahil/PROJECTS/Mol_Feturizer/New_Systems/rnas/1kod

>  <Rbt.Executable>
rbdock ($Id: //depot/dev/client3/rdock/2013.1/src/exe/rbdock.cxx#4 $)

>  <Rbt.Library>
libRbt.so (2013.1, Build901 2013/11/27)

>  <Rbt.Parameter_File>
/export/apps/rDock/src/rDock_2013.1_src/data/scripts/dock_solv.prm

>  <Rbt.Receptor>
prm/blind_docking_60.prm

>  <SCORE>
-21.5764

>  <SCORE.INTER>
-20.9735

>  <SCORE.INTER.CONST>
1

>  <SCORE.INTER.POLAR>
-3.62352

>  <SCORE.INTER.ROT>
5

>  <SCORE.INTER.SOLV>
12.2565

>  <SCORE.INTER.VDW>
-12.9228

>  <SCORE.INTER.norm>
-1.74779

>  <SCORE.INTRA>
-0.666192

>  <SCORE.INTRA.DIHEDRAL>
2.11592

>  <SCORE.INTRA.DIHEDRAL.0>
7.7847

>  <SCORE.INTRA.POLAR>
0

>  <SCORE.INTRA.POLAR.0>
0

>  <SCORE.INTRA.REPUL>
0

>  <SCORE.INTRA.REPUL.0>
0

>  <SCORE.INTRA.SOLV>
1.00175

>  <SCORE.INTRA.SOLV.lig_0>
-57.5465

>  <SCORE.INTRA.VDW>
-2.22503

>  <SCORE.INTRA.VDW.0>
1.39369

>  <SCORE.INTRA.norm>
-0.055516

>  <SCORE.RESTR>
0.0633059

>  <SCORE.RESTR.CAVITY>
0.0633059

>  <SCORE.RESTR.norm>
0.00527549

>  <SCORE.SYSTEM>
0

>  <SCORE.SYSTEM.CONST>
0

>  <SCORE.SYSTEM.DIHEDRAL>
0

>  <SCORE.SYSTEM.SOLV>
0

>  <SCORE.SYSTEM.norm>
0

>  <SCORE.heavy>
12

>  <SCORE.norm>
-1.79803

>  <SYMMETRIC_BONDS>
4 1 2

>  <RMSD>
11.975

$$$$
1kod cryst
 OpenBabel11021811393D
libRbt.so/2013.1/901 2013/11/27
 12 11  0  0  0  0  0  0  0  0999 V2000
   -5.2945    2.3338   25.8991 C   0  0  0  0  0  0  0  0  0  0  0  0
   -5.0387    2.0751   27.0657 O   0  5  0  0  0  0  0  0  0  0  0  0
   -6.3198    2.8958   25.5349 O   0  0  0  0  0  0  0  0  0  0  0  0
   -4.2626    1.9297   24.8275 C   0  0  1  0  0  0  0  0  0  0  0  0
   -2.8862    2.2285   25.3283 N   0  3  0  0  0  0  0  0  0  0  0  0
   -4.3759    0.4226   24.4987 C   0  0  0  0  0  0  0  0  0  0  0  0
   -5.8338    0.0221   24.3145 C   0  0  0  0  0  0  0  0  0  0  0  0
   -5.9438   -1.4970   24.2045 C   0  0  0  0  0  0  0  0  0  0  0  0
   -5.3402   -2.1184   25.4243 N   0  0  0  0  0  0  0  0  0  0  0  0
   -5.9321   -3.1161   26.0245 C   0  0  0  0  0  0  0  0  0  0  0  0
   -6.1770   -3.0688   27.2280 O   0  0  0  0  0  0  0  0  0  0  0  0
   -6.2540   -4.1798   25.3477 N   0  0  0  0  0  0  0  0  0  0  0  0
  1  2  1  0  0  0  0
  1  3  2  0  0  0  0
  4  1  1  1  0  0  0
  4  6  1  0  0  0  0
  4  5  1  0  0  0  0
  6  7  1  0  0  0  0
  7  8  1  0  0  0  0
  8  9  1  0  0  0  0
  9 10  1  0  0  0  0
 10 12  1  0  0  0  0
 10 11  2  0  0  0  0
M  CHG  2   2  -1   5   1
M  END
>  <CHROM.1>
-41.43271259,45.60179034,71.92129202,-171.36370031,56.88634787,-43.16359170
-5.28264958,-0.16953482,25.50246395,1.07463517,1.02749969,0.39774983

>  <Name>
1kod cryst

>  <RI>
0

>  <Rbt.Current_Directory>
/home/itssahil/PROJECTS/Mol_Feturizer/New_Systems/rnas/1kod

>  <Rbt.Executable>
rbdock ($Id: //depot/dev/client3/rdock/2013.1/src/exe/rbdock.cxx#4 $)

>  <Rbt.Library>
libRbt.so (2013.1, Build901 2013/11/27)

>  <Rbt.Parameter_File>
/export/apps/rDock/src/rDock_2013.1_src/data/scripts/dock_solv.prm

>  <Rbt.Receptor>
prm/blind_docking_100.prm

>  <SCORE>
-24.5063

>  <SCORE.INTER>
-20.2536

>  <SCORE.INTER.CONST>
1

>  <SCORE.INTER.POLAR>
-3.96966

>  <SCORE.INTER.ROT>
5

>  <SCORE.INTER.SOLV>
12.3531

>  <SCORE.INTER.VDW>
-11.3212

>  <SCORE.INTER.norm>
-1.6878

>  <SCORE.INTRA>
-4.26659

>  <SCORE.INTRA.DIHEDRAL>
-4.15929

>  <SCORE.INTRA.DIHEDRAL.0>
7.7847

>  <SCORE.INTRA.POLAR>
0

>  <SCORE.INTRA.POLAR.0>
0

>  <SCORE.INTRA.REPUL>
0

>  <SCORE.INTRA.REPUL.0>
0

>  <SCORE.INTRA.SOLV>
-2.02872

>  <SCORE.INTRA.SOLV.lig_0>
-57.5465

>  <SCORE.INTRA.VDW>
-1.17258

>  <SCORE.INTRA.VDW.0>
1.39369

>  <SCORE.INTRA.norm>
-0.355549

>  <SCORE.RESTR>
0.013792

>  <SCORE.RESTR.CAVITY>
0.013792

>  <SCORE.RESTR.norm>
0.00114934

>  <SCORE.SYSTEM>
0

>  <SCORE.SYSTEM.CONST>
0

>  <SCORE.SYSTEM.DIHEDRAL>
0

>  <SCORE.SYSTEM.SOLV>
0

>  <SCORE.SYSTEM.norm>
0

>  <SCORE.heavy>
12

>  <SCORE.norm>
-2.0422

>  <SYMMETRIC_BONDS>
4 1 2

>  <RMSD>
11.985

$$$$
1kod cryst
 OpenBabel11021811393D
libRbt.so/2013.1/901 2013/11/27
 12 11  0  0  0  0  0  0  0  0999 V2000
   -3.3810    1.5319   25.4480 C   0  0  0  0  0  0  0  0  0  0  0  0
   -4.1136    1.5712   26.4253 O   0  5  0  0  0  0  0  0  0  0  0  0
   -2.2047    1.1943   25.4917 O   0  0  0  0  0  0  0  0  0  0  0  0
   -3.9772    1.9287   24.0829 C   0  0  1  0  0  0  0  0  0  0  0  0
   -3.0517    2.8812   23.3967 N   0  3  0  0  0  0  0  0  0  0  0  0
   -4.1860    0.6810   23.1930 C   0  0  0  0  0  0  0  0  0  0  0  0
   -5.4241   -0.0898   23.6321 C   0  0  0  0  0  0  0  0  0  0  0  0
   -5.1263   -1.5875   23.6399 C   0  0  0  0  0  0  0  0  0  0  0  0
   -4.6275   -1.9775   24.9956 N   0  0  0  0  0  0  0  0  0  0  0  0
   -5.2060   -2.9377   25.6660 C   0  0  0  0  0  0  0  0  0  0  0  0
   -5.5984   -2.7525   26.8159 O   0  0  0  0  0  0  0  0  0  0  0  0
   -5.3566   -4.1090   25.1196 N   0  0  0  0  0  0  0  0  0  0  0  0
  1  2  1  0  0  0  0
  1  3  2  0  0  0  0
  4  1  1  1  0  0  0
  4  6  1  0  0  0  0
  4  5  1  0  0  0  0
  6  7  1  0  0  0  0
  7  8  1  0  0  0  0
  8  9  1  0  0  0  0
  9 10  1  0  0  0  0
 10 12  1  0  0  0  0
 10 11  2  0  0  0  0
M  CHG  2   2  -1   5   1
M  END
>  <CHROM.1>
132.44907877,77.07181563,-67.77388275,-136.85729673,90.75755627,-54.59510367
-4.32823412,-0.29559228,24.83796149,-0.61611196,1.11679452,2.03020120

>  <Name>
1kod cryst

>  <RI>
0

>  <Rbt.Current_Directory>
/home/itssahil/PROJECTS/Mol_Feturizer/New_Systems/rnas/1kod

>  <Rbt.Executable>
rbdock ($Id: //depot/dev/client3/rdock/2013.1/src/exe/rbdock.cxx#4 $)

>  <Rbt.Library>
libRbt.so (2013.1, Build901 2013/11/27)

>  <Rbt.Parameter_File>
/export/apps/rDock/src/rDock_2013.1_src/data/scripts/dock_solv.prm

>  <Rbt.Receptor>
prm/blind_docking_80.prm

>  <SCORE>
-24.8844

>  <SCORE.INTER>
-23.1482

>  <SCORE.INTER.CONST>
1

>  <SCORE.INTER.POLAR>
-3.76739

>  <SCORE.INTER.ROT>
5

>  <SCORE.INTER.SOLV>
17.8073

>  <SCORE.INTER.VDW>
-15.7433

>  <SCORE.INTER.norm>
-1.92902

>  <SCORE.INTRA>
-1.79242

>  <SCORE.INTRA.DIHEDRAL>
3.43424

>  <SCORE.INTRA.DIHEDRAL.0>
7.7847

>  <SCORE.INTRA.POLAR>
0

>  <SCORE.INTRA.POLAR.0>
0

>  <SCORE.INTRA.REPUL>
0

>  <SCORE.INTRA.REPUL.0>
0

>  <SCORE.INTRA.SOLV>
-0.939861

>  <SCORE.INTRA.SOLV.lig_0>
-57.5465

>  <SCORE.INTRA.VDW>
-3.03962

>  <SCORE.INTRA.VDW.0>
1.39369

>  <SCORE.INTRA.norm>
-0.149369

>  <SCORE.RESTR>
0.0562333

>  <SCORE.RESTR.CAVITY>
0.0562333

>  <SCORE.RESTR.norm>
0.0046861

>  <SCORE.SYSTEM>
0

>  <SCORE.SYSTEM.CONST>
0

>  <SCORE.SYSTEM.DIHEDRAL>
0

>  <SCORE.SYSTEM.SOLV>
0

>  <SCORE.SYSTEM.norm>
0

>  <SCORE.heavy>
12

>  <SCORE.norm>
-2.0737

>  <SYMMETRIC_BONDS>
4 1 2

>  <RMSD>
12.004

$$$$
1kod cryst
 OpenBabel11021811393D
libRbt.so/2013.1/901 2013/11/27
 12 11  0  0  0  0  0  0  0  0999 V2000
   -6.9232   -2.5590   26.5867 C   0  0  0  0  0  0  0  0  0  0  0  0
   -6.9501   -2.1338   27.7321 O   0  5  0  0  0  0  0  0  0  0  0  0
   -7.9025   -2.6010   25.8526 O   0  0  0  0  0  0  0  0  0  0  0  0
   -5.5759   -3.0684   26.0377 C   0  0  1  0  0  0  0  0  0  0  0  0
   -5.8201   -4.2233   25.1205 N   0  3  0  0  0  0  0  0  0  0  0  0
   -4.8382   -1.9469   25.2695 C   0  0  0  0  0  0  0  0  0  0  0  0
   -3.4145   -1.7892   25.7873 C   0  0  0  0  0  0  0  0  0  0  0  0
   -2.9491   -0.3479   25.5927 C   0  0  0  0  0  0  0  0  0  0  0  0
   -3.6577    0.5294   26.5761 N   0  0  0  0  0  0  0  0  0  0  0  0
   -3.2861    0.5604   27.8279 C   0  0  0  0  0  0  0  0  0  0  0  0
   -4.0988    0.3654   28.7290 O   0  0  0  0  0  0  0  0  0  0  0  0
   -2.0462    0.8153   28.1290 N   0  0  0  0  0  0  0  0  0  0  0  0
  1  2  1  0  0  0  0
  1  3  2  0  0  0  0
  4  1  1  6  0  0  0
  4  6  1  0  0  0  0
  4  5  1  0  0  0  0
  6  7  1  0  0  0  0
  7  8  1  0  0  0  0
  8  9  1  0  0  0  0
  9 10  1  0  0  0  0
 10 12  1  0  0  0  0
 10 11  2  0  0  0  0
M  CHG  2   2  -1   5   1
M  END
>  <CHROM.1>
145.26798000,127.84228333,44.47442670,-151.48284274,72.40146037,-102.68959119
-4.80830109,-1.38175460,26.60881740,2.41937811,-0.42100475,-2.27742983

>  <Name>
1kod cryst

>  <RI>
0

>  <Rbt.Current_Directory>
/home/itssahil/PROJECTS/Mol_Feturizer/New_Systems/rnas/1kod

>  <Rbt.Executable>
rbdock ($Id: //depot/dev/client3/rdock/2013.1/src/exe/rbdock.cxx#4 $)

>  <Rbt.Library>
libRbt.so (2013.1, Build901 2013/11/27)

>  <Rbt.Parameter_File>
/export/apps/rDock/src/rDock_2013.1_src/data/scripts/dock_solv.prm

>  <Rbt.Receptor>
prm/blind_docking_60.prm

>  <SCORE>
-24.9046

>  <SCORE.INTER>
-22.6942

>  <SCORE.INTER.CONST>
1

>  <SCORE.INTER.POLAR>
-4.31335

>  <SCORE.INTER.ROT>
5

>  <SCORE.INTER.SOLV>
23.6843

>  <SCORE.INTER.VDW>
-15.5797

>  <SCORE.INTER.norm>
-1.89118

>  <SCORE.INTRA>
-2.21046

>  <SCORE.INTRA.DIHEDRAL>
3.32394

>  <SCORE.INTRA.DIHEDRAL.0>
7.7847

>  <SCORE.INTRA.POLAR>
0

>  <SCORE.INTRA.POLAR.0>
0

>  <SCORE.INTRA.REPUL>
0

>  <SCORE.INTRA.REPUL.0>
0

>  <SCORE.INTRA.SOLV>
-2.01062

>  <SCORE.INTRA.SOLV.lig_0>
-57.5465

>  <SCORE.INTRA.VDW>
-2.86713

>  <SCORE.INTRA.VDW.0>
1.39369

>  <SCORE.INTRA.norm>
-0.184205

>  <SCORE.RESTR>
0

>  <SCORE.RESTR.CAVITY>
0

>  <SCORE.RESTR.norm>
0

>  <SCORE.SYSTEM>
0

>  <SCORE.SYSTEM.CONST>
0

>  <SCORE.SYSTEM.DIHEDRAL>
0

>  <SCORE.SYSTEM.SOLV>
0

>  <SCORE.SYSTEM.norm>
0

>  <SCORE.heavy>
12

>  <SCORE.norm>
-2.07539

>  <SYMMETRIC_BONDS>
4 1 2

>  <RMSD>
12.025

$$$$
1kod cryst
 OpenBabel11021811393D
libRbt.so/2013.1/901 2013/11/27
 12 11  0  0  0  0  0  0  0  0999 V2000
   -3.8632    2.4174   24.1034 C   0  0  0  0  0  0  0  0  0  0  0  0
   -4.9561    2.7330   24.5497 O   0  5  0  0  0  0  0  0  0  0  0  0
   -3.3830    2.8893   23.0805 O   0  0  0  0  0  0  0  0  0  0  0  0
   -3.0439    1.3658   24.8776 C   0  0  1  0  0  0  0  0  0  0  0  0
   -2.5991    1.9467   26.1812 N   0  3  0  0  0  0  0  0  0  0  0  0
   -3.8892    0.0974   25.1398 C   0  0  0  0  0  0  0  0  0  0  0  0
   -4.0134   -0.7360   23.8710 C   0  0  0  0  0  0  0  0  0  0  0  0
   -5.0546   -1.8347   24.0726 C   0  0  0  0  0  0  0  0  0  0  0  0
   -4.7616   -2.5543   25.3512 N   0  0  0  0  0  0  0  0  0  0  0  0
   -5.7324   -3.0326   26.0825 C   0  0  0  0  0  0  0  0  0  0  0  0
   -5.8210   -2.7452   27.2742 O   0  0  0  0  0  0  0  0  0  0  0  0
   -6.6086   -3.8346   25.5512 N   0  0  0  0  0  0  0  0  0  0  0  0
  1  2  1  0  0  0  0
  1  3  2  0  0  0  0
  4  1  1  1  0  0  0
  4  6  1  0  0  0  0
  4  5  1  0  0  0  0
  6  7  1  0  0  0  0
  7  8  1  0  0  0  0
  8  9  1  0  0  0  0
  9 10  1  0  0  0  0
 10 12  1  0  0  0  0
 10 11  2  0  0  0  0
M  CHG  2   2  -1   5   1
M  END
>  <CHROM.1>
-68.34857534,75.90855352,-166.52622740,-169.46688575,-49.72543613,-33.53123890
-4.47662849,-0.25836135,25.04126213,0.64671883,-1.08478405,-1.12939252

>  <Name>
1kod cryst

>  <RI>
0

>  <Rbt.Current_Directory>
/home/itssahil/PROJECTS/Mol_Feturizer/New_Systems/rnas/1kod

>  <Rbt.Executable>
rbdock ($Id: //depot/dev/client3/rdock/2013.1/src/exe/rbdock.cxx#4 $)

>  <Rbt.Library>
libRbt.so (2013.1, Build901 2013/11/27)

>  <Rbt.Parameter_File>
/export/apps/rDock/src/rDock_2013.1_src/data/scripts/dock_solv.prm

>  <Rbt.Receptor>
prm/blind_docking_100.prm

>  <SCORE>
-29.0758

>  <SCORE.INTER>
-24.2716

>  <SCORE.INTER.CONST>
1

>  <SCORE.INTER.POLAR>
-4.327

>  <SCORE.INTER.ROT>
5

>  <SCORE.INTER.SOLV>
17.6399

>  <SCORE.INTER.VDW>
-14.571

>  <SCORE.INTER.norm>
-2.02263

>  <SCORE.INTRA>
-4.80428

>  <SCORE.INTRA.DIHEDRAL>
-3.43307

>  <SCORE.INTRA.DIHEDRAL.0>
7.7847

>  <SCORE.INTRA.POLAR>
0

>  <SCORE.INTRA.POLAR.0>
0

>  <SCORE.INTRA.REPUL>
0

>  <SCORE.INTRA.REPUL.0>
0

>  <SCORE.INTRA.SOLV>
-2.49699

>  <SCORE.INTRA.SOLV.lig_0>
-57.5465

>  <SCORE.INTRA.VDW>
-1.83925

>  <SCORE.INTRA.VDW.0>
1.39369

>  <SCORE.INTRA.norm>
-0.400357

>  <SCORE.RESTR>
0

>  <SCORE.RESTR.CAVITY>
0

>  <SCORE.RESTR.norm>
0

>  <SCORE.SYSTEM>
0

>  <SCORE.SYSTEM.CONST>
0

>  <SCORE.SYSTEM.DIHEDRAL>
0

>  <SCORE.SYSTEM.SOLV>
0

>  <SCORE.SYSTEM.norm>
0

>  <SCORE.heavy>
12

>  <SCORE.norm>
-2.42299

>  <SYMMETRIC_BONDS>
4 1 2

>  <RMSD>
12.034

$$$$
1kod cryst
 OpenBabel11021811393D
libRbt.so/2013.1/901 2013/11/27
 12 11  0  0  0  0  0  0  0  0999 V2000
   -3.8884    2.6352   24.4320 C   0  0  0  0  0  0  0  0  0  0  0  0
   -4.9623    2.9738   24.9069 O   0  5  0  0  0  0  0  0  0  0  0  0
   -3.3834    3.1595   23.4473 O   0  0  0  0  0  0  0  0  0  0  0  0
   -3.1279    1.4825   25.1171 C   0  0  1  0  0  0  0  0  0  0  0  0
   -2.6060    1.9499   26.4376 N   0  3  0  0  0  0  0  0  0  0  0  0
   -4.0568    0.2646   25.3315 C   0  0  0  0  0  0  0  0  0  0  0  0
   -3.6421   -0.8913   24.4304 C   0  0  0  0  0  0  0  0  0  0  0  0
   -4.8357   -1.8119   24.1862 C   0  0  0  0  0  0  0  0  0  0  0  0
   -5.3516   -2.2998   25.5032 N   0  0  0  0  0  0  0  0  0  0  0  0
   -6.1294   -3.3473   25.5659 C   0  0  0  0  0  0  0  0  0  0  0  0
   -7.2133   -3.2908   26.1424 O   0  0  0  0  0  0  0  0  0  0  0  0
   -5.7495   -4.4689   25.0266 N   0  0  0  0  0  0  0  0  0  0  0  0
  1  2  1  0  0  0  0
  1  3  2  0  0  0  0
  4  1  1  1  0  0  0
  4  6  1  0  0  0  0
  4  5  1  0  0  0  0
  6  7  1  0  0  0  0
  7  8  1  0  0  0  0
  8  9  1  0  0  0  0
  9 10  1  0  0  0  0
 10 12  1  0  0  0  0
 10 11  2  0  0  0  0
M  CHG  2   2  -1   5   1
M  END
>  <CHROM.1>
-70.52068487,111.03329248,-41.45522989,-155.71473955,-57.53298053,17.63028482
-4.57652136,-0.29099118,25.07128645,1.17712120,-0.01717886,-0.11165366

>  <Name>
1kod cryst

>  <RI>
0

>  <Rbt.Current_Directory>
/home/itssahil/PROJECTS/Mol_Feturizer/New_Systems/rnas/1kod

>  <Rbt.Executable>
rbdock ($Id: //depot/dev/client3/rdock/2013.1/src/exe/rbdock.cxx#4 $)

>  <Rbt.Library>
libRbt.so (2013.1, Build901 2013/11/27)

>  <Rbt.Parameter_File>
/export/apps/rDock/src/rDock_2013.1_src/data/scripts/dock_solv.prm

>  <Rbt.Receptor>
prm/blind_docking_60.prm

>  <SCORE>
-24.3442

>  <SCORE.INTER>
-22.4427

>  <SCORE.INTER.CONST>
1

>  <SCORE.INTER.POLAR>
-3.72742

>  <SCORE.INTER.ROT>
5

>  <SCORE.INTER.SOLV>
15.6031

>  <SCORE.INTER.VDW>
-14.6714

>  <SCORE.INTER.norm>
-1.87022

>  <SCORE.INTRA>
-1.90153

>  <SCORE.INTRA.DIHEDRAL>
2.27226

>  <SCORE.INTRA.DIHEDRAL.0>
7.7847

>  <SCORE.INTRA.POLAR>
0

>  <SCORE.INTRA.POLAR.0>
0

>  <SCORE.INTRA.REPUL>
0

>  <SCORE.INTRA.REPUL.0>
0

>  <SCORE.INTRA.SOLV>
-2.89668

>  <SCORE.INTRA.SOLV.lig_0>
-57.5465

>  <SCORE.INTRA.VDW>
-1.58932

>  <SCORE.INTRA.VDW.0>
1.39369

>  <SCORE.INTRA.norm>
-0.15846

>  <SCORE.RESTR>
0

>  <SCORE.RESTR.CAVITY>
0

>  <SCORE.RESTR.norm>
0

>  <SCORE.SYSTEM>
0

>  <SCORE.SYSTEM.CONST>
0

>  <SCORE.SYSTEM.DIHEDRAL>
0

>  <SCORE.SYSTEM.SOLV>
0

>  <SCORE.SYSTEM.norm>
0

>  <SCORE.heavy>
12

>  <SCORE.norm>
-2.02868

>  <SYMMETRIC_BONDS>
4 1 2

>  <RMSD>
12.042

$$$$
1kod cryst
 OpenBabel11021811393D
libRbt.so/2013.1/901 2013/11/27
 12 11  0  0  0  0  0  0  0  0999 V2000
   -5.5931   -1.2036   26.4798 C   0  0  0  0  0  0  0  0  0  0  0  0
   -5.5399   -2.1670   27.2296 O   0  5  0  0  0  0  0  0  0  0  0  0
   -6.3057   -0.2270   26.6751 O   0  0  0  0  0  0  0  0  0  0  0  0
   -4.7083   -1.2219   25.2176 C   0  0  1  0  0  0  0  0  0  0  0  0
   -4.1227   -2.5862   25.0435 N   0  3  0  0  0  0  0  0  0  0  0  0
   -5.5349   -0.8516   23.9639 C   0  0  0  0  0  0  0  0  0  0  0  0
   -5.9397    0.6162   24.0027 C   0  0  0  0  0  0  0  0  0  0  0  0
   -4.6928    1.4977   24.0053 C   0  0  0  0  0  0  0  0  0  0  0  0
   -4.5424    2.1243   25.3556 N   0  0  0  0  0  0  0  0  0  0  0  0
   -3.6216    1.7078   26.1831 C   0  0  0  0  0  0  0  0  0  0  0  0
   -3.9130    1.3700   27.3283 O   0  0  0  0  0  0  0  0  0  0  0  0
   -2.3790    1.6631   25.7996 N   0  0  0  0  0  0  0  0  0  0  0  0
  1  2  1  0  0  0  0
  1  3  2  0  0  0  0
  4  1  1  1  0  0  0
  4  6  1  0  0  0  0
  4  5  1  0  0  0  0
  6  7  1  0  0  0  0
  7  8  1  0  0  0  0
  8  9  1  0  0  0  0
  9 10  1  0  0  0  0
 10 12  1  0  0  0  0
 10 11  2  0  0  0  0
M  CHG  2   2  -1   5   1
M  END
>  <CHROM.1>
10.42726932,69.28671450,-177.57598345,61.58429198,-108.99632264,-73.81603115
-4.71872633,0.03291862,25.63258205,-2.51711327,-1.07140831,-0.93870943

>  <Name>
1kod cryst

>  <RI>
0

>  <Rbt.Current_Directory>
/home/itssahil/PROJECTS/Mol_Feturizer/New_Systems/rnas/1kod

>  <Rbt.Executable>
rbdock ($Id: //depot/dev/client3/rdock/2013.1/src/exe/rbdock.cxx#4 $)

>  <Rbt.Library>
libRbt.so (2013.1, Build901 2013/11/27)

>  <Rbt.Parameter_File>
/export/apps/rDock/src/rDock_2013.1_src/data/scripts/dock_solv.prm

>  <Rbt.Receptor>
prm/blind_docking_60.prm

>  <SCORE>
-22.248

>  <SCORE.INTER>
-20.7832

>  <SCORE.INTER.CONST>
1

>  <SCORE.INTER.POLAR>
-4.3047

>  <SCORE.INTER.ROT>
5

>  <SCORE.INTER.SOLV>
13.0403

>  <SCORE.INTER.VDW>
-10.7866

>  <SCORE.INTER.norm>
-1.73193

>  <SCORE.INTRA>
-1.46483

>  <SCORE.INTRA.DIHEDRAL>
-0.14599

>  <SCORE.INTRA.DIHEDRAL.0>
7.7847

>  <SCORE.INTRA.POLAR>
0

>  <SCORE.INTRA.POLAR.0>
0

>  <SCORE.INTRA.REPUL>
0

>  <SCORE.INTRA.REPUL.0>
0

>  <SCORE.INTRA.SOLV>
1.92129

>  <SCORE.INTRA.SOLV.lig_0>
-57.5465

>  <SCORE.INTRA.VDW>
-2.35248

>  <SCORE.INTRA.VDW.0>
1.39369

>  <SCORE.INTRA.norm>
-0.122069

>  <SCORE.RESTR>
0

>  <SCORE.RESTR.CAVITY>
0

>  <SCORE.RESTR.norm>
0

>  <SCORE.SYSTEM>
0

>  <SCORE.SYSTEM.CONST>
0

>  <SCORE.SYSTEM.DIHEDRAL>
0

>  <SCORE.SYSTEM.SOLV>
0

>  <SCORE.SYSTEM.norm>
0

>  <SCORE.heavy>
12

>  <SCORE.norm>
-1.854

>  <SYMMETRIC_BONDS>
4 1 2

>  <RMSD>
12.047

$$$$
1kod cryst
 OpenBabel11021811393D
libRbt.so/2013.1/901 2013/11/27
 12 11  0  0  0  0  0  0  0  0999 V2000
   -6.4741   -1.7766   26.5898 C   0  0  0  0  0  0  0  0  0  0  0  0
   -7.6559   -1.6657   26.2994 O   0  5  0  0  0  0  0  0  0  0  0  0
   -5.9135   -1.0918   27.4362 O   0  0  0  0  0  0  0  0  0  0  0  0
   -5.6456   -2.8433   25.8469 C   0  0  1  0  0  0  0  0  0  0  0  0
   -6.5288   -3.9950   25.4888 N   0  3  0  0  0  0  0  0  0  0  0  0
   -5.0203   -2.2537   24.5610 C   0  0  0  0  0  0  0  0  0  0  0  0
   -4.0907   -1.0955   24.8992 C   0  0  0  0  0  0  0  0  0  0  0  0
   -2.9527   -1.5878   25.7906 C   0  0  0  0  0  0  0  0  0  0  0  0
   -2.1683   -0.4090   26.2741 N   0  0  0  0  0  0  0  0  0  0  0  0
   -2.7729    0.6978   26.6140 C   0  0  0  0  0  0  0  0  0  0  0  0
   -2.4387    1.7728   26.1208 O   0  0  0  0  0  0  0  0  0  0  0  0
   -3.7297    0.6684   27.4954 N   0  0  0  0  0  0  0  0  0  0  0  0
  1  2  1  0  0  0  0
  1  3  2  0  0  0  0
  4  1  1  6  0  0  0
  4  6  1  0  0  0  0
  4  5  1  0  0  0  0
  6  7  1  0  0  0  0
  7  8  1  0  0  0  0
  8  9  1  0  0  0  0
  9 10  1  0  0  0  0
 10 12  1  0  0  0  0
 10 11  2  0  0  0  0
M  CHG  2   2  -1   5   1
M  END
>  <CHROM.1>
-31.19126847,60.58684163,-152.91591092,61.03630357,-171.80397322,-140.92914476
-4.64496959,-1.13769939,26.13405702,2.50305725,-0.36395156,-2.53202733

>  <Name>
1kod cryst

>  <RI>
0

>  <Rbt.Current_Directory>
/home/itssahil/PROJECTS/Mol_Feturizer/New_Systems/rnas/1kod

>  <Rbt.Executable>
rbdock ($Id: //depot/dev/client3/rdock/2013.1/src/exe/rbdock.cxx#4 $)

>  <Rbt.Library>
libRbt.so (2013.1, Build901 2013/11/27)

>  <Rbt.Parameter_File>
/export/apps/rDock/src/rDock_2013.1_src/data/scripts/dock_solv.prm

>  <Rbt.Receptor>
prm/blind_docking_80.prm

>  <SCORE>
-20.3075

>  <SCORE.INTER>
-16.2511

>  <SCORE.INTER.CONST>
1

>  <SCORE.INTER.POLAR>
-2.51858

>  <SCORE.INTER.ROT>
5

>  <SCORE.INTER.SOLV>
20.4162

>  <SCORE.INTER.VDW>
-16.1776

>  <SCORE.INTER.norm>
-1.35426

>  <SCORE.INTRA>
-4.05633

>  <SCORE.INTRA.DIHEDRAL>
-3.76115

>  <SCORE.INTRA.DIHEDRAL.0>
7.7847

>  <SCORE.INTRA.POLAR>
-0.524996

>  <SCORE.INTRA.POLAR.0>
0

>  <SCORE.INTRA.REPUL>
0

>  <SCORE.INTRA.REPUL.0>
0

>  <SCORE.INTRA.SOLV>
0.935535

>  <SCORE.INTRA.SOLV.lig_0>
-57.5465

>  <SCORE.INTRA.VDW>
-0.858534

>  <SCORE.INTRA.VDW.0>
1.39369

>  <SCORE.INTRA.norm>
-0.338027

>  <SCORE.RESTR>
0

>  <SCORE.RESTR.CAVITY>
0

>  <SCORE.RESTR.norm>
0

>  <SCORE.SYSTEM>
0

>  <SCORE.SYSTEM.CONST>
0

>  <SCORE.SYSTEM.DIHEDRAL>
0

>  <SCORE.SYSTEM.SOLV>
0

>  <SCORE.SYSTEM.norm>
0

>  <SCORE.heavy>
12

>  <SCORE.norm>
-1.69229

>  <SYMMETRIC_BONDS>
4 1 2

>  <RMSD>
12.077

$$$$
1kod cryst
 OpenBabel11021811393D
libRbt.so/2013.1/901 2013/11/27
 12 11  0  0  0  0  0  0  0  0999 V2000
   -4.8640    3.3476   25.0603 C   0  0  0  0  0  0  0  0  0  0  0  0
   -6.0774    3.4832   25.0075 O   0  5  0  0  0  0  0  0  0  0  0  0
   -4.2310    3.2803   26.1064 O   0  0  0  0  0  0  0  0  0  0  0  0
   -4.0900    3.2535   23.7305 C   0  0  1  0  0  0  0  0  0  0  0  0
   -2.8739    4.1197   23.8034 N   0  3  0  0  0  0  0  0  0  0  0  0
   -3.6668    1.7935   23.4451 C   0  0  0  0  0  0  0  0  0  0  0  0
   -4.8913    0.9052   23.2677 C   0  0  0  0  0  0  0  0  0  0  0  0
   -4.4536   -0.5317   22.9927 C   0  0  0  0  0  0  0  0  0  0  0  0
   -3.8238   -1.0935   24.2281 N   0  0  0  0  0  0  0  0  0  0  0  0
   -4.3909   -2.0758   24.8758 C   0  0  0  0  0  0  0  0  0  0  0  0
   -4.6208   -1.9842   26.0797 O   0  0  0  0  0  0  0  0  0  0  0  0
   -4.7035   -3.1710   24.2466 N   0  0  0  0  0  0  0  0  0  0  0  0
  1  2  1  0  0  0  0
  1  3  2  0  0  0  0
  4  1  1  1  0  0  0
  4  6  1  0  0  0  0
  4  5  1  0  0  0  0
  6  7  1  0  0  0  0
  7  8  1  0  0  0  0
  8  9  1  0  0  0  0
  9 10  1  0  0  0  0
 10 12  1  0  0  0  0
 10 11  2  0  0  0  0
M  CHG  2   2  -1   5   1
M  END
>  <CHROM.1>
135.09067247,63.37038402,-67.71694917,-179.77180086,68.50373725,-66.22390842
-4.37268055,0.95639722,24.42574377,1.47242918,1.13075645,0.08080008

>  <Name>
1kod cryst

>  <RI>
0

>  <Rbt.Current_Directory>
/home/itssahil/PROJECTS/Mol_Feturizer/New_Systems/rnas/1kod

>  <Rbt.Executable>
rbdock ($Id: //depot/dev/client3/rdock/2013.1/src/exe/rbdock.cxx#4 $)

>  <Rbt.Library>
libRbt.so (2013.1, Build901 2013/11/27)

>  <Rbt.Parameter_File>
/export/apps/rDock/src/rDock_2013.1_src/data/scripts/dock_solv.prm

>  <Rbt.Receptor>
prm/blind_docking_60.prm

>  <SCORE>
-20.5872

>  <SCORE.INTER>
-14.4711

>  <SCORE.INTER.CONST>
1

>  <SCORE.INTER.POLAR>
-1.88404

>  <SCORE.INTER.ROT>
5

>  <SCORE.INTER.SOLV>
11.4248

>  <SCORE.INTER.VDW>
-14.1089

>  <SCORE.INTER.norm>
-1.20593

>  <SCORE.INTRA>
-6.11614

>  <SCORE.INTRA.DIHEDRAL>
-5.08749

>  <SCORE.INTRA.DIHEDRAL.0>
7.7847

>  <SCORE.INTRA.POLAR>
0

>  <SCORE.INTRA.POLAR.0>
0

>  <SCORE.INTRA.REPUL>
0

>  <SCORE.INTRA.REPUL.0>
0

>  <SCORE.INTRA.SOLV>
-2.337

>  <SCORE.INTRA.SOLV.lig_0>
-57.5465

>  <SCORE.INTRA.VDW>
-2.40389

>  <SCORE.INTRA.VDW.0>
1.39369

>  <SCORE.INTRA.norm>
-0.509678

>  <SCORE.RESTR>
0

>  <SCORE.RESTR.CAVITY>
0

>  <SCORE.RESTR.norm>
0

>  <SCORE.SYSTEM>
0

>  <SCORE.SYSTEM.CONST>
0

>  <SCORE.SYSTEM.DIHEDRAL>
0

>  <SCORE.SYSTEM.SOLV>
0

>  <SCORE.SYSTEM.norm>
0

>  <SCORE.heavy>
12

>  <SCORE.norm>
-1.7156

>  <SYMMETRIC_BONDS>
4 1 2

>  <RMSD>
12.083

$$$$
1kod cryst
 OpenBabel11021811393D
libRbt.so/2013.1/901 2013/11/27
 12 11  0  0  0  0  0  0  0  0999 V2000
   -4.2487    3.8794   24.2356 C   0  0  0  0  0  0  0  0  0  0  0  0
   -4.1730    4.3444   23.1080 O   0  5  0  0  0  0  0  0  0  0  0  0
   -3.9900    4.5116   25.2520 O   0  0  0  0  0  0  0  0  0  0  0  0
   -4.6990    2.4124   24.3822 C   0  0  1  0  0  0  0  0  0  0  0  0
   -6.1918    2.3465   24.3419 N   0  3  0  0  0  0  0  0  0  0  0  0
   -4.1135    1.5434   23.2445 C   0  0  0  0  0  0  0  0  0  0  0  0
   -3.6310    0.2043   23.7867 C   0  0  0  0  0  0  0  0  0  0  0  0
   -4.8262   -0.6355   24.2318 C   0  0  0  0  0  0  0  0  0  0  0  0
   -4.3394   -1.7544   25.0976 N   0  0  0  0  0  0  0  0  0  0  0  0
   -5.0131   -2.1174   26.1561 C   0  0  0  0  0  0  0  0  0  0  0  0
   -4.4676   -2.1831   27.2555 O   0  0  0  0  0  0  0  0  0  0  0  0
   -6.2718   -2.4286   26.0472 N   0  0  0  0  0  0  0  0  0  0  0  0
  1  2  1  0  0  0  0
  1  3  2  0  0  0  0
  4  1  1  6  0  0  0
  4  6  1  0  0  0  0
  4  5  1  0  0  0  0
  6  7  1  0  0  0  0
  7  8  1  0  0  0  0
  8  9  1  0  0  0  0
  9 10  1  0  0  0  0
 10 12  1  0  0  0  0
 10 11  2  0  0  0  0
M  CHG  2   2  -1   5   1
M  END
>  <CHROM.1>
-83.03264068,138.27793423,-179.74986345,68.60797313,-164.25759162,-39.61092128
-4.69818258,0.84976891,24.77614103,1.28598993,1.17699341,-0.06396541

>  <Name>
1kod cryst

>  <RI>
0

>  <Rbt.Current_Directory>
/home/itssahil/PROJECTS/Mol_Feturizer/New_Systems/rnas/1kod

>  <Rbt.Executable>
rbdock ($Id: //depot/dev/client3/rdock/2013.1/src/exe/rbdock.cxx#4 $)

>  <Rbt.Library>
libRbt.so (2013.1, Build901 2013/11/27)

>  <Rbt.Parameter_File>
/export/apps/rDock/src/rDock_2013.1_src/data/scripts/dock_solv.prm

>  <Rbt.Receptor>
prm/blind_docking_60.prm

>  <SCORE>
-20.2164

>  <SCORE.INTER>
-17.3143

>  <SCORE.INTER.CONST>
1

>  <SCORE.INTER.POLAR>
-2.83234

>  <SCORE.INTER.ROT>
5

>  <SCORE.INTER.SOLV>
10.3308

>  <SCORE.INTER.VDW>
-12.4787

>  <SCORE.INTER.norm>
-1.44286

>  <SCORE.INTRA>
-2.90211

>  <SCORE.INTRA.DIHEDRAL>
-0.304998

>  <SCORE.INTRA.DIHEDRAL.0>
7.7847

>  <SCORE.INTRA.POLAR>
0

>  <SCORE.INTRA.POLAR.0>
0

>  <SCORE.INTRA.REPUL>
0

>  <SCORE.INTRA.REPUL.0>
0

>  <SCORE.INTRA.SOLV>
-1.98687

>  <SCORE.INTRA.SOLV.lig_0>
-57.5465

>  <SCORE.INTRA.VDW>
-1.75617

>  <SCORE.INTRA.VDW.0>
1.39369

>  <SCORE.INTRA.norm>
-0.241842

>  <SCORE.RESTR>
0

>  <SCORE.RESTR.CAVITY>
0

>  <SCORE.RESTR.norm>
0

>  <SCORE.SYSTEM>
0

>  <SCORE.SYSTEM.CONST>
0

>  <SCORE.SYSTEM.DIHEDRAL>
0

>  <SCORE.SYSTEM.SOLV>
0

>  <SCORE.SYSTEM.norm>
0

>  <SCORE.heavy>
12

>  <SCORE.norm>
-1.6847

>  <SYMMETRIC_BONDS>
4 1 2

>  <RMSD>
12.096

$$$$
1kod cryst
 OpenBabel11021811393D
libRbt.so/2013.1/901 2013/11/27
 12 11  0  0  0  0  0  0  0  0999 V2000
   -3.3319    1.0074   24.1093 C   0  0  0  0  0  0  0  0  0  0  0  0
   -2.8690    0.3098   23.2192 O   0  5  0  0  0  0  0  0  0  0  0  0
   -4.0631    1.9695   23.9104 O   0  0  0  0  0  0  0  0  0  0  0  0
   -2.9741    0.6504   25.5656 C   0  0  1  0  0  0  0  0  0  0  0  0
   -3.0347    1.8846   26.4069 N   0  3  0  0  0  0  0  0  0  0  0  0
   -3.9548   -0.4054   26.1275 C   0  0  0  0  0  0  0  0  0  0  0  0
   -5.3732    0.1481   26.1679 C   0  0  0  0  0  0  0  0  0  0  0  0
   -6.3734   -0.9986   26.2965 C   0  0  0  0  0  0  0  0  0  0  0  0
   -6.2963   -1.8516   25.0697 N   0  0  0  0  0  0  0  0  0  0  0  0
   -6.0427   -3.1295   25.1633 C   0  0  0  0  0  0  0  0  0  0  0  0
   -5.1255   -3.6361   24.5210 O   0  0  0  0  0  0  0  0  0  0  0  0
   -6.7762   -3.8805   25.9320 N   0  0  0  0  0  0  0  0  0  0  0  0
  1  2  1  0  0  0  0
  1  3  2  0  0  0  0
  4  1  1  6  0  0  0
  4  6  1  0  0  0  0
  4  5  1  0  0  0  0
  6  7  1  0  0  0  0
  7  8  1  0  0  0  0
  8  9  1  0  0  0  0
  9 10  1  0  0  0  0
 10 12  1  0  0  0  0
 10 11  2  0  0  0  0
M  CHG  2   2  -1   5   1
M  END
>  <CHROM.1>
152.80107770,-62.81112482,174.82741324,162.35955902,-64.19033660,-56.62508111
-4.68085326,-0.64821282,25.20331869,-0.55217095,-0.88162921,-2.36924333

>  <Name>
1kod cryst

>  <RI>
0

>  <Rbt.Current_Directory>
/home/itssahil/PROJECTS/Mol_Feturizer/New_Systems/rnas/1kod

>  <Rbt.Executable>
rbdock ($Id: //depot/dev/client3/rdock/2013.1/src/exe/rbdock.cxx#4 $)

>  <Rbt.Library>
libRbt.so (2013.1, Build901 2013/11/27)

>  <Rbt.Parameter_File>
/export/apps/rDock/src/rDock_2013.1_src/data/scripts/dock_solv.prm

>  <Rbt.Receptor>
prm/blind_docking_40.prm

>  <SCORE>
-22.4939

>  <SCORE.INTER>
-17.9115

>  <SCORE.INTER.CONST>
1

>  <SCORE.INTER.POLAR>
-3.10011

>  <SCORE.INTER.ROT>
5

>  <SCORE.INTER.SOLV>
17.453

>  <SCORE.INTER.VDW>
-14.3583

>  <SCORE.INTER.norm>
-1.49263

>  <SCORE.INTRA>
-4.58435

>  <SCORE.INTRA.DIHEDRAL>
-4.1664

>  <SCORE.INTRA.DIHEDRAL.0>
7.7847

>  <SCORE.INTRA.POLAR>
0

>  <SCORE.INTRA.POLAR.0>
0

>  <SCORE.INTRA.REPUL>
0

>  <SCORE.INTRA.REPUL.0>
0

>  <SCORE.INTRA.SOLV>
-0.638579

>  <SCORE.INTRA.SOLV.lig_0>
-57.5465

>  <SCORE.INTRA.VDW>
-2.18186

>  <SCORE.INTRA.VDW.0>
1.39369

>  <SCORE.INTRA.norm>
-0.382029

>  <SCORE.RESTR>
0.00198748

>  <SCORE.RESTR.CAVITY>
0.00198748

>  <SCORE.RESTR.norm>
0.000165624

>  <SCORE.SYSTEM>
0

>  <SCORE.SYSTEM.CONST>
0

>  <SCORE.SYSTEM.DIHEDRAL>
0

>  <SCORE.SYSTEM.SOLV>
0

>  <SCORE.SYSTEM.norm>
0

>  <SCORE.heavy>
12

>  <SCORE.norm>
-1.87449

>  <SYMMETRIC_BONDS>
4 1 2

>  <RMSD>
12.109

$$$$
1kod cryst
 OpenBabel11021811393D
libRbt.so/2013.1/901 2013/11/27
 12 11  0  0  0  0  0  0  0  0999 V2000
   -3.2513    2.3221   23.5442 C   0  0  0  0  0  0  0  0  0  0  0  0
   -2.9117    1.9153   22.4430 O   0  5  0  0  0  0  0  0  0  0  0  0
   -3.6991    3.4435   23.7478 O   0  0  0  0  0  0  0  0  0  0  0  0
   -3.1085    1.3635   24.7430 C   0  0  1  0  0  0  0  0  0  0  0  0
   -2.9410    2.1604   25.9966 N   0  3  0  0  0  0  0  0  0  0  0  0
   -4.3549    0.4568   24.8709 C   0  0  0  0  0  0  0  0  0  0  0  0
   -4.5505   -0.3675   23.6052 C   0  0  0  0  0  0  0  0  0  0  0  0
   -5.3807   -1.6102   23.9193 C   0  0  0  0  0  0  0  0  0  0  0  0
   -4.6805   -2.4098   24.9724 N   0  0  0  0  0  0  0  0  0  0  0  0
   -5.2500   -2.6323   26.1266 C   0  0  0  0  0  0  0  0  0  0  0  0
   -4.6709   -2.3583   27.1755 O   0  0  0  0  0  0  0  0  0  0  0  0
   -6.4368   -3.1638   26.1713 N   0  0  0  0  0  0  0  0  0  0  0  0
  1  2  1  0  0  0  0
  1  3  2  0  0  0  0
  4  1  1  6  0  0  0
  4  6  1  0  0  0  0
  4  5  1  0  0  0  0
  6  7  1  0  0  0  0
  7  8  1  0  0  0  0
  8  9  1  0  0  0  0
  9 10  1  0  0  0  0
 10 12  1  0  0  0  0
 10 11  2  0  0  0  0
M  CHG  2   2  -1   5   1
M  END
>  <CHROM.1>
153.61833447,59.34696018,65.43810108,157.37528189,-58.39877990,-61.23880557
-4.26316758,-0.05497784,24.80626307,0.58981018,-1.10643305,-1.32090996

>  <Name>
1kod cryst

>  <RI>
0

>  <Rbt.Current_Directory>
/home/itssahil/PROJECTS/Mol_Feturizer/New_Systems/rnas/1kod

>  <Rbt.Executable>
rbdock ($Id: //depot/dev/client3/rdock/2013.1/src/exe/rbdock.cxx#4 $)

>  <Rbt.Library>
libRbt.so (2013.1, Build901 2013/11/27)

>  <Rbt.Parameter_File>
/export/apps/rDock/src/rDock_2013.1_src/data/scripts/dock_solv.prm

>  <Rbt.Receptor>
prm/blind_docking_100.prm

>  <SCORE>
-26.6737

>  <SCORE.INTER>
-21.8653

>  <SCORE.INTER.CONST>
1

>  <SCORE.INTER.POLAR>
-4.49466

>  <SCORE.INTER.ROT>
5

>  <SCORE.INTER.SOLV>
19.3371

>  <SCORE.INTER.VDW>
-12.9737

>  <SCORE.INTER.norm>
-1.82211

>  <SCORE.INTRA>
-4.80841

>  <SCORE.INTRA.DIHEDRAL>
-3.55096

>  <SCORE.INTRA.DIHEDRAL.0>
7.7847

>  <SCORE.INTRA.POLAR>
0

>  <SCORE.INTRA.POLAR.0>
0

>  <SCORE.INTRA.REPUL>
0

>  <SCORE.INTRA.REPUL.0>
0

>  <SCORE.INTRA.SOLV>
-1.81071

>  <SCORE.INTRA.SOLV.lig_0>
-57.5465

>  <SCORE.INTRA.VDW>
-2.12757

>  <SCORE.INTRA.VDW.0>
1.39369

>  <SCORE.INTRA.norm>
-0.400701

>  <SCORE.RESTR>
0

>  <SCORE.RESTR.CAVITY>
0

>  <SCORE.RESTR.norm>
0

>  <SCORE.SYSTEM>
0

>  <SCORE.SYSTEM.CONST>
0

>  <SCORE.SYSTEM.DIHEDRAL>
0

>  <SCORE.SYSTEM.SOLV>
0

>  <SCORE.SYSTEM.norm>
0

>  <SCORE.heavy>
12

>  <SCORE.norm>
-2.22281

>  <SYMMETRIC_BONDS>
4 1 2

>  <RMSD>
12.113

$$$$
1kod cryst
 OpenBabel11021811393D
libRbt.so/2013.1/901 2013/11/27
 12 11  0  0  0  0  0  0  0  0999 V2000
   -4.6062    2.4277   25.3702 C   0  0  0  0  0  0  0  0  0  0  0  0
   -5.7417    2.7163   25.7176 O   0  5  0  0  0  0  0  0  0  0  0  0
   -3.6681    2.2992   26.1468 O   0  0  0  0  0  0  0  0  0  0  0  0
   -4.3448    2.2113   23.8665 C   0  0  1  0  0  0  0  0  0  0  0  0
   -3.1604    3.0218   23.4483 N   0  3  0  0  0  0  0  0  0  0  0  0
   -4.0795    0.7175   23.5660 C   0  0  0  0  0  0  0  0  0  0  0  0
   -5.3758   -0.0800   23.6258 C   0  0  0  0  0  0  0  0  0  0  0  0
   -5.0649   -1.5750   23.6243 C   0  0  0  0  0  0  0  0  0  0  0  0
   -4.5805   -1.9728   24.9829 N   0  0  0  0  0  0  0  0  0  0  0  0
   -5.1819   -2.9194   25.6524 C   0  0  0  0  0  0  0  0  0  0  0  0
   -5.5755   -2.7238   26.8002 O   0  0  0  0  0  0  0  0  0  0  0  0
   -5.3546   -4.0884   25.1076 N   0  0  0  0  0  0  0  0  0  0  0  0
  1  2  1  0  0  0  0
  1  3  2  0  0  0  0
  4  1  1  1  0  0  0
  4  6  1  0  0  0  0
  4  5  1  0  0  0  0
  6  7  1  0  0  0  0
  7  8  1  0  0  0  0
  8  9  1  0  0  0  0
  9 10  1  0  0  0  0
 10 12  1  0  0  0  0
 10 11  2  0  0  0  0
M  CHG  2   2  -1   5   1
M  END
>  <CHROM.1>
129.71033848,74.51378198,-49.59123360,-168.01651950,76.27025076,-56.47325766
-4.70622677,0.01622018,24.84138957,0.87476772,1.26314025,0.53085865

>  <Name>
1kod cryst

>  <RI>
0

>  <Rbt.Current_Directory>
/home/itssahil/PROJECTS/Mol_Feturizer/New_Systems/rnas/1kod

>  <Rbt.Executable>
rbdock ($Id: //depot/dev/client3/rdock/2013.1/src/exe/rbdock.cxx#4 $)

>  <Rbt.Library>
libRbt.so (2013.1, Build901 2013/11/27)

>  <Rbt.Parameter_File>
/export/apps/rDock/src/rDock_2013.1_src/data/scripts/dock_solv.prm

>  <Rbt.Receptor>
prm/blind_docking_60.prm

>  <SCORE>
-26.8047

>  <SCORE.INTER>
-21.3946

>  <SCORE.INTER.CONST>
1

>  <SCORE.INTER.POLAR>
-3.32774

>  <SCORE.INTER.ROT>
5

>  <SCORE.INTER.SOLV>
13.6038

>  <SCORE.INTER.VDW>
-14.6385

>  <SCORE.INTER.norm>
-1.78288

>  <SCORE.INTRA>
-5.45544

>  <SCORE.INTRA.DIHEDRAL>
-3.05317

>  <SCORE.INTRA.DIHEDRAL.0>
7.7847

>  <SCORE.INTRA.POLAR>
0

>  <SCORE.INTRA.POLAR.0>
0

>  <SCORE.INTRA.REPUL>
0

>  <SCORE.INTRA.REPUL.0>
0

>  <SCORE.INTRA.SOLV>
-2.53589

>  <SCORE.INTRA.SOLV.lig_0>
-57.5465

>  <SCORE.INTRA.VDW>
-2.66091

>  <SCORE.INTRA.VDW.0>
1.39369

>  <SCORE.INTRA.norm>
-0.45462

>  <SCORE.RESTR>
0.0453927

>  <SCORE.RESTR.CAVITY>
0.0453927

>  <SCORE.RESTR.norm>
0.00378273

>  <SCORE.SYSTEM>
0

>  <SCORE.SYSTEM.CONST>
0

>  <SCORE.SYSTEM.DIHEDRAL>
0

>  <SCORE.SYSTEM.SOLV>
0

>  <SCORE.SYSTEM.norm>
0

>  <SCORE.heavy>
12

>  <SCORE.norm>
-2.23372

>  <SYMMETRIC_BONDS>
4 1 2

>  <RMSD>
12.127

$$$$
1kod cryst
 OpenBabel11021811393D
libRbt.so/2013.1/901 2013/11/27
 12 11  0  0  0  0  0  0  0  0999 V2000
   -3.6532    0.4596   23.8196 C   0  0  0  0  0  0  0  0  0  0  0  0
   -4.6003    1.0797   23.3592 O   0  5  0  0  0  0  0  0  0  0  0  0
   -2.8842   -0.2111   23.1425 O   0  0  0  0  0  0  0  0  0  0  0  0
   -3.4151    0.5310   25.3409 C   0  0  1  0  0  0  0  0  0  0  0  0
   -2.5229    1.6903   25.6484 N   0  3  0  0  0  0  0  0  0  0  0  0
   -4.7539    0.6957   26.0977 C   0  0  0  0  0  0  0  0  0  0  0  0
   -4.9159   -0.3982   27.1452 C   0  0  0  0  0  0  0  0  0  0  0  0
   -6.3613   -0.4352   27.6363 C   0  0  0  0  0  0  0  0  0  0  0  0
   -7.2259   -1.0150   26.5616 N   0  0  0  0  0  0  0  0  0  0  0  0
   -7.3411   -2.3091   26.4268 C   0  0  0  0  0  0  0  0  0  0  0  0
   -7.1260   -2.8491   25.3439 O   0  0  0  0  0  0  0  0  0  0  0  0
   -7.7022   -3.0363   27.4436 N   0  0  0  0  0  0  0  0  0  0  0  0
  1  2  1  0  0  0  0
  1  3  2  0  0  0  0
  4  1  1  6  0  0  0
  4  6  1  0  0  0  0
  4  5  1  0  0  0  0
  6  7  1  0  0  0  0
  7  8  1  0  0  0  0
  8  9  1  0  0  0  0
  9 10  1  0  0  0  0
 10 12  1  0  0  0  0
 10 11  2  0  0  0  0
M  CHG  2   2  -1   5   1
M  END
>  <CHROM.1>
-89.42614459,125.18407574,103.40774199,-166.09843602,72.69407834,-96.45029292
-5.19551888,-0.47483873,25.64734121,0.23160726,-0.74635825,-1.90680156

>  <Name>
1kod cryst

>  <RI>
0

>  <Rbt.Current_Directory>
/home/itssahil/PROJECTS/Mol_Feturizer/New_Systems/rnas/1kod

>  <Rbt.Executable>
rbdock ($Id: //depot/dev/client3/rdock/2013.1/src/exe/rbdock.cxx#4 $)

>  <Rbt.Library>
libRbt.so (2013.1, Build901 2013/11/27)

>  <Rbt.Parameter_File>
/export/apps/rDock/src/rDock_2013.1_src/data/scripts/dock_solv.prm

>  <Rbt.Receptor>
prm/blind_docking_100.prm

>  <SCORE>
-23.0029

>  <SCORE.INTER>
-22.0091

>  <SCORE.INTER.CONST>
1

>  <SCORE.INTER.POLAR>
-4.43447

>  <SCORE.INTER.ROT>
5

>  <SCORE.INTER.SOLV>
22.153

>  <SCORE.INTER.VDW>
-14.2088

>  <SCORE.INTER.norm>
-1.83409

>  <SCORE.INTRA>
-1.02142

>  <SCORE.INTRA.DIHEDRAL>
3.81423

>  <SCORE.INTRA.DIHEDRAL.0>
7.7847

>  <SCORE.INTRA.POLAR>
0

>  <SCORE.INTRA.POLAR.0>
0

>  <SCORE.INTRA.REPUL>
0

>  <SCORE.INTRA.REPUL.0>
0

>  <SCORE.INTRA.SOLV>
-2.65773

>  <SCORE.INTRA.SOLV.lig_0>
-57.5465

>  <SCORE.INTRA.VDW>
-1.59967

>  <SCORE.INTRA.VDW.0>
1.39369

>  <SCORE.INTRA.norm>
-0.085118

>  <SCORE.RESTR>
0.0276694

>  <SCORE.RESTR.CAVITY>
0.0276694

>  <SCORE.RESTR.norm>
0.00230578

>  <SCORE.SYSTEM>
0

>  <SCORE.SYSTEM.CONST>
0

>  <SCORE.SYSTEM.DIHEDRAL>
0

>  <SCORE.SYSTEM.SOLV>
0

>  <SCORE.SYSTEM.norm>
0

>  <SCORE.heavy>
12

>  <SCORE.norm>
-1.9169

>  <SYMMETRIC_BONDS>
4 1 2

>  <RMSD>
12.142

$$$$
1kod cryst
 OpenBabel11021811393D
libRbt.so/2013.1/901 2013/11/27
 12 11  0  0  0  0  0  0  0  0999 V2000
   -6.2996   -1.3146   24.5037 C   0  0  0  0  0  0  0  0  0  0  0  0
   -7.2445   -0.5812   24.7540 O   0  5  0  0  0  0  0  0  0  0  0  0
   -6.3811   -2.5352   24.4466 O   0  0  0  0  0  0  0  0  0  0  0  0
   -4.9282   -0.6609   24.2427 C   0  0  1  0  0  0  0  0  0  0  0  0
   -4.2258   -1.4028   23.1514 N   0  3  0  0  0  0  0  0  0  0  0  0
   -5.0969    0.8210   23.8330 C   0  0  0  0  0  0  0  0  0  0  0  0
   -4.0753    1.6949   24.5490 C   0  0  0  0  0  0  0  0  0  0  0  0
   -4.3652    1.7085   26.0482 C   0  0  0  0  0  0  0  0  0  0  0  0
   -3.4110    2.6449   26.7200 N   0  0  0  0  0  0  0  0  0  0  0  0
   -2.7821    2.2865   27.8072 C   0  0  0  0  0  0  0  0  0  0  0  0
   -2.8261    2.9852   28.8173 O   0  0  0  0  0  0  0  0  0  0  0  0
   -2.0877    1.1861   27.8205 N   0  0  0  0  0  0  0  0  0  0  0  0
  1  2  1  0  0  0  0
  1  3  2  0  0  0  0
  4  1  1  6  0  0  0
  4  6  1  0  0  0  0
  4  5  1  0  0  0  0
  6  7  1  0  0  0  0
  7  8  1  0  0  0  0
  8  9  1  0  0  0  0
  9 10  1  0  0  0  0
 10 12  1  0  0  0  0
 10 11  2  0  0  0  0
M  CHG  2   2  -1   5   1
M  END
>  <CHROM.1>
-141.84864161,136.57886225,26.37677518,-66.55735399,-176.14672372,46.73053183
-4.46260137,0.54004166,25.55140537,2.27408732,-0.67592423,-1.86497229

>  <Name>
1kod cryst

>  <RI>
0

>  <Rbt.Current_Directory>
/home/itssahil/PROJECTS/Mol_Feturizer/New_Systems/rnas/1kod

>  <Rbt.Executable>
rbdock ($Id: //depot/dev/client3/rdock/2013.1/src/exe/rbdock.cxx#4 $)

>  <Rbt.Library>
libRbt.so (2013.1, Build901 2013/11/27)

>  <Rbt.Parameter_File>
/export/apps/rDock/src/rDock_2013.1_src/data/scripts/dock_solv.prm

>  <Rbt.Receptor>
prm/blind_docking_100.prm

>  <SCORE>
-21.24

>  <SCORE.INTER>
-19.6212

>  <SCORE.INTER.CONST>
1

>  <SCORE.INTER.POLAR>
-4.11804

>  <SCORE.INTER.ROT>
5

>  <SCORE.INTER.SOLV>
21.4662

>  <SCORE.INTER.VDW>
-13.4427

>  <SCORE.INTER.norm>
-1.6351

>  <SCORE.INTRA>
-1.69269

>  <SCORE.INTRA.DIHEDRAL>
1.05848

>  <SCORE.INTRA.DIHEDRAL.0>
7.7847

>  <SCORE.INTRA.POLAR>
0

>  <SCORE.INTRA.POLAR.0>
0

>  <SCORE.INTRA.REPUL>
0

>  <SCORE.INTRA.REPUL.0>
0

>  <SCORE.INTRA.SOLV>
-2.37571

>  <SCORE.INTRA.SOLV.lig_0>
-57.5465

>  <SCORE.INTRA.VDW>
-1.03408

>  <SCORE.INTRA.VDW.0>
1.39369

>  <SCORE.INTRA.norm>
-0.141058

>  <SCORE.RESTR>
0.0739197

>  <SCORE.RESTR.CAVITY>
0.0739197

>  <SCORE.RESTR.norm>
0.00615998

>  <SCORE.SYSTEM>
0

>  <SCORE.SYSTEM.CONST>
0

>  <SCORE.SYSTEM.DIHEDRAL>
0

>  <SCORE.SYSTEM.SOLV>
0

>  <SCORE.SYSTEM.norm>
0

>  <SCORE.heavy>
12

>  <SCORE.norm>
-1.77

>  <SYMMETRIC_BONDS>
4 1 2

>  <RMSD>
12.157

$$$$
1kod cryst
 OpenBabel11021811393D
libRbt.so/2013.1/901 2013/11/27
 12 11  0  0  0  0  0  0  0  0999 V2000
   -5.0345    2.3613   25.5945 C   0  0  0  0  0  0  0  0  0  0  0  0
   -4.5330    2.0165   26.6542 O   0  5  0  0  0  0  0  0  0  0  0  0
   -4.7499    3.4005   25.0124 O   0  0  0  0  0  0  0  0  0  0  0  0
   -6.0838    1.4299   24.9559 C   0  0  1  0  0  0  0  0  0  0  0  0
   -7.4129    2.1139   24.9476 N   0  3  0  0  0  0  0  0  0  0  0  0
   -5.6827    1.0647   23.5074 C   0  0  0  0  0  0  0  0  0  0  0  0
   -4.7170   -0.1131   23.4992 C   0  0  0  0  0  0  0  0  0  0  0  0
   -5.4420   -1.3806   23.9459 C   0  0  0  0  0  0  0  0  0  0  0  0
   -4.5870   -2.1073   24.9356 N   0  0  0  0  0  0  0  0  0  0  0  0
   -5.0913   -2.5363   26.0615 C   0  0  0  0  0  0  0  0  0  0  0  0
   -4.5724   -2.2396   27.1354 O   0  0  0  0  0  0  0  0  0  0  0  0
   -6.1456   -3.2989   26.0497 N   0  0  0  0  0  0  0  0  0  0  0  0
  1  2  1  0  0  0  0
  1  3  2  0  0  0  0
  4  1  1  6  0  0  0
  4  6  1  0  0  0  0
  4  5  1  0  0  0  0
  6  7  1  0  0  0  0
  7  8  1  0  0  0  0
  8  9  1  0  0  0  0
  9 10  1  0  0  0  0
 10 12  1  0  0  0  0
 10 11  2  0  0  0  0
M  CHG  2   2  -1   5   1
M  END
>  <CHROM.1>
114.35242923,84.31111085,64.79832248,68.65354597,-134.54072143,-48.21136935
-5.36022307,0.07160064,25.21757799,-1.76128963,1.22249229,-3.11106354

>  <Name>
1kod cryst

>  <RI>
0

>  <Rbt.Current_Directory>
/home/itssahil/PROJECTS/Mol_Feturizer/New_Systems/rnas/1kod

>  <Rbt.Executable>
rbdock ($Id: //depot/dev/client3/rdock/2013.1/src/exe/rbdock.cxx#4 $)

>  <Rbt.Library>
libRbt.so (2013.1, Build901 2013/11/27)

>  <Rbt.Parameter_File>
/export/apps/rDock/src/rDock_2013.1_src/data/scripts/dock_solv.prm

>  <Rbt.Receptor>
prm/blind_docking_60.prm

>  <SCORE>
-22.8065

>  <SCORE.INTER>
-19.8697

>  <SCORE.INTER.CONST>
1

>  <SCORE.INTER.POLAR>
-3.28098

>  <SCORE.INTER.ROT>
5

>  <SCORE.INTER.SOLV>
9.69979

>  <SCORE.INTER.VDW>
-12.4764

>  <SCORE.INTER.norm>
-1.65581

>  <SCORE.INTRA>
-2.94868

>  <SCORE.INTRA.DIHEDRAL>
1.39143

>  <SCORE.INTRA.DIHEDRAL.0>
7.7847

>  <SCORE.INTRA.POLAR>
0

>  <SCORE.INTRA.POLAR.0>
0

>  <SCORE.INTRA.REPUL>
0

>  <SCORE.INTRA.REPUL.0>
0

>  <SCORE.INTRA.SOLV>
-2.33912

>  <SCORE.INTRA.SOLV.lig_0>
-57.5465

>  <SCORE.INTRA.VDW>
-2.47484

>  <SCORE.INTRA.VDW.0>
1.39369

>  <SCORE.INTRA.norm>
-0.245723

>  <SCORE.RESTR>
0.0118256

>  <SCORE.RESTR.CAVITY>
0.0118256

>  <SCORE.RESTR.norm>
0.000985464

>  <SCORE.SYSTEM>
0

>  <SCORE.SYSTEM.CONST>
0

>  <SCORE.SYSTEM.DIHEDRAL>
0

>  <SCORE.SYSTEM.SOLV>
0

>  <SCORE.SYSTEM.norm>
0

>  <SCORE.heavy>
12

>  <SCORE.norm>
-1.90054

>  <SYMMETRIC_BONDS>
4 1 2

>  <RMSD>
12.171

$$$$
1kod cryst
 OpenBabel11021811393D
libRbt.so/2013.1/901 2013/11/27
 12 11  0  0  0  0  0  0  0  0999 V2000
   -6.7137   -2.2700   26.3227 C   0  0  0  0  0  0  0  0  0  0  0  0
   -6.9723   -2.0778   27.5015 O   0  5  0  0  0  0  0  0  0  0  0  0
   -7.3834   -1.8282   25.3975 O   0  0  0  0  0  0  0  0  0  0  0  0
   -5.4699   -3.1160   25.9856 C   0  0  1  0  0  0  0  0  0  0  0  0
   -5.8477   -4.1850   25.0115 N   0  3  0  0  0  0  0  0  0  0  0  0
   -4.3558   -2.2331   25.3760 C   0  0  0  0  0  0  0  0  0  0  0  0
   -3.6648   -1.4169   26.4604 C   0  0  0  0  0  0  0  0  0  0  0  0
   -2.4537   -0.6954   25.8734 C   0  0  0  0  0  0  0  0  0  0  0  0
   -2.8627    0.6822   25.4567 N   0  0  0  0  0  0  0  0  0  0  0  0
   -3.1616    1.5861   26.3510 C   0  0  0  0  0  0  0  0  0  0  0  0
   -4.2306    2.1904   26.2999 O   0  0  0  0  0  0  0  0  0  0  0  0
   -2.3147    1.8637   27.2991 N   0  0  0  0  0  0  0  0  0  0  0  0
  1  2  1  0  0  0  0
  1  3  2  0  0  0  0
  4  1  1  6  0  0  0
  4  6  1  0  0  0  0
  4  5  1  0  0  0  0
  6  7  1  0  0  0  0
  7  8  1  0  0  0  0
  8  9  1  0  0  0  0
  9 10  1  0  0  0  0
 10 12  1  0  0  0  0
 10 11  2  0  0  0  0
M  CHG  2   2  -1   5   1
M  END
>  <CHROM.1>
129.69423015,76.22592892,28.12262359,172.54923512,93.91793373,-110.38806695
-4.64314056,-0.96251457,26.10234588,2.25380317,-0.21617164,-2.83086355

>  <Name>
1kod cryst

>  <RI>
0

>  <Rbt.Current_Directory>
/home/itssahil/PROJECTS/Mol_Feturizer/New_Systems/rnas/1kod

>  <Rbt.Executable>
rbdock ($Id: //depot/dev/client3/rdock/2013.1/src/exe/rbdock.cxx#4 $)

>  <Rbt.Library>
libRbt.so (2013.1, Build901 2013/11/27)

>  <Rbt.Parameter_File>
/export/apps/rDock/src/rDock_2013.1_src/data/scripts/dock_solv.prm

>  <Rbt.Receptor>
prm/blind_docking_80.prm

>  <SCORE>
-25.335

>  <SCORE.INTER>
-22.4154

>  <SCORE.INTER.CONST>
1

>  <SCORE.INTER.POLAR>
-3.97451

>  <SCORE.INTER.ROT>
5

>  <SCORE.INTER.SOLV>
21.2467

>  <SCORE.INTER.VDW>
-15.7108

>  <SCORE.INTER.norm>
-1.86795

>  <SCORE.INTRA>
-2.91962

>  <SCORE.INTRA.DIHEDRAL>
0.853907

>  <SCORE.INTRA.DIHEDRAL.0>
7.7847

>  <SCORE.INTRA.POLAR>
0

>  <SCORE.INTRA.POLAR.0>
0

>  <SCORE.INTRA.REPUL>
0

>  <SCORE.INTRA.REPUL.0>
0

>  <SCORE.INTRA.SOLV>
-2.41291

>  <SCORE.INTRA.SOLV.lig_0>
-57.5465

>  <SCORE.INTRA.VDW>
-2.14012

>  <SCORE.INTRA.VDW.0>
1.39369

>  <SCORE.INTRA.norm>
-0.243301

>  <SCORE.RESTR>
0

>  <SCORE.RESTR.CAVITY>
0

>  <SCORE.RESTR.norm>
0

>  <SCORE.SYSTEM>
0

>  <SCORE.SYSTEM.CONST>
0

>  <SCORE.SYSTEM.DIHEDRAL>
0

>  <SCORE.SYSTEM.SOLV>
0

>  <SCORE.SYSTEM.norm>
0

>  <SCORE.heavy>
12

>  <SCORE.norm>
-2.11125

>  <SYMMETRIC_BONDS>
4 1 2

>  <RMSD>
12.205

$$$$
1kod cryst
 OpenBabel11021811393D
libRbt.so/2013.1/901 2013/11/27
 12 11  0  0  0  0  0  0  0  0999 V2000
   -6.9452   -2.2301   25.7363 C   0  0  0  0  0  0  0  0  0  0  0  0
   -7.7337   -2.1437   26.6660 O   0  5  0  0  0  0  0  0  0  0  0  0
   -7.0446   -1.5898   24.6972 O   0  0  0  0  0  0  0  0  0  0  0  0
   -5.7568   -3.2004   25.8859 C   0  0  1  0  0  0  0  0  0  0  0  0
   -6.0641   -4.4739   25.1660 N   0  3  0  0  0  0  0  0  0  0  0  0
   -4.4653   -2.5784   25.3051 C   0  0  0  0  0  0  0  0  0  0  0  0
   -3.7850   -1.6916   26.3398 C   0  0  0  0  0  0  0  0  0  0  0  0
   -4.6100   -0.4256   26.5600 C   0  0  0  0  0  0  0  0  0  0  0  0
   -4.0574    0.3172   27.7353 N   0  0  0  0  0  0  0  0  0  0  0  0
   -2.9973    1.0696   27.6079 C   0  0  0  0  0  0  0  0  0  0  0  0
   -2.0267    0.9170   28.3463 O   0  0  0  0  0  0  0  0  0  0  0  0
   -2.9704    2.0019   26.7006 N   0  0  0  0  0  0  0  0  0  0  0  0
  1  2  1  0  0  0  0
  1  3  2  0  0  0  0
  4  1  1  6  0  0  0
  4  6  1  0  0  0  0
  4  5  1  0  0  0  0
  6  7  1  0  0  0  0
  7  8  1  0  0  0  0
  8  9  1  0  0  0  0
  9 10  1  0  0  0  0
 10 12  1  0  0  0  0
 10 11  2  0  0  0  0
M  CHG  2   2  -1   5   1
M  END
>  <CHROM.1>
99.59397647,84.69769089,33.67611589,-70.67785732,170.49702133,-99.96337866
-4.88651258,-1.17646757,26.38628331,2.25758256,0.17235835,-2.82016404

>  <Name>
1kod cryst

>  <RI>
0

>  <Rbt.Current_Directory>
/home/itssahil/PROJECTS/Mol_Feturizer/New_Systems/rnas/1kod

>  <Rbt.Executable>
rbdock ($Id: //depot/dev/client3/rdock/2013.1/src/exe/rbdock.cxx#4 $)

>  <Rbt.Library>
libRbt.so (2013.1, Build901 2013/11/27)

>  <Rbt.Parameter_File>
/export/apps/rDock/src/rDock_2013.1_src/data/scripts/dock_solv.prm

>  <Rbt.Receptor>
prm/blind_docking_60.prm

>  <SCORE>
-22.2418

>  <SCORE.INTER>
-19.1673

>  <SCORE.INTER.CONST>
1

>  <SCORE.INTER.POLAR>
-3.43951

>  <SCORE.INTER.ROT>
5

>  <SCORE.INTER.SOLV>
22.6576

>  <SCORE.INTER.VDW>
-15.799

>  <SCORE.INTER.norm>
-1.59727

>  <SCORE.INTRA>
-3.07452

>  <SCORE.INTRA.DIHEDRAL>
-1.42545

>  <SCORE.INTRA.DIHEDRAL.0>
7.7847

>  <SCORE.INTRA.POLAR>
0

>  <SCORE.INTRA.POLAR.0>
0

>  <SCORE.INTRA.REPUL>
0

>  <SCORE.INTRA.REPUL.0>
0

>  <SCORE.INTRA.SOLV>
-1.56416

>  <SCORE.INTRA.SOLV.lig_0>
-57.5465

>  <SCORE.INTRA.VDW>
-1.57971

>  <SCORE.INTRA.VDW.0>
1.39369

>  <SCORE.INTRA.norm>
-0.25621

>  <SCORE.RESTR>
0

>  <SCORE.RESTR.CAVITY>
0

>  <SCORE.RESTR.norm>
0

>  <SCORE.SYSTEM>
0

>  <SCORE.SYSTEM.CONST>
0

>  <SCORE.SYSTEM.DIHEDRAL>
0

>  <SCORE.SYSTEM.SOLV>
0

>  <SCORE.SYSTEM.norm>
0

>  <SCORE.heavy>
12

>  <SCORE.norm>
-1.85348

>  <SYMMETRIC_BONDS>
4 1 2

>  <RMSD>
12.237

$$$$
1kod cryst
 OpenBabel11021811393D
libRbt.so/2013.1/901 2013/11/27
 12 11  0  0  0  0  0  0  0  0999 V2000
   -4.3268    1.6483   25.6292 C   0  0  0  0  0  0  0  0  0  0  0  0
   -3.9699    2.5751   26.3412 O   0  5  0  0  0  0  0  0  0  0  0  0
   -4.7277    0.5740   26.0593 O   0  0  0  0  0  0  0  0  0  0  0  0
   -4.2700    1.8486   24.1018 C   0  0  1  0  0  0  0  0  0  0  0  0
   -3.3305    2.9670   23.7839 N   0  3  0  0  0  0  0  0  0  0  0  0
   -3.7916    0.5573   23.3975 C   0  0  0  0  0  0  0  0  0  0  0  0
   -4.9776   -0.3276   23.0367 C   0  0  0  0  0  0  0  0  0  0  0  0
   -4.7179   -1.7580   23.5042 C   0  0  0  0  0  0  0  0  0  0  0  0
   -5.1033   -1.8766   24.9451 N   0  0  0  0  0  0  0  0  0  0  0  0
   -5.8059   -2.8951   25.3637 C   0  0  0  0  0  0  0  0  0  0  0  0
   -6.8459   -2.7231   25.9956 O   0  0  0  0  0  0  0  0  0  0  0  0
   -5.3958   -4.1066   25.1245 N   0  0  0  0  0  0  0  0  0  0  0  0
  1  2  1  0  0  0  0
  1  3  2  0  0  0  0
  4  1  1  1  0  0  0
  4  6  1  0  0  0  0
  4  5  1  0  0  0  0
  6  7  1  0  0  0  0
  7  8  1  0  0  0  0
  8  9  1  0  0  0  0
  9 10  1  0  0  0  0
 10 12  1  0  0  0  0
 10 11  2  0  0  0  0
M  CHG  2   2  -1   5   1
M  END
>  <CHROM.1>
20.30181044,90.37916078,-61.28641864,-130.83425642,84.07701226,-45.42242512
-4.75901119,-0.27652313,24.79616826,0.59302918,1.15117254,0.84748128

>  <Name>
1kod cryst

>  <RI>
0

>  <Rbt.Current_Directory>
/home/itssahil/PROJECTS/Mol_Feturizer/New_Systems/rnas/1kod

>  <Rbt.Executable>
rbdock ($Id: //depot/dev/client3/rdock/2013.1/src/exe/rbdock.cxx#4 $)

>  <Rbt.Library>
libRbt.so (2013.1, Build901 2013/11/27)

>  <Rbt.Parameter_File>
/export/apps/rDock/src/rDock_2013.1_src/data/scripts/dock_solv.prm

>  <Rbt.Receptor>
prm/blind_docking_40.prm

>  <SCORE>
-24.9495

>  <SCORE.INTER>
-20.82

>  <SCORE.INTER.CONST>
1

>  <SCORE.INTER.POLAR>
-2.84652

>  <SCORE.INTER.ROT>
5

>  <SCORE.INTER.SOLV>
11.4737

>  <SCORE.INTER.VDW>
-15.1495

>  <SCORE.INTER.norm>
-1.735

>  <SCORE.INTRA>
-4.13374

>  <SCORE.INTRA.DIHEDRAL>
4.6328

>  <SCORE.INTRA.DIHEDRAL.0>
7.7847

>  <SCORE.INTRA.POLAR>
-1.23186

>  <SCORE.INTRA.POLAR.0>
0

>  <SCORE.INTRA.REPUL>
0

>  <SCORE.INTRA.REPUL.0>
0

>  <SCORE.INTRA.SOLV>
0.49778

>  <SCORE.INTRA.SOLV.lig_0>
-57.5465

>  <SCORE.INTRA.VDW>
-2.51071

>  <SCORE.INTRA.VDW.0>
1.39369

>  <SCORE.INTRA.norm>
-0.344478

>  <SCORE.RESTR>
0.00420363

>  <SCORE.RESTR.CAVITY>
0.00420363

>  <SCORE.RESTR.norm>
0.000350302

>  <SCORE.SYSTEM>
0

>  <SCORE.SYSTEM.CONST>
0

>  <SCORE.SYSTEM.DIHEDRAL>
0

>  <SCORE.SYSTEM.SOLV>
0

>  <SCORE.SYSTEM.norm>
0

>  <SCORE.heavy>
12

>  <SCORE.norm>
-2.07913

>  <SYMMETRIC_BONDS>
4 1 2

>  <RMSD>
12.252

$$$$
1kod cryst
 OpenBabel11021811393D
libRbt.so/2013.1/901 2013/11/27
 12 11  0  0  0  0  0  0  0  0999 V2000
   -4.2578   -0.7418   26.7527 C   0  0  0  0  0  0  0  0  0  0  0  0
   -4.1196    0.3207   27.3404 O   0  5  0  0  0  0  0  0  0  0  0  0
   -4.4873   -1.8058   27.3139 O   0  0  0  0  0  0  0  0  0  0  0  0
   -4.1381   -0.7371   25.2158 C   0  0  1  0  0  0  0  0  0  0  0  0
   -4.4674   -2.0970   24.6897 N   0  3  0  0  0  0  0  0  0  0  0  0
   -5.0996    0.3030   24.5947 C   0  0  0  0  0  0  0  0  0  0  0  0
   -4.5388    0.8350   23.2823 C   0  0  0  0  0  0  0  0  0  0  0  0
   -3.5817    1.9923   23.5591 C   0  0  0  0  0  0  0  0  0  0  0  0
   -4.3265    3.2829   23.4238 N   0  0  0  0  0  0  0  0  0  0  0  0
   -4.7747    3.9058   24.4807 C   0  0  0  0  0  0  0  0  0  0  0  0
   -5.9567    4.2326   24.5628 O   0  0  0  0  0  0  0  0  0  0  0  0
   -3.9611    4.1992   25.4529 N   0  0  0  0  0  0  0  0  0  0  0  0
  1  2  1  0  0  0  0
  1  3  2  0  0  0  0
  4  1  1  1  0  0  0
  4  6  1  0  0  0  0
  4  5  1  0  0  0  0
  6  7  1  0  0  0  0
  7  8  1  0  0  0  0
  8  9  1  0  0  0  0
  9 10  1  0  0  0  0
 10 12  1  0  0  0  0
 10 11  2  0  0  0  0
M  CHG  2   2  -1   5   1
M  END
>  <CHROM.1>
-174.60561446,150.79014292,-94.95258443,-85.29423958,-95.51802224,-81.00339269
-4.48128786,1.12358874,25.07358334,-0.00717141,-1.51305982,1.21652379

>  <Name>
1kod cryst

>  <RI>
0

>  <Rbt.Current_Directory>
/home/itssahil/PROJECTS/Mol_Feturizer/New_Systems/rnas/1kod

>  <Rbt.Executable>
rbdock ($Id: //depot/dev/client3/rdock/2013.1/src/exe/rbdock.cxx#4 $)

>  <Rbt.Library>
libRbt.so (2013.1, Build901 2013/11/27)

>  <Rbt.Parameter_File>
/export/apps/rDock/src/rDock_2013.1_src/data/scripts/dock_solv.prm

>  <Rbt.Receptor>
prm/blind_docking_60.prm

>  <SCORE>
-23.6035

>  <SCORE.INTER>
-23.1901

>  <SCORE.INTER.CONST>
1

>  <SCORE.INTER.POLAR>
-4.54674

>  <SCORE.INTER.ROT>
5

>  <SCORE.INTER.SOLV>
12.4942

>  <SCORE.INTER.VDW>
-11.4024

>  <SCORE.INTER.norm>
-1.93251

>  <SCORE.INTRA>
-0.413346

>  <SCORE.INTRA.DIHEDRAL>
5.04185

>  <SCORE.INTRA.DIHEDRAL.0>
7.7847

>  <SCORE.INTRA.POLAR>
0

>  <SCORE.INTRA.POLAR.0>
0

>  <SCORE.INTRA.REPUL>
0

>  <SCORE.INTRA.REPUL.0>
0

>  <SCORE.INTRA.SOLV>
-1.70369

>  <SCORE.INTRA.SOLV.lig_0>
-57.5465

>  <SCORE.INTRA.VDW>
-2.08243

>  <SCORE.INTRA.VDW.0>
1.39369

>  <SCORE.INTRA.norm>
-0.0344455

>  <SCORE.RESTR>
0

>  <SCORE.RESTR.CAVITY>
0

>  <SCORE.RESTR.norm>
0

>  <SCORE.SYSTEM>
0

>  <SCORE.SYSTEM.CONST>
0

>  <SCORE.SYSTEM.DIHEDRAL>
0

>  <SCORE.SYSTEM.SOLV>
0

>  <SCORE.SYSTEM.norm>
0

>  <SCORE.heavy>
12

>  <SCORE.norm>
-1.96696

>  <SYMMETRIC_BONDS>
4 1 2

>  <RMSD>
12.252

$$$$
1kod cryst
 OpenBabel11021811393D
libRbt.so/2013.1/901 2013/11/27
 12 11  0  0  0  0  0  0  0  0999 V2000
   -4.9764    1.8037   25.1057 C   0  0  0  0  0  0  0  0  0  0  0  0
   -6.1919    1.7464   25.2176 O   0  5  0  0  0  0  0  0  0  0  0  0
   -4.2155    2.0179   26.0410 O   0  0  0  0  0  0  0  0  0  0  0  0
   -4.3701    1.5909   23.7045 C   0  0  1  0  0  0  0  0  0  0  0  0
   -3.4097    2.6973   23.4075 N   0  3  0  0  0  0  0  0  0  0  0  0
   -3.6328    0.2335   23.6271 C   0  0  0  0  0  0  0  0  0  0  0  0
   -4.5526   -0.8454   23.0704 C   0  0  0  0  0  0  0  0  0  0  0  0
   -5.6559   -1.1568   24.0792 C   0  0  0  0  0  0  0  0  0  0  0  0
   -5.0341   -1.6892   25.3316 N   0  0  0  0  0  0  0  0  0  0  0  0
   -5.4441   -2.8155   25.8506 C   0  0  0  0  0  0  0  0  0  0  0  0
   -5.7907   -2.8747   27.0283 O   0  0  0  0  0  0  0  0  0  0  0  0
   -5.4728   -3.8923   25.1206 N   0  0  0  0  0  0  0  0  0  0  0  0
  1  2  1  0  0  0  0
  1  3  2  0  0  0  0
  4  1  1  1  0  0  0
  4  6  1  0  0  0  0
  4  5  1  0  0  0  0
  6  7  1  0  0  0  0
  7  8  1  0  0  0  0
  8  9  1  0  0  0  0
  9 10  1  0  0  0  0
 10 12  1  0  0  0  0
 10 11  2  0  0  0  0
M  CHG  2   2  -1   5   1
M  END
>  <CHROM.1>
130.08999233,94.44302329,79.59106176,-68.83372842,-62.17179660,52.12640076
-4.88236940,-0.24762206,24.81414777,0.96616716,1.13926938,0.28527895

>  <Name>
1kod cryst

>  <RI>
0

>  <Rbt.Current_Directory>
/home/itssahil/PROJECTS/Mol_Feturizer/New_Systems/rnas/1kod

>  <Rbt.Executable>
rbdock ($Id: //depot/dev/client3/rdock/2013.1/src/exe/rbdock.cxx#4 $)

>  <Rbt.Library>
libRbt.so (2013.1, Build901 2013/11/27)

>  <Rbt.Parameter_File>
/export/apps/rDock/src/rDock_2013.1_src/data/scripts/dock_solv.prm

>  <Rbt.Receptor>
prm/blind_docking_60.prm

>  <SCORE>
-24.3827

>  <SCORE.INTER>
-21.4695

>  <SCORE.INTER.CONST>
1

>  <SCORE.INTER.POLAR>
-3.16602

>  <SCORE.INTER.ROT>
5

>  <SCORE.INTER.SOLV>
12.5802

>  <SCORE.INTER.VDW>
-14.8863

>  <SCORE.INTER.norm>
-1.78912

>  <SCORE.INTRA>
-2.91319

>  <SCORE.INTRA.DIHEDRAL>
-1.18492

>  <SCORE.INTRA.DIHEDRAL.0>
7.7847

>  <SCORE.INTRA.POLAR>
0

>  <SCORE.INTRA.POLAR.0>
0

>  <SCORE.INTRA.REPUL>
0

>  <SCORE.INTRA.REPUL.0>
0

>  <SCORE.INTRA.SOLV>
-0.0364356

>  <SCORE.INTRA.SOLV.lig_0>
-57.5465

>  <SCORE.INTRA.VDW>
-2.30252

>  <SCORE.INTRA.VDW.0>
1.39369

>  <SCORE.INTRA.norm>
-0.242766

>  <SCORE.RESTR>
0

>  <SCORE.RESTR.CAVITY>
0

>  <SCORE.RESTR.norm>
0

>  <SCORE.SYSTEM>
0

>  <SCORE.SYSTEM.CONST>
0

>  <SCORE.SYSTEM.DIHEDRAL>
0

>  <SCORE.SYSTEM.SOLV>
0

>  <SCORE.SYSTEM.norm>
0

>  <SCORE.heavy>
12

>  <SCORE.norm>
-2.03189

>  <SYMMETRIC_BONDS>
4 1 2

>  <RMSD>
12.312

$$$$
1kod cryst
 OpenBabel11021811393D
libRbt.so/2013.1/901 2013/11/27
 12 11  0  0  0  0  0  0  0  0999 V2000
   -4.5023   -1.3764   26.8654 C   0  0  0  0  0  0  0  0  0  0  0  0
   -3.6141   -1.8814   27.5359 O   0  5  0  0  0  0  0  0  0  0  0  0
   -5.4689   -0.7950   27.3422 O   0  0  0  0  0  0  0  0  0  0  0  0
   -4.3940   -1.4774   25.3310 C   0  0  1  0  0  0  0  0  0  0  0  0
   -4.2241   -2.9101   24.9401 N   0  3  0  0  0  0  0  0  0  0  0  0
   -5.6612   -0.9048   24.6537 C   0  0  0  0  0  0  0  0  0  0  0  0
   -5.3079   -0.2419   23.3287 C   0  0  0  0  0  0  0  0  0  0  0  0
   -5.8189    1.1970   23.3168 C   0  0  0  0  0  0  0  0  0  0  0  0
   -5.1143    1.9727   24.3848 N   0  0  0  0  0  0  0  0  0  0  0  0
   -3.8118    1.9440   24.4778 C   0  0  0  0  0  0  0  0  0  0  0  0
   -3.2644    1.6507   25.5384 O   0  0  0  0  0  0  0  0  0  0  0  0
   -3.0821    2.2435   23.4429 N   0  0  0  0  0  0  0  0  0  0  0  0
  1  2  1  0  0  0  0
  1  3  2  0  0  0  0
  4  1  1  1  0  0  0
  4  6  1  0  0  0  0
  4  5  1  0  0  0  0
  6  7  1  0  0  0  0
  7  8  1  0  0  0  0
  8  9  1  0  0  0  0
  9 10  1  0  0  0  0
 10 12  1  0  0  0  0
 10 11  2  0  0  0  0
M  CHG  2   2  -1   5   1
M  END
>  <CHROM.1>
53.99950202,146.39326993,-146.22819258,-125.15384575,63.52805988,-129.77103076
-4.49837817,-0.07022904,25.11171815,-1.64360785,-1.02191340,-0.67375891

>  <Name>
1kod cryst

>  <RI>
0

>  <Rbt.Current_Directory>
/home/itssahil/PROJECTS/Mol_Feturizer/New_Systems/rnas/1kod

>  <Rbt.Executable>
rbdock ($Id: //depot/dev/client3/rdock/2013.1/src/exe/rbdock.cxx#4 $)

>  <Rbt.Library>
libRbt.so (2013.1, Build901 2013/11/27)

>  <Rbt.Parameter_File>
/export/apps/rDock/src/rDock_2013.1_src/data/scripts/dock_solv.prm

>  <Rbt.Receptor>
prm/blind_docking_100.prm

>  <SCORE>
-20.5004

>  <SCORE.INTER>
-21.8463

>  <SCORE.INTER.CONST>
1

>  <SCORE.INTER.POLAR>
-4.41012

>  <SCORE.INTER.ROT>
5

>  <SCORE.INTER.SOLV>
19.351

>  <SCORE.INTER.VDW>
-13.2475

>  <SCORE.INTER.norm>
-1.82053

>  <SCORE.INTRA>
1.34588

>  <SCORE.INTRA.DIHEDRAL>
5.71332

>  <SCORE.INTRA.DIHEDRAL.0>
7.7847

>  <SCORE.INTRA.POLAR>
0

>  <SCORE.INTRA.POLAR.0>
0

>  <SCORE.INTRA.REPUL>
0

>  <SCORE.INTRA.REPUL.0>
0

>  <SCORE.INTRA.SOLV>
-0.28807

>  <SCORE.INTRA.SOLV.lig_0>
-57.5465

>  <SCORE.INTRA.VDW>
-1.36675

>  <SCORE.INTRA.VDW.0>
1.39369

>  <SCORE.INTRA.norm>
0.112157

>  <SCORE.RESTR>
0

>  <SCORE.RESTR.CAVITY>
0

>  <SCORE.RESTR.norm>
0

>  <SCORE.SYSTEM>
0

>  <SCORE.SYSTEM.CONST>
0

>  <SCORE.SYSTEM.DIHEDRAL>
0

>  <SCORE.SYSTEM.SOLV>
0

>  <SCORE.SYSTEM.norm>
0

>  <SCORE.heavy>
12

>  <SCORE.norm>
-1.70837

>  <SYMMETRIC_BONDS>
4 1 2

>  <RMSD>
12.328

$$$$
1kod cryst
 OpenBabel11021811393D
libRbt.so/2013.1/901 2013/11/27
 12 11  0  0  0  0  0  0  0  0999 V2000
   -4.2715   -1.4964   26.6381 C   0  0  0  0  0  0  0  0  0  0  0  0
   -3.3400   -1.3715   27.4192 O   0  5  0  0  0  0  0  0  0  0  0  0
   -5.3989   -1.8390   26.9717 O   0  0  0  0  0  0  0  0  0  0  0  0
   -4.0080   -1.2021   25.1481 C   0  0  1  0  0  0  0  0  0  0  0  0
   -4.6163   -2.2840   24.3149 N   0  3  0  0  0  0  0  0  0  0  0  0
   -4.6138    0.1624   24.7438 C   0  0  0  0  0  0  0  0  0  0  0  0
   -4.0821    0.6041   23.3866 C   0  0  0  0  0  0  0  0  0  0  0  0
   -3.2492    1.8742   23.5448 C   0  0  0  0  0  0  0  0  0  0  0  0
   -4.1484    3.0640   23.4247 N   0  0  0  0  0  0  0  0  0  0  0  0
   -4.7287    3.5682   24.4807 C   0  0  0  0  0  0  0  0  0  0  0  0
   -5.9460    3.7360   24.5082 O   0  0  0  0  0  0  0  0  0  0  0  0
   -4.0123    3.9120   25.5111 N   0  0  0  0  0  0  0  0  0  0  0  0
  1  2  1  0  0  0  0
  1  3  2  0  0  0  0
  4  1  1  1  0  0  0
  4  6  1  0  0  0  0
  4  5  1  0  0  0  0
  6  7  1  0  0  0  0
  7  8  1  0  0  0  0
  8  9  1  0  0  0  0
  9 10  1  0  0  0  0
 10 12  1  0  0  0  0
 10 11  2  0  0  0  0
M  CHG  2   2  -1   5   1
M  END
>  <CHROM.1>
134.59248242,166.65508277,10.13069656,-115.11015154,-88.83876537,-90.23396686
-4.38383977,0.71025322,25.01891402,1.28880022,-1.46065111,2.51783228

>  <Name>
1kod cryst

>  <RI>
0

>  <Rbt.Current_Directory>
/home/itssahil/PROJECTS/Mol_Feturizer/New_Systems/rnas/1kod

>  <Rbt.Executable>
rbdock ($Id: //depot/dev/client3/rdock/2013.1/src/exe/rbdock.cxx#4 $)

>  <Rbt.Library>
libRbt.so (2013.1, Build901 2013/11/27)

>  <Rbt.Parameter_File>
/export/apps/rDock/src/rDock_2013.1_src/data/scripts/dock_solv.prm

>  <Rbt.Receptor>
prm/blind_docking_60.prm

>  <SCORE>
-25.554

>  <SCORE.INTER>
-26.0406

>  <SCORE.INTER.CONST>
1

>  <SCORE.INTER.POLAR>
-5.09524

>  <SCORE.INTER.ROT>
5

>  <SCORE.INTER.SOLV>
16.5412

>  <SCORE.INTER.VDW>
-12.8233

>  <SCORE.INTER.norm>
-2.17005

>  <SCORE.INTRA>
0.486609

>  <SCORE.INTRA.DIHEDRAL>
7.02196

>  <SCORE.INTRA.DIHEDRAL.0>
7.7847

>  <SCORE.INTRA.POLAR>
0

>  <SCORE.INTRA.POLAR.0>
0

>  <SCORE.INTRA.REPUL>
0

>  <SCORE.INTRA.REPUL.0>
0

>  <SCORE.INTRA.SOLV>
-1.94114

>  <SCORE.INTRA.SOLV.lig_0>
-57.5465

>  <SCORE.INTRA.VDW>
-2.0538

>  <SCORE.INTRA.VDW.0>
1.39369

>  <SCORE.INTRA.norm>
0.0405507

>  <SCORE.RESTR>
0

>  <SCORE.RESTR.CAVITY>
0

>  <SCORE.RESTR.norm>
0

>  <SCORE.SYSTEM>
0

>  <SCORE.SYSTEM.CONST>
0

>  <SCORE.SYSTEM.DIHEDRAL>
0

>  <SCORE.SYSTEM.SOLV>
0

>  <SCORE.SYSTEM.norm>
0

>  <SCORE.heavy>
12

>  <SCORE.norm>
-2.1295

>  <SYMMETRIC_BONDS>
4 1 2

>  <RMSD>
12.336

$$$$
1kod cryst
 OpenBabel11021811393D
libRbt.so/2013.1/901 2013/11/27
 12 11  0  0  0  0  0  0  0  0999 V2000
   -4.2354    3.1055   25.3594 C   0  0  0  0  0  0  0  0  0  0  0  0
   -5.0278    3.8187   25.9566 O   0  5  0  0  0  0  0  0  0  0  0  0
   -3.2719    2.5657   25.8886 O   0  0  0  0  0  0  0  0  0  0  0  0
   -4.4674    2.8725   23.8533 C   0  0  1  0  0  0  0  0  0  0  0  0
   -3.4828    3.6799   23.0702 N   0  3  0  0  0  0  0  0  0  0  0  0
   -4.3047    1.3758   23.4991 C   0  0  0  0  0  0  0  0  0  0  0  0
   -5.6654    0.7017   23.3807 C   0  0  0  0  0  0  0  0  0  0  0  0
   -5.4897   -0.8141   23.3257 C   0  0  0  0  0  0  0  0  0  0  0  0
   -5.6935   -1.3778   24.6966 N   0  0  0  0  0  0  0  0  0  0  0  0
   -5.6707   -2.6686   24.8949 C   0  0  0  0  0  0  0  0  0  0  0  0
   -6.6013   -3.2326   25.4663 O   0  0  0  0  0  0  0  0  0  0  0  0
   -4.6466   -3.3665   24.4984 N   0  0  0  0  0  0  0  0  0  0  0  0
  1  2  1  0  0  0  0
  1  3  2  0  0  0  0
  4  1  1  1  0  0  0
  4  6  1  0  0  0  0
  4  5  1  0  0  0  0
  6  7  1  0  0  0  0
  7  8  1  0  0  0  0
  8  9  1  0  0  0  0
  9 10  1  0  0  0  0
 10 12  1  0  0  0  0
 10 11  2  0  0  0  0
M  CHG  2   2  -1   5   1
M  END
>  <CHROM.1>
104.79655450,100.04292950,78.53811398,-168.10914704,96.89524820,-3.96450428
-4.85389035,0.56774260,24.49965469,0.44414918,1.28098046,1.08658570

>  <Name>
1kod cryst

>  <RI>
0

>  <Rbt.Current_Directory>
/home/itssahil/PROJECTS/Mol_Feturizer/New_Systems/rnas/1kod

>  <Rbt.Executable>
rbdock ($Id: //depot/dev/client3/rdock/2013.1/src/exe/rbdock.cxx#4 $)

>  <Rbt.Library>
libRbt.so (2013.1, Build901 2013/11/27)

>  <Rbt.Parameter_File>
/export/apps/rDock/src/rDock_2013.1_src/data/scripts/dock_solv.prm

>  <Rbt.Receptor>
prm/blind_docking_100.prm

>  <SCORE>
-22.4514

>  <SCORE.INTER>
-20.4313

>  <SCORE.INTER.CONST>
1

>  <SCORE.INTER.POLAR>
-2.93419

>  <SCORE.INTER.ROT>
5

>  <SCORE.INTER.SOLV>
13.2054

>  <SCORE.INTER.VDW>
-15.1754

>  <SCORE.INTER.norm>
-1.70261

>  <SCORE.INTRA>
-2.02005

>  <SCORE.INTRA.DIHEDRAL>
3.39997

>  <SCORE.INTRA.DIHEDRAL.0>
7.7847

>  <SCORE.INTRA.POLAR>
0

>  <SCORE.INTRA.POLAR.0>
0

>  <SCORE.INTRA.REPUL>
0

>  <SCORE.INTRA.REPUL.0>
0

>  <SCORE.INTRA.SOLV>
-3.07017

>  <SCORE.INTRA.SOLV.lig_0>
-57.5465

>  <SCORE.INTRA.VDW>
-2.18495

>  <SCORE.INTRA.VDW.0>
1.39369

>  <SCORE.INTRA.norm>
-0.168338

>  <SCORE.RESTR>
0

>  <SCORE.RESTR.CAVITY>
0

>  <SCORE.RESTR.norm>
0

>  <SCORE.SYSTEM>
0

>  <SCORE.SYSTEM.CONST>
0

>  <SCORE.SYSTEM.DIHEDRAL>
0

>  <SCORE.SYSTEM.SOLV>
0

>  <SCORE.SYSTEM.norm>
0

>  <SCORE.heavy>
12

>  <SCORE.norm>
-1.87095

>  <SYMMETRIC_BONDS>
4 1 2

>  <RMSD>
12.341

$$$$
1kod cryst
 OpenBabel11021811393D
libRbt.so/2013.1/901 2013/11/27
 12 11  0  0  0  0  0  0  0  0999 V2000
   -6.5253   -2.5516   26.1767 C   0  0  0  0  0  0  0  0  0  0  0  0
   -7.3727   -1.9815   25.5056 O   0  5  0  0  0  0  0  0  0  0  0  0
   -6.5826   -2.6631   27.3949 O   0  0  0  0  0  0  0  0  0  0  0  0
   -5.3174   -3.1668   25.4426 C   0  0  1  0  0  0  0  0  0  0  0  0
   -5.7167   -4.4774   24.8447 N   0  3  0  0  0  0  0  0  0  0  0  0
   -4.8159   -2.2218   24.3256 C   0  0  0  0  0  0  0  0  0  0  0  0
   -4.0582   -1.0424   24.9212 C   0  0  0  0  0  0  0  0  0  0  0  0
   -2.8928   -1.5495   25.7678 C   0  0  0  0  0  0  0  0  0  0  0  0
   -2.1032   -0.3780   26.2605 N   0  0  0  0  0  0  0  0  0  0  0  0
   -2.7072    0.6882   26.7126 C   0  0  0  0  0  0  0  0  0  0  0  0
   -2.4402    1.7999   26.2615 O   0  0  0  0  0  0  0  0  0  0  0  0
   -3.5908    0.5784   27.6615 N   0  0  0  0  0  0  0  0  0  0  0  0
  1  2  1  0  0  0  0
  1  3  2  0  0  0  0
  4  1  1  6  0  0  0
  4  6  1  0  0  0  0
  4  5  1  0  0  0  0
  6  7  1  0  0  0  0
  7  8  1  0  0  0  0
  8  9  1  0  0  0  0
  9 10  1  0  0  0  0
 10 12  1  0  0  0  0
 10 11  2  0  0  0  0
M  CHG  2   2  -1   5   1
M  END
>  <CHROM.1>
-79.58273002,74.76026525,46.19866357,57.32954798,175.88874739,-137.25910702
-4.53177330,-1.42881513,25.95043635,2.40710468,-0.43250648,-2.45742251

>  <Name>
1kod cryst

>  <RI>
0

>  <Rbt.Current_Directory>
/home/itssahil/PROJECTS/Mol_Feturizer/New_Systems/rnas/1kod

>  <Rbt.Executable>
rbdock ($Id: //depot/dev/client3/rdock/2013.1/src/exe/rbdock.cxx#4 $)

>  <Rbt.Library>
libRbt.so (2013.1, Build901 2013/11/27)

>  <Rbt.Parameter_File>
/export/apps/rDock/src/rDock_2013.1_src/data/scripts/dock_solv.prm

>  <Rbt.Receptor>
prm/blind_docking_100.prm

>  <SCORE>
-24.9073

>  <SCORE.INTER>
-21.142

>  <SCORE.INTER.CONST>
1

>  <SCORE.INTER.POLAR>
-3.95914

>  <SCORE.INTER.ROT>
5

>  <SCORE.INTER.SOLV>
24.1729

>  <SCORE.INTER.VDW>
-15.8885

>  <SCORE.INTER.norm>
-1.76184

>  <SCORE.INTRA>
-3.76528

>  <SCORE.INTRA.DIHEDRAL>
-4.27247

>  <SCORE.INTRA.DIHEDRAL.0>
7.7847

>  <SCORE.INTRA.POLAR>
0

>  <SCORE.INTRA.POLAR.0>
0

>  <SCORE.INTRA.REPUL>
0

>  <SCORE.INTRA.REPUL.0>
0

>  <SCORE.INTRA.SOLV>
-1.89008

>  <SCORE.INTRA.SOLV.lig_0>
-57.5465

>  <SCORE.INTRA.VDW>
-0.683997

>  <SCORE.INTRA.VDW.0>
1.39369

>  <SCORE.INTRA.norm>
-0.313773

>  <SCORE.RESTR>
0

>  <SCORE.RESTR.CAVITY>
0

>  <SCORE.RESTR.norm>
0

>  <SCORE.SYSTEM>
0

>  <SCORE.SYSTEM.CONST>
0

>  <SCORE.SYSTEM.DIHEDRAL>
0

>  <SCORE.SYSTEM.SOLV>
0

>  <SCORE.SYSTEM.norm>
0

>  <SCORE.heavy>
12

>  <SCORE.norm>
-2.07561

>  <SYMMETRIC_BONDS>
4 1 2

>  <RMSD>
12.346

$$$$
1kod cryst
 OpenBabel11021811393D
libRbt.so/2013.1/901 2013/11/27
 12 11  0  0  0  0  0  0  0  0999 V2000
   -6.7750   -2.0477   25.6514 C   0  0  0  0  0  0  0  0  0  0  0  0
   -6.8081   -1.4883   24.5655 O   0  5  0  0  0  0  0  0  0  0  0  0
   -7.5948   -1.8573   26.5410 O   0  0  0  0  0  0  0  0  0  0  0  0
   -5.6349   -3.0522   25.9111 C   0  0  1  0  0  0  0  0  0  0  0  0
   -5.8647   -4.2834   25.0952 N   0  3  0  0  0  0  0  0  0  0  0  0
   -4.2661   -2.4353   25.5395 C   0  0  0  0  0  0  0  0  0  0  0  0
   -3.9026   -1.3154   26.5057 C   0  0  0  0  0  0  0  0  0  0  0  0
   -2.6048   -0.6462   26.0586 C   0  0  0  0  0  0  0  0  0  0  0  0
   -2.9110    0.7373   25.5782 N   0  0  0  0  0  0  0  0  0  0  0  0
   -3.1690    1.6945   26.4286 C   0  0  0  0  0  0  0  0  0  0  0  0
   -4.1936    2.3655   26.3268 O   0  0  0  0  0  0  0  0  0  0  0  0
   -2.3272    1.9539   27.3864 N   0  0  0  0  0  0  0  0  0  0  0  0
  1  2  1  0  0  0  0
  1  3  2  0  0  0  0
  4  1  1  6  0  0  0
  4  6  1  0  0  0  0
  4  5  1  0  0  0  0
  6  7  1  0  0  0  0
  7  8  1  0  0  0  0
  8  9  1  0  0  0  0
  9 10  1  0  0  0  0
 10 12  1  0  0  0  0
 10 11  2  0  0  0  0
M  CHG  2   2  -1   5   1
M  END
>  <CHROM.1>
-71.31248196,68.52708613,122.88589374,-175.53070071,110.88136986,-104.45371242
-4.69114967,-0.86958140,25.95354348,2.21191481,0.06490465,-2.95399408

>  <Name>
1kod cryst

>  <RI>
0

>  <Rbt.Current_Directory>
/home/itssahil/PROJECTS/Mol_Feturizer/New_Systems/rnas/1kod

>  <Rbt.Executable>
rbdock ($Id: //depot/dev/client3/rdock/2013.1/src/exe/rbdock.cxx#4 $)

>  <Rbt.Library>
libRbt.so (2013.1, Build901 2013/11/27)

>  <Rbt.Parameter_File>
/export/apps/rDock/src/rDock_2013.1_src/data/scripts/dock_solv.prm

>  <Rbt.Receptor>
prm/blind_docking_100.prm

>  <SCORE>
-23.9388

>  <SCORE.INTER>
-22.9562

>  <SCORE.INTER.CONST>
1

>  <SCORE.INTER.POLAR>
-3.5423

>  <SCORE.INTER.ROT>
5

>  <SCORE.INTER.SOLV>
20.8137

>  <SCORE.INTER.VDW>
-17.3677

>  <SCORE.INTER.norm>
-1.91302

>  <SCORE.INTRA>
-0.982585

>  <SCORE.INTRA.DIHEDRAL>
3.57625

>  <SCORE.INTRA.DIHEDRAL.0>
7.7847

>  <SCORE.INTRA.POLAR>
0

>  <SCORE.INTRA.POLAR.0>
0

>  <SCORE.INTRA.REPUL>
0

>  <SCORE.INTRA.REPUL.0>
0

>  <SCORE.INTRA.SOLV>
-2.48988

>  <SCORE.INTRA.SOLV.lig_0>
-57.5465

>  <SCORE.INTRA.VDW>
-1.52577

>  <SCORE.INTRA.VDW.0>
1.39369

>  <SCORE.INTRA.norm>
-0.0818821

>  <SCORE.RESTR>
0

>  <SCORE.RESTR.CAVITY>
0

>  <SCORE.RESTR.norm>
0

>  <SCORE.SYSTEM>
0

>  <SCORE.SYSTEM.CONST>
0

>  <SCORE.SYSTEM.DIHEDRAL>
0

>  <SCORE.SYSTEM.SOLV>
0

>  <SCORE.SYSTEM.norm>
0

>  <SCORE.heavy>
12

>  <SCORE.norm>
-1.9949

>  <SYMMETRIC_BONDS>
4 1 2

>  <RMSD>
12.355

$$$$
1kod cryst
 OpenBabel11021811393D
libRbt.so/2013.1/901 2013/11/27
 12 11  0  0  0  0  0  0  0  0999 V2000
   -5.7670   -1.7883   26.2605 C   0  0  0  0  0  0  0  0  0  0  0  0
   -6.1880   -2.1277   27.3564 O   0  5  0  0  0  0  0  0  0  0  0  0
   -6.3176   -0.9601   25.5459 O   0  0  0  0  0  0  0  0  0  0  0  0
   -4.4659   -2.4413   25.7536 C   0  0  1  0  0  0  0  0  0  0  0  0
   -4.5958   -2.7351   24.2936 N   0  3  0  0  0  0  0  0  0  0  0  0
   -3.2568   -1.5052   25.9856 C   0  0  0  0  0  0  0  0  0  0  0  0
   -3.3465   -0.2801   25.0850 C   0  0  0  0  0  0  0  0  0  0  0  0
   -3.1340    0.9867   25.9108 C   0  0  0  0  0  0  0  0  0  0  0  0
   -3.0134    2.1563   24.9856 N   0  0  0  0  0  0  0  0  0  0  0  0
   -3.7022    2.2007   23.8767 C   0  0  0  0  0  0  0  0  0  0  0  0
   -3.1446    2.3941   22.7986 O   0  0  0  0  0  0  0  0  0  0  0  0
   -4.9947    2.0544   23.9111 N   0  0  0  0  0  0  0  0  0  0  0  0
  1  2  1  0  0  0  0
  1  3  2  0  0  0  0
  4  1  1  6  0  0  0
  4  6  1  0  0  0  0
  4  5  1  0  0  0  0
  6  7  1  0  0  0  0
  7  8  1  0  0  0  0
  8  9  1  0  0  0  0
  9 10  1  0  0  0  0
 10 12  1  0  0  0  0
 10 11  2  0  0  0  0
M  CHG  2   2  -1   5   1
M  END
>  <CHROM.1>
139.73946848,-68.51263604,-73.44455594,130.56154836,171.29619505,-145.40141622
-4.35460037,-0.17104400,25.11437009,1.94714935,-0.19237977,2.75639483

>  <Name>
1kod cryst

>  <RI>
0

>  <Rbt.Current_Directory>
/home/itssahil/PROJECTS/Mol_Feturizer/New_Systems/rnas/1kod

>  <Rbt.Executable>
rbdock ($Id: //depot/dev/client3/rdock/2013.1/src/exe/rbdock.cxx#4 $)

>  <Rbt.Library>
libRbt.so (2013.1, Build901 2013/11/27)

>  <Rbt.Parameter_File>
/export/apps/rDock/src/rDock_2013.1_src/data/scripts/dock_solv.prm

>  <Rbt.Receptor>
prm/blind_docking_100.prm

>  <SCORE>
-17.3201

>  <SCORE.INTER>
-16.9565

>  <SCORE.INTER.CONST>
1

>  <SCORE.INTER.POLAR>
-3.16209

>  <SCORE.INTER.ROT>
5

>  <SCORE.INTER.SOLV>
15.7904

>  <SCORE.INTER.VDW>
-12.9609

>  <SCORE.INTER.norm>
-1.41304

>  <SCORE.INTRA>
-0.363623

>  <SCORE.INTRA.DIHEDRAL>
1.08392

>  <SCORE.INTRA.DIHEDRAL.0>
7.7847

>  <SCORE.INTRA.POLAR>
0

>  <SCORE.INTRA.POLAR.0>
0

>  <SCORE.INTRA.REPUL>
0

>  <SCORE.INTRA.REPUL.0>
0

>  <SCORE.INTRA.SOLV>
0.270014

>  <SCORE.INTRA.SOLV.lig_0>
-57.5465

>  <SCORE.INTRA.VDW>
-1.04059

>  <SCORE.INTRA.VDW.0>
1.39369

>  <SCORE.INTRA.norm>
-0.0303019

>  <SCORE.RESTR>
0

>  <SCORE.RESTR.CAVITY>
0

>  <SCORE.RESTR.norm>
0

>  <SCORE.SYSTEM>
0

>  <SCORE.SYSTEM.CONST>
0

>  <SCORE.SYSTEM.DIHEDRAL>
0

>  <SCORE.SYSTEM.SOLV>
0

>  <SCORE.SYSTEM.norm>
0

>  <SCORE.heavy>
12

>  <SCORE.norm>
-1.44335

>  <SYMMETRIC_BONDS>
4 1 2

>  <RMSD>
12.356

$$$$
1kod cryst
 OpenBabel11021811393D
libRbt.so/2013.1/901 2013/11/27
 12 11  0  0  0  0  0  0  0  0999 V2000
   -5.9230    3.0020   24.5064 C   0  0  0  0  0  0  0  0  0  0  0  0
   -6.6579    3.5454   23.6954 O   0  5  0  0  0  0  0  0  0  0  0  0
   -6.1363    2.9812   25.7122 O   0  0  0  0  0  0  0  0  0  0  0  0
   -4.6565    2.3011   23.9762 C   0  0  1  0  0  0  0  0  0  0  0  0
   -3.4496    3.0786   24.3925 N   0  3  0  0  0  0  0  0  0  0  0  0
   -4.5568    0.8595   24.5277 C   0  0  0  0  0  0  0  0  0  0  0  0
   -4.7264   -0.1567   23.4059 C   0  0  0  0  0  0  0  0  0  0  0  0
   -5.4655   -1.3866   23.9283 C   0  0  0  0  0  0  0  0  0  0  0  0
   -4.5957   -2.0921   24.9205 N   0  0  0  0  0  0  0  0  0  0  0  0
   -5.0924   -2.5323   26.0455 C   0  0  0  0  0  0  0  0  0  0  0  0
   -4.5832   -2.2227   27.1204 O   0  0  0  0  0  0  0  0  0  0  0  0
   -6.1281   -3.3198   26.0318 N   0  0  0  0  0  0  0  0  0  0  0  0
  1  2  1  0  0  0  0
  1  3  2  0  0  0  0
  4  1  1  1  0  0  0
  4  6  1  0  0  0  0
  4  5  1  0  0  0  0
  6  7  1  0  0  0  0
  7  8  1  0  0  0  0
  8  9  1  0  0  0  0
  9 10  1  0  0  0  0
 10 12  1  0  0  0  0
 10 11  2  0  0  0  0
M  CHG  2   2  -1   5   1
M  END
>  <CHROM.1>
109.92378304,112.89351462,59.69142846,-145.09009435,-66.90322806,-44.10788919
-5.15319592,0.35655862,24.87897854,1.60226967,0.70347731,-0.27909312

>  <Name>
1kod cryst

>  <RI>
0

>  <Rbt.Current_Directory>
/home/itssahil/PROJECTS/Mol_Feturizer/New_Systems/rnas/1kod

>  <Rbt.Executable>
rbdock ($Id: //depot/dev/client3/rdock/2013.1/src/exe/rbdock.cxx#4 $)

>  <Rbt.Library>
libRbt.so (2013.1, Build901 2013/11/27)

>  <Rbt.Parameter_File>
/export/apps/rDock/src/rDock_2013.1_src/data/scripts/dock_solv.prm

>  <Rbt.Receptor>
prm/blind_docking_60.prm

>  <SCORE>
-23.6312

>  <SCORE.INTER>
-21.4376

>  <SCORE.INTER.CONST>
1

>  <SCORE.INTER.POLAR>
-3.65194

>  <SCORE.INTER.ROT>
5

>  <SCORE.INTER.SOLV>
11.4352

>  <SCORE.INTER.VDW>
-12.8637

>  <SCORE.INTER.norm>
-1.78647

>  <SCORE.INTRA>
-2.19357

>  <SCORE.INTRA.DIHEDRAL>
3.43016

>  <SCORE.INTRA.DIHEDRAL.0>
7.7847

>  <SCORE.INTRA.POLAR>
0

>  <SCORE.INTRA.POLAR.0>
0

>  <SCORE.INTRA.REPUL>
0

>  <SCORE.INTRA.REPUL.0>
0

>  <SCORE.INTRA.SOLV>
-2.77499

>  <SCORE.INTRA.SOLV.lig_0>
-57.5465

>  <SCORE.INTRA.VDW>
-2.52116

>  <SCORE.INTRA.VDW.0>
1.39369

>  <SCORE.INTRA.norm>
-0.182798

>  <SCORE.RESTR>
0

>  <SCORE.RESTR.CAVITY>
0

>  <SCORE.RESTR.norm>
0

>  <SCORE.SYSTEM>
0

>  <SCORE.SYSTEM.CONST>
0

>  <SCORE.SYSTEM.DIHEDRAL>
0

>  <SCORE.SYSTEM.SOLV>
0

>  <SCORE.SYSTEM.norm>
0

>  <SCORE.heavy>
12

>  <SCORE.norm>
-1.96926

>  <SYMMETRIC_BONDS>
4 1 2

>  <RMSD>
12.357

$$$$
1kod cryst
 OpenBabel11021811393D
libRbt.so/2013.1/901 2013/11/27
 12 11  0  0  0  0  0  0  0  0999 V2000
   -4.9042    2.0930   25.2935 C   0  0  0  0  0  0  0  0  0  0  0  0
   -6.0713    2.3321   25.5656 O   0  5  0  0  0  0  0  0  0  0  0  0
   -4.0044    2.0594   26.1235 O   0  0  0  0  0  0  0  0  0  0  0  0
   -4.5492    1.8158   23.8193 C   0  0  1  0  0  0  0  0  0  0  0  0
   -3.4618    2.7466   23.3886 N   0  3  0  0  0  0  0  0  0  0  0  0
   -4.0797    0.3537   23.6345 C   0  0  0  0  0  0  0  0  0  0  0  0
   -5.2704   -0.5961   23.6362 C   0  0  0  0  0  0  0  0  0  0  0  0
   -4.7949   -2.0226   23.9024 C   0  0  0  0  0  0  0  0  0  0  0  0
   -4.9987   -2.3415   25.3499 N   0  0  0  0  0  0  0  0  0  0  0  0
   -5.9157   -3.1947   25.7202 C   0  0  0  0  0  0  0  0  0  0  0  0
   -6.7571   -2.8865   26.5614 O   0  0  0  0  0  0  0  0  0  0  0  0
   -5.9330   -4.3901   25.2065 N   0  0  0  0  0  0  0  0  0  0  0  0
  1  2  1  0  0  0  0
  1  3  2  0  0  0  0
  4  1  1  1  0  0  0
  4  6  1  0  0  0  0
  4  5  1  0  0  0  0
  6  7  1  0  0  0  0
  7  8  1  0  0  0  0
  8  9  1  0  0  0  0
  9 10  1  0  0  0  0
 10 12  1  0  0  0  0
 10 11  2  0  0  0  0
M  CHG  2   2  -1   5   1
M  END
>  <CHROM.1>
125.32453823,77.22354416,71.38506446,-161.98970143,98.40502081,-70.23500204
-5.04987196,-0.31882796,24.86449574,1.04684682,1.01632277,0.28487352

>  <Name>
1kod cryst

>  <RI>
0

>  <Rbt.Current_Directory>
/home/itssahil/PROJECTS/Mol_Feturizer/New_Systems/rnas/1kod

>  <Rbt.Executable>
rbdock ($Id: //depot/dev/client3/rdock/2013.1/src/exe/rbdock.cxx#4 $)

>  <Rbt.Library>
libRbt.so (2013.1, Build901 2013/11/27)

>  <Rbt.Parameter_File>
/export/apps/rDock/src/rDock_2013.1_src/data/scripts/dock_solv.prm

>  <Rbt.Receptor>
prm/blind_docking_60.prm

>  <SCORE>
-24.8746

>  <SCORE.INTER>
-21.2417

>  <SCORE.INTER.CONST>
1

>  <SCORE.INTER.POLAR>
-2.92565

>  <SCORE.INTER.ROT>
5

>  <SCORE.INTER.SOLV>
12.8861

>  <SCORE.INTER.VDW>
-15.6377

>  <SCORE.INTER.norm>
-1.77014

>  <SCORE.INTRA>
-3.63287

>  <SCORE.INTRA.DIHEDRAL>
0.938405

>  <SCORE.INTRA.DIHEDRAL.0>
7.7847

>  <SCORE.INTRA.POLAR>
0

>  <SCORE.INTRA.POLAR.0>
0

>  <SCORE.INTRA.REPUL>
0

>  <SCORE.INTRA.REPUL.0>
0

>  <SCORE.INTRA.SOLV>
-2.65028

>  <SCORE.INTRA.SOLV.lig_0>
-57.5465

>  <SCORE.INTRA.VDW>
-2.77693

>  <SCORE.INTRA.VDW.0>
1.39369

>  <SCORE.INTRA.norm>
-0.302739

>  <SCORE.RESTR>
0

>  <SCORE.RESTR.CAVITY>
0

>  <SCORE.RESTR.norm>
0

>  <SCORE.SYSTEM>
0

>  <SCORE.SYSTEM.CONST>
0

>  <SCORE.SYSTEM.DIHEDRAL>
0

>  <SCORE.SYSTEM.SOLV>
0

>  <SCORE.SYSTEM.norm>
0

>  <SCORE.heavy>
12

>  <SCORE.norm>
-2.07288

>  <SYMMETRIC_BONDS>
4 1 2

>  <RMSD>
12.380

$$$$
1kod cryst
 OpenBabel11021811393D
libRbt.so/2013.1/901 2013/11/27
 12 11  0  0  0  0  0  0  0  0999 V2000
   -4.8566    1.8970   25.6298 C   0  0  0  0  0  0  0  0  0  0  0  0
   -4.6237    3.0315   25.2397 O   0  5  0  0  0  0  0  0  0  0  0  0
   -4.2505    1.3534   26.5446 O   0  0  0  0  0  0  0  0  0  0  0  0
   -5.9810    1.1096   24.9285 C   0  0  1  0  0  0  0  0  0  0  0  0
   -7.2471    1.9027   24.9800 N   0  3  0  0  0  0  0  0  0  0  0  0
   -5.6116    0.8230   23.4541 C   0  0  0  0  0  0  0  0  0  0  0  0
   -4.3981   -0.0940   23.3739 C   0  0  0  0  0  0  0  0  0  0  0  0
   -4.8249   -1.5404   23.6138 C   0  0  0  0  0  0  0  0  0  0  0  0
   -5.1147   -1.7273   25.0698 N   0  0  0  0  0  0  0  0  0  0  0  0
   -5.7884   -2.7661   25.4856 C   0  0  0  0  0  0  0  0  0  0  0  0
   -6.7846   -2.6268   26.1918 O   0  0  0  0  0  0  0  0  0  0  0  0
   -5.3952   -3.9640   25.1636 N   0  0  0  0  0  0  0  0  0  0  0  0
  1  2  1  0  0  0  0
  1  3  2  0  0  0  0
  4  1  1  6  0  0  0
  4  6  1  0  0  0  0
  4  5  1  0  0  0  0
  6  7  1  0  0  0  0
  7  8  1  0  0  0  0
  8  9  1  0  0  0  0
  9 10  1  0  0  0  0
 10 12  1  0  0  0  0
 10 11  2  0  0  0  0
M  CHG  2   2  -1   5   1
M  END
>  <CHROM.1>
-55.27115982,64.68181396,-172.88193287,79.50049799,-74.29288922,-16.12643751
-5.42975720,-0.20551068,24.99961929,1.43878914,0.99166857,0.09887086

>  <Name>
1kod cryst

>  <RI>
0

>  <Rbt.Current_Directory>
/home/itssahil/PROJECTS/Mol_Feturizer/New_Systems/rnas/1kod

>  <Rbt.Executable>
rbdock ($Id: //depot/dev/client3/rdock/2013.1/src/exe/rbdock.cxx#4 $)

>  <Rbt.Library>
libRbt.so (2013.1, Build901 2013/11/27)

>  <Rbt.Parameter_File>
/export/apps/rDock/src/rDock_2013.1_src/data/scripts/dock_solv.prm

>  <Rbt.Receptor>
prm/blind_docking_100.prm

>  <SCORE>
-21.3976

>  <SCORE.INTER>
-17.1284

>  <SCORE.INTER.CONST>
1

>  <SCORE.INTER.POLAR>
-2.40673

>  <SCORE.INTER.ROT>
5

>  <SCORE.INTER.SOLV>
8.93464

>  <SCORE.INTER.VDW>
-13.3081

>  <SCORE.INTER.norm>
-1.42737

>  <SCORE.INTRA>
-4.26924

>  <SCORE.INTRA.DIHEDRAL>
-3.1428

>  <SCORE.INTRA.DIHEDRAL.0>
7.7847

>  <SCORE.INTRA.POLAR>
0

>  <SCORE.INTRA.POLAR.0>
0

>  <SCORE.INTRA.REPUL>
0

>  <SCORE.INTRA.REPUL.0>
0

>  <SCORE.INTRA.SOLV>
-0.532262

>  <SCORE.INTRA.SOLV.lig_0>
-57.5465

>  <SCORE.INTRA.VDW>
-2.43171

>  <SCORE.INTRA.VDW.0>
1.39369

>  <SCORE.INTRA.norm>
-0.35577

>  <SCORE.RESTR>
0

>  <SCORE.RESTR.CAVITY>
0

>  <SCORE.RESTR.norm>
0

>  <SCORE.SYSTEM>
0

>  <SCORE.SYSTEM.CONST>
0

>  <SCORE.SYSTEM.DIHEDRAL>
0

>  <SCORE.SYSTEM.SOLV>
0

>  <SCORE.SYSTEM.norm>
0

>  <SCORE.heavy>
12

>  <SCORE.norm>
-1.78314

>  <SYMMETRIC_BONDS>
4 1 2

>  <RMSD>
12.404

$$$$
1kod cryst
 OpenBabel11021811393D
libRbt.so/2013.1/901 2013/11/27
 12 11  0  0  0  0  0  0  0  0999 V2000
   -5.0025    2.1809   25.2501 C   0  0  0  0  0  0  0  0  0  0  0  0
   -4.1269    2.3147   26.0920 O   0  5  0  0  0  0  0  0  0  0  0  0
   -6.1971    2.3179   25.4820 O   0  0  0  0  0  0  0  0  0  0  0  0
   -4.5734    1.8215   23.8137 C   0  0  1  0  0  0  0  0  0  0  0  0
   -3.4761    2.7396   23.3806 N   0  3  0  0  0  0  0  0  0  0  0  0
   -4.0802    0.3574   23.7396 C   0  0  0  0  0  0  0  0  0  0  0  0
   -5.2603   -0.6030   23.6691 C   0  0  0  0  0  0  0  0  0  0  0  0
   -4.7887   -2.0256   23.9621 C   0  0  0  0  0  0  0  0  0  0  0  0
   -5.0211   -2.3271   25.4090 N   0  0  0  0  0  0  0  0  0  0  0  0
   -5.9319   -3.1908   25.7703 C   0  0  0  0  0  0  0  0  0  0  0  0
   -6.7981   -2.8854   26.5869 O   0  0  0  0  0  0  0  0  0  0  0  0
   -5.9165   -4.3936   25.2740 N   0  0  0  0  0  0  0  0  0  0  0  0
  1  2  1  0  0  0  0
  1  3  2  0  0  0  0
  4  1  1  1  0  0  0
  4  6  1  0  0  0  0
  4  5  1  0  0  0  0
  6  7  1  0  0  0  0
  7  8  1  0  0  0  0
  8  9  1  0  0  0  0
  9 10  1  0  0  0  0
 10 12  1  0  0  0  0
 10 11  2  0  0  0  0
M  CHG  2   2  -1   5   1
M  END
>  <CHROM.1>
-48.87072434,80.12495486,-43.50798898,-165.30020510,95.95411384,-69.27814754
-5.08643929,-0.29023750,24.88275756,1.10216539,0.97765553,0.21971221

>  <Name>
1kod cryst

>  <RI>
0

>  <Rbt.Current_Directory>
/home/itssahil/PROJECTS/Mol_Feturizer/New_Systems/rnas/1kod

>  <Rbt.Executable>
rbdock ($Id: //depot/dev/client3/rdock/2013.1/src/exe/rbdock.cxx#4 $)

>  <Rbt.Library>
libRbt.so (2013.1, Build901 2013/11/27)

>  <Rbt.Parameter_File>
/export/apps/rDock/src/rDock_2013.1_src/data/scripts/dock_solv.prm

>  <Rbt.Receptor>
prm/blind_docking_60.prm

>  <SCORE>
-24.852

>  <SCORE.INTER>
-21.2178

>  <SCORE.INTER.CONST>
1

>  <SCORE.INTER.POLAR>
-2.97976

>  <SCORE.INTER.ROT>
5

>  <SCORE.INTER.SOLV>
12.9287

>  <SCORE.INTER.VDW>
-15.4555

>  <SCORE.INTER.norm>
-1.76815

>  <SCORE.INTRA>
-3.63426

>  <SCORE.INTRA.DIHEDRAL>
0.851769

>  <SCORE.INTRA.DIHEDRAL.0>
7.7847

>  <SCORE.INTRA.POLAR>
0

>  <SCORE.INTRA.POLAR.0>
0

>  <SCORE.INTRA.REPUL>
0

>  <SCORE.INTRA.REPUL.0>
0

>  <SCORE.INTRA.SOLV>
-2.6836

>  <SCORE.INTRA.SOLV.lig_0>
-57.5465

>  <SCORE.INTRA.VDW>
-2.71835

>  <SCORE.INTRA.VDW.0>
1.39369

>  <SCORE.INTRA.norm>
-0.302855

>  <SCORE.RESTR>
0

>  <SCORE.RESTR.CAVITY>
0

>  <SCORE.RESTR.norm>
0

>  <SCORE.SYSTEM>
0

>  <SCORE.SYSTEM.CONST>
0

>  <SCORE.SYSTEM.DIHEDRAL>
0

>  <SCORE.SYSTEM.SOLV>
0

>  <SCORE.SYSTEM.norm>
0

>  <SCORE.heavy>
12

>  <SCORE.norm>
-2.071

>  <SYMMETRIC_BONDS>
4 1 2

>  <RMSD>
12.411

$$$$
1kod cryst
 OpenBabel11021811393D
libRbt.so/2013.1/901 2013/11/27
 12 11  0  0  0  0  0  0  0  0999 V2000
   -5.4978   -0.8295   26.9608 C   0  0  0  0  0  0  0  0  0  0  0  0
   -5.5913    0.1655   27.6641 O   0  5  0  0  0  0  0  0  0  0  0  0
   -6.3558   -1.7008   26.8957 O   0  0  0  0  0  0  0  0  0  0  0  0
   -4.2253   -0.9917   26.1059 C   0  0  1  0  0  0  0  0  0  0  0  0
   -3.8787   -2.4423   26.0047 N   0  3  0  0  0  0  0  0  0  0  0  0
   -4.4407   -0.4128   24.6879 C   0  0  0  0  0  0  0  0  0  0  0  0
   -3.4614    0.7221   24.4176 C   0  0  0  0  0  0  0  0  0  0  0  0
   -3.8480    1.4440   23.1288 C   0  0  0  0  0  0  0  0  0  0  0  0
   -2.8935    2.5729   22.8982 N   0  0  0  0  0  0  0  0  0  0  0  0
   -3.3131    3.8098   22.9024 C   0  0  0  0  0  0  0  0  0  0  0  0
   -3.0733    4.5574   21.9568 O   0  0  0  0  0  0  0  0  0  0  0  0
   -3.9794    4.2639   23.9236 N   0  0  0  0  0  0  0  0  0  0  0  0
  1  2  1  0  0  0  0
  1  3  2  0  0  0  0
  4  1  1  1  0  0  0
  4  6  1  0  0  0  0
  4  5  1  0  0  0  0
  6  7  1  0  0  0  0
  7  8  1  0  0  0  0
  8  9  1  0  0  0  0
  9 10  1  0  0  0  0
 10 12  1  0  0  0  0
 10 11  2  0  0  0  0
M  CHG  2   2  -1   5   1
M  END
>  <CHROM.1>
146.06817381,119.12338490,171.02213611,-169.80611103,178.73059537,63.68010817
-4.21567519,0.91538310,24.81219624,2.04129374,-0.91068077,2.87474987

>  <Name>
1kod cryst

>  <RI>
0

>  <Rbt.Current_Directory>
/home/itssahil/PROJECTS/Mol_Feturizer/New_Systems/rnas/1kod

>  <Rbt.Executable>
rbdock ($Id: //depot/dev/client3/rdock/2013.1/src/exe/rbdock.cxx#4 $)

>  <Rbt.Library>
libRbt.so (2013.1, Build901 2013/11/27)

>  <Rbt.Parameter_File>
/export/apps/rDock/src/rDock_2013.1_src/data/scripts/dock_solv.prm

>  <Rbt.Receptor>
prm/blind_docking_100.prm

>  <SCORE>
-23.187

>  <SCORE.INTER>
-19.0791

>  <SCORE.INTER.CONST>
1

>  <SCORE.INTER.POLAR>
-3.37271

>  <SCORE.INTER.ROT>
5

>  <SCORE.INTER.SOLV>
16.8811

>  <SCORE.INTER.VDW>
-14.0374

>  <SCORE.INTER.norm>
-1.58993

>  <SCORE.INTRA>
-4.10794

>  <SCORE.INTRA.DIHEDRAL>
0.212592

>  <SCORE.INTRA.DIHEDRAL.0>
7.7847

>  <SCORE.INTRA.POLAR>
0

>  <SCORE.INTRA.POLAR.0>
0

>  <SCORE.INTRA.REPUL>
0

>  <SCORE.INTRA.REPUL.0>
0

>  <SCORE.INTRA.SOLV>
-2.86412

>  <SCORE.INTRA.SOLV.lig_0>
-57.5465

>  <SCORE.INTRA.VDW>
-2.78218

>  <SCORE.INTRA.VDW.0>
1.39369

>  <SCORE.INTRA.norm>
-0.342328

>  <SCORE.RESTR>
0

>  <SCORE.RESTR.CAVITY>
0

>  <SCORE.RESTR.norm>
0

>  <SCORE.SYSTEM>
0

>  <SCORE.SYSTEM.CONST>
0

>  <SCORE.SYSTEM.DIHEDRAL>
0

>  <SCORE.SYSTEM.SOLV>
0

>  <SCORE.SYSTEM.norm>
0

>  <SCORE.heavy>
12

>  <SCORE.norm>
-1.93225

>  <SYMMETRIC_BONDS>
4 1 2

>  <RMSD>
12.453

$$$$
1kod cryst
 OpenBabel11021811393D
libRbt.so/2013.1/901 2013/11/27
 12 11  0  0  0  0  0  0  0  0999 V2000
   -6.0371   -2.1677   26.1579 C   0  0  0  0  0  0  0  0  0  0  0  0
   -6.9201   -1.7704   25.4124 O   0  5  0  0  0  0  0  0  0  0  0  0
   -6.2377   -2.5735   27.2958 O   0  0  0  0  0  0  0  0  0  0  0  0
   -4.5887   -2.1581   25.6303 C   0  0  1  0  0  0  0  0  0  0  0  0
   -4.4713   -3.1167   24.4893 N   0  3  0  0  0  0  0  0  0  0  0  0
   -4.1876   -0.7413   25.1570 C   0  0  0  0  0  0  0  0  0  0  0  0
   -3.7754    0.1231   26.3414 C   0  0  0  0  0  0  0  0  0  0  0  0
   -3.8917    1.5998   25.9704 C   0  0  0  0  0  0  0  0  0  0  0  0
   -3.0637    1.8623   24.7522 N   0  0  0  0  0  0  0  0  0  0  0  0
   -3.6321    2.1066   23.6018 C   0  0  0  0  0  0  0  0  0  0  0  0
   -3.3349    1.4542   22.6036 O   0  0  0  0  0  0  0  0  0  0  0  0
   -4.5119    3.0604   23.5040 N   0  0  0  0  0  0  0  0  0  0  0  0
  1  2  1  0  0  0  0
  1  3  2  0  0  0  0
  4  1  1  6  0  0  0
  4  6  1  0  0  0  0
  4  5  1  0  0  0  0
  6  7  1  0  0  0  0
  7  8  1  0  0  0  0
  8  9  1  0  0  0  0
  9 10  1  0  0  0  0
 10 12  1  0  0  0  0
 10 11  2  0  0  0  0
M  CHG  2   2  -1   5   1
M  END
>  <CHROM.1>
-64.77093980,81.25703347,-81.66689510,-158.81723521,-56.25116918,-71.20689382
-4.56692334,-0.21290108,25.04428279,2.68550771,-1.14109799,-2.50333879

>  <Name>
1kod cryst

>  <RI>
0

>  <Rbt.Current_Directory>
/home/itssahil/PROJECTS/Mol_Feturizer/New_Systems/rnas/1kod

>  <Rbt.Executable>
rbdock ($Id: //depot/dev/client3/rdock/2013.1/src/exe/rbdock.cxx#4 $)

>  <Rbt.Library>
libRbt.so (2013.1, Build901 2013/11/27)

>  <Rbt.Parameter_File>
/export/apps/rDock/src/rDock_2013.1_src/data/scripts/dock_solv.prm

>  <Rbt.Receptor>
prm/blind_docking_100.prm

>  <SCORE>
-26.7939

>  <SCORE.INTER>
-22.7931

>  <SCORE.INTER.CONST>
1

>  <SCORE.INTER.POLAR>
-5.27017

>  <SCORE.INTER.ROT>
5

>  <SCORE.INTER.SOLV>
19.4215

>  <SCORE.INTER.VDW>
-11.0353

>  <SCORE.INTER.norm>
-1.89943

>  <SCORE.INTRA>
-4.00078

>  <SCORE.INTRA.DIHEDRAL>
-1.32409

>  <SCORE.INTRA.DIHEDRAL.0>
7.7847

>  <SCORE.INTRA.POLAR>
0

>  <SCORE.INTRA.POLAR.0>
0

>  <SCORE.INTRA.REPUL>
0

>  <SCORE.INTRA.REPUL.0>
0

>  <SCORE.INTRA.SOLV>
-2.18045

>  <SCORE.INTRA.SOLV.lig_0>
-57.5465

>  <SCORE.INTRA.VDW>
-2.24851

>  <SCORE.INTRA.VDW.0>
1.39369

>  <SCORE.INTRA.norm>
-0.333399

>  <SCORE.RESTR>
0

>  <SCORE.RESTR.CAVITY>
0

>  <SCORE.RESTR.norm>
0

>  <SCORE.SYSTEM>
0

>  <SCORE.SYSTEM.CONST>
0

>  <SCORE.SYSTEM.DIHEDRAL>
0

>  <SCORE.SYSTEM.SOLV>
0

>  <SCORE.SYSTEM.norm>
0

>  <SCORE.heavy>
12

>  <SCORE.norm>
-2.23282

>  <SYMMETRIC_BONDS>
4 1 2

>  <RMSD>
12.552

$$$$
1kod cryst
 OpenBabel11021811393D
libRbt.so/2013.1/901 2013/11/27
 12 11  0  0  0  0  0  0  0  0999 V2000
   -3.9727   -2.1330   26.2667 C   0  0  0  0  0  0  0  0  0  0  0  0
   -2.8968   -2.6519   26.5247 O   0  5  0  0  0  0  0  0  0  0  0  0
   -4.8351   -1.9004   27.1045 O   0  0  0  0  0  0  0  0  0  0  0  0
   -4.2552   -1.7483   24.8010 C   0  0  1  0  0  0  0  0  0  0  0  0
   -4.7356   -2.9526   24.0570 N   0  3  0  0  0  0  0  0  0  0  0  0
   -5.3247   -0.6337   24.7236 C   0  0  0  0  0  0  0  0  0  0  0  0
   -5.4094   -0.0689   23.3116 C   0  0  0  0  0  0  0  0  0  0  0  0
   -4.2039    0.8281   23.0393 C   0  0  0  0  0  0  0  0  0  0  0  0
   -4.5298    2.2245   23.4663 N   0  0  0  0  0  0  0  0  0  0  0  0
   -4.2015    2.6494   24.6570 C   0  0  0  0  0  0  0  0  0  0  0  0
   -5.0435    3.1503   25.3991 O   0  0  0  0  0  0  0  0  0  0  0  0
   -2.9677    2.5571   25.0600 N   0  0  0  0  0  0  0  0  0  0  0  0
  1  2  1  0  0  0  0
  1  3  2  0  0  0  0
  4  1  1  1  0  0  0
  4  6  1  0  0  0  0
  4  5  1  0  0  0  0
  6  7  1  0  0  0  0
  7  8  1  0  0  0  0
  8  9  1  0  0  0  0
  9 10  1  0  0  0  0
 10 12  1  0  0  0  0
 10 11  2  0  0  0  0
M  CHG  2   2  -1   5   1
M  END
>  <CHROM.1>
82.48914122,169.10001441,-49.56634917,-74.64480165,-88.92022241,-85.69453277
-4.35858161,-0.07653717,24.87976790,-1.49693107,-1.20281195,-0.19734519

>  <Name>
1kod cryst

>  <RI>
0

>  <Rbt.Current_Directory>
/home/itssahil/PROJECTS/Mol_Feturizer/New_Systems/rnas/1kod

>  <Rbt.Executable>
rbdock ($Id: //depot/dev/client3/rdock/2013.1/src/exe/rbdock.cxx#4 $)

>  <Rbt.Library>
libRbt.so (2013.1, Build901 2013/11/27)

>  <Rbt.Parameter_File>
/export/apps/rDock/src/rDock_2013.1_src/data/scripts/dock_solv.prm

>  <Rbt.Receptor>
prm/blind_docking_60.prm

>  <SCORE>
-28.7282

>  <SCORE.INTER>
-25.6221

>  <SCORE.INTER.CONST>
1

>  <SCORE.INTER.POLAR>
-5.67907

>  <SCORE.INTER.ROT>
5

>  <SCORE.INTER.SOLV>
21.5892

>  <SCORE.INTER.VDW>
-12.2809

>  <SCORE.INTER.norm>
-2.13517

>  <SCORE.INTRA>
-3.56132

>  <SCORE.INTRA.DIHEDRAL>
-1.40847

>  <SCORE.INTRA.DIHEDRAL.0>
7.7847

>  <SCORE.INTRA.POLAR>
0

>  <SCORE.INTRA.POLAR.0>
0

>  <SCORE.INTRA.REPUL>
0

>  <SCORE.INTRA.REPUL.0>
0

>  <SCORE.INTRA.SOLV>
-1.69794

>  <SCORE.INTRA.SOLV.lig_0>
-57.5465

>  <SCORE.INTRA.VDW>
-2.00811

>  <SCORE.INTRA.VDW.0>
1.39369

>  <SCORE.INTRA.norm>
-0.296776

>  <SCORE.RESTR>
0.455211

>  <SCORE.RESTR.CAVITY>
0.455211

>  <SCORE.RESTR.norm>
0.0379343

>  <SCORE.SYSTEM>
0

>  <SCORE.SYSTEM.CONST>
0

>  <SCORE.SYSTEM.DIHEDRAL>
0

>  <SCORE.SYSTEM.SOLV>
0

>  <SCORE.SYSTEM.norm>
0

>  <SCORE.heavy>
12

>  <SCORE.norm>
-2.39402

>  <SYMMETRIC_BONDS>
4 1 2

>  <RMSD>
12.586

$$$$
1kod cryst
 OpenBabel11021811393D
libRbt.so/2013.1/901 2013/11/27
 12 11  0  0  0  0  0  0  0  0999 V2000
   -3.9732   -1.3240   26.4828 C   0  0  0  0  0  0  0  0  0  0  0  0
   -4.1670   -1.9466   27.5163 O   0  5  0  0  0  0  0  0  0  0  0  0
   -2.9186   -0.7630   26.2130 O   0  0  0  0  0  0  0  0  0  0  0  0
   -5.1250   -1.2451   25.4613 C   0  0  1  0  0  0  0  0  0  0  0  0
   -4.5690   -1.3617   24.0786 N   0  3  0  0  0  0  0  0  0  0  0  0
   -6.1495   -2.3785   25.7024 C   0  0  0  0  0  0  0  0  0  0  0  0
   -7.0341   -2.0559   26.8996 C   0  0  0  0  0  0  0  0  0  0  0  0
   -7.8754   -3.2765   27.2660 C   0  0  0  0  0  0  0  0  0  0  0  0
   -8.3950   -3.1092   28.6591 N   0  0  0  0  0  0  0  0  0  0  0  0
   -9.2054   -2.1280   28.9531 C   0  0  0  0  0  0  0  0  0  0  0  0
   -8.9541   -1.3629   29.8816 O   0  0  0  0  0  0  0  0  0  0  0  0
  -10.2994   -1.9644   28.2678 N   0  0  0  0  0  0  0  0  0  0  0  0
  1  2  1  0  0  0  0
  1  3  2  0  0  0  0
  4  1  1  1  0  0  0
  4  6  1  0  0  0  0
  4  5  1  0  0  0  0
  6  7  1  0  0  0  0
  7  8  1  0  0  0  0
  8  9  1  0  0  0  0
  9 10  1  0  0  0  0
 10 12  1  0  0  0  0
 10 11  2  0  0  0  0
M  CHG  2   2  -1   5   1
M  END
>  <CHROM.1>
-140.84387847,76.74245611,169.83782056,-170.58203197,162.17917293,-117.07126483
-6.54218559,-1.90049543,27.10178747,-0.51417507,0.23194507,1.45893615

>  <Name>
1kod cryst

>  <RI>
0

>  <Rbt.Current_Directory>
/home/itssahil/PROJECTS/Mol_Feturizer/New_Systems/rnas/1kod

>  <Rbt.Executable>
rbdock ($Id: //depot/dev/client3/rdock/2013.1/src/exe/rbdock.cxx#4 $)

>  <Rbt.Library>
libRbt.so (2013.1, Build901 2013/11/27)

>  <Rbt.Parameter_File>
/export/apps/rDock/src/rDock_2013.1_src/data/scripts/dock_solv.prm

>  <Rbt.Receptor>
prm/blind_docking_40.prm

>  <SCORE>
-31.5003

>  <SCORE.INTER>
-27.8334

>  <SCORE.INTER.CONST>
1

>  <SCORE.INTER.POLAR>
-5.55291

>  <SCORE.INTER.ROT>
5

>  <SCORE.INTER.SOLV>
19.5007

>  <SCORE.INTER.VDW>
-13.4795

>  <SCORE.INTER.norm>
-2.31945

>  <SCORE.INTRA>
-3.66687

>  <SCORE.INTRA.DIHEDRAL>
-2.88713

>  <SCORE.INTRA.DIHEDRAL.0>
7.7847

>  <SCORE.INTRA.POLAR>
0

>  <SCORE.INTRA.POLAR.0>
0

>  <SCORE.INTRA.REPUL>
0

>  <SCORE.INTRA.REPUL.0>
0

>  <SCORE.INTRA.SOLV>
-2.08065

>  <SCORE.INTRA.SOLV.lig_0>
-57.5465

>  <SCORE.INTRA.VDW>
-1.18298

>  <SCORE.INTRA.VDW.0>
1.39369

>  <SCORE.INTRA.norm>
-0.305573

>  <SCORE.RESTR>
0

>  <SCORE.RESTR.CAVITY>
0

>  <SCORE.RESTR.norm>
0

>  <SCORE.SYSTEM>
0

>  <SCORE.SYSTEM.CONST>
0

>  <SCORE.SYSTEM.DIHEDRAL>
0

>  <SCORE.SYSTEM.SOLV>
0

>  <SCORE.SYSTEM.norm>
0

>  <SCORE.heavy>
12

>  <SCORE.norm>
-2.62502

>  <SYMMETRIC_BONDS>
4 1 2

>  <RMSD>
12.614

$$$$
1kod cryst
 OpenBabel11021811393D
libRbt.so/2013.1/901 2013/11/27
 12 11  0  0  0  0  0  0  0  0999 V2000
   -5.5632    1.6019   24.2968 C   0  0  0  0  0  0  0  0  0  0  0  0
   -5.6276    1.3267   25.4857 O   0  5  0  0  0  0  0  0  0  0  0  0
   -6.5233    1.9639   23.6284 O   0  0  0  0  0  0  0  0  0  0  0  0
   -4.1913    1.4878   23.6031 C   0  0  1  0  0  0  0  0  0  0  0  0
   -3.3090    2.6026   24.0649 N   0  3  0  0  0  0  0  0  0  0  0  0
   -3.5231    0.1319   23.9304 C   0  0  0  0  0  0  0  0  0  0  0  0
   -4.2308   -1.0041   23.2033 C   0  0  0  0  0  0  0  0  0  0  0  0
   -5.4612   -1.4396   23.9960 C   0  0  0  0  0  0  0  0  0  0  0  0
   -5.0214   -1.9757   25.3218 N   0  0  0  0  0  0  0  0  0  0  0  0
   -5.5291   -3.0832   25.7926 C   0  0  0  0  0  0  0  0  0  0  0  0
   -6.0252   -3.1184   26.9166 O   0  0  0  0  0  0  0  0  0  0  0  0
   -5.4977   -4.1670   25.0732 N   0  0  0  0  0  0  0  0  0  0  0  0
  1  2  1  0  0  0  0
  1  3  2  0  0  0  0
  4  1  1  1  0  0  0
  4  6  1  0  0  0  0
  4  5  1  0  0  0  0
  6  7  1  0  0  0  0
  7  8  1  0  0  0  0
  8  9  1  0  0  0  0
  9 10  1  0  0  0  0
 10 12  1  0  0  0  0
 10 11  2  0  0  0  0
M  CHG  2   2  -1   5   1
M  END
>  <CHROM.1>
-72.08744962,72.15995269,-70.98825264,-82.97449409,-63.08191039,44.88772686
-5.03734959,-0.45545231,24.63163783,1.35288434,0.64568569,-0.17976041

>  <Name>
1kod cryst

>  <RI>
0

>  <Rbt.Current_Directory>
/home/itssahil/PROJECTS/Mol_Feturizer/New_Systems/rnas/1kod

>  <Rbt.Executable>
rbdock ($Id: //depot/dev/client3/rdock/2013.1/src/exe/rbdock.cxx#4 $)

>  <Rbt.Library>
libRbt.so (2013.1, Build901 2013/11/27)

>  <Rbt.Parameter_File>
/export/apps/rDock/src/rDock_2013.1_src/data/scripts/dock_solv.prm

>  <Rbt.Receptor>
prm/blind_docking_80.prm

>  <SCORE>
-24.569

>  <SCORE.INTER>
-21.065

>  <SCORE.INTER.CONST>
1

>  <SCORE.INTER.POLAR>
-3.12934

>  <SCORE.INTER.ROT>
5

>  <SCORE.INTER.SOLV>
14.6223

>  <SCORE.INTER.VDW>
-15.4196

>  <SCORE.INTER.norm>
-1.75542

>  <SCORE.INTRA>
-3.50404

>  <SCORE.INTRA.DIHEDRAL>
-2.75523

>  <SCORE.INTRA.DIHEDRAL.0>
7.7847

>  <SCORE.INTRA.POLAR>
0

>  <SCORE.INTRA.POLAR.0>
0

>  <SCORE.INTRA.REPUL>
0

>  <SCORE.INTRA.REPUL.0>
0

>  <SCORE.INTRA.SOLV>
-0.193314

>  <SCORE.INTRA.SOLV.lig_0>
-57.5465

>  <SCORE.INTRA.VDW>
-2.02976

>  <SCORE.INTRA.VDW.0>
1.39369

>  <SCORE.INTRA.norm>
-0.292003

>  <SCORE.RESTR>
0

>  <SCORE.RESTR.CAVITY>
0

>  <SCORE.RESTR.norm>
0

>  <SCORE.SYSTEM>
0

>  <SCORE.SYSTEM.CONST>
0

>  <SCORE.SYSTEM.DIHEDRAL>
0

>  <SCORE.SYSTEM.SOLV>
0

>  <SCORE.SYSTEM.norm>
0

>  <SCORE.heavy>
12

>  <SCORE.norm>
-2.04742

>  <SYMMETRIC_BONDS>
4 1 2

>  <RMSD>
12.645

$$$$
1kod cryst
 OpenBabel11021811393D
libRbt.so/2013.1/901 2013/11/27
 12 11  0  0  0  0  0  0  0  0999 V2000
   -9.6537   -1.3353   27.6328 C   0  0  0  0  0  0  0  0  0  0  0  0
  -10.4233   -2.0958   27.0646 O   0  5  0  0  0  0  0  0  0  0  0  0
   -9.9134   -0.1651   27.8835 O   0  0  0  0  0  0  0  0  0  0  0  0
   -8.2785   -1.8861   28.0590 C   0  0  1  0  0  0  0  0  0  0  0  0
   -8.3527   -3.3754   28.1638 N   0  3  0  0  0  0  0  0  0  0  0  0
   -7.1897   -1.4949   27.0325 C   0  0  0  0  0  0  0  0  0  0  0  0
   -6.9546    0.0099   27.0473 C   0  0  0  0  0  0  0  0  0  0  0  0
   -5.8894    0.3780   26.0170 C   0  0  0  0  0  0  0  0  0  0  0  0
   -4.5411    0.0326   26.5660 N   0  0  0  0  0  0  0  0  0  0  0  0
   -3.9353   -1.0650   26.1997 C   0  0  0  0  0  0  0  0  0  0  0  0
   -3.5239   -1.8646   27.0375 O   0  0  0  0  0  0  0  0  0  0  0  0
   -3.7497   -1.3111   24.9355 N   0  0  0  0  0  0  0  0  0  0  0  0
  1  2  1  0  0  0  0
  1  3  2  0  0  0  0
  4  1  1  6  0  0  0
  4  6  1  0  0  0  0
  4  5  1  0  0  0  0
  6  7  1  0  0  0  0
  7  8  1  0  0  0  0
  8  9  1  0  0  0  0
  9 10  1  0  0  0  0
 10 12  1  0  0  0  0
 10 11  2  0  0  0  0
M  CHG  2   2  -1   5   1
M  END
>  <CHROM.1>
-21.91274861,67.33781308,-151.99552368,-179.33845323,-77.28512040,-79.78160058
-6.87105977,-1.21871450,26.97059349,2.94469224,-0.23850888,2.86933571

>  <Name>
1kod cryst

>  <RI>
0

>  <Rbt.Current_Directory>
/home/itssahil/PROJECTS/Mol_Feturizer/New_Systems/rnas/1kod

>  <Rbt.Executable>
rbdock ($Id: //depot/dev/client3/rdock/2013.1/src/exe/rbdock.cxx#4 $)

>  <Rbt.Library>
libRbt.so (2013.1, Build901 2013/11/27)

>  <Rbt.Parameter_File>
/export/apps/rDock/src/rDock_2013.1_src/data/scripts/dock_solv.prm

>  <Rbt.Receptor>
prm/blind_docking_40.prm

>  <SCORE>
-27.6439

>  <SCORE.INTER>
-23.1192

>  <SCORE.INTER.CONST>
1

>  <SCORE.INTER.POLAR>
-4.9851

>  <SCORE.INTER.ROT>
5

>  <SCORE.INTER.SOLV>
19.9885

>  <SCORE.INTER.VDW>
-12.3919

>  <SCORE.INTER.norm>
-1.9266

>  <SCORE.INTRA>
-4.52478

>  <SCORE.INTRA.DIHEDRAL>
-2.68798

>  <SCORE.INTRA.DIHEDRAL.0>
7.7847

>  <SCORE.INTRA.POLAR>
0

>  <SCORE.INTRA.POLAR.0>
0

>  <SCORE.INTRA.REPUL>
0

>  <SCORE.INTRA.REPUL.0>
0

>  <SCORE.INTRA.SOLV>
-1.87033

>  <SCORE.INTRA.SOLV.lig_0>
-57.5465

>  <SCORE.INTRA.VDW>
-2.24562

>  <SCORE.INTRA.VDW.0>
1.39369

>  <SCORE.INTRA.norm>
-0.377065

>  <SCORE.RESTR>
0

>  <SCORE.RESTR.CAVITY>
0

>  <SCORE.RESTR.norm>
0

>  <SCORE.SYSTEM>
0

>  <SCORE.SYSTEM.CONST>
0

>  <SCORE.SYSTEM.DIHEDRAL>
0

>  <SCORE.SYSTEM.SOLV>
0

>  <SCORE.SYSTEM.norm>
0

>  <SCORE.heavy>
12

>  <SCORE.norm>
-2.30366

>  <SYMMETRIC_BONDS>
4 1 2

>  <RMSD>
12.683

$$$$
1kod cryst
 OpenBabel11021811393D
libRbt.so/2013.1/901 2013/11/27
 12 11  0  0  0  0  0  0  0  0999 V2000
   -4.6267   -2.5114   26.3628 C   0  0  0  0  0  0  0  0  0  0  0  0
   -3.4060   -2.4888   26.4154 O   0  5  0  0  0  0  0  0  0  0  0  0
   -5.3545   -2.2444   27.3109 O   0  0  0  0  0  0  0  0  0  0  0  0
   -5.2841   -2.8963   25.0227 C   0  0  1  0  0  0  0  0  0  0  0  0
   -6.3949   -3.8640   25.2763 N   0  3  0  0  0  0  0  0  0  0  0  0
   -5.8440   -1.6443   24.3077 C   0  0  0  0  0  0  0  0  0  0  0  0
   -4.8556   -1.1340   23.2673 C   0  0  0  0  0  0  0  0  0  0  0  0
   -3.8955   -0.1359   23.9105 C   0  0  0  0  0  0  0  0  0  0  0  0
   -4.6014    1.1706   24.0926 N   0  0  0  0  0  0  0  0  0  0  0  0
   -4.2077    2.0175   25.0057 C   0  0  0  0  0  0  0  0  0  0  0  0
   -5.0003    2.4620   25.8333 O   0  0  0  0  0  0  0  0  0  0  0  0
   -2.9672    2.4093   25.0336 N   0  0  0  0  0  0  0  0  0  0  0  0
  1  2  1  0  0  0  0
  1  3  2  0  0  0  0
  4  1  1  1  0  0  0
  4  6  1  0  0  0  0
  4  5  1  0  0  0  0
  6  7  1  0  0  0  0
  7  8  1  0  0  0  0
  8  9  1  0  0  0  0
  9 10  1  0  0  0  0
 10 12  1  0  0  0  0
 10 11  2  0  0  0  0
M  CHG  2   2  -1   5   1
M  END
>  <CHROM.1>
135.22774787,97.13868142,-74.20343095,-89.17085900,-76.53512587,-24.24712313
-4.71443780,-0.74547238,25.18043463,-2.28987129,-1.16506520,-0.84034975

>  <Name>
1kod cryst

>  <RI>
0

>  <Rbt.Current_Directory>
/home/itssahil/PROJECTS/Mol_Feturizer/New_Systems/rnas/1kod

>  <Rbt.Executable>
rbdock ($Id: //depot/dev/client3/rdock/2013.1/src/exe/rbdock.cxx#4 $)

>  <Rbt.Library>
libRbt.so (2013.1, Build901 2013/11/27)

>  <Rbt.Parameter_File>
/export/apps/rDock/src/rDock_2013.1_src/data/scripts/dock_solv.prm

>  <Rbt.Receptor>
prm/blind_docking_100.prm

>  <SCORE>
-25.8114

>  <SCORE.INTER>
-23.3767

>  <SCORE.INTER.CONST>
1

>  <SCORE.INTER.POLAR>
-4.61878

>  <SCORE.INTER.ROT>
5

>  <SCORE.INTER.SOLV>
21.9796

>  <SCORE.INTER.VDW>
-14.4484

>  <SCORE.INTER.norm>
-1.94806

>  <SCORE.INTRA>
-2.43462

>  <SCORE.INTRA.DIHEDRAL>
2.33014

>  <SCORE.INTRA.DIHEDRAL.0>
7.7847

>  <SCORE.INTRA.POLAR>
0

>  <SCORE.INTRA.POLAR.0>
0

>  <SCORE.INTRA.REPUL>
0

>  <SCORE.INTRA.REPUL.0>
0

>  <SCORE.INTRA.SOLV>
-1.79077

>  <SCORE.INTRA.SOLV.lig_0>
-57.5465

>  <SCORE.INTRA.VDW>
-2.70431

>  <SCORE.INTRA.VDW.0>
1.39369

>  <SCORE.INTRA.norm>
-0.202885

>  <SCORE.RESTR>
0

>  <SCORE.RESTR.CAVITY>
0

>  <SCORE.RESTR.norm>
0

>  <SCORE.SYSTEM>
0

>  <SCORE.SYSTEM.CONST>
0

>  <SCORE.SYSTEM.DIHEDRAL>
0

>  <SCORE.SYSTEM.SOLV>
0

>  <SCORE.SYSTEM.norm>
0

>  <SCORE.heavy>
12

>  <SCORE.norm>
-2.15095

>  <SYMMETRIC_BONDS>
4 1 2

>  <RMSD>
12.730

$$$$
1kod cryst
 OpenBabel11021811393D
libRbt.so/2013.1/901 2013/11/27
 12 11  0  0  0  0  0  0  0  0999 V2000
   -5.8827    1.9201   24.6025 C   0  0  0  0  0  0  0  0  0  0  0  0
   -5.8933    1.9691   25.8235 O   0  5  0  0  0  0  0  0  0  0  0  0
   -6.8760    2.0845   23.9054 O   0  0  0  0  0  0  0  0  0  0  0  0
   -4.5382    1.6371   23.9035 C   0  0  1  0  0  0  0  0  0  0  0  0
   -3.5014    2.5793   24.4249 N   0  3  0  0  0  0  0  0  0  0  0  0
   -4.0851    0.1802   24.1570 C   0  0  0  0  0  0  0  0  0  0  0  0
   -5.0528   -0.8025   23.5107 C   0  0  0  0  0  0  0  0  0  0  0  0
   -4.7182   -2.2255   23.9522 C   0  0  0  0  0  0  0  0  0  0  0  0
   -5.1601   -2.4121   25.3694 N   0  0  0  0  0  0  0  0  0  0  0  0
   -6.1110   -3.2579   25.6635 C   0  0  0  0  0  0  0  0  0  0  0  0
   -7.0891   -2.9008   26.3163 O   0  0  0  0  0  0  0  0  0  0  0  0
   -6.0183   -4.4966   25.2760 N   0  0  0  0  0  0  0  0  0  0  0  0
  1  2  1  0  0  0  0
  1  3  2  0  0  0  0
  4  1  1  1  0  0  0
  4  6  1  0  0  0  0
  4  5  1  0  0  0  0
  6  7  1  0  0  0  0
  7  8  1  0  0  0  0
  8  9  1  0  0  0  0
  9 10  1  0  0  0  0
 10 12  1  0  0  0  0
 10 11  2  0  0  0  0
M  CHG  2   2  -1   5   1
M  END
>  <CHROM.1>
-51.18592068,65.13674455,59.10053118,-171.13185777,74.06894744,-65.05913997
-5.40870523,-0.45885464,24.76712338,1.36780504,0.50939922,-0.07906449

>  <Name>
1kod cryst

>  <RI>
0

>  <Rbt.Current_Directory>
/home/itssahil/PROJECTS/Mol_Feturizer/New_Systems/rnas/1kod

>  <Rbt.Executable>
rbdock ($Id: //depot/dev/client3/rdock/2013.1/src/exe/rbdock.cxx#4 $)

>  <Rbt.Library>
libRbt.so (2013.1, Build901 2013/11/27)

>  <Rbt.Parameter_File>
/export/apps/rDock/src/rDock_2013.1_src/data/scripts/dock_solv.prm

>  <Rbt.Receptor>
prm/blind_docking_80.prm

>  <SCORE>
-25.7225

>  <SCORE.INTER>
-19.7503

>  <SCORE.INTER.CONST>
1

>  <SCORE.INTER.POLAR>
-3.15654

>  <SCORE.INTER.ROT>
5

>  <SCORE.INTER.SOLV>
13.267

>  <SCORE.INTER.VDW>
-14.0007

>  <SCORE.INTER.norm>
-1.64586

>  <SCORE.INTRA>
-5.97232

>  <SCORE.INTRA.DIHEDRAL>
-4.40654

>  <SCORE.INTRA.DIHEDRAL.0>
7.7847

>  <SCORE.INTRA.POLAR>
0

>  <SCORE.INTRA.POLAR.0>
0

>  <SCORE.INTRA.REPUL>
0

>  <SCORE.INTRA.REPUL.0>
0

>  <SCORE.INTRA.SOLV>
-2.40206

>  <SCORE.INTRA.SOLV.lig_0>
-57.5465

>  <SCORE.INTRA.VDW>
-2.56802

>  <SCORE.INTRA.VDW.0>
1.39369

>  <SCORE.INTRA.norm>
-0.497693

>  <SCORE.RESTR>
7.92082e-05

>  <SCORE.RESTR.CAVITY>
7.92082e-05

>  <SCORE.RESTR.norm>
6.60068e-06

>  <SCORE.SYSTEM>
0

>  <SCORE.SYSTEM.CONST>
0

>  <SCORE.SYSTEM.DIHEDRAL>
0

>  <SCORE.SYSTEM.SOLV>
0

>  <SCORE.SYSTEM.norm>
0

>  <SCORE.heavy>
12

>  <SCORE.norm>
-2.14354

>  <SYMMETRIC_BONDS>
4 1 2

>  <RMSD>
12.737

$$$$
1kod cryst
 OpenBabel11021811393D
libRbt.so/2013.1/901 2013/11/27
 12 11  0  0  0  0  0  0  0  0999 V2000
   -4.2339   -1.9411   26.1722 C   0  0  0  0  0  0  0  0  0  0  0  0
   -3.1584   -2.4982   26.3346 O   0  5  0  0  0  0  0  0  0  0  0  0
   -5.0832   -1.8313   27.0475 O   0  0  0  0  0  0  0  0  0  0  0  0
   -4.5333   -1.3412   24.7841 C   0  0  1  0  0  0  0  0  0  0  0  0
   -4.6559   -2.4452   23.7838 N   0  3  0  0  0  0  0  0  0  0  0  0
   -5.8454   -0.5229   24.8125 C   0  0  0  0  0  0  0  0  0  0  0  0
   -5.7546    0.6690   23.8685 C   0  0  0  0  0  0  0  0  0  0  0  0
   -4.5635    1.5441   24.2520 C   0  0  0  0  0  0  0  0  0  0  0  0
   -4.6837    2.8626   23.5550 N   0  0  0  0  0  0  0  0  0  0  0  0
   -4.0196    3.9033   23.9817 C   0  0  0  0  0  0  0  0  0  0  0  0
   -4.5980    4.9595   24.2274 O   0  0  0  0  0  0  0  0  0  0  0  0
   -2.7296    3.8298   24.1350 N   0  0  0  0  0  0  0  0  0  0  0  0
  1  2  1  0  0  0  0
  1  3  2  0  0  0  0
  4  1  1  1  0  0  0
  4  6  1  0  0  0  0
  4  5  1  0  0  0  0
  6  7  1  0  0  0  0
  7  8  1  0  0  0  0
  8  9  1  0  0  0  0
  9 10  1  0  0  0  0
 10 12  1  0  0  0  0
 10 11  2  0  0  0  0
M  CHG  2   2  -1   5   1
M  END
>  <CHROM.1>
66.65275481,146.08184291,173.90791451,-57.47310206,-166.00549815,-18.99767240
-4.47138990,0.58155367,24.73828292,-1.65070260,-0.77428687,-0.32508950

>  <Name>
1kod cryst

>  <RI>
0

>  <Rbt.Current_Directory>
/home/itssahil/PROJECTS/Mol_Feturizer/New_Systems/rnas/1kod

>  <Rbt.Executable>
rbdock ($Id: //depot/dev/client3/rdock/2013.1/src/exe/rbdock.cxx#4 $)

>  <Rbt.Library>
libRbt.so (2013.1, Build901 2013/11/27)

>  <Rbt.Parameter_File>
/export/apps/rDock/src/rDock_2013.1_src/data/scripts/dock_solv.prm

>  <Rbt.Receptor>
prm/blind_docking_100.prm

>  <SCORE>
-22.0523

>  <SCORE.INTER>
-19.4365

>  <SCORE.INTER.CONST>
1

>  <SCORE.INTER.POLAR>
-4.56517

>  <SCORE.INTER.ROT>
5

>  <SCORE.INTER.SOLV>
19.1764

>  <SCORE.INTER.VDW>
-11.0659

>  <SCORE.INTER.norm>
-1.61971

>  <SCORE.INTRA>
-2.77937

>  <SCORE.INTRA.DIHEDRAL>
-1.62235

>  <SCORE.INTRA.DIHEDRAL.0>
7.7847

>  <SCORE.INTRA.POLAR>
0

>  <SCORE.INTRA.POLAR.0>
0

>  <SCORE.INTRA.REPUL>
0

>  <SCORE.INTRA.REPUL.0>
0

>  <SCORE.INTRA.SOLV>
-2.53343

>  <SCORE.INTRA.SOLV.lig_0>
-57.5465

>  <SCORE.INTRA.VDW>
-0.701484

>  <SCORE.INTRA.VDW.0>
1.39369

>  <SCORE.INTRA.norm>
-0.231614

>  <SCORE.RESTR>
0.163586

>  <SCORE.RESTR.CAVITY>
0.163586

>  <SCORE.RESTR.norm>
0.0136321

>  <SCORE.SYSTEM>
0

>  <SCORE.SYSTEM.CONST>
0

>  <SCORE.SYSTEM.DIHEDRAL>
0

>  <SCORE.SYSTEM.SOLV>
0

>  <SCORE.SYSTEM.norm>
0

>  <SCORE.heavy>
12

>  <SCORE.norm>
-1.83769

>  <SYMMETRIC_BONDS>
4 1 2

>  <RMSD>
12.755

$$$$
1kod cryst
 OpenBabel11021811393D
libRbt.so/2013.1/901 2013/11/27
 12 11  0  0  0  0  0  0  0  0999 V2000
   -8.5456   -1.0504   27.0679 C   0  0  0  0  0  0  0  0  0  0  0  0
   -7.9863   -0.0645   26.6111 O   0  5  0  0  0  0  0  0  0  0  0  0
   -9.7621   -1.1716   27.1393 O   0  0  0  0  0  0  0  0  0  0  0  0
   -7.6647   -2.2070   27.5803 C   0  0  1  0  0  0  0  0  0  0  0  0
   -8.4507   -3.0395   28.5414 N   0  3  0  0  0  0  0  0  0  0  0  0
   -7.1838   -3.0911   26.4058 C   0  0  0  0  0  0  0  0  0  0  0  0
   -6.1752   -2.3396   25.5469 C   0  0  0  0  0  0  0  0  0  0  0  0
   -4.8795   -2.1348   26.3287 C   0  0  0  0  0  0  0  0  0  0  0  0
   -3.8248   -1.6250   25.3981 N   0  0  0  0  0  0  0  0  0  0  0  0
   -3.3033   -0.4398   25.5695 C   0  0  0  0  0  0  0  0  0  0  0  0
   -3.2845    0.3767   24.6510 O   0  0  0  0  0  0  0  0  0  0  0  0
   -2.7832   -0.1214   26.7190 N   0  0  0  0  0  0  0  0  0  0  0  0
  1  2  1  0  0  0  0
  1  3  2  0  0  0  0
  4  1  1  6  0  0  0
  4  6  1  0  0  0  0
  4  5  1  0  0  0  0
  6  7  1  0  0  0  0
  7  8  1  0  0  0  0
  8  9  1  0  0  0  0
  9 10  1  0  0  0  0
 10 12  1  0  0  0  0
 10 11  2  0  0  0  0
M  CHG  2   2  -1   5   1
M  END
>  <CHROM.1>
158.39228295,69.68492540,-64.03913103,68.61081635,169.77015015,-63.60326438
-6.16596118,-1.40137565,26.48598956,2.81323280,-0.25466876,2.85842241

>  <Name>
1kod cryst

>  <RI>
0

>  <Rbt.Current_Directory>
/home/itssahil/PROJECTS/Mol_Feturizer/New_Systems/rnas/1kod

>  <Rbt.Executable>
rbdock ($Id: //depot/dev/client3/rdock/2013.1/src/exe/rbdock.cxx#4 $)

>  <Rbt.Library>
libRbt.so (2013.1, Build901 2013/11/27)

>  <Rbt.Parameter_File>
/export/apps/rDock/src/rDock_2013.1_src/data/scripts/dock_solv.prm

>  <Rbt.Receptor>
prm/blind_docking_100.prm

>  <SCORE>
-26.8888

>  <SCORE.INTER>
-21.5778

>  <SCORE.INTER.CONST>
1

>  <SCORE.INTER.POLAR>
-3.35024

>  <SCORE.INTER.ROT>
5

>  <SCORE.INTER.SOLV>
19.7028

>  <SCORE.INTER.VDW>
-16.7187

>  <SCORE.INTER.norm>
-1.79815

>  <SCORE.INTRA>
-5.31104

>  <SCORE.INTRA.DIHEDRAL>
-4.48803

>  <SCORE.INTRA.DIHEDRAL.0>
7.7847

>  <SCORE.INTRA.POLAR>
0

>  <SCORE.INTRA.POLAR.0>
0

>  <SCORE.INTRA.REPUL>
0

>  <SCORE.INTRA.REPUL.0>
0

>  <SCORE.INTRA.SOLV>
-2.02189

>  <SCORE.INTRA.SOLV.lig_0>
-57.5465

>  <SCORE.INTRA.VDW>
-2.05608

>  <SCORE.INTRA.VDW.0>
1.39369

>  <SCORE.INTRA.norm>
-0.442586

>  <SCORE.RESTR>
0

>  <SCORE.RESTR.CAVITY>
0

>  <SCORE.RESTR.norm>
0

>  <SCORE.SYSTEM>
0

>  <SCORE.SYSTEM.CONST>
0

>  <SCORE.SYSTEM.DIHEDRAL>
0

>  <SCORE.SYSTEM.SOLV>
0

>  <SCORE.SYSTEM.norm>
0

>  <SCORE.heavy>
12

>  <SCORE.norm>
-2.24074

>  <SYMMETRIC_BONDS>
4 1 2

>  <RMSD>
12.755

$$$$
1kod cryst
 OpenBabel11021811393D
libRbt.so/2013.1/901 2013/11/27
 12 11  0  0  0  0  0  0  0  0999 V2000
   -4.1880   -2.4380   26.2394 C   0  0  0  0  0  0  0  0  0  0  0  0
   -2.9941   -2.5687   26.0142 O   0  5  0  0  0  0  0  0  0  0  0  0
   -4.6425   -2.0796   27.3186 O   0  0  0  0  0  0  0  0  0  0  0  0
   -5.1754   -2.7404   25.0948 C   0  0  1  0  0  0  0  0  0  0  0  0
   -5.7003   -4.1316   25.2486 N   0  3  0  0  0  0  0  0  0  0  0  0
   -6.3546   -1.7397   25.1100 C   0  0  0  0  0  0  0  0  0  0  0  0
   -6.0550   -0.5443   24.2149 C   0  0  0  0  0  0  0  0  0  0  0  0
   -4.9309    0.2905   24.8244 C   0  0  0  0  0  0  0  0  0  0  0  0
   -4.5893    1.4054   23.8869 N   0  0  0  0  0  0  0  0  0  0  0  0
   -4.0129    2.4915   24.3274 C   0  0  0  0  0  0  0  0  0  0  0  0
   -4.4936    3.5976   24.0907 O   0  0  0  0  0  0  0  0  0  0  0  0
   -2.9094    2.4069   25.0117 N   0  0  0  0  0  0  0  0  0  0  0  0
  1  2  1  0  0  0  0
  1  3  2  0  0  0  0
  4  1  1  1  0  0  0
  4  6  1  0  0  0  0
  4  5  1  0  0  0  0
  6  7  1  0  0  0  0
  7  8  1  0  0  0  0
  8  9  1  0  0  0  0
  9 10  1  0  0  0  0
 10 12  1  0  0  0  0
 10 11  2  0  0  0  0
M  CHG  2   2  -1   5   1
M  END
>  <CHROM.1>
97.40701027,92.07496669,173.26161937,-68.47056924,176.21877918,-23.15508726
-4.65501377,-0.52287492,25.12696728,-1.75341061,-0.55230990,-0.35052646

>  <Name>
1kod cryst

>  <RI>
0

>  <Rbt.Current_Directory>
/home/itssahil/PROJECTS/Mol_Feturizer/New_Systems/rnas/1kod

>  <Rbt.Executable>
rbdock ($Id: //depot/dev/client3/rdock/2013.1/src/exe/rbdock.cxx#4 $)

>  <Rbt.Library>
libRbt.so (2013.1, Build901 2013/11/27)

>  <Rbt.Parameter_File>
/export/apps/rDock/src/rDock_2013.1_src/data/scripts/dock_solv.prm

>  <Rbt.Receptor>
prm/blind_docking_100.prm

>  <SCORE>
-25.7552

>  <SCORE.INTER>
-21.903

>  <SCORE.INTER.CONST>
1

>  <SCORE.INTER.POLAR>
-4.12947

>  <SCORE.INTER.ROT>
5

>  <SCORE.INTER.SOLV>
22.9064

>  <SCORE.INTER.VDW>
-15.4059

>  <SCORE.INTER.norm>
-1.82525

>  <SCORE.INTRA>
-3.85215

>  <SCORE.INTRA.DIHEDRAL>
-2.23863

>  <SCORE.INTRA.DIHEDRAL.0>
7.7847

>  <SCORE.INTRA.POLAR>
0

>  <SCORE.INTRA.POLAR.0>
0

>  <SCORE.INTRA.REPUL>
0

>  <SCORE.INTRA.REPUL.0>
0

>  <SCORE.INTRA.SOLV>
-2.04427

>  <SCORE.INTRA.SOLV.lig_0>
-57.5465

>  <SCORE.INTRA.VDW>
-1.7107

>  <SCORE.INTRA.VDW.0>
1.39369

>  <SCORE.INTRA.norm>
-0.321013

>  <SCORE.RESTR>
0

>  <SCORE.RESTR.CAVITY>
0

>  <SCORE.RESTR.norm>
0

>  <SCORE.SYSTEM>
0

>  <SCORE.SYSTEM.CONST>
0

>  <SCORE.SYSTEM.DIHEDRAL>
0

>  <SCORE.SYSTEM.SOLV>
0

>  <SCORE.SYSTEM.norm>
0

>  <SCORE.heavy>
12

>  <SCORE.norm>
-2.14626

>  <SYMMETRIC_BONDS>
4 1 2

>  <RMSD>
12.767

$$$$
1kod cryst
 OpenBabel11021811393D
libRbt.so/2013.1/901 2013/11/27
 12 11  0  0  0  0  0  0  0  0999 V2000
   -6.0089   -2.7716   25.9691 C   0  0  0  0  0  0  0  0  0  0  0  0
   -6.3739   -3.3167   24.9381 O   0  5  0  0  0  0  0  0  0  0  0  0
   -6.4325   -3.0630   27.0806 O   0  0  0  0  0  0  0  0  0  0  0  0
   -4.9519   -1.6548   25.8597 C   0  0  1  0  0  0  0  0  0  0  0  0
   -3.5887   -2.2457   26.0239 N   0  3  0  0  0  0  0  0  0  0  0  0
   -5.0447   -0.9453   24.4884 C   0  0  0  0  0  0  0  0  0  0  0  0
   -3.8086   -0.0901   24.2424 C   0  0  0  0  0  0  0  0  0  0  0  0
   -4.0323    0.8061   23.0265 C   0  0  0  0  0  0  0  0  0  0  0  0
   -4.7347    2.0529   23.4633 N   0  0  0  0  0  0  0  0  0  0  0  0
   -4.4524    2.6075   24.6117 C   0  0  0  0  0  0  0  0  0  0  0  0
   -5.3409    2.8581   25.4231 O   0  0  0  0  0  0  0  0  0  0  0  0
   -3.2204    2.9136   24.8974 N   0  0  0  0  0  0  0  0  0  0  0  0
  1  2  1  0  0  0  0
  1  3  2  0  0  0  0
  4  1  1  6  0  0  0
  4  6  1  0  0  0  0
  4  5  1  0  0  0  0
  6  7  1  0  0  0  0
  7  8  1  0  0  0  0
  8  9  1  0  0  0  0
  9 10  1  0  0  0  0
 10 12  1  0  0  0  0
 10 11  2  0  0  0  0
M  CHG  2   2  -1   5   1
M  END
>  <CHROM.1>
-92.31906079,-166.19257815,-167.84395229,-169.08100917,85.44628532,-142.79802734
-4.81673594,-0.24859609,25.02401670,2.01737675,-0.92094028,-3.07422262

>  <Name>
1kod cryst

>  <RI>
0

>  <Rbt.Current_Directory>
/home/itssahil/PROJECTS/Mol_Feturizer/New_Systems/rnas/1kod

>  <Rbt.Executable>
rbdock ($Id: //depot/dev/client3/rdock/2013.1/src/exe/rbdock.cxx#4 $)

>  <Rbt.Library>
libRbt.so (2013.1, Build901 2013/11/27)

>  <Rbt.Parameter_File>
/export/apps/rDock/src/rDock_2013.1_src/data/scripts/dock_solv.prm

>  <Rbt.Receptor>
prm/blind_docking_60.prm

>  <SCORE>
-25.1175

>  <SCORE.INTER>
-23.3231

>  <SCORE.INTER.CONST>
1

>  <SCORE.INTER.POLAR>
-4.39006

>  <SCORE.INTER.ROT>
5

>  <SCORE.INTER.SOLV>
19.0035

>  <SCORE.INTER.VDW>
-14.183

>  <SCORE.INTER.norm>
-1.94359

>  <SCORE.INTRA>
-1.93563

>  <SCORE.INTRA.DIHEDRAL>
-1.95734

>  <SCORE.INTRA.DIHEDRAL.0>
7.7847

>  <SCORE.INTRA.POLAR>
0

>  <SCORE.INTRA.POLAR.0>
0

>  <SCORE.INTRA.REPUL>
0

>  <SCORE.INTRA.REPUL.0>
0

>  <SCORE.INTRA.SOLV>
-1.43514

>  <SCORE.INTRA.SOLV.lig_0>
-57.5465

>  <SCORE.INTRA.VDW>
-0.23939

>  <SCORE.INTRA.VDW.0>
1.39369

>  <SCORE.INTRA.norm>
-0.161302

>  <SCORE.RESTR>
0.141181

>  <SCORE.RESTR.CAVITY>
0.141181

>  <SCORE.RESTR.norm>
0.0117651

>  <SCORE.SYSTEM>
0

>  <SCORE.SYSTEM.CONST>
0

>  <SCORE.SYSTEM.DIHEDRAL>
0

>  <SCORE.SYSTEM.SOLV>
0

>  <SCORE.SYSTEM.norm>
0

>  <SCORE.heavy>
12

>  <SCORE.norm>
-2.09313

>  <SYMMETRIC_BONDS>
4 1 2

>  <RMSD>
12.782

$$$$
1kod cryst
 OpenBabel11021811393D
libRbt.so/2013.1/901 2013/11/27
 12 11  0  0  0  0  0  0  0  0999 V2000
   -3.8150   -1.4066   25.9532 C   0  0  0  0  0  0  0  0  0  0  0  0
   -3.4731   -0.3292   26.4178 O   0  5  0  0  0  0  0  0  0  0  0  0
   -3.3239   -2.4782   26.2851 O   0  0  0  0  0  0  0  0  0  0  0  0
   -4.9312   -1.4123   24.8901 C   0  0  1  0  0  0  0  0  0  0  0  0
   -4.3399   -1.7253   23.5534 N   0  3  0  0  0  0  0  0  0  0  0  0
   -6.0112   -2.4643   25.2355 C   0  0  0  0  0  0  0  0  0  0  0  0
   -6.6898   -2.1226   26.5555 C   0  0  0  0  0  0  0  0  0  0  0  0
   -7.8639   -3.0693   26.7947 C   0  0  0  0  0  0  0  0  0  0  0  0
   -8.1526   -3.1257   28.2617 N   0  0  0  0  0  0  0  0  0  0  0  0
   -8.9468   -2.2501   28.8172 C   0  0  0  0  0  0  0  0  0  0  0  0
   -8.5802   -1.6008   29.7943 O   0  0  0  0  0  0  0  0  0  0  0  0
  -10.1455   -2.0710   28.3435 N   0  0  0  0  0  0  0  0  0  0  0  0
  1  2  1  0  0  0  0
  1  3  2  0  0  0  0
  4  1  1  1  0  0  0
  4  6  1  0  0  0  0
  4  5  1  0  0  0  0
  6  7  1  0  0  0  0
  7  8  1  0  0  0  0
  8  9  1  0  0  0  0
  9 10  1  0  0  0  0
 10 12  1  0  0  0  0
 10 11  2  0  0  0  0
M  CHG  2   2  -1   5   1
M  END
>  <CHROM.1>
108.08832880,62.76684253,34.84198571,173.06991631,156.69375071,-93.33109853
-6.34151790,-2.00084448,26.73138898,-0.54383750,0.30090928,1.31789512

>  <Name>
1kod cryst

>  <RI>
0

>  <Rbt.Current_Directory>
/home/itssahil/PROJECTS/Mol_Feturizer/New_Systems/rnas/1kod

>  <Rbt.Executable>
rbdock ($Id: //depot/dev/client3/rdock/2013.1/src/exe/rbdock.cxx#4 $)

>  <Rbt.Library>
libRbt.so (2013.1, Build901 2013/11/27)

>  <Rbt.Parameter_File>
/export/apps/rDock/src/rDock_2013.1_src/data/scripts/dock_solv.prm

>  <Rbt.Receptor>
prm/blind_docking_60.prm

>  <SCORE>
-30.7355

>  <SCORE.INTER>
-26.47

>  <SCORE.INTER.CONST>
1

>  <SCORE.INTER.POLAR>
-4.77954

>  <SCORE.INTER.ROT>
5

>  <SCORE.INTER.SOLV>
21.0849

>  <SCORE.INTER.VDW>
-15.6765

>  <SCORE.INTER.norm>
-2.20583

>  <SCORE.INTRA>
-4.2659

>  <SCORE.INTRA.DIHEDRAL>
-2.15376

>  <SCORE.INTRA.DIHEDRAL.0>
7.7847

>  <SCORE.INTRA.POLAR>
0

>  <SCORE.INTRA.POLAR.0>
0

>  <SCORE.INTRA.REPUL>
0

>  <SCORE.INTRA.REPUL.0>
0

>  <SCORE.INTRA.SOLV>
-2.5868

>  <SCORE.INTRA.SOLV.lig_0>
-57.5465

>  <SCORE.INTRA.VDW>
-1.89562

>  <SCORE.INTRA.VDW.0>
1.39369

>  <SCORE.INTRA.norm>
-0.355491

>  <SCORE.RESTR>
0.000406576

>  <SCORE.RESTR.CAVITY>
0.000406576

>  <SCORE.RESTR.norm>
3.38813e-05

>  <SCORE.SYSTEM>
0

>  <SCORE.SYSTEM.CONST>
0

>  <SCORE.SYSTEM.DIHEDRAL>
0

>  <SCORE.SYSTEM.SOLV>
0

>  <SCORE.SYSTEM.norm>
0

>  <SCORE.heavy>
12

>  <SCORE.norm>
-2.56129

>  <SYMMETRIC_BONDS>
4 1 2

>  <RMSD>
12.800

$$$$
1kod cryst
 OpenBabel11021811393D
libRbt.so/2013.1/901 2013/11/27
 12 11  0  0  0  0  0  0  0  0999 V2000
   -5.4984   -0.8729   26.5118 C   0  0  0  0  0  0  0  0  0  0  0  0
   -4.3402   -0.6223   26.8102 O   0  5  0  0  0  0  0  0  0  0  0  0
   -6.4660   -0.3002   26.9969 O   0  0  0  0  0  0  0  0  0  0  0  0
   -5.7511   -1.9727   25.4616 C   0  0  1  0  0  0  0  0  0  0  0  0
   -6.6809   -2.9958   26.0303 N   0  3  0  0  0  0  0  0  0  0  0  0
   -6.3686   -1.3720   24.1771 C   0  0  0  0  0  0  0  0  0  0  0  0
   -5.3165   -0.6097   23.3822 C   0  0  0  0  0  0  0  0  0  0  0  0
   -5.1951    0.8156   23.9167 C   0  0  0  0  0  0  0  0  0  0  0  0
   -4.0615    1.5013   23.2215 N   0  0  0  0  0  0  0  0  0  0  0  0
   -3.4984    2.5554   23.7485 C   0  0  0  0  0  0  0  0  0  0  0  0
   -3.3844    3.5951   23.1031 O   0  0  0  0  0  0  0  0  0  0  0  0
   -3.0380    2.5037   24.9644 N   0  0  0  0  0  0  0  0  0  0  0  0
  1  2  1  0  0  0  0
  1  3  2  0  0  0  0
  4  1  1  1  0  0  0
  4  6  1  0  0  0  0
  4  5  1  0  0  0  0
  6  7  1  0  0  0  0
  7  8  1  0  0  0  0
  8  9  1  0  0  0  0
  9 10  1  0  0  0  0
 10 12  1  0  0  0  0
 10 11  2  0  0  0  0
M  CHG  2   2  -1   5   1
M  END
>  <CHROM.1>
125.31703987,74.12951608,62.30482260,-84.82707458,174.13681142,20.33134668
-4.96679819,0.17967295,24.89148128,-2.56573101,-0.98597263,-1.38898876

>  <Name>
1kod cryst

>  <RI>
0

>  <Rbt.Current_Directory>
/home/itssahil/PROJECTS/Mol_Feturizer/New_Systems/rnas/1kod

>  <Rbt.Executable>
rbdock ($Id: //depot/dev/client3/rdock/2013.1/src/exe/rbdock.cxx#4 $)

>  <Rbt.Library>
libRbt.so (2013.1, Build901 2013/11/27)

>  <Rbt.Parameter_File>
/export/apps/rDock/src/rDock_2013.1_src/data/scripts/dock_solv.prm

>  <Rbt.Receptor>
prm/blind_docking_80.prm

>  <SCORE>
-14.2156

>  <SCORE.INTER>
-10.0416

>  <SCORE.INTER.CONST>
1

>  <SCORE.INTER.POLAR>
-0.959166

>  <SCORE.INTER.ROT>
5

>  <SCORE.INTER.SOLV>
14.3564

>  <SCORE.INTER.VDW>
-15.216

>  <SCORE.INTER.norm>
-0.836803

>  <SCORE.INTRA>
-4.17398

>  <SCORE.INTRA.DIHEDRAL>
-2.48912

>  <SCORE.INTRA.DIHEDRAL.0>
7.7847

>  <SCORE.INTRA.POLAR>
0

>  <SCORE.INTRA.POLAR.0>
0

>  <SCORE.INTRA.REPUL>
0

>  <SCORE.INTRA.REPUL.0>
0

>  <SCORE.INTRA.SOLV>
-0.820501

>  <SCORE.INTRA.SOLV.lig_0>
-57.5465

>  <SCORE.INTRA.VDW>
-2.51917

>  <SCORE.INTRA.VDW.0>
1.39369

>  <SCORE.INTRA.norm>
-0.347832

>  <SCORE.RESTR>
0

>  <SCORE.RESTR.CAVITY>
0

>  <SCORE.RESTR.norm>
0

>  <SCORE.SYSTEM>
0

>  <SCORE.SYSTEM.CONST>
0

>  <SCORE.SYSTEM.DIHEDRAL>
0

>  <SCORE.SYSTEM.SOLV>
0

>  <SCORE.SYSTEM.norm>
0

>  <SCORE.heavy>
12

>  <SCORE.norm>
-1.18463

>  <SYMMETRIC_BONDS>
4 1 2

>  <RMSD>
12.818

$$$$
1kod cryst
 OpenBabel11021811393D
libRbt.so/2013.1/901 2013/11/27
 12 11  0  0  0  0  0  0  0  0999 V2000
   -6.3663   -2.5527   25.9616 C   0  0  0  0  0  0  0  0  0  0  0  0
   -6.6480   -2.8703   27.1075 O   0  5  0  0  0  0  0  0  0  0  0  0
   -7.1924   -2.4302   25.0660 O   0  0  0  0  0  0  0  0  0  0  0  0
   -4.8841   -2.2894   25.6296 C   0  0  1  0  0  0  0  0  0  0  0  0
   -4.4958   -3.0914   24.4293 N   0  3  0  0  0  0  0  0  0  0  0  0
   -4.6447   -0.7879   25.3460 C   0  0  0  0  0  0  0  0  0  0  0  0
   -5.3046   -0.3777   24.0359 C   0  0  0  0  0  0  0  0  0  0  0  0
   -4.6412    0.8870   23.4954 C   0  0  0  0  0  0  0  0  0  0  0  0
   -4.9932    2.0388   24.3833 N   0  0  0  0  0  0  0  0  0  0  0  0
   -4.1829    2.4160   25.3357 C   0  0  0  0  0  0  0  0  0  0  0  0
   -4.5813    2.5226   26.4934 O   0  0  0  0  0  0  0  0  0  0  0  0
   -2.9434    2.6977   25.0573 N   0  0  0  0  0  0  0  0  0  0  0  0
  1  2  1  0  0  0  0
  1  3  2  0  0  0  0
  4  1  1  6  0  0  0
  4  6  1  0  0  0  0
  4  5  1  0  0  0  0
  6  7  1  0  0  0  0
  7  8  1  0  0  0  0
  8  9  1  0  0  0  0
  9 10  1  0  0  0  0
 10 12  1  0  0  0  0
 10 11  2  0  0  0  0
M  CHG  2   2  -1   5   1
M  END
>  <CHROM.1>
128.43703037,-69.25848047,47.67006842,-158.07068429,-69.49879519,-84.01838544
-5.06903448,-0.33359878,25.19088749,2.33349552,-1.01807137,-2.56861064

>  <Name>
1kod cryst

>  <RI>
0

>  <Rbt.Current_Directory>
/home/itssahil/PROJECTS/Mol_Feturizer/New_Systems/rnas/1kod

>  <Rbt.Executable>
rbdock ($Id: //depot/dev/client3/rdock/2013.1/src/exe/rbdock.cxx#4 $)

>  <Rbt.Library>
libRbt.so (2013.1, Build901 2013/11/27)

>  <Rbt.Parameter_File>
/export/apps/rDock/src/rDock_2013.1_src/data/scripts/dock_solv.prm

>  <Rbt.Receptor>
prm/blind_docking_40.prm

>  <SCORE>
-23.5346

>  <SCORE.INTER>
-20.0296

>  <SCORE.INTER.CONST>
1

>  <SCORE.INTER.POLAR>
-4.45626

>  <SCORE.INTER.ROT>
5

>  <SCORE.INTER.SOLV>
17.5526

>  <SCORE.INTER.VDW>
-11.2831

>  <SCORE.INTER.norm>
-1.66913

>  <SCORE.INTRA>
-3.51237

>  <SCORE.INTRA.DIHEDRAL>
-2.74129

>  <SCORE.INTRA.DIHEDRAL.0>
7.7847

>  <SCORE.INTRA.POLAR>
0

>  <SCORE.INTRA.POLAR.0>
0

>  <SCORE.INTRA.REPUL>
0

>  <SCORE.INTRA.REPUL.0>
0

>  <SCORE.INTRA.SOLV>
-0.385035

>  <SCORE.INTRA.SOLV.lig_0>
-57.5465

>  <SCORE.INTRA.VDW>
-1.94921

>  <SCORE.INTRA.VDW.0>
1.39369

>  <SCORE.INTRA.norm>
-0.292698

>  <SCORE.RESTR>
0.00735588

>  <SCORE.RESTR.CAVITY>
0.00735588

>  <SCORE.RESTR.norm>
0.00061299

>  <SCORE.SYSTEM>
0

>  <SCORE.SYSTEM.CONST>
0

>  <SCORE.SYSTEM.DIHEDRAL>
0

>  <SCORE.SYSTEM.SOLV>
0

>  <SCORE.SYSTEM.norm>
0

>  <SCORE.heavy>
12

>  <SCORE.norm>
-1.96121

>  <SYMMETRIC_BONDS>
4 1 2

>  <RMSD>
12.827

$$$$
1kod cryst
 OpenBabel11021811393D
libRbt.so/2013.1/901 2013/11/27
 12 11  0  0  0  0  0  0  0  0999 V2000
   -4.7131    0.6394   25.1362 C   0  0  0  0  0  0  0  0  0  0  0  0
   -4.4834    1.4971   24.2966 O   0  5  0  0  0  0  0  0  0  0  0  0
   -3.8420    0.0468   25.7605 O   0  0  0  0  0  0  0  0  0  0  0  0
   -6.1861    0.2881   25.4246 C   0  0  1  0  0  0  0  0  0  0  0  0
   -7.0640    1.3926   24.9310 N   0  3  0  0  0  0  0  0  0  0  0  0
   -6.5803   -1.0349   24.7270 C   0  0  0  0  0  0  0  0  0  0  0  0
   -6.8277   -2.1305   25.7558 C   0  0  0  0  0  0  0  0  0  0  0  0
   -8.1036   -1.8279   26.5383 C   0  0  0  0  0  0  0  0  0  0  0  0
   -8.2898   -2.8760   27.5898 N   0  0  0  0  0  0  0  0  0  0  0  0
   -8.8394   -2.5772   28.7364 C   0  0  0  0  0  0  0  0  0  0  0  0
   -8.2741   -2.8490   29.7933 O   0  0  0  0  0  0  0  0  0  0  0  0
  -10.0049   -1.9993   28.7647 N   0  0  0  0  0  0  0  0  0  0  0  0
  1  2  1  0  0  0  0
  1  3  2  0  0  0  0
  4  1  1  6  0  0  0
  4  6  1  0  0  0  0
  4  5  1  0  0  0  0
  6  7  1  0  0  0  0
  7  8  1  0  0  0  0
  8  9  1  0  0  0  0
  9 10  1  0  0  0  0
 10 12  1  0  0  0  0
 10 11  2  0  0  0  0
M  CHG  2   2  -1   5   1
M  END
>  <CHROM.1>
-18.64777030,111.49929842,-64.14609342,69.58648190,-177.07162849,-33.19921248
-6.94637397,-0.92297966,26.45865158,-0.91892190,-0.07567618,2.34927585

>  <Name>
1kod cryst

>  <RI>
0

>  <Rbt.Current_Directory>
/home/itssahil/PROJECTS/Mol_Feturizer/New_Systems/rnas/1kod

>  <Rbt.Executable>
rbdock ($Id: //depot/dev/client3/rdock/2013.1/src/exe/rbdock.cxx#4 $)

>  <Rbt.Library>
libRbt.so (2013.1, Build901 2013/11/27)

>  <Rbt.Parameter_File>
/export/apps/rDock/src/rDock_2013.1_src/data/scripts/dock_solv.prm

>  <Rbt.Receptor>
prm/blind_docking_100.prm

>  <SCORE>
-18.249

>  <SCORE.INTER>
-14.8091

>  <SCORE.INTER.CONST>
1

>  <SCORE.INTER.POLAR>
-2.74241

>  <SCORE.INTER.ROT>
5

>  <SCORE.INTER.SOLV>
13.2989

>  <SCORE.INTER.VDW>
-12.0977

>  <SCORE.INTER.norm>
-1.23409

>  <SCORE.INTRA>
-3.43986

>  <SCORE.INTRA.DIHEDRAL>
-0.208397

>  <SCORE.INTRA.DIHEDRAL.0>
7.7847

>  <SCORE.INTRA.POLAR>
0

>  <SCORE.INTRA.POLAR.0>
0

>  <SCORE.INTRA.REPUL>
0

>  <SCORE.INTRA.REPUL.0>
0

>  <SCORE.INTRA.SOLV>
-2.33689

>  <SCORE.INTRA.SOLV.lig_0>
-57.5465

>  <SCORE.INTRA.VDW>
-2.16722

>  <SCORE.INTRA.VDW.0>
1.39369

>  <SCORE.INTRA.norm>
-0.286655

>  <SCORE.RESTR>
0

>  <SCORE.RESTR.CAVITY>
0

>  <SCORE.RESTR.norm>
0

>  <SCORE.SYSTEM>
0

>  <SCORE.SYSTEM.CONST>
0

>  <SCORE.SYSTEM.DIHEDRAL>
0

>  <SCORE.SYSTEM.SOLV>
0

>  <SCORE.SYSTEM.norm>
0

>  <SCORE.heavy>
12

>  <SCORE.norm>
-1.52075

>  <SYMMETRIC_BONDS>
4 1 2

>  <RMSD>
12.829

$$$$
1kod cryst
 OpenBabel11021811393D
libRbt.so/2013.1/901 2013/11/27
 12 11  0  0  0  0  0  0  0  0999 V2000
   -7.9820   -1.0101   28.3436 C   0  0  0  0  0  0  0  0  0  0  0  0
   -7.5601    0.1366   28.3657 O   0  5  0  0  0  0  0  0  0  0  0  0
   -8.9166   -1.4053   29.0292 O   0  0  0  0  0  0  0  0  0  0  0  0
   -7.2968   -2.0129   27.3943 C   0  0  1  0  0  0  0  0  0  0  0  0
   -7.8523   -3.3799   27.6338 N   0  3  0  0  0  0  0  0  0  0  0  0
   -7.5268   -1.6142   25.9177 C   0  0  0  0  0  0  0  0  0  0  0  0
   -6.3070   -1.9584   25.0731 C   0  0  0  0  0  0  0  0  0  0  0  0
   -5.2729   -0.8396   25.1763 C   0  0  0  0  0  0  0  0  0  0  0  0
   -4.1477   -1.1283   24.2333 N   0  0  0  0  0  0  0  0  0  0  0  0
   -3.4927   -0.1536   23.6614 C   0  0  0  0  0  0  0  0  0  0  0  0
   -3.3599   -0.1181   22.4401 O   0  0  0  0  0  0  0  0  0  0  0  0
   -2.9605    0.7839   24.3902 N   0  0  0  0  0  0  0  0  0  0  0  0
  1  2  1  0  0  0  0
  1  3  2  0  0  0  0
  4  1  1  1  0  0  0
  4  6  1  0  0  0  0
  4  5  1  0  0  0  0
  6  7  1  0  0  0  0
  7  8  1  0  0  0  0
  8  9  1  0  0  0  0
  9 10  1  0  0  0  0
 10 12  1  0  0  0  0
 10 11  2  0  0  0  0
M  CHG  2   2  -1   5   1
M  END
>  <CHROM.1>
173.50854758,145.32122509,-73.11568755,-83.75293119,-174.23918088,-31.89417573
-6.05831025,-1.06948525,25.98801172,-2.92996867,-0.78582527,-2.52625484

>  <Name>
1kod cryst

>  <RI>
0

>  <Rbt.Current_Directory>
/home/itssahil/PROJECTS/Mol_Feturizer/New_Systems/rnas/1kod

>  <Rbt.Executable>
rbdock ($Id: //depot/dev/client3/rdock/2013.1/src/exe/rbdock.cxx#4 $)

>  <Rbt.Library>
libRbt.so (2013.1, Build901 2013/11/27)

>  <Rbt.Parameter_File>
/export/apps/rDock/src/rDock_2013.1_src/data/scripts/dock_solv.prm

>  <Rbt.Receptor>
prm/blind_docking_80.prm

>  <SCORE>
-27.881

>  <SCORE.INTER>
-24.7016

>  <SCORE.INTER.CONST>
1

>  <SCORE.INTER.POLAR>
-4.83693

>  <SCORE.INTER.ROT>
5

>  <SCORE.INTER.SOLV>
20.2987

>  <SCORE.INTER.VDW>
-14.0442

>  <SCORE.INTER.norm>
-2.05847

>  <SCORE.INTRA>
-3.18364

>  <SCORE.INTRA.DIHEDRAL>
0.259387

>  <SCORE.INTRA.DIHEDRAL.0>
7.7847

>  <SCORE.INTRA.POLAR>
0

>  <SCORE.INTRA.POLAR.0>
0

>  <SCORE.INTRA.REPUL>
0

>  <SCORE.INTRA.REPUL.0>
0

>  <SCORE.INTRA.SOLV>
-2.32659

>  <SCORE.INTRA.SOLV.lig_0>
-57.5465

>  <SCORE.INTRA.VDW>
-2.15004

>  <SCORE.INTRA.VDW.0>
1.39369

>  <SCORE.INTRA.norm>
-0.265304

>  <SCORE.RESTR>
0.00429095

>  <SCORE.RESTR.CAVITY>
0.00429095

>  <SCORE.RESTR.norm>
0.000357579

>  <SCORE.SYSTEM>
0

>  <SCORE.SYSTEM.CONST>
0

>  <SCORE.SYSTEM.DIHEDRAL>
0

>  <SCORE.SYSTEM.SOLV>
0

>  <SCORE.SYSTEM.norm>
0

>  <SCORE.heavy>
12

>  <SCORE.norm>
-2.32342

>  <SYMMETRIC_BONDS>
4 1 2

>  <RMSD>
12.836

$$$$
1kod cryst
 OpenBabel11021811393D
libRbt.so/2013.1/901 2013/11/27
 12 11  0  0  0  0  0  0  0  0999 V2000
   -3.7817    3.9449   23.2247 C   0  0  0  0  0  0  0  0  0  0  0  0
   -3.3423    4.4315   22.1934 O   0  5  0  0  0  0  0  0  0  0  0  0
   -4.4732    4.5593   24.0272 O   0  0  0  0  0  0  0  0  0  0  0  0
   -3.4457    2.4712   23.5274 C   0  0  1  0  0  0  0  0  0  0  0  0
   -2.9996    2.3472   24.9487 N   0  3  0  0  0  0  0  0  0  0  0  0
   -4.6800    1.5688   23.2938 C   0  0  0  0  0  0  0  0  0  0  0  0
   -4.2647    0.1066   23.1977 C   0  0  0  0  0  0  0  0  0  0  0  0
   -5.5047   -0.7782   23.0905 C   0  0  0  0  0  0  0  0  0  0  0  0
   -5.8485   -1.3012   24.4495 N   0  0  0  0  0  0  0  0  0  0  0  0
   -5.7980   -2.5818   24.7015 C   0  0  0  0  0  0  0  0  0  0  0  0
   -6.7670   -3.1659   25.1815 O   0  0  0  0  0  0  0  0  0  0  0  0
   -4.7067   -3.2471   24.4575 N   0  0  0  0  0  0  0  0  0  0  0  0
  1  2  1  0  0  0  0
  1  3  2  0  0  0  0
  4  1  1  1  0  0  0
  4  6  1  0  0  0  0
  4  5  1  0  0  0  0
  6  7  1  0  0  0  0
  7  8  1  0  0  0  0
  8  9  1  0  0  0  0
  9 10  1  0  0  0  0
 10 12  1  0  0  0  0
 10 11  2  0  0  0  0
M  CHG  2   2  -1   5   1
M  END
>  <CHROM.1>
133.41727904,163.70492021,-170.99485356,175.05128824,-96.79347116,63.92974512
-4.61987354,0.70082056,23.89285695,0.91665986,-1.05114737,-0.77245017

>  <Name>
1kod cryst

>  <RI>
0

>  <Rbt.Current_Directory>
/home/itssahil/PROJECTS/Mol_Feturizer/New_Systems/rnas/1kod

>  <Rbt.Executable>
rbdock ($Id: //depot/dev/client3/rdock/2013.1/src/exe/rbdock.cxx#4 $)

>  <Rbt.Library>
libRbt.so (2013.1, Build901 2013/11/27)

>  <Rbt.Parameter_File>
/export/apps/rDock/src/rDock_2013.1_src/data/scripts/dock_solv.prm

>  <Rbt.Receptor>
prm/blind_docking_60.prm

>  <SCORE>
-27.5123

>  <SCORE.INTER>
-23.1876

>  <SCORE.INTER.CONST>
1

>  <SCORE.INTER.POLAR>
-3.34877

>  <SCORE.INTER.ROT>
5

>  <SCORE.INTER.SOLV>
15.703

>  <SCORE.INTER.VDW>
-16.4635

>  <SCORE.INTER.norm>
-1.9323

>  <SCORE.INTRA>
-4.32464

>  <SCORE.INTRA.DIHEDRAL>
-0.641212

>  <SCORE.INTRA.DIHEDRAL.0>
7.7847

>  <SCORE.INTRA.POLAR>
0

>  <SCORE.INTRA.POLAR.0>
0

>  <SCORE.INTRA.REPUL>
0

>  <SCORE.INTRA.REPUL.0>
0

>  <SCORE.INTRA.SOLV>
-2.41028

>  <SCORE.INTRA.SOLV.lig_0>
-57.5465

>  <SCORE.INTRA.VDW>
-2.79889

>  <SCORE.INTRA.VDW.0>
1.39369

>  <SCORE.INTRA.norm>
-0.360387

>  <SCORE.RESTR>
0

>  <SCORE.RESTR.CAVITY>
0

>  <SCORE.RESTR.norm>
0

>  <SCORE.SYSTEM>
0

>  <SCORE.SYSTEM.CONST>
0

>  <SCORE.SYSTEM.DIHEDRAL>
0

>  <SCORE.SYSTEM.SOLV>
0

>  <SCORE.SYSTEM.norm>
0

>  <SCORE.heavy>
12

>  <SCORE.norm>
-2.29269

>  <SYMMETRIC_BONDS>
4 1 2

>  <RMSD>
12.855

$$$$
1kod cryst
 OpenBabel11021811393D
libRbt.so/2013.1/901 2013/11/27
 12 11  0  0  0  0  0  0  0  0999 V2000
   -4.8138   -2.4181   26.5623 C   0  0  0  0  0  0  0  0  0  0  0  0
   -5.8419   -2.5589   27.2077 O   0  5  0  0  0  0  0  0  0  0  0  0
   -3.7584   -2.0214   27.0402 O   0  0  0  0  0  0  0  0  0  0  0  0
   -4.8518   -2.7635   25.0604 C   0  0  1  0  0  0  0  0  0  0  0  0
   -5.4537   -4.1198   24.8796 N   0  3  0  0  0  0  0  0  0  0  0  0
   -5.6859   -1.7209   24.2796 C   0  0  0  0  0  0  0  0  0  0  0  0
   -5.1179   -0.3218   24.4789 C   0  0  0  0  0  0  0  0  0  0  0  0
   -5.7631    0.6452   23.4886 C   0  0  0  0  0  0  0  0  0  0  0  0
   -5.3492    2.0415   23.8318 N   0  0  0  0  0  0  0  0  0  0  0  0
   -4.1025    2.3166   24.1076 C   0  0  0  0  0  0  0  0  0  0  0  0
   -3.8031    2.8964   25.1491 O   0  0  0  0  0  0  0  0  0  0  0  0
   -3.1656    1.9886   23.2662 N   0  0  0  0  0  0  0  0  0  0  0  0
  1  2  1  0  0  0  0
  1  3  2  0  0  0  0
  4  1  1  1  0  0  0
  4  6  1  0  0  0  0
  4  5  1  0  0  0  0
  6  7  1  0  0  0  0
  7  8  1  0  0  0  0
  8  9  1  0  0  0  0
  9 10  1  0  0  0  0
 10 12  1  0  0  0  0
 10 11  2  0  0  0  0
M  CHG  2   2  -1   5   1
M  END
>  <CHROM.1>
-50.15031836,57.74237200,103.30292677,168.43494706,171.62968083,-134.70394605
-4.80270044,-0.52413419,24.95682629,-1.92155838,-1.05679164,-0.66847935

>  <Name>
1kod cryst

>  <RI>
0

>  <Rbt.Current_Directory>
/home/itssahil/PROJECTS/Mol_Feturizer/New_Systems/rnas/1kod

>  <Rbt.Executable>
rbdock ($Id: //depot/dev/client3/rdock/2013.1/src/exe/rbdock.cxx#4 $)

>  <Rbt.Library>
libRbt.so (2013.1, Build901 2013/11/27)

>  <Rbt.Parameter_File>
/export/apps/rDock/src/rDock_2013.1_src/data/scripts/dock_solv.prm

>  <Rbt.Receptor>
prm/blind_docking_100.prm

>  <SCORE>
-27.2687

>  <SCORE.INTER>
-24.2727

>  <SCORE.INTER.CONST>
1

>  <SCORE.INTER.POLAR>
-4.81944

>  <SCORE.INTER.ROT>
5

>  <SCORE.INTER.SOLV>
24.0963

>  <SCORE.INTER.VDW>
-15.0824

>  <SCORE.INTER.norm>
-2.02272

>  <SCORE.INTRA>
-2.99599

>  <SCORE.INTRA.DIHEDRAL>
-1.76845

>  <SCORE.INTRA.DIHEDRAL.0>
7.7847

>  <SCORE.INTRA.POLAR>
0

>  <SCORE.INTRA.POLAR.0>
0

>  <SCORE.INTRA.REPUL>
0

>  <SCORE.INTRA.REPUL.0>
0

>  <SCORE.INTRA.SOLV>
-2.3858

>  <SCORE.INTRA.SOLV.lig_0>
-57.5465

>  <SCORE.INTRA.VDW>
-0.918872

>  <SCORE.INTRA.VDW.0>
1.39369

>  <SCORE.INTRA.norm>
-0.249666

>  <SCORE.RESTR>
0

>  <SCORE.RESTR.CAVITY>
0

>  <SCORE.RESTR.norm>
0

>  <SCORE.SYSTEM>
0

>  <SCORE.SYSTEM.CONST>
0

>  <SCORE.SYSTEM.DIHEDRAL>
0

>  <SCORE.SYSTEM.SOLV>
0

>  <SCORE.SYSTEM.norm>
0

>  <SCORE.heavy>
12

>  <SCORE.norm>
-2.27239

>  <SYMMETRIC_BONDS>
4 1 2

>  <RMSD>
12.868

$$$$
1kod cryst
 OpenBabel11021811393D
libRbt.so/2013.1/901 2013/11/27
 12 11  0  0  0  0  0  0  0  0999 V2000
   -3.7681    0.1674   25.0362 C   0  0  0  0  0  0  0  0  0  0  0  0
   -3.6660    1.2812   24.5439 O   0  5  0  0  0  0  0  0  0  0  0  0
   -3.0870   -0.2279   25.9741 O   0  0  0  0  0  0  0  0  0  0  0  0
   -4.8180   -0.7913   24.4405 C   0  0  1  0  0  0  0  0  0  0  0  0
   -4.2281   -1.5033   23.2659 N   0  3  0  0  0  0  0  0  0  0  0  0
   -5.2750   -1.8267   25.4948 C   0  0  0  0  0  0  0  0  0  0  0  0
   -6.6186   -2.4299   25.1066 C   0  0  0  0  0  0  0  0  0  0  0  0
   -7.2772   -3.0597   26.3320 C   0  0  0  0  0  0  0  0  0  0  0  0
   -7.7108   -1.9727   27.2642 N   0  0  0  0  0  0  0  0  0  0  0  0
   -8.6968   -2.1664   28.0986 C   0  0  0  0  0  0  0  0  0  0  0  0
   -9.6494   -1.3906   28.1357 O   0  0  0  0  0  0  0  0  0  0  0  0
   -8.6669   -3.1819   28.9116 N   0  0  0  0  0  0  0  0  0  0  0  0
  1  2  1  0  0  0  0
  1  3  2  0  0  0  0
  4  1  1  1  0  0  0
  4  6  1  0  0  0  0
  4  5  1  0  0  0  0
  6  7  1  0  0  0  0
  7  8  1  0  0  0  0
  8  9  1  0  0  0  0
  9 10  1  0  0  0  0
 10 12  1  0  0  0  0
 10 11  2  0  0  0  0
M  CHG  2   2  -1   5   1
M  END
>  <CHROM.1>
85.15813342,159.70055794,-171.85379408,-160.70580272,70.20123946,-25.65343032
-6.10504384,-1.42084464,26.04406702,-0.13758067,0.68961921,0.77136767

>  <Name>
1kod cryst

>  <RI>
0

>  <Rbt.Current_Directory>
/home/itssahil/PROJECTS/Mol_Feturizer/New_Systems/rnas/1kod

>  <Rbt.Executable>
rbdock ($Id: //depot/dev/client3/rdock/2013.1/src/exe/rbdock.cxx#4 $)

>  <Rbt.Library>
libRbt.so (2013.1, Build901 2013/11/27)

>  <Rbt.Parameter_File>
/export/apps/rDock/src/rDock_2013.1_src/data/scripts/dock_solv.prm

>  <Rbt.Receptor>
prm/blind_docking_80.prm

>  <SCORE>
-27.0292

>  <SCORE.INTER>
-22.8457

>  <SCORE.INTER.CONST>
1

>  <SCORE.INTER.POLAR>
-3.86912

>  <SCORE.INTER.ROT>
5

>  <SCORE.INTER.SOLV>
18.5371

>  <SCORE.INTER.VDW>
-15.4457

>  <SCORE.INTER.norm>
-1.90381

>  <SCORE.INTRA>
-4.18351

>  <SCORE.INTRA.DIHEDRAL>
-2.24007

>  <SCORE.INTRA.DIHEDRAL.0>
7.7847

>  <SCORE.INTRA.POLAR>
0

>  <SCORE.INTRA.POLAR.0>
0

>  <SCORE.INTRA.REPUL>
0

>  <SCORE.INTRA.REPUL.0>
0

>  <SCORE.INTRA.SOLV>
-2.63057

>  <SCORE.INTRA.SOLV.lig_0>
-57.5465

>  <SCORE.INTRA.VDW>
-1.74818

>  <SCORE.INTRA.VDW.0>
1.39369

>  <SCORE.INTRA.norm>
-0.348625

>  <SCORE.RESTR>
0

>  <SCORE.RESTR.CAVITY>
0

>  <SCORE.RESTR.norm>
0

>  <SCORE.SYSTEM>
0

>  <SCORE.SYSTEM.CONST>
0

>  <SCORE.SYSTEM.DIHEDRAL>
0

>  <SCORE.SYSTEM.SOLV>
0

>  <SCORE.SYSTEM.norm>
0

>  <SCORE.heavy>
12

>  <SCORE.norm>
-2.25243

>  <SYMMETRIC_BONDS>
4 1 2

>  <RMSD>
12.877

$$$$
1kod cryst
 OpenBabel11021811393D
libRbt.so/2013.1/901 2013/11/27
 12 11  0  0  0  0  0  0  0  0999 V2000
   -3.3504   -1.3416   25.6433 C   0  0  0  0  0  0  0  0  0  0  0  0
   -2.6268   -0.4294   25.2723 O   0  5  0  0  0  0  0  0  0  0  0  0
   -3.1144   -2.0452   26.6174 O   0  0  0  0  0  0  0  0  0  0  0  0
   -4.6349   -1.6173   24.8368 C   0  0  1  0  0  0  0  0  0  0  0  0
   -4.3064   -1.6496   23.3788 N   0  3  0  0  0  0  0  0  0  0  0  0
   -5.2642   -2.9673   25.2536 C   0  0  0  0  0  0  0  0  0  0  0  0
   -6.7822   -2.9080   25.1433 C   0  0  0  0  0  0  0  0  0  0  0  0
   -7.4149   -3.3409   26.4640 C   0  0  0  0  0  0  0  0  0  0  0  0
   -7.6359   -2.1318   27.3172 N   0  0  0  0  0  0  0  0  0  0  0  0
   -8.6096   -2.1010   28.1873 C   0  0  0  0  0  0  0  0  0  0  0  0
   -9.4245   -1.1809   28.1853 O   0  0  0  0  0  0  0  0  0  0  0  0
   -8.7127   -3.0447   29.0772 N   0  0  0  0  0  0  0  0  0  0  0  0
  1  2  1  0  0  0  0
  1  3  2  0  0  0  0
  4  1  1  1  0  0  0
  4  6  1  0  0  0  0
  4  5  1  0  0  0  0
  6  7  1  0  0  0  0
  7  8  1  0  0  0  0
  8  9  1  0  0  0  0
  9 10  1  0  0  0  0
 10 12  1  0  0  0  0
 10 11  2  0  0  0  0
M  CHG  2   2  -1   5   1
M  END
>  <CHROM.1>
47.34357648,147.31114562,-74.56282007,-126.98120816,91.73851371,-28.89002448
-5.97332040,-2.04922865,26.27465117,-0.48793915,0.31378435,1.30649553

>  <Name>
1kod cryst

>  <RI>
0

>  <Rbt.Current_Directory>
/home/itssahil/PROJECTS/Mol_Feturizer/New_Systems/rnas/1kod

>  <Rbt.Executable>
rbdock ($Id: //depot/dev/client3/rdock/2013.1/src/exe/rbdock.cxx#4 $)

>  <Rbt.Library>
libRbt.so (2013.1, Build901 2013/11/27)

>  <Rbt.Parameter_File>
/export/apps/rDock/src/rDock_2013.1_src/data/scripts/dock_solv.prm

>  <Rbt.Receptor>
prm/blind_docking_40.prm

>  <SCORE>
-23.8149

>  <SCORE.INTER>
-24.2883

>  <SCORE.INTER.CONST>
1

>  <SCORE.INTER.POLAR>
-4.44342

>  <SCORE.INTER.ROT>
5

>  <SCORE.INTER.SOLV>
23.1823

>  <SCORE.INTER.VDW>
-16.0416

>  <SCORE.INTER.norm>
-2.02402

>  <SCORE.INTRA>
0.473351

>  <SCORE.INTRA.DIHEDRAL>
6.81439

>  <SCORE.INTRA.DIHEDRAL.0>
7.7847

>  <SCORE.INTRA.POLAR>
0

>  <SCORE.INTRA.POLAR.0>
0

>  <SCORE.INTRA.REPUL>
0

>  <SCORE.INTRA.REPUL.0>
0

>  <SCORE.INTRA.SOLV>
-2.41851

>  <SCORE.INTRA.SOLV.lig_0>
-57.5465

>  <SCORE.INTRA.VDW>
-1.72459

>  <SCORE.INTRA.VDW.0>
1.39369

>  <SCORE.INTRA.norm>
0.0394459

>  <SCORE.RESTR>
0

>  <SCORE.RESTR.CAVITY>
0

>  <SCORE.RESTR.norm>
0

>  <SCORE.SYSTEM>
0

>  <SCORE.SYSTEM.CONST>
0

>  <SCORE.SYSTEM.DIHEDRAL>
0

>  <SCORE.SYSTEM.SOLV>
0

>  <SCORE.SYSTEM.norm>
0

>  <SCORE.heavy>
12

>  <SCORE.norm>
-1.98458

>  <SYMMETRIC_BONDS>
4 1 2

>  <RMSD>
12.909

$$$$
1kod cryst
 OpenBabel11021811393D
libRbt.so/2013.1/901 2013/11/27
 12 11  0  0  0  0  0  0  0  0999 V2000
   -9.0018   -1.2085   28.3217 C   0  0  0  0  0  0  0  0  0  0  0  0
   -9.9322   -1.1050   27.5363 O   0  5  0  0  0  0  0  0  0  0  0  0
   -8.8954   -0.5419   29.3434 O   0  0  0  0  0  0  0  0  0  0  0  0
   -7.9020   -2.2413   28.0052 C   0  0  1  0  0  0  0  0  0  0  0  0
   -8.3622   -3.5995   28.4272 N   0  3  0  0  0  0  0  0  0  0  0  0
   -7.5804   -2.2527   26.4924 C   0  0  0  0  0  0  0  0  0  0  0  0
   -6.8396   -0.9835   26.0921 C   0  0  0  0  0  0  0  0  0  0  0  0
   -5.4283   -1.0015   26.6750 C   0  0  0  0  0  0  0  0  0  0  0  0
   -4.7923   -2.3209   26.3694 N   0  0  0  0  0  0  0  0  0  0  0  0
   -4.9558   -2.8833   25.2019 C   0  0  0  0  0  0  0  0  0  0  0  0
   -5.3654   -4.0387   25.1135 O   0  0  0  0  0  0  0  0  0  0  0  0
   -4.6686   -2.2219   24.1188 N   0  0  0  0  0  0  0  0  0  0  0  0
  1  2  1  0  0  0  0
  1  3  2  0  0  0  0
  4  1  1  6  0  0  0
  4  6  1  0  0  0  0
  4  5  1  0  0  0  0
  6  7  1  0  0  0  0
  7  8  1  0  0  0  0
  8  9  1  0  0  0  0
  9 10  1  0  0  0  0
 10 12  1  0  0  0  0
 10 11  2  0  0  0  0
M  CHG  2   2  -1   5   1
M  END
>  <CHROM.1>
-80.96529579,71.20704681,32.67830084,70.04027777,48.89819158,-139.35120438
-6.99078232,-2.06269986,26.81538899,-2.91568273,-0.68069260,-3.14036912

>  <Name>
1kod cryst

>  <RI>
0

>  <Rbt.Current_Directory>
/home/itssahil/PROJECTS/Mol_Feturizer/New_Systems/rnas/1kod

>  <Rbt.Executable>
rbdock ($Id: //depot/dev/client3/rdock/2013.1/src/exe/rbdock.cxx#4 $)

>  <Rbt.Library>
libRbt.so (2013.1, Build901 2013/11/27)

>  <Rbt.Parameter_File>
/export/apps/rDock/src/rDock_2013.1_src/data/scripts/dock_solv.prm

>  <Rbt.Receptor>
prm/blind_docking_40.prm

>  <SCORE>
-24.2944

>  <SCORE.INTER>
-22.3844

>  <SCORE.INTER.CONST>
1

>  <SCORE.INTER.POLAR>
-4.88281

>  <SCORE.INTER.ROT>
5

>  <SCORE.INTER.SOLV>
21.1129

>  <SCORE.INTER.VDW>
-12.6178

>  <SCORE.INTER.norm>
-1.86536

>  <SCORE.INTRA>
-1.94462

>  <SCORE.INTRA.DIHEDRAL>
-2.70184

>  <SCORE.INTRA.DIHEDRAL.0>
7.7847

>  <SCORE.INTRA.POLAR>
0

>  <SCORE.INTRA.POLAR.0>
0

>  <SCORE.INTRA.REPUL>
0

>  <SCORE.INTRA.REPUL.0>
0

>  <SCORE.INTRA.SOLV>
-1.16225

>  <SCORE.INTRA.SOLV.lig_0>
-57.5465

>  <SCORE.INTRA.VDW>
-0.0125722

>  <SCORE.INTRA.VDW.0>
1.39369

>  <SCORE.INTRA.norm>
-0.162051

>  <SCORE.RESTR>
0.0346034

>  <SCORE.RESTR.CAVITY>
0.0346034

>  <SCORE.RESTR.norm>
0.00288362

>  <SCORE.SYSTEM>
0

>  <SCORE.SYSTEM.CONST>
0

>  <SCORE.SYSTEM.DIHEDRAL>
0

>  <SCORE.SYSTEM.SOLV>
0

>  <SCORE.SYSTEM.norm>
0

>  <SCORE.heavy>
12

>  <SCORE.norm>
-2.02453

>  <SYMMETRIC_BONDS>
4 1 2

>  <RMSD>
12.926

$$$$
1kod cryst
 OpenBabel11021811393D
libRbt.so/2013.1/901 2013/11/27
 12 11  0  0  0  0  0  0  0  0999 V2000
   -8.4356   -1.0043   28.1321 C   0  0  0  0  0  0  0  0  0  0  0  0
   -9.5888   -1.3836   28.2720 O   0  5  0  0  0  0  0  0  0  0  0  0
   -8.0168    0.0697   28.5454 O   0  0  0  0  0  0  0  0  0  0  0  0
   -7.4541   -1.9362   27.3942 C   0  0  1  0  0  0  0  0  0  0  0  0
   -7.8437   -3.3586   27.6385 N   0  3  0  0  0  0  0  0  0  0  0  0
   -7.4669   -1.6519   25.8739 C   0  0  0  0  0  0  0  0  0  0  0  0
   -6.1321   -2.0317   25.2461 C   0  0  0  0  0  0  0  0  0  0  0  0
   -5.2213   -0.8076   25.1851 C   0  0  0  0  0  0  0  0  0  0  0  0
   -4.0919   -1.0876   24.2445 N   0  0  0  0  0  0  0  0  0  0  0  0
   -3.4537   -0.1084   23.6615 C   0  0  0  0  0  0  0  0  0  0  0  0
   -3.3221   -0.0841   22.4398 O   0  0  0  0  0  0  0  0  0  0  0  0
   -2.9369    0.8458   24.3796 N   0  0  0  0  0  0  0  0  0  0  0  0
  1  2  1  0  0  0  0
  1  3  2  0  0  0  0
  4  1  1  1  0  0  0
  4  6  1  0  0  0  0
  4  5  1  0  0  0  0
  6  7  1  0  0  0  0
  7  8  1  0  0  0  0
  8  9  1  0  0  0  0
  9 10  1  0  0  0  0
 10 12  1  0  0  0  0
 10 11  2  0  0  0  0
M  CHG  2   2  -1   5   1
M  END
>  <CHROM.1>
-30.98347034,153.20271282,33.11932517,-94.05779250,-164.43275157,-23.81567415
-6.16670093,-1.05656548,25.93225191,-3.07383634,-0.74236101,-2.70994371

>  <Name>
1kod cryst

>  <RI>
0

>  <Rbt.Current_Directory>
/home/itssahil/PROJECTS/Mol_Feturizer/New_Systems/rnas/1kod

>  <Rbt.Executable>
rbdock ($Id: //depot/dev/client3/rdock/2013.1/src/exe/rbdock.cxx#4 $)

>  <Rbt.Library>
libRbt.so (2013.1, Build901 2013/11/27)

>  <Rbt.Parameter_File>
/export/apps/rDock/src/rDock_2013.1_src/data/scripts/dock_solv.prm

>  <Rbt.Receptor>
prm/blind_docking_80.prm

>  <SCORE>
-27.9052

>  <SCORE.INTER>
-25.9284

>  <SCORE.INTER.CONST>
1

>  <SCORE.INTER.POLAR>
-4.89519

>  <SCORE.INTER.ROT>
5

>  <SCORE.INTER.SOLV>
18.9121

>  <SCORE.INTER.VDW>
-14.2057

>  <SCORE.INTER.norm>
-2.1607

>  <SCORE.INTRA>
-1.97681

>  <SCORE.INTRA.DIHEDRAL>
2.68

>  <SCORE.INTRA.DIHEDRAL.0>
7.7847

>  <SCORE.INTRA.POLAR>
0

>  <SCORE.INTRA.POLAR.0>
0

>  <SCORE.INTRA.REPUL>
0

>  <SCORE.INTRA.REPUL.0>
0

>  <SCORE.INTRA.SOLV>
-2.50371

>  <SCORE.INTRA.SOLV.lig_0>
-57.5465

>  <SCORE.INTRA.VDW>
-2.06496

>  <SCORE.INTRA.VDW.0>
1.39369

>  <SCORE.INTRA.norm>
-0.164734

>  <SCORE.RESTR>
0

>  <SCORE.RESTR.CAVITY>
0

>  <SCORE.RESTR.norm>
0

>  <SCORE.SYSTEM>
0

>  <SCORE.SYSTEM.CONST>
0

>  <SCORE.SYSTEM.DIHEDRAL>
0

>  <SCORE.SYSTEM.SOLV>
0

>  <SCORE.SYSTEM.norm>
0

>  <SCORE.heavy>
12

>  <SCORE.norm>
-2.32543

>  <SYMMETRIC_BONDS>
4 1 2

>  <RMSD>
12.934

$$$$
1kod cryst
 OpenBabel11021811393D
libRbt.so/2013.1/901 2013/11/27
 12 11  0  0  0  0  0  0  0  0999 V2000
   -9.9513   -1.4501   28.5415 C   0  0  0  0  0  0  0  0  0  0  0  0
  -10.7870   -2.3077   28.7855 O   0  5  0  0  0  0  0  0  0  0  0  0
  -10.2101   -0.2581   28.4329 O   0  0  0  0  0  0  0  0  0  0  0  0
   -8.4875   -1.8992   28.3634 C   0  0  1  0  0  0  0  0  0  0  0  0
   -8.3851   -3.3675   28.6242 N   0  3  0  0  0  0  0  0  0  0  0  0
   -7.9914   -1.5941   26.9305 C   0  0  0  0  0  0  0  0  0  0  0  0
   -6.4768   -1.4352   26.9099 C   0  0  0  0  0  0  0  0  0  0  0  0
   -6.0308   -0.8955   25.5528 C   0  0  0  0  0  0  0  0  0  0  0  0
   -4.5592   -1.1179   25.4002 N   0  0  0  0  0  0  0  0  0  0  0  0
   -4.0595   -2.3234   25.4567 C   0  0  0  0  0  0  0  0  0  0  0  0
   -3.1419   -2.5871   26.2307 O   0  0  0  0  0  0  0  0  0  0  0  0
   -4.5251   -3.2544   24.6759 N   0  0  0  0  0  0  0  0  0  0  0  0
  1  2  1  0  0  0  0
  1  3  2  0  0  0  0
  4  1  1  6  0  0  0
  4  6  1  0  0  0  0
  4  5  1  0  0  0  0
  6  7  1  0  0  0  0
  7  8  1  0  0  0  0
  8  9  1  0  0  0  0
  9 10  1  0  0  0  0
 10 12  1  0  0  0  0
 10 11  2  0  0  0  0
M  CHG  2   2  -1   5   1
M  END
>  <CHROM.1>
-3.57161968,154.61871403,-60.06143739,-170.05410689,-163.67364596,-120.96038398
-7.05508024,-1.91086615,27.00112990,3.03605799,-0.49201907,2.75188264

>  <Name>
1kod cryst

>  <RI>
0

>  <Rbt.Current_Directory>
/home/itssahil/PROJECTS/Mol_Feturizer/New_Systems/rnas/1kod

>  <Rbt.Executable>
rbdock ($Id: //depot/dev/client3/rdock/2013.1/src/exe/rbdock.cxx#4 $)

>  <Rbt.Library>
libRbt.so (2013.1, Build901 2013/11/27)

>  <Rbt.Parameter_File>
/export/apps/rDock/src/rDock_2013.1_src/data/scripts/dock_solv.prm

>  <Rbt.Receptor>
prm/blind_docking_80.prm

>  <SCORE>
-24.6873

>  <SCORE.INTER>
-21.6386

>  <SCORE.INTER.CONST>
1

>  <SCORE.INTER.POLAR>
-4.28057

>  <SCORE.INTER.ROT>
5

>  <SCORE.INTER.SOLV>
19.2273

>  <SCORE.INTER.VDW>
-13.4996

>  <SCORE.INTER.norm>
-1.80322

>  <SCORE.INTRA>
-4.36146

>  <SCORE.INTRA.DIHEDRAL>
-2.23111

>  <SCORE.INTRA.DIHEDRAL.0>
7.7847

>  <SCORE.INTRA.POLAR>
0

>  <SCORE.INTRA.POLAR.0>
0

>  <SCORE.INTRA.REPUL>
0

>  <SCORE.INTRA.REPUL.0>
0

>  <SCORE.INTRA.SOLV>
-2.21707

>  <SCORE.INTRA.SOLV.lig_0>
-57.5465

>  <SCORE.INTRA.VDW>
-2.13737

>  <SCORE.INTRA.VDW.0>
1.39369

>  <SCORE.INTRA.norm>
-0.363455

>  <SCORE.RESTR>
1.31283

>  <SCORE.RESTR.CAVITY>
1.31283

>  <SCORE.RESTR.norm>
0.109402

>  <SCORE.SYSTEM>
0

>  <SCORE.SYSTEM.CONST>
0

>  <SCORE.SYSTEM.DIHEDRAL>
0

>  <SCORE.SYSTEM.SOLV>
0

>  <SCORE.SYSTEM.norm>
0

>  <SCORE.heavy>
12

>  <SCORE.norm>
-2.05727

>  <SYMMETRIC_BONDS>
4 1 2

>  <RMSD>
12.942

$$$$
1kod cryst
 OpenBabel11021811393D
libRbt.so/2013.1/901 2013/11/27
 12 11  0  0  0  0  0  0  0  0999 V2000
   -4.6845    0.0009   25.0114 C   0  0  0  0  0  0  0  0  0  0  0  0
   -5.4663    0.9246   25.1816 O   0  5  0  0  0  0  0  0  0  0  0  0
   -3.5234    0.0106   25.4006 O   0  0  0  0  0  0  0  0  0  0  0  0
   -5.1946   -1.2479   24.2653 C   0  0  1  0  0  0  0  0  0  0  0  0
   -4.3161   -1.5127   23.0853 N   0  3  0  0  0  0  0  0  0  0  0  0
   -5.1919   -2.4821   25.1975 C   0  0  0  0  0  0  0  0  0  0  0  0
   -6.0290   -2.2160   26.4419 C   0  0  0  0  0  0  0  0  0  0  0  0
   -7.3400   -2.9947   26.3606 C   0  0  0  0  0  0  0  0  0  0  0  0
   -7.8205   -3.2851   27.7475 N   0  0  0  0  0  0  0  0  0  0  0  0
   -8.6388   -2.4666   28.3528 C   0  0  0  0  0  0  0  0  0  0  0  0
   -8.3733   -2.0241   29.4682 O   0  0  0  0  0  0  0  0  0  0  0  0
   -9.7556   -2.1255   27.7786 N   0  0  0  0  0  0  0  0  0  0  0  0
  1  2  1  0  0  0  0
  1  3  2  0  0  0  0
  4  1  1  1  0  0  0
  4  6  1  0  0  0  0
  4  5  1  0  0  0  0
  6  7  1  0  0  0  0
  7  8  1  0  0  0  0
  8  9  1  0  0  0  0
  9 10  1  0  0  0  0
 10 12  1  0  0  0  0
 10 11  2  0  0  0  0
M  CHG  2   2  -1   5   1
M  END
>  <CHROM.1>
123.88264191,56.76737343,-149.72923991,106.75821238,152.56538345,-88.03429853
-6.35321636,-1.60448014,26.17657779,-0.02149715,0.79498358,0.48402460

>  <Name>
1kod cryst

>  <RI>
0

>  <Rbt.Current_Directory>
/home/itssahil/PROJECTS/Mol_Feturizer/New_Systems/rnas/1kod

>  <Rbt.Executable>
rbdock ($Id: //depot/dev/client3/rdock/2013.1/src/exe/rbdock.cxx#4 $)

>  <Rbt.Library>
libRbt.so (2013.1, Build901 2013/11/27)

>  <Rbt.Parameter_File>
/export/apps/rDock/src/rDock_2013.1_src/data/scripts/dock_solv.prm

>  <Rbt.Receptor>
prm/blind_docking_40.prm

>  <SCORE>
-24.6936

>  <SCORE.INTER>
-23.5804

>  <SCORE.INTER.CONST>
1

>  <SCORE.INTER.POLAR>
-3.77244

>  <SCORE.INTER.ROT>
5

>  <SCORE.INTER.SOLV>
18.3701

>  <SCORE.INTER.VDW>
-16.2022

>  <SCORE.INTER.norm>
-1.96504

>  <SCORE.INTRA>
-1.11313

>  <SCORE.INTRA.DIHEDRAL>
4.12165

>  <SCORE.INTRA.DIHEDRAL.0>
7.7847

>  <SCORE.INTRA.POLAR>
0

>  <SCORE.INTRA.POLAR.0>
0

>  <SCORE.INTRA.REPUL>
0

>  <SCORE.INTRA.REPUL.0>
0

>  <SCORE.INTRA.SOLV>
-2.53131

>  <SCORE.INTRA.SOLV.lig_0>
-57.5465

>  <SCORE.INTRA.VDW>
-1.9083

>  <SCORE.INTRA.VDW.0>
1.39369

>  <SCORE.INTRA.norm>
-0.092761

>  <SCORE.RESTR>
0

>  <SCORE.RESTR.CAVITY>
0

>  <SCORE.RESTR.norm>
0

>  <SCORE.SYSTEM>
0

>  <SCORE.SYSTEM.CONST>
0

>  <SCORE.SYSTEM.DIHEDRAL>
0

>  <SCORE.SYSTEM.SOLV>
0

>  <SCORE.SYSTEM.norm>
0

>  <SCORE.heavy>
12

>  <SCORE.norm>
-2.0578

>  <SYMMETRIC_BONDS>
4 1 2

>  <RMSD>
12.959

$$$$
1kod cryst
 OpenBabel11021811393D
libRbt.so/2013.1/901 2013/11/27
 12 11  0  0  0  0  0  0  0  0999 V2000
   -4.0828   -0.4335   24.3787 C   0  0  0  0  0  0  0  0  0  0  0  0
   -4.2608    0.7656   24.5331 O   0  5  0  0  0  0  0  0  0  0  0  0
   -3.0802   -0.9126   23.8639 O   0  0  0  0  0  0  0  0  0  0  0  0
   -5.1857   -1.3950   24.8638 C   0  0  1  0  0  0  0  0  0  0  0  0
   -4.5959   -2.7493   25.0932 N   0  3  0  0  0  0  0  0  0  0  0  0
   -5.8223   -0.8807   26.1762 C   0  0  0  0  0  0  0  0  0  0  0  0
   -7.2840   -1.3001   26.2635 C   0  0  0  0  0  0  0  0  0  0  0  0
   -7.3824   -2.8218   26.3455 C   0  0  0  0  0  0  0  0  0  0  0  0
   -7.7496   -3.2112   27.7427 N   0  0  0  0  0  0  0  0  0  0  0  0
   -8.6170   -2.5098   28.4222 C   0  0  0  0  0  0  0  0  0  0  0  0
   -8.3390   -2.0791   29.5393 O   0  0  0  0  0  0  0  0  0  0  0  0
   -9.7947   -2.2753   27.9212 N   0  0  0  0  0  0  0  0  0  0  0  0
  1  2  1  0  0  0  0
  1  3  2  0  0  0  0
  4  1  1  1  0  0  0
  4  6  1  0  0  0  0
  4  5  1  0  0  0  0
  6  7  1  0  0  0  0
  7  8  1  0  0  0  0
  8  9  1  0  0  0  0
  9 10  1  0  0  0  0
 10 12  1  0  0  0  0
 10 11  2  0  0  0  0
M  CHG  2   2  -1   5   1
M  END
>  <CHROM.1>
-157.80338581,149.18075111,78.71929901,64.52551106,106.34528337,-140.72394506
-6.33589016,-1.66878417,26.26555585,0.29281016,0.68861391,-0.01693780

>  <Name>
1kod cryst

>  <RI>
0

>  <Rbt.Current_Directory>
/home/itssahil/PROJECTS/Mol_Feturizer/New_Systems/rnas/1kod

>  <Rbt.Executable>
rbdock ($Id: //depot/dev/client3/rdock/2013.1/src/exe/rbdock.cxx#4 $)

>  <Rbt.Library>
libRbt.so (2013.1, Build901 2013/11/27)

>  <Rbt.Parameter_File>
/export/apps/rDock/src/rDock_2013.1_src/data/scripts/dock_solv.prm

>  <Rbt.Receptor>
prm/blind_docking_100.prm

>  <SCORE>
-20.3689

>  <SCORE.INTER>
-21.5437

>  <SCORE.INTER.CONST>
1

>  <SCORE.INTER.POLAR>
-3.72129

>  <SCORE.INTER.ROT>
5

>  <SCORE.INTER.SOLV>
17.0576

>  <SCORE.INTER.VDW>
-14.5774

>  <SCORE.INTER.norm>
-1.79531

>  <SCORE.INTRA>
1.17482

>  <SCORE.INTRA.DIHEDRAL>
2.86442

>  <SCORE.INTRA.DIHEDRAL.0>
7.7847

>  <SCORE.INTRA.POLAR>
0

>  <SCORE.INTRA.POLAR.0>
0

>  <SCORE.INTRA.REPUL>
0

>  <SCORE.INTRA.REPUL.0>
0

>  <SCORE.INTRA.SOLV>
-0.414975

>  <SCORE.INTRA.SOLV.lig_0>
-57.5465

>  <SCORE.INTRA.VDW>
-0.0499031

>  <SCORE.INTRA.VDW.0>
1.39369

>  <SCORE.INTRA.norm>
0.0979018

>  <SCORE.RESTR>
0

>  <SCORE.RESTR.CAVITY>
0

>  <SCORE.RESTR.norm>
0

>  <SCORE.SYSTEM>
0

>  <SCORE.SYSTEM.CONST>
0

>  <SCORE.SYSTEM.DIHEDRAL>
0

>  <SCORE.SYSTEM.SOLV>
0

>  <SCORE.SYSTEM.norm>
0

>  <SCORE.heavy>
12

>  <SCORE.norm>
-1.69741

>  <SYMMETRIC_BONDS>
4 1 2

>  <RMSD>
12.961

$$$$
1kod cryst
 OpenBabel11021811393D
libRbt.so/2013.1/901 2013/11/27
 12 11  0  0  0  0  0  0  0  0999 V2000
   -8.9521   -0.9978   27.7729 C   0  0  0  0  0  0  0  0  0  0  0  0
  -10.0754   -1.2348   27.3541 O   0  5  0  0  0  0  0  0  0  0  0  0
   -8.5090    0.1327   27.9324 O   0  0  0  0  0  0  0  0  0  0  0  0
   -8.0448   -2.1942   28.1216 C   0  0  1  0  0  0  0  0  0  0  0  0
   -8.8080   -3.1651   28.9639 N   0  3  0  0  0  0  0  0  0  0  0  0
   -7.5529   -2.9014   26.8370 C   0  0  0  0  0  0  0  0  0  0  0  0
   -6.9473   -1.8937   25.8686 C   0  0  0  0  0  0  0  0  0  0  0  0
   -5.6661   -1.3111   26.4610 C   0  0  0  0  0  0  0  0  0  0  0  0
   -4.9388   -0.5520   25.3964 N   0  0  0  0  0  0  0  0  0  0  0  0
   -4.0557   -1.1477   24.6406 C   0  0  0  0  0  0  0  0  0  0  0  0
   -2.9186   -0.6951   24.5275 O   0  0  0  0  0  0  0  0  0  0  0  0
   -4.3837   -2.2237   23.9865 N   0  0  0  0  0  0  0  0  0  0  0  0
  1  2  1  0  0  0  0
  1  3  2  0  0  0  0
  4  1  1  6  0  0  0
  4  6  1  0  0  0  0
  4  5  1  0  0  0  0
  6  7  1  0  0  0  0
  7  8  1  0  0  0  0
  8  9  1  0  0  0  0
  9 10  1  0  0  0  0
 10 12  1  0  0  0  0
 10 11  2  0  0  0  0
M  CHG  2   2  -1   5   1
M  END
>  <CHROM.1>
-48.07376767,51.24026489,-170.01440008,66.62717310,168.27010399,89.76440571
-6.75413525,-1.52449740,26.49689563,3.00947953,-0.59149100,3.06671940

>  <Name>
1kod cryst

>  <RI>
0

>  <Rbt.Current_Directory>
/home/itssahil/PROJECTS/Mol_Feturizer/New_Systems/rnas/1kod

>  <Rbt.Executable>
rbdock ($Id: //depot/dev/client3/rdock/2013.1/src/exe/rbdock.cxx#4 $)

>  <Rbt.Library>
libRbt.so (2013.1, Build901 2013/11/27)

>  <Rbt.Parameter_File>
/export/apps/rDock/src/rDock_2013.1_src/data/scripts/dock_solv.prm

>  <Rbt.Receptor>
prm/blind_docking_80.prm

>  <SCORE>
-28.1927

>  <SCORE.INTER>
-23.8373

>  <SCORE.INTER.CONST>
1

>  <SCORE.INTER.POLAR>
-4.53702

>  <SCORE.INTER.ROT>
5

>  <SCORE.INTER.SOLV>
18.3666

>  <SCORE.INTER.VDW>
-13.8237

>  <SCORE.INTER.norm>
-1.98644

>  <SCORE.INTRA>
-4.39562

>  <SCORE.INTRA.DIHEDRAL>
-4.34668

>  <SCORE.INTRA.DIHEDRAL.0>
7.7847

>  <SCORE.INTRA.POLAR>
0

>  <SCORE.INTRA.POLAR.0>
0

>  <SCORE.INTRA.REPUL>
0

>  <SCORE.INTRA.REPUL.0>
0

>  <SCORE.INTRA.SOLV>
-1.56978

>  <SCORE.INTRA.SOLV.lig_0>
-57.5465

>  <SCORE.INTRA.VDW>
-1.43739

>  <SCORE.INTRA.VDW.0>
1.39369

>  <SCORE.INTRA.norm>
-0.366301

>  <SCORE.RESTR>
0.040242

>  <SCORE.RESTR.CAVITY>
0.040242

>  <SCORE.RESTR.norm>
0.0033535

>  <SCORE.SYSTEM>
0

>  <SCORE.SYSTEM.CONST>
0

>  <SCORE.SYSTEM.DIHEDRAL>
0

>  <SCORE.SYSTEM.SOLV>
0

>  <SCORE.SYSTEM.norm>
0

>  <SCORE.heavy>
12

>  <SCORE.norm>
-2.34939

>  <SYMMETRIC_BONDS>
4 1 2

>  <RMSD>
12.972

$$$$
1kod cryst
 OpenBabel11021811393D
libRbt.so/2013.1/901 2013/11/27
 12 11  0  0  0  0  0  0  0  0999 V2000
   -5.1547   -1.7245   26.1827 C   0  0  0  0  0  0  0  0  0  0  0  0
   -4.6039   -2.1364   27.1929 O   0  5  0  0  0  0  0  0  0  0  0  0
   -6.2507   -1.1781   26.1790 O   0  0  0  0  0  0  0  0  0  0  0  0
   -4.4226   -1.9029   24.8380 C   0  0  1  0  0  0  0  0  0  0  0  0
   -4.7269   -3.2579   24.2847 N   0  3  0  0  0  0  0  0  0  0  0  0
   -4.8657   -0.8210   23.8253 C   0  0  0  0  0  0  0  0  0  0  0  0
   -3.7363    0.1683   23.5691 C   0  0  0  0  0  0  0  0  0  0  0  0
   -4.2360    1.5940   23.7918 C   0  0  0  0  0  0  0  0  0  0  0  0
   -3.1333    2.5523   23.4687 N   0  0  0  0  0  0  0  0  0  0  0  0
   -3.3990    3.7961   23.1717 C   0  0  0  0  0  0  0  0  0  0  0  0
   -2.9696    4.2999   22.1362 O   0  0  0  0  0  0  0  0  0  0  0  0
   -4.1131    4.5177   23.9857 N   0  0  0  0  0  0  0  0  0  0  0  0
  1  2  1  0  0  0  0
  1  3  2  0  0  0  0
  4  1  1  1  0  0  0
  4  6  1  0  0  0  0
  4  5  1  0  0  0  0
  6  7  1  0  0  0  0
  7  8  1  0  0  0  0
  8  9  1  0  0  0  0
  9 10  1  0  0  0  0
 10 12  1  0  0  0  0
 10 11  2  0  0  0  0
M  CHG  2   2  -1   5   1
M  END
>  <CHROM.1>
85.68087108,109.97719939,34.41168678,-127.16232280,-177.17451131,-21.58166040
-4.30863952,0.47738249,24.39276063,2.17336677,-1.14373310,-2.98001477

>  <Name>
1kod cryst

>  <RI>
0

>  <Rbt.Current_Directory>
/home/itssahil/PROJECTS/Mol_Feturizer/New_Systems/rnas/1kod

>  <Rbt.Executable>
rbdock ($Id: //depot/dev/client3/rdock/2013.1/src/exe/rbdock.cxx#4 $)

>  <Rbt.Library>
libRbt.so (2013.1, Build901 2013/11/27)

>  <Rbt.Parameter_File>
/export/apps/rDock/src/rDock_2013.1_src/data/scripts/dock_solv.prm

>  <Rbt.Receptor>
prm/blind_docking_80.prm

>  <SCORE>
-22.5717

>  <SCORE.INTER>
-22.759

>  <SCORE.INTER.CONST>
1

>  <SCORE.INTER.POLAR>
-4.32576

>  <SCORE.INTER.ROT>
5

>  <SCORE.INTER.SOLV>
18.8941

>  <SCORE.INTER.VDW>
-13.9848

>  <SCORE.INTER.norm>
-1.89658

>  <SCORE.INTRA>
0.161883

>  <SCORE.INTRA.DIHEDRAL>
6.56793

>  <SCORE.INTRA.DIHEDRAL.0>
7.7847

>  <SCORE.INTRA.POLAR>
0

>  <SCORE.INTRA.POLAR.0>
0

>  <SCORE.INTRA.REPUL>
0

>  <SCORE.INTRA.REPUL.0>
0

>  <SCORE.INTRA.SOLV>
-3.01268

>  <SCORE.INTRA.SOLV.lig_0>
-57.5465

>  <SCORE.INTRA.VDW>
-1.61575

>  <SCORE.INTRA.VDW.0>
1.39369

>  <SCORE.INTRA.norm>
0.0134902

>  <SCORE.RESTR>
0.0253299

>  <SCORE.RESTR.CAVITY>
0.0253299

>  <SCORE.RESTR.norm>
0.00211083

>  <SCORE.SYSTEM>
0

>  <SCORE.SYSTEM.CONST>
0

>  <SCORE.SYSTEM.DIHEDRAL>
0

>  <SCORE.SYSTEM.SOLV>
0

>  <SCORE.SYSTEM.norm>
0

>  <SCORE.heavy>
12

>  <SCORE.norm>
-1.88098

>  <SYMMETRIC_BONDS>
4 1 2

>  <RMSD>
12.988

$$$$
1kod cryst
 OpenBabel11021811393D
libRbt.so/2013.1/901 2013/11/27
 12 11  0  0  0  0  0  0  0  0999 V2000
   -6.7632   -0.6533   26.6725 C   0  0  0  0  0  0  0  0  0  0  0  0
   -7.5358   -0.1929   25.8451 O   0  5  0  0  0  0  0  0  0  0  0  0
   -6.1773    0.0235   27.5081 O   0  0  0  0  0  0  0  0  0  0  0  0
   -6.5170   -2.1750   26.6615 C   0  0  1  0  0  0  0  0  0  0  0  0
   -7.8196   -2.8883   26.8319 N   0  3  0  0  0  0  0  0  0  0  0  0
   -5.8588   -2.6138   25.3324 C   0  0  0  0  0  0  0  0  0  0  0  0
   -4.3453   -2.4601   25.4072 C   0  0  0  0  0  0  0  0  0  0  0  0
   -3.9749   -0.9788   25.4206 C   0  0  0  0  0  0  0  0  0  0  0  0
   -3.8708   -0.4903   24.0102 N   0  0  0  0  0  0  0  0  0  0  0  0
   -4.8416   -0.6975   23.1614 C   0  0  0  0  0  0  0  0  0  0  0  0
   -4.6237   -1.2329   22.0768 O   0  0  0  0  0  0  0  0  0  0  0  0
   -6.0515   -0.3208   23.4570 N   0  0  0  0  0  0  0  0  0  0  0  0
  1  2  1  0  0  0  0
  1  3  2  0  0  0  0
  4  1  1  6  0  0  0
  4  6  1  0  0  0  0
  4  5  1  0  0  0  0
  6  7  1  0  0  0  0
  7  8  1  0  0  0  0
  8  9  1  0  0  0  0
  9 10  1  0  0  0  0
 10 12  1  0  0  0  0
 10 11  2  0  0  0  0
M  CHG  2   2  -1   5   1
M  END
>  <CHROM.1>
-57.43386489,85.68244076,-64.07536481,-70.14811870,-86.48279111,-128.40979890
-5.74098008,-1.21731957,25.19661801,2.62405543,-0.85877690,2.66751299

>  <Name>
1kod cryst

>  <RI>
0

>  <Rbt.Current_Directory>
/home/itssahil/PROJECTS/Mol_Feturizer/New_Systems/rnas/1kod

>  <Rbt.Executable>
rbdock ($Id: //depot/dev/client3/rdock/2013.1/src/exe/rbdock.cxx#4 $)

>  <Rbt.Library>
libRbt.so (2013.1, Build901 2013/11/27)

>  <Rbt.Parameter_File>
/export/apps/rDock/src/rDock_2013.1_src/data/scripts/dock_solv.prm

>  <Rbt.Receptor>
prm/blind_docking_60.prm

>  <SCORE>
-18.847

>  <SCORE.INTER>
-17.5887

>  <SCORE.INTER.CONST>
1

>  <SCORE.INTER.POLAR>
-2.85069

>  <SCORE.INTER.ROT>
5

>  <SCORE.INTER.SOLV>
17.3338

>  <SCORE.INTER.VDW>
-14.9348

>  <SCORE.INTER.norm>
-1.46572

>  <SCORE.INTRA>
-1.25834

>  <SCORE.INTRA.DIHEDRAL>
-0.836338

>  <SCORE.INTRA.DIHEDRAL.0>
7.7847

>  <SCORE.INTRA.POLAR>
0

>  <SCORE.INTRA.POLAR.0>
0

>  <SCORE.INTRA.REPUL>
0

>  <SCORE.INTRA.REPUL.0>
0

>  <SCORE.INTRA.SOLV>
2.51254

>  <SCORE.INTRA.SOLV.lig_0>
-57.5465

>  <SCORE.INTRA.VDW>
-2.09644

>  <SCORE.INTRA.VDW.0>
1.39369

>  <SCORE.INTRA.norm>
-0.104861

>  <SCORE.RESTR>
0

>  <SCORE.RESTR.CAVITY>
0

>  <SCORE.RESTR.norm>
0

>  <SCORE.SYSTEM>
0

>  <SCORE.SYSTEM.CONST>
0

>  <SCORE.SYSTEM.DIHEDRAL>
0

>  <SCORE.SYSTEM.SOLV>
0

>  <SCORE.SYSTEM.norm>
0

>  <SCORE.heavy>
12

>  <SCORE.norm>
-1.57059

>  <SYMMETRIC_BONDS>
4 1 2

>  <RMSD>
12.993

$$$$
1kod cryst
 OpenBabel11021811393D
libRbt.so/2013.1/901 2013/11/27
 12 11  0  0  0  0  0  0  0  0999 V2000
   -5.0221    0.6360   24.6021 C   0  0  0  0  0  0  0  0  0  0  0  0
   -5.7005    1.2486   25.4132 O   0  5  0  0  0  0  0  0  0  0  0  0
   -4.1310    1.1468   23.9353 O   0  0  0  0  0  0  0  0  0  0  0  0
   -5.3064   -0.8672   24.4127 C   0  0  1  0  0  0  0  0  0  0  0  0
   -4.4436   -1.3994   23.3141 N   0  3  0  0  0  0  0  0  0  0  0  0
   -5.0202   -1.6474   25.7171 C   0  0  0  0  0  0  0  0  0  0  0  0
   -5.7706   -2.9728   25.7248 C   0  0  0  0  0  0  0  0  0  0  0  0
   -7.2719   -2.7175   25.8382 C   0  0  0  0  0  0  0  0  0  0  0  0
   -7.5380   -1.9204   27.0761 N   0  0  0  0  0  0  0  0  0  0  0  0
   -8.3086   -2.3934   28.0187 C   0  0  0  0  0  0  0  0  0  0  0  0
   -9.2627   -1.7408   28.4362 O   0  0  0  0  0  0  0  0  0  0  0  0
   -8.0577   -3.5613   28.5347 N   0  0  0  0  0  0  0  0  0  0  0  0
  1  2  1  0  0  0  0
  1  3  2  0  0  0  0
  4  1  1  1  0  0  0
  4  6  1  0  0  0  0
  4  5  1  0  0  0  0
  6  7  1  0  0  0  0
  7  8  1  0  0  0  0
  8  9  1  0  0  0  0
  9 10  1  0  0  0  0
 10 12  1  0  0  0  0
 10 11  2  0  0  0  0
M  CHG  2   2  -1   5   1
M  END
>  <CHROM.1>
175.88014784,158.44428084,108.20974668,-68.47075032,-57.17559484,59.95281937
-6.30647564,-1.34102608,25.90891650,0.47727871,0.81200005,0.00040402

>  <Name>
1kod cryst

>  <RI>
0

>  <Rbt.Current_Directory>
/home/itssahil/PROJECTS/Mol_Feturizer/New_Systems/rnas/1kod

>  <Rbt.Executable>
rbdock ($Id: //depot/dev/client3/rdock/2013.1/src/exe/rbdock.cxx#4 $)

>  <Rbt.Library>
libRbt.so (2013.1, Build901 2013/11/27)

>  <Rbt.Parameter_File>
/export/apps/rDock/src/rDock_2013.1_src/data/scripts/dock_solv.prm

>  <Rbt.Receptor>
prm/blind_docking_60.prm

>  <SCORE>
-23.4491

>  <SCORE.INTER>
-21.5114

>  <SCORE.INTER.CONST>
1

>  <SCORE.INTER.POLAR>
-3.36598

>  <SCORE.INTER.ROT>
5

>  <SCORE.INTER.SOLV>
15.7511

>  <SCORE.INTER.VDW>
-15.3047

>  <SCORE.INTER.norm>
-1.79261

>  <SCORE.INTRA>
-1.93771

>  <SCORE.INTRA.DIHEDRAL>
-0.482802

>  <SCORE.INTRA.DIHEDRAL.0>
7.7847

>  <SCORE.INTRA.POLAR>
0

>  <SCORE.INTRA.POLAR.0>
0

>  <SCORE.INTRA.REPUL>
0

>  <SCORE.INTRA.REPUL.0>
0

>  <SCORE.INTRA.SOLV>
-0.966987

>  <SCORE.INTRA.SOLV.lig_0>
-57.5465

>  <SCORE.INTRA.VDW>
-1.21282

>  <SCORE.INTRA.VDW.0>
1.39369

>  <SCORE.INTRA.norm>
-0.161476

>  <SCORE.RESTR>
0

>  <SCORE.RESTR.CAVITY>
0

>  <SCORE.RESTR.norm>
0

>  <SCORE.SYSTEM>
0

>  <SCORE.SYSTEM.CONST>
0

>  <SCORE.SYSTEM.DIHEDRAL>
0

>  <SCORE.SYSTEM.SOLV>
0

>  <SCORE.SYSTEM.norm>
0

>  <SCORE.heavy>
12

>  <SCORE.norm>
-1.95409

>  <SYMMETRIC_BONDS>
4 1 2

>  <RMSD>
12.997

$$$$
1kod cryst
 OpenBabel11021811393D
libRbt.so/2013.1/901 2013/11/27
 12 11  0  0  0  0  0  0  0  0999 V2000
   -9.0093   -0.7465   28.5855 C   0  0  0  0  0  0  0  0  0  0  0  0
   -8.5592    0.1986   29.2161 O   0  5  0  0  0  0  0  0  0  0  0  0
  -10.1219   -0.7561   28.0740 O   0  0  0  0  0  0  0  0  0  0  0  0
   -8.1205   -1.9957   28.4252 C   0  0  1  0  0  0  0  0  0  0  0  0
   -8.8360   -3.1864   28.9774 N   0  3  0  0  0  0  0  0  0  0  0  0
   -7.7843   -2.2412   26.9356 C   0  0  0  0  0  0  0  0  0  0  0  0
   -6.7409   -1.2435   26.4499 C   0  0  0  0  0  0  0  0  0  0  0  0
   -6.8246   -1.1041   24.9315 C   0  0  0  0  0  0  0  0  0  0  0  0
   -5.6953   -0.2441   24.4587 N   0  0  0  0  0  0  0  0  0  0  0  0
   -4.5093   -0.7539   24.2601 C   0  0  0  0  0  0  0  0  0  0  0  0
   -3.5172   -0.2623   24.7936 O   0  0  0  0  0  0  0  0  0  0  0  0
   -4.3702   -1.7841   23.4775 N   0  0  0  0  0  0  0  0  0  0  0  0
  1  2  1  0  0  0  0
  1  3  2  0  0  0  0
  4  1  1  6  0  0  0
  4  6  1  0  0  0  0
  4  5  1  0  0  0  0
  6  7  1  0  0  0  0
  7  8  1  0  0  0  0
  8  9  1  0  0  0  0
  9 10  1  0  0  0  0
 10 12  1  0  0  0  0
 10 11  2  0  0  0  0
M  CHG  2   2  -1   5   1
M  END
>  <CHROM.1>
122.39475878,74.94507051,-29.57283400,-157.21819928,-173.59814307,-97.05855117
-7.01688746,-1.19086424,26.56085830,3.12562674,-0.78323877,-3.04252262

>  <Name>
1kod cryst

>  <RI>
0

>  <Rbt.Current_Directory>
/home/itssahil/PROJECTS/Mol_Feturizer/New_Systems/rnas/1kod

>  <Rbt.Executable>
rbdock ($Id: //depot/dev/client3/rdock/2013.1/src/exe/rbdock.cxx#4 $)

>  <Rbt.Library>
libRbt.so (2013.1, Build901 2013/11/27)

>  <Rbt.Parameter_File>
/export/apps/rDock/src/rDock_2013.1_src/data/scripts/dock_solv.prm

>  <Rbt.Receptor>
prm/blind_docking_40.prm

>  <SCORE>
-26.6798

>  <SCORE.INTER>
-22.6551

>  <SCORE.INTER.CONST>
1

>  <SCORE.INTER.POLAR>
-4.85945

>  <SCORE.INTER.ROT>
5

>  <SCORE.INTER.SOLV>
17.0778

>  <SCORE.INTER.VDW>
-11.5312

>  <SCORE.INTER.norm>
-1.88792

>  <SCORE.INTRA>
-4.02474

>  <SCORE.INTRA.DIHEDRAL>
-0.876994

>  <SCORE.INTRA.DIHEDRAL.0>
7.7847

>  <SCORE.INTRA.POLAR>
0

>  <SCORE.INTRA.POLAR.0>
0

>  <SCORE.INTRA.REPUL>
0

>  <SCORE.INTRA.REPUL.0>
0

>  <SCORE.INTRA.SOLV>
-2.68821

>  <SCORE.INTRA.SOLV.lig_0>
-57.5465

>  <SCORE.INTRA.VDW>
-2.24213

>  <SCORE.INTRA.VDW.0>
1.39369

>  <SCORE.INTRA.norm>
-0.335395

>  <SCORE.RESTR>
0

>  <SCORE.RESTR.CAVITY>
0

>  <SCORE.RESTR.norm>
0

>  <SCORE.SYSTEM>
0

>  <SCORE.SYSTEM.CONST>
0

>  <SCORE.SYSTEM.DIHEDRAL>
0

>  <SCORE.SYSTEM.SOLV>
0

>  <SCORE.SYSTEM.norm>
0

>  <SCORE.heavy>
12

>  <SCORE.norm>
-2.22332

>  <SYMMETRIC_BONDS>
4 1 2

>  <RMSD>
13.001

$$$$
1kod cryst
 OpenBabel11021811393D
libRbt.so/2013.1/901 2013/11/27
 12 11  0  0  0  0  0  0  0  0999 V2000
   -8.4938   -0.9452   27.9285 C   0  0  0  0  0  0  0  0  0  0  0  0
   -8.0444   -0.0200   28.5884 O   0  5  0  0  0  0  0  0  0  0  0  0
   -9.6798   -1.0703   27.6502 O   0  0  0  0  0  0  0  0  0  0  0  0
   -7.5065   -2.0129   27.4169 C   0  0  1  0  0  0  0  0  0  0  0  0
   -8.0033   -3.3700   27.7992 N   0  3  0  0  0  0  0  0  0  0  0  0
   -7.3601   -1.9315   25.8793 C   0  0  0  0  0  0  0  0  0  0  0  0
   -5.9100   -2.1476   25.4666 C   0  0  0  0  0  0  0  0  0  0  0  0
   -5.2680   -0.8089   25.1094 C   0  0  0  0  0  0  0  0  0  0  0  0
   -4.1164   -1.0524   24.1858 N   0  0  0  0  0  0  0  0  0  0  0  0
   -3.4587   -0.0513   23.6649 C   0  0  0  0  0  0  0  0  0  0  0  0
   -3.2958    0.0283   22.4493 O   0  0  0  0  0  0  0  0  0  0  0  0
   -2.9556    0.8657   24.4390 N   0  0  0  0  0  0  0  0  0  0  0  0
  1  2  1  0  0  0  0
  1  3  2  0  0  0  0
  4  1  1  6  0  0  0
  4  6  1  0  0  0  0
  4  5  1  0  0  0  0
  6  7  1  0  0  0  0
  7  8  1  0  0  0  0
  8  9  1  0  0  0  0
  9 10  1  0  0  0  0
 10 12  1  0  0  0  0
 10 11  2  0  0  0  0
M  CHG  2   2  -1   5   1
M  END
>  <CHROM.1>
128.27223791,140.27858266,26.69560980,-103.05883923,-156.03274931,-4.64108380
-6.18056658,-1.05151337,25.89685198,3.11799493,-0.72686291,-2.82229965

>  <Name>
1kod cryst

>  <RI>
0

>  <Rbt.Current_Directory>
/home/itssahil/PROJECTS/Mol_Feturizer/New_Systems/rnas/1kod

>  <Rbt.Executable>
rbdock ($Id: //depot/dev/client3/rdock/2013.1/src/exe/rbdock.cxx#4 $)

>  <Rbt.Library>
libRbt.so (2013.1, Build901 2013/11/27)

>  <Rbt.Parameter_File>
/export/apps/rDock/src/rDock_2013.1_src/data/scripts/dock_solv.prm

>  <Rbt.Receptor>
prm/blind_docking_40.prm

>  <SCORE>
-27.2545

>  <SCORE.INTER>
-27.5059

>  <SCORE.INTER.CONST>
1

>  <SCORE.INTER.POLAR>
-5.20567

>  <SCORE.INTER.ROT>
5

>  <SCORE.INTER.SOLV>
19.8445

>  <SCORE.INTER.VDW>
-14.5332

>  <SCORE.INTER.norm>
-2.29216

>  <SCORE.INTRA>
0.251462

>  <SCORE.INTRA.DIHEDRAL>
7.28022

>  <SCORE.INTRA.DIHEDRAL.0>
7.7847

>  <SCORE.INTRA.POLAR>
0

>  <SCORE.INTRA.POLAR.0>
0

>  <SCORE.INTRA.REPUL>
0

>  <SCORE.INTRA.REPUL.0>
0

>  <SCORE.INTRA.SOLV>
-2.8153

>  <SCORE.INTRA.SOLV.lig_0>
-57.5465

>  <SCORE.INTRA.VDW>
-1.981

>  <SCORE.INTRA.VDW.0>
1.39369

>  <SCORE.INTRA.norm>
0.0209552

>  <SCORE.RESTR>
0

>  <SCORE.RESTR.CAVITY>
0

>  <SCORE.RESTR.norm>
0

>  <SCORE.SYSTEM>
0

>  <SCORE.SYSTEM.CONST>
0

>  <SCORE.SYSTEM.DIHEDRAL>
0

>  <SCORE.SYSTEM.SOLV>
0

>  <SCORE.SYSTEM.norm>
0

>  <SCORE.heavy>
12

>  <SCORE.norm>
-2.27121

>  <SYMMETRIC_BONDS>
4 1 2

>  <RMSD>
13.008

$$$$
1kod cryst
 OpenBabel11021811393D
libRbt.so/2013.1/901 2013/11/27
 12 11  0  0  0  0  0  0  0  0999 V2000
   -4.3244    0.6359   24.6543 C   0  0  0  0  0  0  0  0  0  0  0  0
   -3.1555    0.4786   24.9742 O   0  5  0  0  0  0  0  0  0  0  0  0
   -4.8932    1.7204   24.6638 O   0  0  0  0  0  0  0  0  0  0  0  0
   -5.1246   -0.6050   24.2116 C   0  0  1  0  0  0  0  0  0  0  0  0
   -4.3665   -1.3283   23.1454 N   0  3  0  0  0  0  0  0  0  0  0  0
   -5.3669   -1.5558   25.4072 C   0  0  0  0  0  0  0  0  0  0  0  0
   -6.5242   -2.5017   25.1142 C   0  0  0  0  0  0  0  0  0  0  0  0
   -6.9715   -3.1879   26.4029 C   0  0  0  0  0  0  0  0  0  0  0  0
   -7.5602   -2.1634   27.3208 N   0  0  0  0  0  0  0  0  0  0  0  0
   -8.5801   -2.4596   28.0812 C   0  0  0  0  0  0  0  0  0  0  0  0
   -9.5968   -1.7693   28.0650 O   0  0  0  0  0  0  0  0  0  0  0  0
   -8.5172   -3.4871   28.8772 N   0  0  0  0  0  0  0  0  0  0  0  0
  1  2  1  0  0  0  0
  1  3  2  0  0  0  0
  4  1  1  1  0  0  0
  4  6  1  0  0  0  0
  4  5  1  0  0  0  0
  6  7  1  0  0  0  0
  7  8  1  0  0  0  0
  8  9  1  0  0  0  0
  9 10  1  0  0  0  0
 10 12  1  0  0  0  0
 10 11  2  0  0  0  0
M  CHG  2   2  -1   5   1
M  END
>  <CHROM.1>
-51.79832310,160.46573550,-152.33126958,-166.20917073,66.49781468,-36.25887931
-6.23331757,-1.34638358,25.90272556,0.26225569,0.79619265,0.29116702

>  <Name>
1kod cryst

>  <RI>
0

>  <Rbt.Current_Directory>
/home/itssahil/PROJECTS/Mol_Feturizer/New_Systems/rnas/1kod

>  <Rbt.Executable>
rbdock ($Id: //depot/dev/client3/rdock/2013.1/src/exe/rbdock.cxx#4 $)

>  <Rbt.Library>
libRbt.so (2013.1, Build901 2013/11/27)

>  <Rbt.Parameter_File>
/export/apps/rDock/src/rDock_2013.1_src/data/scripts/dock_solv.prm

>  <Rbt.Receptor>
prm/blind_docking_60.prm

>  <SCORE>
-28.0613

>  <SCORE.INTER>
-23.8195

>  <SCORE.INTER.CONST>
1

>  <SCORE.INTER.POLAR>
-3.72516

>  <SCORE.INTER.ROT>
5

>  <SCORE.INTER.SOLV>
18.2053

>  <SCORE.INTER.VDW>
-16.4642

>  <SCORE.INTER.norm>
-1.98496

>  <SCORE.INTRA>
-4.24175

>  <SCORE.INTRA.DIHEDRAL>
-1.80956

>  <SCORE.INTRA.DIHEDRAL.0>
7.7847

>  <SCORE.INTRA.POLAR>
0

>  <SCORE.INTRA.POLAR.0>
0

>  <SCORE.INTRA.REPUL>
0

>  <SCORE.INTRA.REPUL.0>
0

>  <SCORE.INTRA.SOLV>
-2.55262

>  <SCORE.INTRA.SOLV.lig_0>
-57.5465

>  <SCORE.INTRA.VDW>
-2.06066

>  <SCORE.INTRA.VDW.0>
1.39369

>  <SCORE.INTRA.norm>
-0.353479

>  <SCORE.RESTR>
0

>  <SCORE.RESTR.CAVITY>
0

>  <SCORE.RESTR.norm>
0

>  <SCORE.SYSTEM>
0

>  <SCORE.SYSTEM.CONST>
0

>  <SCORE.SYSTEM.DIHEDRAL>
0

>  <SCORE.SYSTEM.SOLV>
0

>  <SCORE.SYSTEM.norm>
0

>  <SCORE.heavy>
12

>  <SCORE.norm>
-2.33844

>  <SYMMETRIC_BONDS>
4 1 2

>  <RMSD>
13.009

$$$$
1kod cryst
 OpenBabel11021811393D
libRbt.so/2013.1/901 2013/11/27
 12 11  0  0  0  0  0  0  0  0999 V2000
   -7.8295   -0.9594   27.6055 C   0  0  0  0  0  0  0  0  0  0  0  0
   -9.0178   -0.9433   27.8903 O   0  5  0  0  0  0  0  0  0  0  0  0
   -7.0980    0.0200   27.6797 O   0  0  0  0  0  0  0  0  0  0  0  0
   -7.2199   -2.2923   27.1282 C   0  0  1  0  0  0  0  0  0  0  0  0
   -7.9754   -3.4287   27.7385 N   0  3  0  0  0  0  0  0  0  0  0  0
   -7.2807   -2.4015   25.5866 C   0  0  0  0  0  0  0  0  0  0  0  0
   -5.8845   -2.5867   25.0067 C   0  0  0  0  0  0  0  0  0  0  0  0
   -5.0770   -1.3023   25.1799 C   0  0  0  0  0  0  0  0  0  0  0  0
   -3.9607   -1.2911   24.1837 N   0  0  0  0  0  0  0  0  0  0  0  0
   -3.6237   -0.1856   23.5751 C   0  0  0  0  0  0  0  0  0  0  0  0
   -3.5624   -0.1377   22.3485 O   0  0  0  0  0  0  0  0  0  0  0  0
   -3.3342    0.8746   24.2717 N   0  0  0  0  0  0  0  0  0  0  0  0
  1  2  1  0  0  0  0
  1  3  2  0  0  0  0
  4  1  1  6  0  0  0
  4  6  1  0  0  0  0
  4  5  1  0  0  0  0
  6  7  1  0  0  0  0
  7  8  1  0  0  0  0
  8  9  1  0  0  0  0
  9 10  1  0  0  0  0
 10 12  1  0  0  0  0
 10 11  2  0  0  0  0
M  CHG  2   2  -1   5   1
M  END
>  <CHROM.1>
-28.67944736,121.76886359,-89.25929358,-69.20042620,-158.23477802,-39.30950938
-5.99804265,-1.21797843,25.70146021,3.10770482,-0.78042830,-2.80505175

>  <Name>
1kod cryst

>  <RI>
0

>  <Rbt.Current_Directory>
/home/itssahil/PROJECTS/Mol_Feturizer/New_Systems/rnas/1kod

>  <Rbt.Executable>
rbdock ($Id: //depot/dev/client3/rdock/2013.1/src/exe/rbdock.cxx#4 $)

>  <Rbt.Library>
libRbt.so (2013.1, Build901 2013/11/27)

>  <Rbt.Parameter_File>
/export/apps/rDock/src/rDock_2013.1_src/data/scripts/dock_solv.prm

>  <Rbt.Receptor>
prm/blind_docking_100.prm

>  <SCORE>
-26.5133

>  <SCORE.INTER>
-25.1302

>  <SCORE.INTER.CONST>
1

>  <SCORE.INTER.POLAR>
-4.78993

>  <SCORE.INTER.ROT>
5

>  <SCORE.INTER.SOLV>
19.2619

>  <SCORE.INTER.VDW>
-14.141

>  <SCORE.INTER.norm>
-2.09419

>  <SCORE.INTRA>
-1.38561

>  <SCORE.INTRA.DIHEDRAL>
3.26343

>  <SCORE.INTRA.DIHEDRAL.0>
7.7847

>  <SCORE.INTRA.POLAR>
0

>  <SCORE.INTRA.POLAR.0>
0

>  <SCORE.INTRA.REPUL>
0

>  <SCORE.INTRA.REPUL.0>
0

>  <SCORE.INTRA.SOLV>
-2.22722

>  <SCORE.INTRA.SOLV.lig_0>
-57.5465

>  <SCORE.INTRA.VDW>
-1.90371

>  <SCORE.INTRA.VDW.0>
1.39369

>  <SCORE.INTRA.norm>
-0.115467

>  <SCORE.RESTR>
0.00257614

>  <SCORE.RESTR.CAVITY>
0.00257614

>  <SCORE.RESTR.norm>
0.000214679

>  <SCORE.SYSTEM>
0

>  <SCORE.SYSTEM.CONST>
0

>  <SCORE.SYSTEM.DIHEDRAL>
0

>  <SCORE.SYSTEM.SOLV>
0

>  <SCORE.SYSTEM.norm>
0

>  <SCORE.heavy>
12

>  <SCORE.norm>
-2.20944

>  <SYMMETRIC_BONDS>
4 1 2

>  <RMSD>
13.010

$$$$
1kod cryst
 OpenBabel11021811393D
libRbt.so/2013.1/901 2013/11/27
 12 11  0  0  0  0  0  0  0  0999 V2000
   -9.5721   -1.3812   27.8196 C   0  0  0  0  0  0  0  0  0  0  0  0
  -10.6206   -2.0021   27.9117 O   0  5  0  0  0  0  0  0  0  0  0  0
   -9.5034   -0.2074   27.4772 O   0  0  0  0  0  0  0  0  0  0  0  0
   -8.2630   -2.1217   28.1574 C   0  0  1  0  0  0  0  0  0  0  0  0
   -8.5813   -3.3650   28.9238 N   0  3  0  0  0  0  0  0  0  0  0  0
   -7.4954   -2.4935   26.8672 C   0  0  0  0  0  0  0  0  0  0  0  0
   -7.2540   -1.2567   26.0116 C   0  0  0  0  0  0  0  0  0  0  0  0
   -6.2072   -1.5624   24.9427 C   0  0  0  0  0  0  0  0  0  0  0  0
   -4.8525   -1.2148   25.4745 N   0  0  0  0  0  0  0  0  0  0  0  0
   -4.0765   -2.1397   25.9730 C   0  0  0  0  0  0  0  0  0  0  0  0
   -3.5965   -2.0174   27.0978 O   0  0  0  0  0  0  0  0  0  0  0  0
   -3.7937   -3.1964   25.2684 N   0  0  0  0  0  0  0  0  0  0  0  0
  1  2  1  0  0  0  0
  1  3  2  0  0  0  0
  4  1  1  6  0  0  0
  4  6  1  0  0  0  0
  4  5  1  0  0  0  0
  6  7  1  0  0  0  0
  7  8  1  0  0  0  0
  8  9  1  0  0  0  0
  9 10  1  0  0  0  0
 10 12  1  0  0  0  0
 10 11  2  0  0  0  0
M  CHG  2   2  -1   5   1
M  END
>  <CHROM.1>
-16.64540909,54.90640897,-75.94872278,165.61070643,-91.42398377,-81.79850920
-6.98930348,-1.93808832,26.85066515,2.91542784,-0.32571872,2.33853510

>  <Name>
1kod cryst

>  <RI>
0

>  <Rbt.Current_Directory>
/home/itssahil/PROJECTS/Mol_Feturizer/New_Systems/rnas/1kod

>  <Rbt.Executable>
rbdock ($Id: //depot/dev/client3/rdock/2013.1/src/exe/rbdock.cxx#4 $)

>  <Rbt.Library>
libRbt.so (2013.1, Build901 2013/11/27)

>  <Rbt.Parameter_File>
/export/apps/rDock/src/rDock_2013.1_src/data/scripts/dock_solv.prm

>  <Rbt.Receptor>
prm/blind_docking_100.prm

>  <SCORE>
-28.7093

>  <SCORE.INTER>
-25.6886

>  <SCORE.INTER.CONST>
1

>  <SCORE.INTER.POLAR>
-4.48695

>  <SCORE.INTER.ROT>
5

>  <SCORE.INTER.SOLV>
22.1425

>  <SCORE.INTER.VDW>
-16.4834

>  <SCORE.INTER.norm>
-2.14071

>  <SCORE.INTRA>
-3.23044

>  <SCORE.INTRA.DIHEDRAL>
-1.06125

>  <SCORE.INTRA.DIHEDRAL.0>
7.7847

>  <SCORE.INTRA.POLAR>
0

>  <SCORE.INTRA.POLAR.0>
0

>  <SCORE.INTRA.REPUL>
0

>  <SCORE.INTRA.REPUL.0>
0

>  <SCORE.INTRA.SOLV>
-1.69015

>  <SCORE.INTRA.SOLV.lig_0>
-57.5465

>  <SCORE.INTRA.VDW>
-1.85473

>  <SCORE.INTRA.VDW.0>
1.39369

>  <SCORE.INTRA.norm>
-0.269203

>  <SCORE.RESTR>
0.209735

>  <SCORE.RESTR.CAVITY>
0.209735

>  <SCORE.RESTR.norm>
0.0174779

>  <SCORE.SYSTEM>
0

>  <SCORE.SYSTEM.CONST>
0

>  <SCORE.SYSTEM.DIHEDRAL>
0

>  <SCORE.SYSTEM.SOLV>
0

>  <SCORE.SYSTEM.norm>
0

>  <SCORE.heavy>
12

>  <SCORE.norm>
-2.39244

>  <SYMMETRIC_BONDS>
4 1 2

>  <RMSD>
13.017

$$$$
1kod cryst
 OpenBabel11021811393D
libRbt.so/2013.1/901 2013/11/27
 12 11  0  0  0  0  0  0  0  0999 V2000
   -6.4621   -2.1393   26.3358 C   0  0  0  0  0  0  0  0  0  0  0  0
   -6.6916   -1.8568   27.5024 O   0  5  0  0  0  0  0  0  0  0  0  0
   -7.2489   -1.9391   25.4190 O   0  0  0  0  0  0  0  0  0  0  0  0
   -5.1012   -2.7824   26.0035 C   0  0  1  0  0  0  0  0  0  0  0  0
   -5.2545   -3.6809   24.8187 N   0  3  0  0  0  0  0  0  0  0  0  0
   -4.0435   -1.6972   25.6942 C   0  0  0  0  0  0  0  0  0  0  0  0
   -4.4949   -0.8248   24.5301 C   0  0  0  0  0  0  0  0  0  0  0  0
   -3.4589    0.2661   24.2680 C   0  0  0  0  0  0  0  0  0  0  0  0
   -3.9956    1.2097   23.2384 N   0  0  0  0  0  0  0  0  0  0  0  0
   -4.1635    2.4744   23.5187 C   0  0  0  0  0  0  0  0  0  0  0  0
   -5.2484    3.0205   23.3309 O   0  0  0  0  0  0  0  0  0  0  0  0
   -3.1695    3.1710   23.9876 N   0  0  0  0  0  0  0  0  0  0  0  0
  1  2  1  0  0  0  0
  1  3  2  0  0  0  0
  4  1  1  6  0  0  0
  4  6  1  0  0  0  0
  4  5  1  0  0  0  0
  6  7  1  0  0  0  0
  7  8  1  0  0  0  0
  8  9  1  0  0  0  0
  9 10  1  0  0  0  0
 10 12  1  0  0  0  0
 10 11  2  0  0  0  0
M  CHG  2   2  -1   5   1
M  END
>  <CHROM.1>
149.88999103,-58.25712246,76.68134349,178.26265580,-173.11761746,-60.40807603
-4.96131098,-0.40170319,24.86930699,1.96167006,-0.49854043,2.89168830

>  <Name>
1kod cryst

>  <RI>
0

>  <Rbt.Current_Directory>
/home/itssahil/PROJECTS/Mol_Feturizer/New_Systems/rnas/1kod

>  <Rbt.Executable>
rbdock ($Id: //depot/dev/client3/rdock/2013.1/src/exe/rbdock.cxx#4 $)

>  <Rbt.Library>
libRbt.so (2013.1, Build901 2013/11/27)

>  <Rbt.Parameter_File>
/export/apps/rDock/src/rDock_2013.1_src/data/scripts/dock_solv.prm

>  <Rbt.Receptor>
prm/blind_docking_100.prm

>  <SCORE>
-21.23

>  <SCORE.INTER>
-16.7088

>  <SCORE.INTER.CONST>
1

>  <SCORE.INTER.POLAR>
-2.76365

>  <SCORE.INTER.ROT>
5

>  <SCORE.INTER.SOLV>
18.8669

>  <SCORE.INTER.VDW>
-15.1493

>  <SCORE.INTER.norm>
-1.3924

>  <SCORE.INTRA>
-4.52128

>  <SCORE.INTRA.DIHEDRAL>
-4.69979

>  <SCORE.INTRA.DIHEDRAL.0>
7.7847

>  <SCORE.INTRA.POLAR>
0

>  <SCORE.INTRA.POLAR.0>
0

>  <SCORE.INTRA.REPUL>
0

>  <SCORE.INTRA.REPUL.0>
0

>  <SCORE.INTRA.SOLV>
-1.22749

>  <SCORE.INTRA.SOLV.lig_0>
-57.5465

>  <SCORE.INTRA.VDW>
-1.55764

>  <SCORE.INTRA.VDW.0>
1.39369

>  <SCORE.INTRA.norm>
-0.376774

>  <SCORE.RESTR>
0

>  <SCORE.RESTR.CAVITY>
0

>  <SCORE.RESTR.norm>
0

>  <SCORE.SYSTEM>
0

>  <SCORE.SYSTEM.CONST>
0

>  <SCORE.SYSTEM.DIHEDRAL>
0

>  <SCORE.SYSTEM.SOLV>
0

>  <SCORE.SYSTEM.norm>
0

>  <SCORE.heavy>
12

>  <SCORE.norm>
-1.76917

>  <SYMMETRIC_BONDS>
4 1 2

>  <RMSD>
13.032

$$$$
1kod cryst
 OpenBabel11021811393D
libRbt.so/2013.1/901 2013/11/27
 12 11  0  0  0  0  0  0  0  0999 V2000
   -7.2621   -0.4584   27.2424 C   0  0  0  0  0  0  0  0  0  0  0  0
   -7.9995    0.2174   26.5403 O   0  5  0  0  0  0  0  0  0  0  0  0
   -6.2617   -0.0217   27.7975 O   0  0  0  0  0  0  0  0  0  0  0  0
   -7.6172   -1.9454   27.4398 C   0  0  1  0  0  0  0  0  0  0  0  0
   -9.0386   -2.0594   27.8884 N   0  3  0  0  0  0  0  0  0  0  0  0
   -7.4273   -2.7334   26.1226 C   0  0  0  0  0  0  0  0  0  0  0  0
   -6.0110   -2.5563   25.5911 C   0  0  0  0  0  0  0  0  0  0  0  0
   -6.0074   -1.5349   24.4560 C   0  0  0  0  0  0  0  0  0  0  0  0
   -4.6063   -1.3632   23.9600 N   0  0  0  0  0  0  0  0  0  0  0  0
   -4.2089   -0.2182   23.4733 C   0  0  0  0  0  0  0  0  0  0  0  0
   -3.6889   -0.1551   22.3614 O   0  0  0  0  0  0  0  0  0  0  0  0
   -4.3492    0.8678   24.1763 N   0  0  0  0  0  0  0  0  0  0  0  0
  1  2  1  0  0  0  0
  1  3  2  0  0  0  0
  4  1  1  6  0  0  0
  4  6  1  0  0  0  0
  4  5  1  0  0  0  0
  6  7  1  0  0  0  0
  7  8  1  0  0  0  0
  8  9  1  0  0  0  0
  9 10  1  0  0  0  0
 10 12  1  0  0  0  0
 10 11  2  0  0  0  0
M  CHG  2   2  -1   5   1
M  END
>  <CHROM.1>
-51.93562419,55.50298257,-60.24213210,-101.33850246,179.31123124,30.87513235
-6.22248402,-0.97138690,25.60065443,-3.05641867,-0.83411442,-2.73677061

>  <Name>
1kod cryst

>  <RI>
0

>  <Rbt.Current_Directory>
/home/itssahil/PROJECTS/Mol_Feturizer/New_Systems/rnas/1kod

>  <Rbt.Executable>
rbdock ($Id: //depot/dev/client3/rdock/2013.1/src/exe/rbdock.cxx#4 $)

>  <Rbt.Library>
libRbt.so (2013.1, Build901 2013/11/27)

>  <Rbt.Parameter_File>
/export/apps/rDock/src/rDock_2013.1_src/data/scripts/dock_solv.prm

>  <Rbt.Receptor>
prm/blind_docking_80.prm

>  <SCORE>
-25.1071

>  <SCORE.INTER>
-21.8107

>  <SCORE.INTER.CONST>
1

>  <SCORE.INTER.POLAR>
-3.46482

>  <SCORE.INTER.ROT>
5

>  <SCORE.INTER.SOLV>
12.0868

>  <SCORE.INTER.VDW>
-13.9533

>  <SCORE.INTER.norm>
-1.81756

>  <SCORE.INTRA>
-3.29645

>  <SCORE.INTRA.DIHEDRAL>
-0.693681

>  <SCORE.INTRA.DIHEDRAL.0>
7.7847

>  <SCORE.INTRA.POLAR>
0

>  <SCORE.INTRA.POLAR.0>
0

>  <SCORE.INTRA.REPUL>
0

>  <SCORE.INTRA.REPUL.0>
0

>  <SCORE.INTRA.SOLV>
-0.973636

>  <SCORE.INTRA.SOLV.lig_0>
-57.5465

>  <SCORE.INTRA.VDW>
-2.4628

>  <SCORE.INTRA.VDW.0>
1.39369

>  <SCORE.INTRA.norm>
-0.274704

>  <SCORE.RESTR>
0

>  <SCORE.RESTR.CAVITY>
0

>  <SCORE.RESTR.norm>
0

>  <SCORE.SYSTEM>
0

>  <SCORE.SYSTEM.CONST>
0

>  <SCORE.SYSTEM.DIHEDRAL>
0

>  <SCORE.SYSTEM.SOLV>
0

>  <SCORE.SYSTEM.norm>
0

>  <SCORE.heavy>
12

>  <SCORE.norm>
-2.09226

>  <SYMMETRIC_BONDS>
4 1 2

>  <RMSD>
13.041

$$$$
1kod cryst
 OpenBabel11021811393D
libRbt.so/2013.1/901 2013/11/27
 12 11  0  0  0  0  0  0  0  0999 V2000
   -8.0504   -0.5028   27.7370 C   0  0  0  0  0  0  0  0  0  0  0  0
   -7.2638    0.4221   27.8757 O   0  5  0  0  0  0  0  0  0  0  0  0
   -9.2604   -0.3971   27.8930 O   0  0  0  0  0  0  0  0  0  0  0  0
   -7.4823   -1.8797   27.3401 C   0  0  1  0  0  0  0  0  0  0  0  0
   -8.5199   -2.9297   27.5753 N   0  3  0  0  0  0  0  0  0  0  0  0
   -7.0651   -1.8915   25.8508 C   0  0  0  0  0  0  0  0  0  0  0  0
   -5.7711   -1.1135   25.6502 C   0  0  0  0  0  0  0  0  0  0  0  0
   -5.3284   -1.2116   24.1920 C   0  0  0  0  0  0  0  0  0  0  0  0
   -4.0658   -0.4289   24.0130 N   0  0  0  0  0  0  0  0  0  0  0  0
   -4.0631    0.6799   23.3226 C   0  0  0  0  0  0  0  0  0  0  0  0
   -3.2717    0.8407   22.3962 O   0  0  0  0  0  0  0  0  0  0  0  0
   -4.8954    1.6331   23.6255 N   0  0  0  0  0  0  0  0  0  0  0  0
  1  2  1  0  0  0  0
  1  3  2  0  0  0  0
  4  1  1  6  0  0  0
  4  6  1  0  0  0  0
  4  5  1  0  0  0  0
  6  7  1  0  0  0  0
  7  8  1  0  0  0  0
  8  9  1  0  0  0  0
  9 10  1  0  0  0  0
 10 12  1  0  0  0  0
 10 11  2  0  0  0  0
M  CHG  2   2  -1   5   1
M  END
>  <CHROM.1>
165.03868507,74.50063643,60.83677903,176.38996942,179.35904398,69.47425302
-6.27610941,-0.55999611,25.63577532,2.89074824,-0.81517028,-3.06880203

>  <Name>
1kod cryst

>  <RI>
0

>  <Rbt.Current_Directory>
/home/itssahil/PROJECTS/Mol_Feturizer/New_Systems/rnas/1kod

>  <Rbt.Executable>
rbdock ($Id: //depot/dev/client3/rdock/2013.1/src/exe/rbdock.cxx#4 $)

>  <Rbt.Library>
libRbt.so (2013.1, Build901 2013/11/27)

>  <Rbt.Parameter_File>
/export/apps/rDock/src/rDock_2013.1_src/data/scripts/dock_solv.prm

>  <Rbt.Receptor>
prm/blind_docking_80.prm

>  <SCORE>
-20.2011

>  <SCORE.INTER>
-14.1575

>  <SCORE.INTER.CONST>
1

>  <SCORE.INTER.POLAR>
-2.17733

>  <SCORE.INTER.ROT>
5

>  <SCORE.INTER.SOLV>
15.8269

>  <SCORE.INTER.VDW>
-14.3895

>  <SCORE.INTER.norm>
-1.17979

>  <SCORE.INTRA>
-6.04655

>  <SCORE.INTRA.DIHEDRAL>
-4.78199

>  <SCORE.INTRA.DIHEDRAL.0>
7.7847

>  <SCORE.INTRA.POLAR>
0

>  <SCORE.INTRA.POLAR.0>
0

>  <SCORE.INTRA.REPUL>
0

>  <SCORE.INTRA.REPUL.0>
0

>  <SCORE.INTRA.SOLV>
-2.36706

>  <SCORE.INTRA.SOLV.lig_0>
-57.5465

>  <SCORE.INTRA.VDW>
-2.47202

>  <SCORE.INTRA.VDW.0>
1.39369

>  <SCORE.INTRA.norm>
-0.503879

>  <SCORE.RESTR>
0.00290687

>  <SCORE.RESTR.CAVITY>
0.00290687

>  <SCORE.RESTR.norm>
0.000242239

>  <SCORE.SYSTEM>
0

>  <SCORE.SYSTEM.CONST>
0

>  <SCORE.SYSTEM.DIHEDRAL>
0

>  <SCORE.SYSTEM.SOLV>
0

>  <SCORE.SYSTEM.norm>
0

>  <SCORE.heavy>
12

>  <SCORE.norm>
-1.68343

>  <SYMMETRIC_BONDS>
4 1 2

>  <RMSD>
13.049

$$$$
1kod cryst
 OpenBabel11021811393D
libRbt.so/2013.1/901 2013/11/27
 12 11  0  0  0  0  0  0  0  0999 V2000
   -7.9159   -0.9210   28.6697 C   0  0  0  0  0  0  0  0  0  0  0  0
   -7.1350   -0.0305   28.9705 O   0  5  0  0  0  0  0  0  0  0  0  0
   -9.0264   -1.0507   29.1694 O   0  0  0  0  0  0  0  0  0  0  0  0
   -7.4743   -1.9361   27.5969 C   0  0  1  0  0  0  0  0  0  0  0  0
   -8.0576   -3.2756   27.9131 N   0  3  0  0  0  0  0  0  0  0  0  0
   -7.9431   -1.4879   26.1928 C   0  0  0  0  0  0  0  0  0  0  0  0
   -7.0409   -0.3860   25.6526 C   0  0  0  0  0  0  0  0  0  0  0  0
   -5.7104   -0.9819   25.1984 C   0  0  0  0  0  0  0  0  0  0  0  0
   -5.0529   -0.0344   24.2452 N   0  0  0  0  0  0  0  0  0  0  0  0
   -4.9034   -0.3534   22.9874 C   0  0  0  0  0  0  0  0  0  0  0  0
   -3.7985   -0.2962   22.4522 O   0  0  0  0  0  0  0  0  0  0  0  0
   -5.9355   -0.7217   22.2859 N   0  0  0  0  0  0  0  0  0  0  0  0
  1  2  1  0  0  0  0
  1  3  2  0  0  0  0
  4  1  1  1  0  0  0
  4  6  1  0  0  0  0
  4  5  1  0  0  0  0
  6  7  1  0  0  0  0
  7  8  1  0  0  0  0
  8  9  1  0  0  0  0
  9 10  1  0  0  0  0
 10 12  1  0  0  0  0
 10 11  2  0  0  0  0
M  CHG  2   2  -1   5   1
M  END
>  <CHROM.1>
146.50120936,77.82877238,174.41291451,75.08806400,159.64959588,67.15058610
-6.67837114,-0.97479688,25.95121140,-2.47089368,-0.88757249,-2.15943598

>  <Name>
1kod cryst

>  <RI>
0

>  <Rbt.Current_Directory>
/home/itssahil/PROJECTS/Mol_Feturizer/New_Systems/rnas/1kod

>  <Rbt.Executable>
rbdock ($Id: //depot/dev/client3/rdock/2013.1/src/exe/rbdock.cxx#4 $)

>  <Rbt.Library>
libRbt.so (2013.1, Build901 2013/11/27)

>  <Rbt.Parameter_File>
/export/apps/rDock/src/rDock_2013.1_src/data/scripts/dock_solv.prm

>  <Rbt.Receptor>
prm/blind_docking_40.prm

>  <SCORE>
-31.153

>  <SCORE.INTER>
-26.4815

>  <SCORE.INTER.CONST>
1

>  <SCORE.INTER.POLAR>
-5.37936

>  <SCORE.INTER.ROT>
5

>  <SCORE.INTER.SOLV>
21.4296

>  <SCORE.INTER.VDW>
-13.7997

>  <SCORE.INTER.norm>
-2.20679

>  <SCORE.INTRA>
-4.67143

>  <SCORE.INTRA.DIHEDRAL>
-2.09917

>  <SCORE.INTRA.DIHEDRAL.0>
7.7847

>  <SCORE.INTRA.POLAR>
0

>  <SCORE.INTRA.POLAR.0>
0

>  <SCORE.INTRA.REPUL>
0

>  <SCORE.INTRA.REPUL.0>
0

>  <SCORE.INTRA.SOLV>
-2.18183

>  <SCORE.INTRA.SOLV.lig_0>
-57.5465

>  <SCORE.INTRA.VDW>
-2.53093

>  <SCORE.INTRA.VDW.0>
1.39369

>  <SCORE.INTRA.norm>
-0.389286

>  <SCORE.RESTR>
0

>  <SCORE.RESTR.CAVITY>
0

>  <SCORE.RESTR.norm>
0

>  <SCORE.SYSTEM>
0

>  <SCORE.SYSTEM.CONST>
0

>  <SCORE.SYSTEM.DIHEDRAL>
0

>  <SCORE.SYSTEM.SOLV>
0

>  <SCORE.SYSTEM.norm>
0

>  <SCORE.heavy>
12

>  <SCORE.norm>
-2.59608

>  <SYMMETRIC_BONDS>
4 1 2

>  <RMSD>
13.067

$$$$
1kod cryst
 OpenBabel11021811393D
libRbt.so/2013.1/901 2013/11/27
 12 11  0  0  0  0  0  0  0  0999 V2000
   -4.2312    1.1073   23.6676 C   0  0  0  0  0  0  0  0  0  0  0  0
   -3.4380    1.1961   22.7422 O   0  5  0  0  0  0  0  0  0  0  0  0
   -4.5028    2.0321   24.4231 O   0  0  0  0  0  0  0  0  0  0  0  0
   -4.9297   -0.2485   23.8916 C   0  0  1  0  0  0  0  0  0  0  0  0
   -5.4499   -0.7587   22.5864 N   0  3  0  0  0  0  0  0  0  0  0  0
   -3.9455   -1.2790   24.4928 C   0  0  0  0  0  0  0  0  0  0  0  0
   -4.6265   -2.0998   25.5802 C   0  0  0  0  0  0  0  0  0  0  0  0
   -5.5651   -3.1234   24.9454 C   0  0  0  0  0  0  0  0  0  0  0  0
   -6.6725   -3.4287   25.9042 N   0  0  0  0  0  0  0  0  0  0  0  0
   -7.2290   -2.4756   26.6026 C   0  0  0  0  0  0  0  0  0  0  0  0
   -7.3122   -2.5602   27.8259 O   0  0  0  0  0  0  0  0  0  0  0  0
   -7.7154   -1.4304   25.9992 N   0  0  0  0  0  0  0  0  0  0  0  0
  1  2  1  0  0  0  0
  1  3  2  0  0  0  0
  4  1  1  6  0  0  0
  4  6  1  0  0  0  0
  4  5  1  0  0  0  0
  6  7  1  0  0  0  0
  7  8  1  0  0  0  0
  8  9  1  0  0  0  0
  9 10  1  0  0  0  0
 10 12  1  0  0  0  0
 10 11  2  0  0  0  0
M  CHG  2   2  -1   5   1
M  END
>  <CHROM.1>
-47.30077968,138.50495060,13.67825126,75.15370462,-152.35577920,-139.10820744
-5.49037938,-1.07310702,24.86395239,0.65771788,0.87836577,0.05761990

>  <Name>
1kod cryst

>  <RI>
0

>  <Rbt.Current_Directory>
/home/itssahil/PROJECTS/Mol_Feturizer/New_Systems/rnas/1kod

>  <Rbt.Executable>
rbdock ($Id: //depot/dev/client3/rdock/2013.1/src/exe/rbdock.cxx#4 $)

>  <Rbt.Library>
libRbt.so (2013.1, Build901 2013/11/27)

>  <Rbt.Parameter_File>
/export/apps/rDock/src/rDock_2013.1_src/data/scripts/dock_solv.prm

>  <Rbt.Receptor>
prm/blind_docking_80.prm

>  <SCORE>
-21.6873

>  <SCORE.INTER>
-22.4246

>  <SCORE.INTER.CONST>
1

>  <SCORE.INTER.POLAR>
-3.99172

>  <SCORE.INTER.ROT>
5

>  <SCORE.INTER.SOLV>
22.6103

>  <SCORE.INTER.VDW>
-16.1141

>  <SCORE.INTER.norm>
-1.86872

>  <SCORE.INTRA>
0.737334

>  <SCORE.INTRA.DIHEDRAL>
4.96759

>  <SCORE.INTRA.DIHEDRAL.0>
7.7847

>  <SCORE.INTRA.POLAR>
0

>  <SCORE.INTRA.POLAR.0>
0

>  <SCORE.INTRA.REPUL>
0

>  <SCORE.INTRA.REPUL.0>
0

>  <SCORE.INTRA.SOLV>
-0.752595

>  <SCORE.INTRA.SOLV.lig_0>
-57.5465

>  <SCORE.INTRA.VDW>
-1.37017

>  <SCORE.INTRA.VDW.0>
1.39369

>  <SCORE.INTRA.norm>
0.0614445

>  <SCORE.RESTR>
0

>  <SCORE.RESTR.CAVITY>
0

>  <SCORE.RESTR.norm>
0

>  <SCORE.SYSTEM>
0

>  <SCORE.SYSTEM.CONST>
0

>  <SCORE.SYSTEM.DIHEDRAL>
0

>  <SCORE.SYSTEM.SOLV>
0

>  <SCORE.SYSTEM.norm>
0

>  <SCORE.heavy>
12

>  <SCORE.norm>
-1.80727

>  <SYMMETRIC_BONDS>
4 1 2

>  <RMSD>
13.079

$$$$
1kod cryst
 OpenBabel11021811393D
libRbt.so/2013.1/901 2013/11/27
 12 11  0  0  0  0  0  0  0  0999 V2000
   -8.8195   -1.0078   27.5855 C   0  0  0  0  0  0  0  0  0  0  0  0
   -9.8205   -1.4757   28.1074 O   0  5  0  0  0  0  0  0  0  0  0  0
   -8.7627    0.1191   27.1096 O   0  0  0  0  0  0  0  0  0  0  0  0
   -7.5567   -1.8900   27.5275 C   0  0  1  0  0  0  0  0  0  0  0  0
   -7.9462   -3.3234   27.6952 N   0  3  0  0  0  0  0  0  0  0  0  0
   -6.8238   -1.7093   26.1776 C   0  0  0  0  0  0  0  0  0  0  0  0
   -6.0054   -0.4247   26.1795 C   0  0  0  0  0  0  0  0  0  0  0  0
   -5.8927    0.1199   24.7573 C   0  0  0  0  0  0  0  0  0  0  0  0
   -4.7469   -0.5516   24.0682 N   0  0  0  0  0  0  0  0  0  0  0  0
   -3.8012    0.1546   23.5088 C   0  0  0  0  0  0  0  0  0  0  0  0
   -3.4898   -0.0314   22.3345 O   0  0  0  0  0  0  0  0  0  0  0  0
   -3.1690    1.0554   24.2031 N   0  0  0  0  0  0  0  0  0  0  0  0
  1  2  1  0  0  0  0
  1  3  2  0  0  0  0
  4  1  1  6  0  0  0
  4  6  1  0  0  0  0
  4  5  1  0  0  0  0
  6  7  1  0  0  0  0
  7  8  1  0  0  0  0
  8  9  1  0  0  0  0
  9 10  1  0  0  0  0
 10 12  1  0  0  0  0
 10 11  2  0  0  0  0
M  CHG  2   2  -1   5   1
M  END
>  <CHROM.1>
20.02896651,78.98812125,-13.84086942,-150.99860598,-84.97017226,53.88941372
-6.40934065,-0.76813279,25.77799546,2.72654056,-0.64537088,2.94060262

>  <Name>
1kod cryst

>  <RI>
0

>  <Rbt.Current_Directory>
/home/itssahil/PROJECTS/Mol_Feturizer/New_Systems/rnas/1kod

>  <Rbt.Executable>
rbdock ($Id: //depot/dev/client3/rdock/2013.1/src/exe/rbdock.cxx#4 $)

>  <Rbt.Library>
libRbt.so (2013.1, Build901 2013/11/27)

>  <Rbt.Parameter_File>
/export/apps/rDock/src/rDock_2013.1_src/data/scripts/dock_solv.prm

>  <Rbt.Receptor>
prm/blind_docking_100.prm

>  <SCORE>
-25.2136

>  <SCORE.INTER>
-25.3643

>  <SCORE.INTER.CONST>
1

>  <SCORE.INTER.POLAR>
-4.57342

>  <SCORE.INTER.ROT>
5

>  <SCORE.INTER.SOLV>
19.0648

>  <SCORE.INTER.VDW>
-14.9531

>  <SCORE.INTER.norm>
-2.11369

>  <SCORE.INTRA>
-0.398175

>  <SCORE.INTRA.DIHEDRAL>
3.70402

>  <SCORE.INTRA.DIHEDRAL.0>
7.7847

>  <SCORE.INTRA.POLAR>
0

>  <SCORE.INTRA.POLAR.0>
0

>  <SCORE.INTRA.REPUL>
0

>  <SCORE.INTRA.REPUL.0>
0

>  <SCORE.INTRA.SOLV>
-1.92037

>  <SCORE.INTRA.SOLV.lig_0>
-57.5465

>  <SCORE.INTRA.VDW>
-1.29

>  <SCORE.INTRA.VDW.0>
1.39369

>  <SCORE.INTRA.norm>
-0.0331813

>  <SCORE.RESTR>
0.548905

>  <SCORE.RESTR.CAVITY>
0.548905

>  <SCORE.RESTR.norm>
0.0457421

>  <SCORE.SYSTEM>
0

>  <SCORE.SYSTEM.CONST>
0

>  <SCORE.SYSTEM.DIHEDRAL>
0

>  <SCORE.SYSTEM.SOLV>
0

>  <SCORE.SYSTEM.norm>
0

>  <SCORE.heavy>
12

>  <SCORE.norm>
-2.10113

>  <SYMMETRIC_BONDS>
4 1 2

>  <RMSD>
13.103

$$$$
1kod cryst
 OpenBabel11021811393D
libRbt.so/2013.1/901 2013/11/27
 12 11  0  0  0  0  0  0  0  0999 V2000
   -9.6652   -1.2788   27.8036 C   0  0  0  0  0  0  0  0  0  0  0  0
   -9.4371   -0.1326   27.4464 O   0  5  0  0  0  0  0  0  0  0  0  0
  -10.7881   -1.7644   27.8586 O   0  0  0  0  0  0  0  0  0  0  0  0
   -8.4668   -2.1616   28.2046 C   0  0  1  0  0  0  0  0  0  0  0  0
   -8.9268   -3.2170   29.1582 N   0  3  0  0  0  0  0  0  0  0  0  0
   -7.8381   -2.8301   26.9596 C   0  0  0  0  0  0  0  0  0  0  0  0
   -7.2622   -1.7789   26.0198 C   0  0  0  0  0  0  0  0  0  0  0  0
   -6.1413   -2.3907   25.1825 C   0  0  0  0  0  0  0  0  0  0  0  0
   -4.8465   -1.7379   25.5512 N   0  0  0  0  0  0  0  0  0  0  0  0
   -3.8772   -2.4353   26.0804 C   0  0  0  0  0  0  0  0  0  0  0  0
   -3.3574   -2.0861   27.1379 O   0  0  0  0  0  0  0  0  0  0  0  0
   -3.4440   -3.5036   25.4769 N   0  0  0  0  0  0  0  0  0  0  0  0
  1  2  1  0  0  0  0
  1  3  2  0  0  0  0
  4  1  1  6  0  0  0
  4  6  1  0  0  0  0
  4  5  1  0  0  0  0
  6  7  1  0  0  0  0
  7  8  1  0  0  0  0
  8  9  1  0  0  0  0
  9 10  1  0  0  0  0
 10 12  1  0  0  0  0
 10 11  2  0  0  0  0
M  CHG  2   2  -1   5   1
M  END
>  <CHROM.1>
154.25260686,63.79354126,-59.71824244,154.31837625,-114.29097293,-62.90111145
-7.00945754,-2.12478918,26.93252959,2.96876778,-0.33383505,2.27030846

>  <Name>
1kod cryst

>  <RI>
0

>  <Rbt.Current_Directory>
/home/itssahil/PROJECTS/Mol_Feturizer/New_Systems/rnas/1kod

>  <Rbt.Executable>
rbdock ($Id: //depot/dev/client3/rdock/2013.1/src/exe/rbdock.cxx#4 $)

>  <Rbt.Library>
libRbt.so (2013.1, Build901 2013/11/27)

>  <Rbt.Parameter_File>
/export/apps/rDock/src/rDock_2013.1_src/data/scripts/dock_solv.prm

>  <Rbt.Receptor>
prm/blind_docking_60.prm

>  <SCORE>
-35.7116

>  <SCORE.INTER>
-33.6544

>  <SCORE.INTER.CONST>
1

>  <SCORE.INTER.POLAR>
-6.16849

>  <SCORE.INTER.ROT>
5

>  <SCORE.INTER.SOLV>
22.9344

>  <SCORE.INTER.VDW>
-16.4528

>  <SCORE.INTER.norm>
-2.80454

>  <SCORE.INTRA>
-2.42965

>  <SCORE.INTRA.DIHEDRAL>
2.27975

>  <SCORE.INTRA.DIHEDRAL.0>
7.7847

>  <SCORE.INTRA.POLAR>
0

>  <SCORE.INTRA.POLAR.0>
0

>  <SCORE.INTRA.REPUL>
0

>  <SCORE.INTRA.REPUL.0>
0

>  <SCORE.INTRA.SOLV>
-2.29368

>  <SCORE.INTRA.SOLV.lig_0>
-57.5465

>  <SCORE.INTRA.VDW>
-2.42268

>  <SCORE.INTRA.VDW.0>
1.39369

>  <SCORE.INTRA.norm>
-0.202471

>  <SCORE.RESTR>
0.372518

>  <SCORE.RESTR.CAVITY>
0.372518

>  <SCORE.RESTR.norm>
0.0310432

>  <SCORE.SYSTEM>
0

>  <SCORE.SYSTEM.CONST>
0

>  <SCORE.SYSTEM.DIHEDRAL>
0

>  <SCORE.SYSTEM.SOLV>
0

>  <SCORE.SYSTEM.norm>
0

>  <SCORE.heavy>
12

>  <SCORE.norm>
-2.97596

>  <SYMMETRIC_BONDS>
4 1 2

>  <RMSD>
13.105

$$$$
1kod cryst
 OpenBabel11021811393D
libRbt.so/2013.1/901 2013/11/27
 12 11  0  0  0  0  0  0  0  0999 V2000
   -7.9233   -0.9513   27.4483 C   0  0  0  0  0  0  0  0  0  0  0  0
   -9.1406   -0.9862   27.5498 O   0  5  0  0  0  0  0  0  0  0  0  0
   -7.2545    0.0609   27.6151 O   0  0  0  0  0  0  0  0  0  0  0  0
   -7.1912   -2.2604   27.0923 C   0  0  1  0  0  0  0  0  0  0  0  0
   -7.9214   -3.4161   27.6969 N   0  3  0  0  0  0  0  0  0  0  0  0
   -7.1136   -2.4448   25.5586 C   0  0  0  0  0  0  0  0  0  0  0  0
   -6.1131   -3.5357   25.1996 C   0  0  0  0  0  0  0  0  0  0  0  0
   -4.7008   -2.9555   25.1742 C   0  0  0  0  0  0  0  0  0  0  0  0
   -4.5455   -2.1059   23.9524 N   0  0  0  0  0  0  0  0  0  0  0  0
   -4.2492   -0.8382   24.0573 C   0  0  0  0  0  0  0  0  0  0  0  0
   -4.9405    0.0159   23.5067 O   0  0  0  0  0  0  0  0  0  0  0  0
   -3.2027   -0.4722   24.7385 N   0  0  0  0  0  0  0  0  0  0  0  0
  1  2  1  0  0  0  0
  1  3  2  0  0  0  0
  4  1  1  6  0  0  0
  4  6  1  0  0  0  0
  4  5  1  0  0  0  0
  6  7  1  0  0  0  0
  7  8  1  0  0  0  0
  8  9  1  0  0  0  0
  9 10  1  0  0  0  0
 10 12  1  0  0  0  0
 10 11  2  0  0  0  0
M  CHG  2   2  -1   5   1
M  END
>  <CHROM.1>
-33.26551773,166.16485068,24.43719734,-83.35782984,-73.24440485,-59.62741613
-6.20435675,-1.65015813,25.81727799,3.06991972,-0.70720685,-3.06721547

>  <Name>
1kod cryst

>  <RI>
0

>  <Rbt.Current_Directory>
/home/itssahil/PROJECTS/Mol_Feturizer/New_Systems/rnas/1kod

>  <Rbt.Executable>
rbdock ($Id: //depot/dev/client3/rdock/2013.1/src/exe/rbdock.cxx#4 $)

>  <Rbt.Library>
libRbt.so (2013.1, Build901 2013/11/27)

>  <Rbt.Parameter_File>
/export/apps/rDock/src/rDock_2013.1_src/data/scripts/dock_solv.prm

>  <Rbt.Receptor>
prm/blind_docking_80.prm

>  <SCORE>
-24.3466

>  <SCORE.INTER>
-21.462

>  <SCORE.INTER.CONST>
1

>  <SCORE.INTER.POLAR>
-3.51494

>  <SCORE.INTER.ROT>
5

>  <SCORE.INTER.SOLV>
17.7364

>  <SCORE.INTER.VDW>
-15.437

>  <SCORE.INTER.norm>
-1.7885

>  <SCORE.INTRA>
-2.88466

>  <SCORE.INTRA.DIHEDRAL>
0.0762948

>  <SCORE.INTRA.DIHEDRAL.0>
7.7847

>  <SCORE.INTRA.POLAR>
0

>  <SCORE.INTRA.POLAR.0>
0

>  <SCORE.INTRA.REPUL>
0

>  <SCORE.INTRA.REPUL.0>
0

>  <SCORE.INTRA.SOLV>
-1.68129

>  <SCORE.INTRA.SOLV.lig_0>
-57.5465

>  <SCORE.INTRA.VDW>
-2.08216

>  <SCORE.INTRA.VDW.0>
1.39369

>  <SCORE.INTRA.norm>
-0.240388

>  <SCORE.RESTR>
0

>  <SCORE.RESTR.CAVITY>
0

>  <SCORE.RESTR.norm>
0

>  <SCORE.SYSTEM>
0

>  <SCORE.SYSTEM.CONST>
0

>  <SCORE.SYSTEM.DIHEDRAL>
0

>  <SCORE.SYSTEM.SOLV>
0

>  <SCORE.SYSTEM.norm>
0

>  <SCORE.heavy>
12

>  <SCORE.norm>
-2.02889

>  <SYMMETRIC_BONDS>
4 1 2

>  <RMSD>
13.116

$$$$
1kod cryst
 OpenBabel11021811393D
libRbt.so/2013.1/901 2013/11/27
 12 11  0  0  0  0  0  0  0  0999 V2000
   -6.5057   -1.8625   26.3550 C   0  0  0  0  0  0  0  0  0  0  0  0
   -7.1855   -1.4024   25.4498 O   0  5  0  0  0  0  0  0  0  0  0  0
   -6.4769   -1.3995   27.4883 O   0  0  0  0  0  0  0  0  0  0  0  0
   -5.6377   -3.0990   26.0486 C   0  0  1  0  0  0  0  0  0  0  0  0
   -6.4949   -4.1710   25.4566 N   0  3  0  0  0  0  0  0  0  0  0  0
   -4.5036   -2.7407   25.0598 C   0  0  0  0  0  0  0  0  0  0  0  0
   -3.5079   -1.7879   25.7083 C   0  0  0  0  0  0  0  0  0  0  0  0
   -3.9189   -0.3431   25.4337 C   0  0  0  0  0  0  0  0  0  0  0  0
   -3.7845   -0.0689   23.9689 N   0  0  0  0  0  0  0  0  0  0  0  0
   -4.7033   -0.4679   23.1307 C   0  0  0  0  0  0  0  0  0  0  0  0
   -4.4064   -1.1460   22.1497 O   0  0  0  0  0  0  0  0  0  0  0  0
   -5.9457   -0.1331   23.3244 N   0  0  0  0  0  0  0  0  0  0  0  0
  1  2  1  0  0  0  0
  1  3  2  0  0  0  0
  4  1  1  6  0  0  0
  4  6  1  0  0  0  0
  4  5  1  0  0  0  0
  6  7  1  0  0  0  0
  7  8  1  0  0  0  0
  8  9  1  0  0  0  0
  9 10  1  0  0  0  0
 10 12  1  0  0  0  0
 10 11  2  0  0  0  0
M  CHG  2   2  -1   5   1
M  END
>  <CHROM.1>
-53.38767473,66.93256400,65.90028136,-91.13082772,-66.56019022,-100.62043811
-5.29665486,-1.56403919,24.94623841,-2.23116734,-0.69637089,-1.41850350

>  <Name>
1kod cryst

>  <RI>
0

>  <Rbt.Current_Directory>
/home/itssahil/PROJECTS/Mol_Feturizer/New_Systems/rnas/1kod

>  <Rbt.Executable>
rbdock ($Id: //depot/dev/client3/rdock/2013.1/src/exe/rbdock.cxx#4 $)

>  <Rbt.Library>
libRbt.so (2013.1, Build901 2013/11/27)

>  <Rbt.Parameter_File>
/export/apps/rDock/src/rDock_2013.1_src/data/scripts/dock_solv.prm

>  <Rbt.Receptor>
prm/blind_docking_40.prm

>  <SCORE>
-26.9039

>  <SCORE.INTER>
-24.1039

>  <SCORE.INTER.CONST>
1

>  <SCORE.INTER.POLAR>
-3.87646

>  <SCORE.INTER.ROT>
5

>  <SCORE.INTER.SOLV>
22.1661

>  <SCORE.INTER.VDW>
-17.4697

>  <SCORE.INTER.norm>
-2.00866

>  <SCORE.INTRA>
-2.80005

>  <SCORE.INTRA.DIHEDRAL>
-1.88664

>  <SCORE.INTRA.DIHEDRAL.0>
7.7847

>  <SCORE.INTRA.POLAR>
0

>  <SCORE.INTRA.POLAR.0>
0

>  <SCORE.INTRA.REPUL>
0

>  <SCORE.INTRA.REPUL.0>
0

>  <SCORE.INTRA.SOLV>
2.1336

>  <SCORE.INTRA.SOLV.lig_0>
-57.5465

>  <SCORE.INTRA.VDW>
-2.92353

>  <SCORE.INTRA.VDW.0>
1.39369

>  <SCORE.INTRA.norm>
-0.233338

>  <SCORE.RESTR>
0

>  <SCORE.RESTR.CAVITY>
0

>  <SCORE.RESTR.norm>
0

>  <SCORE.SYSTEM>
0

>  <SCORE.SYSTEM.CONST>
0

>  <SCORE.SYSTEM.DIHEDRAL>
0

>  <SCORE.SYSTEM.SOLV>
0

>  <SCORE.SYSTEM.norm>
0

>  <SCORE.heavy>
12

>  <SCORE.norm>
-2.24199

>  <SYMMETRIC_BONDS>
4 1 2

>  <RMSD>
13.129

$$$$
1kod cryst
 OpenBabel11021811393D
libRbt.so/2013.1/901 2013/11/27
 12 11  0  0  0  0  0  0  0  0999 V2000
   -6.4200   -2.4866   26.1232 C   0  0  0  0  0  0  0  0  0  0  0  0
   -7.3396   -2.1308   25.4013 O   0  5  0  0  0  0  0  0  0  0  0  0
   -6.4009   -2.3164   27.3358 O   0  0  0  0  0  0  0  0  0  0  0  0
   -5.2178   -3.1924   25.4653 C   0  0  1  0  0  0  0  0  0  0  0  0
   -5.6690   -4.4876   24.8708 N   0  3  0  0  0  0  0  0  0  0  0  0
   -4.5996   -2.3051   24.3596 C   0  0  0  0  0  0  0  0  0  0  0  0
   -3.9879   -1.0467   24.9614 C   0  0  0  0  0  0  0  0  0  0  0  0
   -4.9681    0.1174   24.8351 C   0  0  0  0  0  0  0  0  0  0  0  0
   -4.4886    1.0431   23.7619 N   0  0  0  0  0  0  0  0  0  0  0  0
   -3.8837    2.1595   24.0682 C   0  0  0  0  0  0  0  0  0  0  0  0
   -4.2772    3.2318   23.6145 O   0  0  0  0  0  0  0  0  0  0  0  0
   -2.8435    2.1389   24.8497 N   0  0  0  0  0  0  0  0  0  0  0  0
  1  2  1  0  0  0  0
  1  3  2  0  0  0  0
  4  1  1  6  0  0  0
  4  6  1  0  0  0  0
  4  5  1  0  0  0  0
  6  7  1  0  0  0  0
  7  8  1  0  0  0  0
  8  9  1  0  0  0  0
  9 10  1  0  0  0  0
 10 12  1  0  0  0  0
 10 11  2  0  0  0  0
M  CHG  2   2  -1   5   1
M  END
>  <CHROM.1>
-64.06078478,65.83044574,41.07090567,-97.86560525,-106.06180496,77.98470201
-5.01886778,-0.78734836,24.96672514,2.05499990,-0.65700438,-3.10980334

>  <Name>
1kod cryst

>  <RI>
0

>  <Rbt.Current_Directory>
/home/itssahil/PROJECTS/Mol_Feturizer/New_Systems/rnas/1kod

>  <Rbt.Executable>
rbdock ($Id: //depot/dev/client3/rdock/2013.1/src/exe/rbdock.cxx#4 $)

>  <Rbt.Library>
libRbt.so (2013.1, Build901 2013/11/27)

>  <Rbt.Parameter_File>
/export/apps/rDock/src/rDock_2013.1_src/data/scripts/dock_solv.prm

>  <Rbt.Receptor>
prm/blind_docking_40.prm

>  <SCORE>
-22.757

>  <SCORE.INTER>
-21.8253

>  <SCORE.INTER.CONST>
1

>  <SCORE.INTER.POLAR>
-4.28386

>  <SCORE.INTER.ROT>
5

>  <SCORE.INTER.SOLV>
21.4562

>  <SCORE.INTER.VDW>
-14.3561

>  <SCORE.INTER.norm>
-1.81878

>  <SCORE.INTRA>
-0.93171

>  <SCORE.INTRA.DIHEDRAL>
4.49212

>  <SCORE.INTRA.DIHEDRAL.0>
7.7847

>  <SCORE.INTRA.POLAR>
0

>  <SCORE.INTRA.POLAR.0>
0

>  <SCORE.INTRA.REPUL>
0

>  <SCORE.INTRA.REPUL.0>
0

>  <SCORE.INTRA.SOLV>
-1.46423

>  <SCORE.INTRA.SOLV.lig_0>
-57.5465

>  <SCORE.INTRA.VDW>
-2.44565

>  <SCORE.INTRA.VDW.0>
1.39369

>  <SCORE.INTRA.norm>
-0.0776425

>  <SCORE.RESTR>
0

>  <SCORE.RESTR.CAVITY>
0

>  <SCORE.RESTR.norm>
0

>  <SCORE.SYSTEM>
0

>  <SCORE.SYSTEM.CONST>
0

>  <SCORE.SYSTEM.DIHEDRAL>
0

>  <SCORE.SYSTEM.SOLV>
0

>  <SCORE.SYSTEM.norm>
0

>  <SCORE.heavy>
12

>  <SCORE.norm>
-1.89642

>  <SYMMETRIC_BONDS>
4 1 2

>  <RMSD>
13.130

$$$$
1kod cryst
 OpenBabel11021811393D
libRbt.so/2013.1/901 2013/11/27
 12 11  0  0  0  0  0  0  0  0999 V2000
   -6.8037   -2.4500   26.5899 C   0  0  0  0  0  0  0  0  0  0  0  0
   -7.8324   -3.0862   26.4159 O   0  5  0  0  0  0  0  0  0  0  0  0
   -6.6753   -1.5833   27.4455 O   0  0  0  0  0  0  0  0  0  0  0  0
   -5.5998   -2.7616   25.6790 C   0  0  1  0  0  0  0  0  0  0  0  0
   -5.7851   -4.1083   25.0573 N   0  3  0  0  0  0  0  0  0  0  0  0
   -5.4634   -1.6948   24.5674 C   0  0  0  0  0  0  0  0  0  0  0  0
   -5.2568   -0.3127   25.1730 C   0  0  0  0  0  0  0  0  0  0  0  0
   -5.4299    0.7560   24.0961 C   0  0  0  0  0  0  0  0  0  0  0  0
   -4.1251    0.9521   23.3907 N   0  0  0  0  0  0  0  0  0  0  0  0
   -3.3438    1.9511   23.7032 C   0  0  0  0  0  0  0  0  0  0  0  0
   -2.9380    2.7250   22.8390 O   0  0  0  0  0  0  0  0  0  0  0  0
   -2.9764    2.1234   24.9396 N   0  0  0  0  0  0  0  0  0  0  0  0
  1  2  1  0  0  0  0
  1  3  2  0  0  0  0
  4  1  1  1  0  0  0
  4  6  1  0  0  0  0
  4  5  1  0  0  0  0
  6  7  1  0  0  0  0
  7  8  1  0  0  0  0
  8  9  1  0  0  0  0
  9 10  1  0  0  0  0
 10 12  1  0  0  0  0
 10 11  2  0  0  0  0
M  CHG  2   2  -1   5   1
M  END
>  <CHROM.1>
-19.17708058,60.04200710,-58.09755816,-167.65323497,-86.09429962,80.57646452
-5.18385363,-0.64895275,24.99374124,2.66996481,-0.96426381,-2.58877980

>  <Name>
1kod cryst

>  <RI>
0

>  <Rbt.Current_Directory>
/home/itssahil/PROJECTS/Mol_Feturizer/New_Systems/rnas/1kod

>  <Rbt.Executable>
rbdock ($Id: //depot/dev/client3/rdock/2013.1/src/exe/rbdock.cxx#4 $)

>  <Rbt.Library>
libRbt.so (2013.1, Build901 2013/11/27)

>  <Rbt.Parameter_File>
/export/apps/rDock/src/rDock_2013.1_src/data/scripts/dock_solv.prm

>  <Rbt.Receptor>
prm/blind_docking_80.prm

>  <SCORE>
-23.1572

>  <SCORE.INTER>
-18.7309

>  <SCORE.INTER.CONST>
1

>  <SCORE.INTER.POLAR>
-3.17391

>  <SCORE.INTER.ROT>
5

>  <SCORE.INTER.SOLV>
23.0357

>  <SCORE.INTER.VDW>
-16.5195

>  <SCORE.INTER.norm>
-1.56091

>  <SCORE.INTRA>
-4.42626

>  <SCORE.INTRA.DIHEDRAL>
-2.71336

>  <SCORE.INTRA.DIHEDRAL.0>
7.7847

>  <SCORE.INTRA.POLAR>
0

>  <SCORE.INTRA.POLAR.0>
0

>  <SCORE.INTRA.REPUL>
0

>  <SCORE.INTRA.REPUL.0>
0

>  <SCORE.INTRA.SOLV>
-1.89517

>  <SCORE.INTRA.SOLV.lig_0>
-57.5465

>  <SCORE.INTRA.VDW>
-2.12199

>  <SCORE.INTRA.VDW.0>
1.39369

>  <SCORE.INTRA.norm>
-0.368855

>  <SCORE.RESTR>
0

>  <SCORE.RESTR.CAVITY>
0

>  <SCORE.RESTR.norm>
0

>  <SCORE.SYSTEM>
0

>  <SCORE.SYSTEM.CONST>
0

>  <SCORE.SYSTEM.DIHEDRAL>
0

>  <SCORE.SYSTEM.SOLV>
0

>  <SCORE.SYSTEM.norm>
0

>  <SCORE.heavy>
12

>  <SCORE.norm>
-1.92976

>  <SYMMETRIC_BONDS>
4 1 2

>  <RMSD>
13.133

$$$$
1kod cryst
 OpenBabel11021811393D
libRbt.so/2013.1/901 2013/11/27
 12 11  0  0  0  0  0  0  0  0999 V2000
   -4.2069   -1.5637   26.2212 C   0  0  0  0  0  0  0  0  0  0  0  0
   -3.9534   -0.3707   26.1446 O   0  5  0  0  0  0  0  0  0  0  0  0
   -3.6998   -2.3164   27.0433 O   0  0  0  0  0  0  0  0  0  0  0  0
   -5.2267   -2.1500   25.2249 C   0  0  1  0  0  0  0  0  0  0  0  0
   -4.5124   -3.0156   24.2375 N   0  3  0  0  0  0  0  0  0  0  0  0
   -6.2967   -2.9865   25.9649 C   0  0  0  0  0  0  0  0  0  0  0  0
   -7.1603   -2.0937   26.8463 C   0  0  0  0  0  0  0  0  0  0  0  0
   -8.0485   -2.9537   27.7425 C   0  0  0  0  0  0  0  0  0  0  0  0
   -8.9526   -2.0609   28.5326 N   0  0  0  0  0  0  0  0  0  0  0  0
   -9.8842   -1.3642   27.9385 C   0  0  0  0  0  0  0  0  0  0  0  0
   -9.9643   -0.1496   28.1081 O   0  0  0  0  0  0  0  0  0  0  0  0
  -10.7481   -1.9610   27.1699 N   0  0  0  0  0  0  0  0  0  0  0  0
  1  2  1  0  0  0  0
  1  3  2  0  0  0  0
  4  1  1  1  0  0  0
  4  6  1  0  0  0  0
  4  5  1  0  0  0  0
  6  7  1  0  0  0  0
  7  8  1  0  0  0  0
  8  9  1  0  0  0  0
  9 10  1  0  0  0  0
 10 12  1  0  0  0  0
 10 11  2  0  0  0  0
M  CHG  2   2  -1   5   1
M  END
>  <CHROM.1>
108.87619416,66.67542657,-138.48019208,-170.48853357,-176.22930815,-113.01938036
-6.87480089,-1.91761438,26.74716445,-0.30868686,0.22864766,0.71456769

>  <Name>
1kod cryst

>  <RI>
0

>  <Rbt.Current_Directory>
/home/itssahil/PROJECTS/Mol_Feturizer/New_Systems/rnas/1kod

>  <Rbt.Executable>
rbdock ($Id: //depot/dev/client3/rdock/2013.1/src/exe/rbdock.cxx#4 $)

>  <Rbt.Library>
libRbt.so (2013.1, Build901 2013/11/27)

>  <Rbt.Parameter_File>
/export/apps/rDock/src/rDock_2013.1_src/data/scripts/dock_solv.prm

>  <Rbt.Receptor>
prm/blind_docking_40.prm

>  <SCORE>
-29.2154

>  <SCORE.INTER>
-25.3589

>  <SCORE.INTER.CONST>
1

>  <SCORE.INTER.POLAR>
-5.17888

>  <SCORE.INTER.ROT>
5

>  <SCORE.INTER.SOLV>
19.9592

>  <SCORE.INTER.VDW>
-13.2294

>  <SCORE.INTER.norm>
-2.11324

>  <SCORE.INTRA>
-3.92727

>  <SCORE.INTRA.DIHEDRAL>
-2.14571

>  <SCORE.INTRA.DIHEDRAL.0>
7.7847

>  <SCORE.INTRA.POLAR>
0

>  <SCORE.INTRA.POLAR.0>
0

>  <SCORE.INTRA.REPUL>
0

>  <SCORE.INTRA.REPUL.0>
0

>  <SCORE.INTRA.SOLV>
-2.53984

>  <SCORE.INTRA.SOLV.lig_0>
-57.5465

>  <SCORE.INTRA.VDW>
-1.5845

>  <SCORE.INTRA.VDW.0>
1.39369

>  <SCORE.INTRA.norm>
-0.327273

>  <SCORE.RESTR>
0.0707424

>  <SCORE.RESTR.CAVITY>
0.0707424

>  <SCORE.RESTR.norm>
0.0058952

>  <SCORE.SYSTEM>
0

>  <SCORE.SYSTEM.CONST>
0

>  <SCORE.SYSTEM.DIHEDRAL>
0

>  <SCORE.SYSTEM.SOLV>
0

>  <SCORE.SYSTEM.norm>
0

>  <SCORE.heavy>
12

>  <SCORE.norm>
-2.43462

>  <SYMMETRIC_BONDS>
4 1 2

>  <RMSD>
13.147

$$$$
1kod cryst
 OpenBabel11021811393D
libRbt.so/2013.1/901 2013/11/27
 12 11  0  0  0  0  0  0  0  0999 V2000
   -9.3516   -0.9330   28.4810 C   0  0  0  0  0  0  0  0  0  0  0  0
   -9.1077    0.0861   29.1097 O   0  5  0  0  0  0  0  0  0  0  0  0
  -10.4414   -1.1797   27.9798 O   0  0  0  0  0  0  0  0  0  0  0  0
   -8.2181   -1.9635   28.3092 C   0  0  1  0  0  0  0  0  0  0  0  0
   -8.6607   -3.2819   28.8574 N   0  3  0  0  0  0  0  0  0  0  0  0
   -7.8456   -2.1244   26.8167 C   0  0  0  0  0  0  0  0  0  0  0  0
   -7.0682   -0.9107   26.3243 C   0  0  0  0  0  0  0  0  0  0  0  0
   -6.8598   -1.0066   24.8146 C   0  0  0  0  0  0  0  0  0  0  0  0
   -5.6662   -0.1881   24.4350 N   0  0  0  0  0  0  0  0  0  0  0  0
   -4.5004   -0.7519   24.2643 C   0  0  0  0  0  0  0  0  0  0  0  0
   -3.5101   -0.3405   24.8647 O   0  0  0  0  0  0  0  0  0  0  0  0
   -4.3789   -1.7504   23.4388 N   0  0  0  0  0  0  0  0  0  0  0  0
  1  2  1  0  0  0  0
  1  3  2  0  0  0  0
  4  1  1  6  0  0  0
  4  6  1  0  0  0  0
  4  5  1  0  0  0  0
  6  7  1  0  0  0  0
  7  8  1  0  0  0  0
  8  9  1  0  0  0  0
  9 10  1  0  0  0  0
 10 12  1  0  0  0  0
 10 11  2  0  0  0  0
M  CHG  2   2  -1   5   1
M  END
>  <CHROM.1>
122.74204828,73.67566958,-174.95905567,-173.04145426,-156.33685364,-82.06506346
-7.13948241,-1.21512195,26.48740160,2.93924840,-0.72474937,2.98966746

>  <Name>
1kod cryst

>  <RI>
0

>  <Rbt.Current_Directory>
/home/itssahil/PROJECTS/Mol_Feturizer/New_Systems/rnas/1kod

>  <Rbt.Executable>
rbdock ($Id: //depot/dev/client3/rdock/2013.1/src/exe/rbdock.cxx#4 $)

>  <Rbt.Library>
libRbt.so (2013.1, Build901 2013/11/27)

>  <Rbt.Parameter_File>
/export/apps/rDock/src/rDock_2013.1_src/data/scripts/dock_solv.prm

>  <Rbt.Receptor>
prm/blind_docking_100.prm

>  <SCORE>
-26.9627

>  <SCORE.INTER>
-22.5866

>  <SCORE.INTER.CONST>
1

>  <SCORE.INTER.POLAR>
-4.63182

>  <SCORE.INTER.ROT>
5

>  <SCORE.INTER.SOLV>
17.6592

>  <SCORE.INTER.VDW>
-12.4381

>  <SCORE.INTER.norm>
-1.88222

>  <SCORE.INTRA>
-5.41031

>  <SCORE.INTRA.DIHEDRAL>
-2.78893

>  <SCORE.INTRA.DIHEDRAL.0>
7.7847

>  <SCORE.INTRA.POLAR>
0

>  <SCORE.INTRA.POLAR.0>
0

>  <SCORE.INTRA.REPUL>
0

>  <SCORE.INTRA.REPUL.0>
0

>  <SCORE.INTRA.SOLV>
-2.7408

>  <SCORE.INTRA.SOLV.lig_0>
-57.5465

>  <SCORE.INTRA.VDW>
-2.64545

>  <SCORE.INTRA.VDW.0>
1.39369

>  <SCORE.INTRA.norm>
-0.450859

>  <SCORE.RESTR>
1.03419

>  <SCORE.RESTR.CAVITY>
1.03419

>  <SCORE.RESTR.norm>
0.0861822

>  <SCORE.SYSTEM>
0

>  <SCORE.SYSTEM.CONST>
0

>  <SCORE.SYSTEM.DIHEDRAL>
0

>  <SCORE.SYSTEM.SOLV>
0

>  <SCORE.SYSTEM.norm>
0

>  <SCORE.heavy>
12

>  <SCORE.norm>
-2.24689

>  <SYMMETRIC_BONDS>
4 1 2

>  <RMSD>
13.154

$$$$
1kod cryst
 OpenBabel11021811393D
libRbt.so/2013.1/901 2013/11/27
 12 11  0  0  0  0  0  0  0  0999 V2000
   -3.8452   -0.4554   24.3078 C   0  0  0  0  0  0  0  0  0  0  0  0
   -3.0889   -0.7147   23.3836 O   0  5  0  0  0  0  0  0  0  0  0  0
   -3.5118    0.1715   25.3055 O   0  0  0  0  0  0  0  0  0  0  0  0
   -5.3032   -0.9456   24.2061 C   0  0  1  0  0  0  0  0  0  0  0  0
   -5.7716   -0.8156   22.7925 N   0  3  0  0  0  0  0  0  0  0  0  0
   -5.4171   -2.4218   24.6535 C   0  0  0  0  0  0  0  0  0  0  0  0
   -5.7929   -2.5080   26.1270 C   0  0  0  0  0  0  0  0  0  0  0  0
   -7.3113   -2.5824   26.2710 C   0  0  0  0  0  0  0  0  0  0  0  0
   -7.7312   -1.7453   27.4379 N   0  0  0  0  0  0  0  0  0  0  0  0
   -8.6416   -2.1742   28.2705 C   0  0  0  0  0  0  0  0  0  0  0  0
   -9.6281   -1.4887   28.5300 O   0  0  0  0  0  0  0  0  0  0  0  0
   -8.4987   -3.3328   28.8455 N   0  0  0  0  0  0  0  0  0  0  0  0
  1  2  1  0  0  0  0
  1  3  2  0  0  0  0
  4  1  1  6  0  0  0
  4  6  1  0  0  0  0
  4  5  1  0  0  0  0
  6  7  1  0  0  0  0
  7  8  1  0  0  0  0
  8  9  1  0  0  0  0
  9 10  1  0  0  0  0
 10 12  1  0  0  0  0
 10 11  2  0  0  0  0
M  CHG  2   2  -1   5   1
M  END
>  <CHROM.1>
-37.93504119,94.11968015,-43.63820225,91.79551472,-140.02590316,42.12929150
-6.21502400,-1.57074876,25.82867843,-0.71092640,0.41172062,1.49810369

>  <Name>
1kod cryst

>  <RI>
0

>  <Rbt.Current_Directory>
/home/itssahil/PROJECTS/Mol_Feturizer/New_Systems/rnas/1kod

>  <Rbt.Executable>
rbdock ($Id: //depot/dev/client3/rdock/2013.1/src/exe/rbdock.cxx#4 $)

>  <Rbt.Library>
libRbt.so (2013.1, Build901 2013/11/27)

>  <Rbt.Parameter_File>
/export/apps/rDock/src/rDock_2013.1_src/data/scripts/dock_solv.prm

>  <Rbt.Receptor>
prm/blind_docking_80.prm

>  <SCORE>
-27.2967

>  <SCORE.INTER>
-26.2568

>  <SCORE.INTER.CONST>
1

>  <SCORE.INTER.POLAR>
-4.4311

>  <SCORE.INTER.ROT>
5

>  <SCORE.INTER.SOLV>
22.9445

>  <SCORE.INTER.VDW>
-17.3157

>  <SCORE.INTER.norm>
-2.18806

>  <SCORE.INTRA>
-1.03997

>  <SCORE.INTRA.DIHEDRAL>
5.6747

>  <SCORE.INTRA.DIHEDRAL.0>
7.7847

>  <SCORE.INTRA.POLAR>
0

>  <SCORE.INTRA.POLAR.0>
0

>  <SCORE.INTRA.REPUL>
0

>  <SCORE.INTRA.REPUL.0>
0

>  <SCORE.INTRA.SOLV>
-2.58819

>  <SCORE.INTRA.SOLV.lig_0>
-57.5465

>  <SCORE.INTRA.VDW>
-2.58323

>  <SCORE.INTRA.VDW.0>
1.39369

>  <SCORE.INTRA.norm>
-0.0866644

>  <SCORE.RESTR>
0

>  <SCORE.RESTR.CAVITY>
0

>  <SCORE.RESTR.norm>
0

>  <SCORE.SYSTEM>
0

>  <SCORE.SYSTEM.CONST>
0

>  <SCORE.SYSTEM.DIHEDRAL>
0

>  <SCORE.SYSTEM.SOLV>
0

>  <SCORE.SYSTEM.norm>
0

>  <SCORE.heavy>
12

>  <SCORE.norm>
-2.27473

>  <SYMMETRIC_BONDS>
4 1 2

>  <RMSD>
13.161

$$$$
1kod cryst
 OpenBabel11021811393D
libRbt.so/2013.1/901 2013/11/27
 12 11  0  0  0  0  0  0  0  0999 V2000
   -9.5875   -0.9674   28.4237 C   0  0  0  0  0  0  0  0  0  0  0  0
   -9.4981    0.1033   29.0060 O   0  5  0  0  0  0  0  0  0  0  0  0
  -10.6117   -1.3652   27.8829 O   0  0  0  0  0  0  0  0  0  0  0  0
   -8.3353   -1.8646   28.3669 C   0  0  1  0  0  0  0  0  0  0  0  0
   -8.6778   -3.2255   28.8818 N   0  3  0  0  0  0  0  0  0  0  0  0
   -7.8089   -1.9792   26.9171 C   0  0  0  0  0  0  0  0  0  0  0  0
   -7.0332   -0.7275   26.5277 C   0  0  0  0  0  0  0  0  0  0  0  0
   -5.9810   -1.0758   25.4773 C   0  0  0  0  0  0  0  0  0  0  0  0
   -5.2673   -2.3218   25.8978 N   0  0  0  0  0  0  0  0  0  0  0  0
   -5.0927   -3.3045   25.0553 C   0  0  0  0  0  0  0  0  0  0  0  0
   -5.4458   -4.4466   25.3409 O   0  0  0  0  0  0  0  0  0  0  0  0
   -4.5251   -3.0791   23.9063 N   0  0  0  0  0  0  0  0  0  0  0  0
  1  2  1  0  0  0  0
  1  3  2  0  0  0  0
  4  1  1  6  0  0  0
  4  6  1  0  0  0  0
  4  5  1  0  0  0  0
  6  7  1  0  0  0  0
  7  8  1  0  0  0  0
  8  9  1  0  0  0  0
  9 10  1  0  0  0  0
 10 12  1  0  0  0  0
 10 11  2  0  0  0  0
M  CHG  2   2  -1   5   1
M  END
>  <CHROM.1>
126.43762058,78.14071530,-60.52189791,151.91485792,-45.48624490,-48.27508112
-7.33279409,-2.05460155,26.81962865,-2.93637344,-0.71652759,2.96572467

>  <Name>
1kod cryst

>  <RI>
0

>  <Rbt.Current_Directory>
/home/itssahil/PROJECTS/Mol_Feturizer/New_Systems/rnas/1kod

>  <Rbt.Executable>
rbdock ($Id: //depot/dev/client3/rdock/2013.1/src/exe/rbdock.cxx#4 $)

>  <Rbt.Library>
libRbt.so (2013.1, Build901 2013/11/27)

>  <Rbt.Parameter_File>
/export/apps/rDock/src/rDock_2013.1_src/data/scripts/dock_solv.prm

>  <Rbt.Receptor>
prm/blind_docking_40.prm

>  <SCORE>
-23.1014

>  <SCORE.INTER>
-19.3715

>  <SCORE.INTER.CONST>
1

>  <SCORE.INTER.POLAR>
-3.71711

>  <SCORE.INTER.ROT>
5

>  <SCORE.INTER.SOLV>
19.3742

>  <SCORE.INTER.VDW>
-13.9154

>  <SCORE.INTER.norm>
-1.61429

>  <SCORE.INTRA>
-3.74963

>  <SCORE.INTRA.DIHEDRAL>
-0.957625

>  <SCORE.INTRA.DIHEDRAL.0>
7.7847

>  <SCORE.INTRA.POLAR>
0

>  <SCORE.INTRA.POLAR.0>
0

>  <SCORE.INTRA.REPUL>
0

>  <SCORE.INTRA.REPUL.0>
0

>  <SCORE.INTRA.SOLV>
-2.29946

>  <SCORE.INTRA.SOLV.lig_0>
-57.5465

>  <SCORE.INTRA.VDW>
-2.12108

>  <SCORE.INTRA.VDW.0>
1.39369

>  <SCORE.INTRA.norm>
-0.312469

>  <SCORE.RESTR>
0.0197151

>  <SCORE.RESTR.CAVITY>
0.0197151

>  <SCORE.RESTR.norm>
0.00164293

>  <SCORE.SYSTEM>
0

>  <SCORE.SYSTEM.CONST>
0

>  <SCORE.SYSTEM.DIHEDRAL>
0

>  <SCORE.SYSTEM.SOLV>
0

>  <SCORE.SYSTEM.norm>
0

>  <SCORE.heavy>
12

>  <SCORE.norm>
-1.92512

>  <SYMMETRIC_BONDS>
4 1 2

>  <RMSD>
13.163

$$$$
1kod cryst
 OpenBabel11021811393D
libRbt.so/2013.1/901 2013/11/27
 12 11  0  0  0  0  0  0  0  0999 V2000
   -3.9311   -0.3216   24.3202 C   0  0  0  0  0  0  0  0  0  0  0  0
   -3.0860   -0.6330   23.4942 O   0  5  0  0  0  0  0  0  0  0  0  0
   -3.6673    0.0777   25.4474 O   0  0  0  0  0  0  0  0  0  0  0  0
   -5.4137   -0.4372   23.9143 C   0  0  1  0  0  0  0  0  0  0  0  0
   -5.5058   -0.6949   22.4447 N   0  3  0  0  0  0  0  0  0  0  0  0
   -6.1042   -1.5876   24.6838 C   0  0  0  0  0  0  0  0  0  0  0  0
   -6.5812   -1.1091   26.0488 C   0  0  0  0  0  0  0  0  0  0  0  0
   -7.4170   -2.1987   26.7168 C   0  0  0  0  0  0  0  0  0  0  0  0
   -8.0935   -1.6238   27.9211 N   0  0  0  0  0  0  0  0  0  0  0  0
   -8.9899   -2.3144   28.5733 C   0  0  0  0  0  0  0  0  0  0  0  0
  -10.1041   -1.8457   28.7956 O   0  0  0  0  0  0  0  0  0  0  0  0
   -8.6991   -3.5061   29.0076 N   0  0  0  0  0  0  0  0  0  0  0  0
  1  2  1  0  0  0  0
  1  3  2  0  0  0  0
  4  1  1  1  0  0  0
  4  6  1  0  0  0  0
  4  5  1  0  0  0  0
  6  7  1  0  0  0  0
  7  8  1  0  0  0  0
  8  9  1  0  0  0  0
  9 10  1  0  0  0  0
 10 12  1  0  0  0  0
 10 11  2  0  0  0  0
M  CHG  2   2  -1   5   1
M  END
>  <CHROM.1>
-10.19082778,84.56008251,-169.30139700,172.63766740,-169.05794015,-8.13773242
-6.45951244,-1.35280766,25.93031051,-0.78531782,0.29339032,1.67081032

>  <Name>
1kod cryst

>  <RI>
0

>  <Rbt.Current_Directory>
/home/itssahil/PROJECTS/Mol_Feturizer/New_Systems/rnas/1kod

>  <Rbt.Executable>
rbdock ($Id: //depot/dev/client3/rdock/2013.1/src/exe/rbdock.cxx#4 $)

>  <Rbt.Library>
libRbt.so (2013.1, Build901 2013/11/27)

>  <Rbt.Parameter_File>
/export/apps/rDock/src/rDock_2013.1_src/data/scripts/dock_solv.prm

>  <Rbt.Receptor>
prm/blind_docking_40.prm

>  <SCORE>
-27.7925

>  <SCORE.INTER>
-23.0053

>  <SCORE.INTER.CONST>
1

>  <SCORE.INTER.POLAR>
-4.19372

>  <SCORE.INTER.ROT>
5

>  <SCORE.INTER.SOLV>
24.3152

>  <SCORE.INTER.VDW>
-16.3962

>  <SCORE.INTER.norm>
-1.91711

>  <SCORE.INTRA>
-4.79734

>  <SCORE.INTRA.DIHEDRAL>
-2.75983

>  <SCORE.INTRA.DIHEDRAL.0>
7.7847

>  <SCORE.INTRA.POLAR>
0

>  <SCORE.INTRA.POLAR.0>
0

>  <SCORE.INTRA.REPUL>
0

>  <SCORE.INTRA.REPUL.0>
0

>  <SCORE.INTRA.SOLV>
-2.65339

>  <SCORE.INTRA.SOLV.lig_0>
-57.5465

>  <SCORE.INTRA.VDW>
-2.09072

>  <SCORE.INTRA.VDW.0>
1.39369

>  <SCORE.INTRA.norm>
-0.399778

>  <SCORE.RESTR>
0.0101076

>  <SCORE.RESTR.CAVITY>
0.0101076

>  <SCORE.RESTR.norm>
0.000842302

>  <SCORE.SYSTEM>
0

>  <SCORE.SYSTEM.CONST>
0

>  <SCORE.SYSTEM.DIHEDRAL>
0

>  <SCORE.SYSTEM.SOLV>
0

>  <SCORE.SYSTEM.norm>
0

>  <SCORE.heavy>
12

>  <SCORE.norm>
-2.31604

>  <SYMMETRIC_BONDS>
4 1 2

>  <RMSD>
13.183

$$$$
1kod cryst
 OpenBabel11021811393D
libRbt.so/2013.1/901 2013/11/27
 12 11  0  0  0  0  0  0  0  0999 V2000
   -4.2863    0.2326   23.3373 C   0  0  0  0  0  0  0  0  0  0  0  0
   -4.2795    1.3549   23.8208 O   0  5  0  0  0  0  0  0  0  0  0  0
   -3.7268   -0.0607   22.2882 O   0  0  0  0  0  0  0  0  0  0  0  0
   -5.0421   -0.8756   24.0970 C   0  0  1  0  0  0  0  0  0  0  0  0
   -4.5599   -2.2119   23.6317 N   0  3  0  0  0  0  0  0  0  0  0  0
   -4.8150   -0.7475   25.6215 C   0  0  0  0  0  0  0  0  0  0  0  0
   -6.1109   -1.0024   26.3800 C   0  0  0  0  0  0  0  0  0  0  0  0
   -6.7591   -2.2914   25.8797 C   0  0  0  0  0  0  0  0  0  0  0  0
   -7.7795   -2.7419   26.8770 N   0  0  0  0  0  0  0  0  0  0  0  0
   -8.3780   -1.8781   27.6525 C   0  0  0  0  0  0  0  0  0  0  0  0
   -8.3846   -2.0285   28.8723 O   0  0  0  0  0  0  0  0  0  0  0  0
   -8.9881   -0.8538   27.1311 N   0  0  0  0  0  0  0  0  0  0  0  0
  1  2  1  0  0  0  0
  1  3  2  0  0  0  0
  4  1  1  6  0  0  0
  4  6  1  0  0  0  0
  4  5  1  0  0  0  0
  6  7  1  0  0  0  0
  7  8  1  0  0  0  0
  8  9  1  0  0  0  0
  9 10  1  0  0  0  0
 10 12  1  0  0  0  0
 10 11  2  0  0  0  0
M  CHG  2   2  -1   5   1
M  END
>  <CHROM.1>
-160.76321059,138.76388214,57.44494743,49.25447754,163.35176178,-152.81481679
-6.09016656,-1.10288544,25.44883004,0.24105816,0.82973758,0.05889993

>  <Name>
1kod cryst

>  <RI>
0

>  <Rbt.Current_Directory>
/home/itssahil/PROJECTS/Mol_Feturizer/New_Systems/rnas/1kod

>  <Rbt.Executable>
rbdock ($Id: //depot/dev/client3/rdock/2013.1/src/exe/rbdock.cxx#4 $)

>  <Rbt.Library>
libRbt.so (2013.1, Build901 2013/11/27)

>  <Rbt.Parameter_File>
/export/apps/rDock/src/rDock_2013.1_src/data/scripts/dock_solv.prm

>  <Rbt.Receptor>
prm/blind_docking_80.prm

>  <SCORE>
-27.6246

>  <SCORE.INTER>
-28.3047

>  <SCORE.INTER.CONST>
1

>  <SCORE.INTER.POLAR>
-5.61583

>  <SCORE.INTER.ROT>
5

>  <SCORE.INTER.SOLV>
20.7615

>  <SCORE.INTER.VDW>
-14.0042

>  <SCORE.INTER.norm>
-2.35872

>  <SCORE.INTRA>
0.680138

>  <SCORE.INTRA.DIHEDRAL>
-0.075578

>  <SCORE.INTRA.DIHEDRAL.0>
7.7847

>  <SCORE.INTRA.POLAR>
0

>  <SCORE.INTRA.POLAR.0>
0

>  <SCORE.INTRA.REPUL>
0

>  <SCORE.INTRA.REPUL.0>
0

>  <SCORE.INTRA.SOLV>
-0.949031

>  <SCORE.INTRA.SOLV.lig_0>
-57.5465

>  <SCORE.INTRA.VDW>
1.19244

>  <SCORE.INTRA.VDW.0>
1.39369

>  <SCORE.INTRA.norm>
0.0566781

>  <SCORE.RESTR>
0

>  <SCORE.RESTR.CAVITY>
0

>  <SCORE.RESTR.norm>
0

>  <SCORE.SYSTEM>
0

>  <SCORE.SYSTEM.CONST>
0

>  <SCORE.SYSTEM.DIHEDRAL>
0

>  <SCORE.SYSTEM.SOLV>
0

>  <SCORE.SYSTEM.norm>
0

>  <SCORE.heavy>
12

>  <SCORE.norm>
-2.30205

>  <SYMMETRIC_BONDS>
4 1 2

>  <RMSD>
13.193

$$$$
1kod cryst
 OpenBabel11021811393D
libRbt.so/2013.1/901 2013/11/27
 12 11  0  0  0  0  0  0  0  0999 V2000
   -8.4377   -0.9800   27.4094 C   0  0  0  0  0  0  0  0  0  0  0  0
   -8.3643   -0.0313   26.6425 O   0  5  0  0  0  0  0  0  0  0  0  0
   -9.2282   -1.0418   28.3427 O   0  0  0  0  0  0  0  0  0  0  0  0
   -7.4797   -2.1663   27.1833 C   0  0  1  0  0  0  0  0  0  0  0  0
   -8.0502   -3.3917   27.8216 N   0  3  0  0  0  0  0  0  0  0  0  0
   -7.2709   -2.4215   25.6722 C   0  0  0  0  0  0  0  0  0  0  0  0
   -5.8310   -2.8312   25.3915 C   0  0  0  0  0  0  0  0  0  0  0  0
   -4.8948   -1.6572   25.6692 C   0  0  0  0  0  0  0  0  0  0  0  0
   -3.9155   -1.5389   24.5443 N   0  0  0  0  0  0  0  0  0  0  0  0
   -3.9958   -0.5509   23.6938 C   0  0  0  0  0  0  0  0  0  0  0  0
   -4.0409   -0.7655   22.4845 O   0  0  0  0  0  0  0  0  0  0  0  0
   -4.0132    0.6761   24.1267 N   0  0  0  0  0  0  0  0  0  0  0  0
  1  2  1  0  0  0  0
  1  3  2  0  0  0  0
  4  1  1  6  0  0  0
  4  6  1  0  0  0  0
  4  5  1  0  0  0  0
  6  7  1  0  0  0  0
  7  8  1  0  0  0  0
  8  9  1  0  0  0  0
  9 10  1  0  0  0  0
 10 12  1  0  0  0  0
 10 11  2  0  0  0  0
M  CHG  2   2  -1   5   1
M  END
>  <CHROM.1>
-157.84080670,142.76181776,133.49472284,-67.19693163,-134.70421508,-71.39578977
-6.30829630,-1.39012325,25.76135558,2.81329028,-0.67804976,2.91921451

>  <Name>
1kod cryst

>  <RI>
0

>  <Rbt.Current_Directory>
/home/itssahil/PROJECTS/Mol_Feturizer/New_Systems/rnas/1kod

>  <Rbt.Executable>
rbdock ($Id: //depot/dev/client3/rdock/2013.1/src/exe/rbdock.cxx#4 $)

>  <Rbt.Library>
libRbt.so (2013.1, Build901 2013/11/27)

>  <Rbt.Parameter_File>
/export/apps/rDock/src/rDock_2013.1_src/data/scripts/dock_solv.prm

>  <Rbt.Receptor>
prm/blind_docking_60.prm

>  <SCORE>
-23.6881

>  <SCORE.INTER>
-24.6185

>  <SCORE.INTER.CONST>
1

>  <SCORE.INTER.POLAR>
-4.54906

>  <SCORE.INTER.ROT>
5

>  <SCORE.INTER.SOLV>
18.7797

>  <SCORE.INTER.VDW>
-14.4421

>  <SCORE.INTER.norm>
-2.05154

>  <SCORE.INTRA>
0.896886

>  <SCORE.INTRA.DIHEDRAL>
6.09915

>  <SCORE.INTRA.DIHEDRAL.0>
7.7847

>  <SCORE.INTRA.POLAR>
0

>  <SCORE.INTRA.POLAR.0>
0

>  <SCORE.INTRA.REPUL>
0

>  <SCORE.INTRA.REPUL.0>
0

>  <SCORE.INTRA.SOLV>
-2.09287

>  <SCORE.INTRA.SOLV.lig_0>
-57.5465

>  <SCORE.INTRA.VDW>
-1.10625

>  <SCORE.INTRA.VDW.0>
1.39369

>  <SCORE.INTRA.norm>
0.0747405

>  <SCORE.RESTR>
0.0335728

>  <SCORE.RESTR.CAVITY>
0.0335728

>  <SCORE.RESTR.norm>
0.00279773

>  <SCORE.SYSTEM>
0

>  <SCORE.SYSTEM.CONST>
0

>  <SCORE.SYSTEM.DIHEDRAL>
0

>  <SCORE.SYSTEM.SOLV>
0

>  <SCORE.SYSTEM.norm>
0

>  <SCORE.heavy>
12

>  <SCORE.norm>
-1.97401

>  <SYMMETRIC_BONDS>
4 1 2

>  <RMSD>
13.195

$$$$
1kod cryst
 OpenBabel11021811393D
libRbt.so/2013.1/901 2013/11/27
 12 11  0  0  0  0  0  0  0  0999 V2000
   -3.9243    0.4382   23.3208 C   0  0  0  0  0  0  0  0  0  0  0  0
   -3.3909    1.2494   24.0630 O   0  5  0  0  0  0  0  0  0  0  0  0
   -3.4773    0.1197   22.2260 O   0  0  0  0  0  0  0  0  0  0  0  0
   -5.2340   -0.2218   23.7954 C   0  0  1  0  0  0  0  0  0  0  0  0
   -5.9253   -0.8466   22.6264 N   0  3  0  0  0  0  0  0  0  0  0  0
   -4.9468   -1.3034   24.8630 C   0  0  0  0  0  0  0  0  0  0  0  0
   -5.1929   -0.7544   26.2623 C   0  0  0  0  0  0  0  0  0  0  0  0
   -6.6799   -0.4625   26.4502 C   0  0  0  0  0  0  0  0  0  0  0  0
   -7.4234   -1.7582   26.5350 N   0  0  0  0  0  0  0  0  0  0  0  0
   -8.4667   -1.8765   27.3120 C   0  0  0  0  0  0  0  0  0  0  0  0
   -8.5323   -2.7808   28.1417 O   0  0  0  0  0  0  0  0  0  0  0  0
   -9.4562   -1.0390   27.1991 N   0  0  0  0  0  0  0  0  0  0  0  0
  1  2  1  0  0  0  0
  1  3  2  0  0  0  0
  4  1  1  6  0  0  0
  4  6  1  0  0  0  0
  4  5  1  0  0  0  0
  6  7  1  0  0  0  0
  7  8  1  0  0  0  0
  8  9  1  0  0  0  0
  9 10  1  0  0  0  0
 10 12  1  0  0  0  0
 10 11  2  0  0  0  0
M  CHG  2   2  -1   5   1
M  END
>  <CHROM.1>
163.42695330,99.27746160,78.96539661,66.64544775,70.96336241,-34.84158781
-6.07413162,-0.77708168,25.20182891,-0.70563190,0.45027375,1.54577785

>  <Name>
1kod cryst

>  <RI>
0

>  <Rbt.Current_Directory>
/home/itssahil/PROJECTS/Mol_Feturizer/New_Systems/rnas/1kod

>  <Rbt.Executable>
rbdock ($Id: //depot/dev/client3/rdock/2013.1/src/exe/rbdock.cxx#4 $)

>  <Rbt.Library>
libRbt.so (2013.1, Build901 2013/11/27)

>  <Rbt.Parameter_File>
/export/apps/rDock/src/rDock_2013.1_src/data/scripts/dock_solv.prm

>  <Rbt.Receptor>
prm/blind_docking_40.prm

>  <SCORE>
-24.6786

>  <SCORE.INTER>
-21.6526

>  <SCORE.INTER.CONST>
1

>  <SCORE.INTER.POLAR>
-4.93637

>  <SCORE.INTER.ROT>
5

>  <SCORE.INTER.SOLV>
24.6496

>  <SCORE.INTER.VDW>
-13.1304

>  <SCORE.INTER.norm>
-1.80438

>  <SCORE.INTRA>
-3.02597

>  <SCORE.INTRA.DIHEDRAL>
-0.342701

>  <SCORE.INTRA.DIHEDRAL.0>
7.7847

>  <SCORE.INTRA.POLAR>
0

>  <SCORE.INTRA.POLAR.0>
0

>  <SCORE.INTRA.REPUL>
0

>  <SCORE.INTRA.REPUL.0>
0

>  <SCORE.INTRA.SOLV>
-1.84083

>  <SCORE.INTRA.SOLV.lig_0>
-57.5465

>  <SCORE.INTRA.VDW>
-1.9342

>  <SCORE.INTRA.VDW.0>
1.39369

>  <SCORE.INTRA.norm>
-0.252164

>  <SCORE.RESTR>
0

>  <SCORE.RESTR.CAVITY>
0

>  <SCORE.RESTR.norm>
0

>  <SCORE.SYSTEM>
0

>  <SCORE.SYSTEM.CONST>
0

>  <SCORE.SYSTEM.DIHEDRAL>
0

>  <SCORE.SYSTEM.SOLV>
0

>  <SCORE.SYSTEM.norm>
0

>  <SCORE.heavy>
12

>  <SCORE.norm>
-2.05655

>  <SYMMETRIC_BONDS>
4 1 2

>  <RMSD>
13.199

$$$$
1kod cryst
 OpenBabel11021811393D
libRbt.so/2013.1/901 2013/11/27
 12 11  0  0  0  0  0  0  0  0999 V2000
   -3.8605   -0.3483   24.2482 C   0  0  0  0  0  0  0  0  0  0  0  0
   -3.0426   -0.7103   23.4156 O   0  5  0  0  0  0  0  0  0  0  0  0
   -3.6149    0.4537   25.1406 O   0  0  0  0  0  0  0  0  0  0  0  0
   -5.2833   -0.9357   24.1649 C   0  0  1  0  0  0  0  0  0  0  0  0
   -5.7888   -0.8112   22.7636 N   0  3  0  0  0  0  0  0  0  0  0  0
   -5.2866   -2.4245   24.5840 C   0  0  0  0  0  0  0  0  0  0  0  0
   -5.6938   -2.5696   26.0444 C   0  0  0  0  0  0  0  0  0  0  0  0
   -7.2089   -2.7304   26.1464 C   0  0  0  0  0  0  0  0  0  0  0  0
   -7.7127   -1.8895   27.2767 N   0  0  0  0  0  0  0  0  0  0  0  0
   -8.6058   -2.3575   28.1070 C   0  0  0  0  0  0  0  0  0  0  0  0
   -9.6451   -1.7388   28.3255 O   0  0  0  0  0  0  0  0  0  0  0  0
   -8.3900   -3.4831   28.7230 N   0  0  0  0  0  0  0  0  0  0  0  0
  1  2  1  0  0  0  0
  1  3  2  0  0  0  0
  4  1  1  6  0  0  0
  4  6  1  0  0  0  0
  4  5  1  0  0  0  0
  6  7  1  0  0  0  0
  7  8  1  0  0  0  0
  8  9  1  0  0  0  0
  9 10  1  0  0  0  0
 10 12  1  0  0  0  0
 10 11  2  0  0  0  0
M  CHG  2   2  -1   5   1
M  END
>  <CHROM.1>
-49.40611869,96.99127355,-40.87143861,90.13822592,-136.99651140,43.22043410
-6.18268064,-1.61427164,25.72962601,-0.65216396,0.51168959,1.42852830

>  <Name>
1kod cryst

>  <RI>
0

>  <Rbt.Current_Directory>
/home/itssahil/PROJECTS/Mol_Feturizer/New_Systems/rnas/1kod

>  <Rbt.Executable>
rbdock ($Id: //depot/dev/client3/rdock/2013.1/src/exe/rbdock.cxx#4 $)

>  <Rbt.Library>
libRbt.so (2013.1, Build901 2013/11/27)

>  <Rbt.Parameter_File>
/export/apps/rDock/src/rDock_2013.1_src/data/scripts/dock_solv.prm

>  <Rbt.Receptor>
prm/blind_docking_80.prm

>  <SCORE>
-27.2949

>  <SCORE.INTER>
-26.5905

>  <SCORE.INTER.CONST>
1

>  <SCORE.INTER.POLAR>
-4.36772

>  <SCORE.INTER.ROT>
5

>  <SCORE.INTER.SOLV>
23.4766

>  <SCORE.INTER.VDW>
-17.9268

>  <SCORE.INTER.norm>
-2.21587

>  <SCORE.INTRA>
-0.704406

>  <SCORE.INTRA.DIHEDRAL>
6.34696

>  <SCORE.INTRA.DIHEDRAL.0>
7.7847

>  <SCORE.INTRA.POLAR>
0

>  <SCORE.INTRA.POLAR.0>
0

>  <SCORE.INTRA.REPUL>
0

>  <SCORE.INTRA.REPUL.0>
0

>  <SCORE.INTRA.SOLV>
-2.65165

>  <SCORE.INTRA.SOLV.lig_0>
-57.5465

>  <SCORE.INTRA.VDW>
-2.55206

>  <SCORE.INTRA.VDW.0>
1.39369

>  <SCORE.INTRA.norm>
-0.0587005

>  <SCORE.RESTR>
0

>  <SCORE.RESTR.CAVITY>
0

>  <SCORE.RESTR.norm>
0

>  <SCORE.SYSTEM>
0

>  <SCORE.SYSTEM.CONST>
0

>  <SCORE.SYSTEM.DIHEDRAL>
0

>  <SCORE.SYSTEM.SOLV>
0

>  <SCORE.SYSTEM.norm>
0

>  <SCORE.heavy>
12

>  <SCORE.norm>
-2.27457

>  <SYMMETRIC_BONDS>
4 1 2

>  <RMSD>
13.203

$$$$
1kod cryst
 OpenBabel11021811393D
libRbt.so/2013.1/901 2013/11/27
 12 11  0  0  0  0  0  0  0  0999 V2000
   -3.8532   -0.4320   24.3022 C   0  0  0  0  0  0  0  0  0  0  0  0
   -3.0522   -0.7305   23.4289 O   0  5  0  0  0  0  0  0  0  0  0  0
   -3.5708    0.2442   25.2833 O   0  0  0  0  0  0  0  0  0  0  0  0
   -5.3026   -0.9358   24.1545 C   0  0  1  0  0  0  0  0  0  0  0  0
   -5.7373   -0.7828   22.7325 N   0  3  0  0  0  0  0  0  0  0  0  0
   -5.4109   -2.4217   24.5699 C   0  0  0  0  0  0  0  0  0  0  0  0
   -5.8828   -2.5421   26.0130 C   0  0  0  0  0  0  0  0  0  0  0  0
   -7.3564   -2.1536   26.1104 C   0  0  0  0  0  0  0  0  0  0  0  0
   -7.9833   -2.9025   27.2439 N   0  0  0  0  0  0  0  0  0  0  0  0
   -8.6844   -2.2739   28.1491 C   0  0  0  0  0  0  0  0  0  0  0  0
   -8.4279   -2.4039   29.3440 O   0  0  0  0  0  0  0  0  0  0  0  0
   -9.6758   -1.5129   27.7869 N   0  0  0  0  0  0  0  0  0  0  0  0
  1  2  1  0  0  0  0
  1  3  2  0  0  0  0
  4  1  1  6  0  0  0
  4  6  1  0  0  0  0
  4  5  1  0  0  0  0
  6  7  1  0  0  0  0
  7  8  1  0  0  0  0
  8  9  1  0  0  0  0
  9 10  1  0  0  0  0
 10 12  1  0  0  0  0
 10 11  2  0  0  0  0
M  CHG  2   2  -1   5   1
M  END
>  <CHROM.1>
-42.06087240,96.67284676,-160.79898670,71.51625061,150.84316387,-50.39435453
-6.25382174,-1.55388277,25.73997403,-0.72559209,0.33231143,1.57721780

>  <Name>
1kod cryst

>  <RI>
0

>  <Rbt.Current_Directory>
/home/itssahil/PROJECTS/Mol_Feturizer/New_Systems/rnas/1kod

>  <Rbt.Executable>
rbdock ($Id: //depot/dev/client3/rdock/2013.1/src/exe/rbdock.cxx#4 $)

>  <Rbt.Library>
libRbt.so (2013.1, Build901 2013/11/27)

>  <Rbt.Parameter_File>
/export/apps/rDock/src/rDock_2013.1_src/data/scripts/dock_solv.prm

>  <Rbt.Receptor>
prm/blind_docking_80.prm

>  <SCORE>
-29.1152

>  <SCORE.INTER>
-26.5675

>  <SCORE.INTER.CONST>
1

>  <SCORE.INTER.POLAR>
-4.68828

>  <SCORE.INTER.ROT>
5

>  <SCORE.INTER.SOLV>
23.0298

>  <SCORE.INTER.VDW>
-16.694

>  <SCORE.INTER.norm>
-2.21396

>  <SCORE.INTRA>
-2.54767

>  <SCORE.INTRA.DIHEDRAL>
1.91099

>  <SCORE.INTRA.DIHEDRAL.0>
7.7847

>  <SCORE.INTRA.POLAR>
0

>  <SCORE.INTRA.POLAR.0>
0

>  <SCORE.INTRA.REPUL>
0

>  <SCORE.INTRA.REPUL.0>
0

>  <SCORE.INTRA.SOLV>
-2.5513

>  <SCORE.INTRA.SOLV.lig_0>
-57.5465

>  <SCORE.INTRA.VDW>
-2.22752

>  <SCORE.INTRA.VDW.0>
1.39369

>  <SCORE.INTRA.norm>
-0.212306

>  <SCORE.RESTR>
0

>  <SCORE.RESTR.CAVITY>
0

>  <SCORE.RESTR.norm>
0

>  <SCORE.SYSTEM>
0

>  <SCORE.SYSTEM.CONST>
0

>  <SCORE.SYSTEM.DIHEDRAL>
0

>  <SCORE.SYSTEM.SOLV>
0

>  <SCORE.SYSTEM.norm>
0

>  <SCORE.heavy>
12

>  <SCORE.norm>
-2.42627

>  <SYMMETRIC_BONDS>
4 1 2

>  <RMSD>
13.207

$$$$
1kod cryst
 OpenBabel11021811393D
libRbt.so/2013.1/901 2013/11/27
 12 11  0  0  0  0  0  0  0  0999 V2000
   -8.8498   -1.8740   28.2289 C   0  0  0  0  0  0  0  0  0  0  0  0
   -8.8056   -1.4726   29.3823 O   0  5  0  0  0  0  0  0  0  0  0  0
   -9.8855   -2.1897   27.6568 O   0  0  0  0  0  0  0  0  0  0  0  0
   -7.5228   -1.9852   27.4524 C   0  0  1  0  0  0  0  0  0  0  0  0
   -7.1829   -3.4278   27.2574 N   0  3  0  0  0  0  0  0  0  0  0  0
   -7.6345   -1.2909   26.0748 C   0  0  0  0  0  0  0  0  0  0  0  0
   -6.2631   -0.8411   25.5882 C   0  0  0  0  0  0  0  0  0  0  0  0
   -6.4001   -0.1137   24.2526 C   0  0  0  0  0  0  0  0  0  0  0  0
   -5.0444    0.3245   23.7957 N   0  0  0  0  0  0  0  0  0  0  0  0
   -4.0640   -0.5337   23.7045 C   0  0  0  0  0  0  0  0  0  0  0  0
   -2.9909   -0.3229   24.2653 O   0  0  0  0  0  0  0  0  0  0  0  0
   -4.2157   -1.6175   23.0006 N   0  0  0  0  0  0  0  0  0  0  0  0
  1  2  1  0  0  0  0
  1  3  2  0  0  0  0
  4  1  1  6  0  0  0
  4  6  1  0  0  0  0
  4  5  1  0  0  0  0
  6  7  1  0  0  0  0
  7  8  1  0  0  0  0
  8  9  1  0  0  0  0
  9 10  1  0  0  0  0
 10 12  1  0  0  0  0
 10 11  2  0  0  0  0
M  CHG  2   2  -1   5   1
M  END
>  <CHROM.1>
109.39506257,154.49636917,-60.89759384,-177.94188993,179.75838441,-126.57684849
-6.56437502,-1.31460433,25.89196013,2.53889949,-0.56458188,2.56836076

>  <Name>
1kod cryst

>  <RI>
0

>  <Rbt.Current_Directory>
/home/itssahil/PROJECTS/Mol_Feturizer/New_Systems/rnas/1kod

>  <Rbt.Executable>
rbdock ($Id: //depot/dev/client3/rdock/2013.1/src/exe/rbdock.cxx#4 $)

>  <Rbt.Library>
libRbt.so (2013.1, Build901 2013/11/27)

>  <Rbt.Parameter_File>
/export/apps/rDock/src/rDock_2013.1_src/data/scripts/dock_solv.prm

>  <Rbt.Receptor>
prm/blind_docking_60.prm

>  <SCORE>
-23.4821

>  <SCORE.INTER>
-18.3887

>  <SCORE.INTER.CONST>
1

>  <SCORE.INTER.POLAR>
-3.44852

>  <SCORE.INTER.ROT>
5

>  <SCORE.INTER.SOLV>
21.7704

>  <SCORE.INTER.VDW>
-14.9542

>  <SCORE.INTER.norm>
-1.53239

>  <SCORE.INTRA>
-5.09345

>  <SCORE.INTRA.DIHEDRAL>
-3.54885

>  <SCORE.INTRA.DIHEDRAL.0>
7.7847

>  <SCORE.INTRA.POLAR>
0

>  <SCORE.INTRA.POLAR.0>
0

>  <SCORE.INTRA.REPUL>
0

>  <SCORE.INTRA.REPUL.0>
0

>  <SCORE.INTRA.SOLV>
-2.55201

>  <SCORE.INTRA.SOLV.lig_0>
-57.5465

>  <SCORE.INTRA.VDW>
-2.04302

>  <SCORE.INTRA.VDW.0>
1.39369

>  <SCORE.INTRA.norm>
-0.424454

>  <SCORE.RESTR>
0

>  <SCORE.RESTR.CAVITY>
0

>  <SCORE.RESTR.norm>
0

>  <SCORE.SYSTEM>
0

>  <SCORE.SYSTEM.CONST>
0

>  <SCORE.SYSTEM.DIHEDRAL>
0

>  <SCORE.SYSTEM.SOLV>
0

>  <SCORE.SYSTEM.norm>
0

>  <SCORE.heavy>
12

>  <SCORE.norm>
-1.95685

>  <SYMMETRIC_BONDS>
4 1 2

>  <RMSD>
13.213

$$$$
1kod cryst
 OpenBabel11021811393D
libRbt.so/2013.1/901 2013/11/27
 12 11  0  0  0  0  0  0  0  0999 V2000
   -9.6208   -1.0238   28.1416 C   0  0  0  0  0  0  0  0  0  0  0  0
  -10.6765   -1.5198   28.5059 O   0  5  0  0  0  0  0  0  0  0  0  0
   -9.5420    0.0202   27.5064 O   0  0  0  0  0  0  0  0  0  0  0  0
   -8.3150   -1.7570   28.5073 C   0  0  1  0  0  0  0  0  0  0  0  0
   -8.6232   -3.1822   28.8362 N   0  3  0  0  0  0  0  0  0  0  0  0
   -7.3100   -1.7045   27.3328 C   0  0  0  0  0  0  0  0  0  0  0  0
   -6.4601   -0.4429   27.4103 C   0  0  0  0  0  0  0  0  0  0  0  0
   -5.4368   -0.4372   26.2769 C   0  0  0  0  0  0  0  0  0  0  0  0
   -6.1502   -0.2308   24.9780 N   0  0  0  0  0  0  0  0  0  0  0  0
   -5.6078   -0.6141   23.8533 C   0  0  0  0  0  0  0  0  0  0  0  0
   -5.4839    0.1715   22.9162 O   0  0  0  0  0  0  0  0  0  0  0  0
   -5.2068   -1.8441   23.7140 N   0  0  0  0  0  0  0  0  0  0  0  0
  1  2  1  0  0  0  0
  1  3  2  0  0  0  0
  4  1  1  6  0  0  0
  4  6  1  0  0  0  0
  4  5  1  0  0  0  0
  6  7  1  0  0  0  0
  7  8  1  0  0  0  0
  8  9  1  0  0  0  0
  9 10  1  0  0  0  0
 10 12  1  0  0  0  0
 10 11  2  0  0  0  0
M  CHG  2   2  -1   5   1
M  END
>  <CHROM.1>
19.58363069,87.78210385,162.80302759,177.68847822,69.85035465,22.71982094
-7.39343520,-1.07739709,26.49220467,2.43096188,-0.54055924,2.34294978

>  <Name>
1kod cryst

>  <RI>
0

>  <Rbt.Current_Directory>
/home/itssahil/PROJECTS/Mol_Feturizer/New_Systems/rnas/1kod

>  <Rbt.Executable>
rbdock ($Id: //depot/dev/client3/rdock/2013.1/src/exe/rbdock.cxx#4 $)

>  <Rbt.Library>
libRbt.so (2013.1, Build901 2013/11/27)

>  <Rbt.Parameter_File>
/export/apps/rDock/src/rDock_2013.1_src/data/scripts/dock_solv.prm

>  <Rbt.Receptor>
prm/blind_docking_100.prm

>  <SCORE>
-20.1104

>  <SCORE.INTER>
-16.7278

>  <SCORE.INTER.CONST>
1

>  <SCORE.INTER.POLAR>
-3.54965

>  <SCORE.INTER.ROT>
5

>  <SCORE.INTER.SOLV>
18.3438

>  <SCORE.INTER.VDW>
-12.3676

>  <SCORE.INTER.norm>
-1.39398

>  <SCORE.INTRA>
-3.9037

>  <SCORE.INTRA.DIHEDRAL>
-2.2144

>  <SCORE.INTRA.DIHEDRAL.0>
7.7847

>  <SCORE.INTRA.POLAR>
0

>  <SCORE.INTRA.POLAR.0>
0

>  <SCORE.INTRA.REPUL>
0

>  <SCORE.INTRA.REPUL.0>
0

>  <SCORE.INTRA.SOLV>
-1.93475

>  <SCORE.INTRA.SOLV.lig_0>
-57.5465

>  <SCORE.INTRA.VDW>
-1.82913

>  <SCORE.INTRA.VDW.0>
1.39369

>  <SCORE.INTRA.norm>
-0.325308

>  <SCORE.RESTR>
0.521098

>  <SCORE.RESTR.CAVITY>
0.521098

>  <SCORE.RESTR.norm>
0.0434248

>  <SCORE.SYSTEM>
0

>  <SCORE.SYSTEM.CONST>
0

>  <SCORE.SYSTEM.DIHEDRAL>
0

>  <SCORE.SYSTEM.SOLV>
0

>  <SCORE.SYSTEM.norm>
0

>  <SCORE.heavy>
12

>  <SCORE.norm>
-1.67586

>  <SYMMETRIC_BONDS>
4 1 2

>  <RMSD>
13.217

$$$$
1kod cryst
 OpenBabel11021811393D
libRbt.so/2013.1/901 2013/11/27
 12 11  0  0  0  0  0  0  0  0999 V2000
   -8.5644   -1.1484   28.8571 C   0  0  0  0  0  0  0  0  0  0  0  0
   -9.6410   -1.4462   29.3526 O   0  5  0  0  0  0  0  0  0  0  0  0
   -8.0333   -0.0529   28.9893 O   0  0  0  0  0  0  0  0  0  0  0  0
   -7.8349   -2.2179   28.0203 C   0  0  1  0  0  0  0  0  0  0  0  0
   -8.3553   -3.5711   28.3843 N   0  3  0  0  0  0  0  0  0  0  0  0
   -8.0509   -1.9718   26.5086 C   0  0  0  0  0  0  0  0  0  0  0  0
   -7.0470   -0.9546   25.9821 C   0  0  0  0  0  0  0  0  0  0  0  0
   -5.9842   -1.6615   25.1439 C   0  0  0  0  0  0  0  0  0  0  0  0
   -5.1658   -0.6337   24.4280 N   0  0  0  0  0  0  0  0  0  0  0  0
   -4.9871   -0.7079   23.1362 C   0  0  0  0  0  0  0  0  0  0  0  0
   -3.8556   -0.6868   22.6567 O   0  0  0  0  0  0  0  0  0  0  0  0
   -6.0160   -0.7896   22.3440 N   0  0  0  0  0  0  0  0  0  0  0  0
  1  2  1  0  0  0  0
  1  3  2  0  0  0  0
  4  1  1  1  0  0  0
  4  6  1  0  0  0  0
  4  5  1  0  0  0  0
  6  7  1  0  0  0  0
  7  8  1  0  0  0  0
  8  9  1  0  0  0  0
  9 10  1  0  0  0  0
 10 12  1  0  0  0  0
 10 11  2  0  0  0  0
M  CHG  2   2  -1   5   1
M  END
>  <CHROM.1>
-20.51970071,84.20059143,-65.46343636,106.23534995,169.40019524,52.19766068
-6.97500551,-1.33400676,26.15781910,-2.91897285,-0.98540022,-2.70813700

>  <Name>
1kod cryst

>  <RI>
0

>  <Rbt.Current_Directory>
/home/itssahil/PROJECTS/Mol_Feturizer/New_Systems/rnas/1kod

>  <Rbt.Executable>
rbdock ($Id: //depot/dev/client3/rdock/2013.1/src/exe/rbdock.cxx#4 $)

>  <Rbt.Library>
libRbt.so (2013.1, Build901 2013/11/27)

>  <Rbt.Parameter_File>
/export/apps/rDock/src/rDock_2013.1_src/data/scripts/dock_solv.prm

>  <Rbt.Receptor>
prm/blind_docking_80.prm

>  <SCORE>
-28.6399

>  <SCORE.INTER>
-25.869

>  <SCORE.INTER.CONST>
1

>  <SCORE.INTER.POLAR>
-5.46218

>  <SCORE.INTER.ROT>
5

>  <SCORE.INTER.SOLV>
22.9566

>  <SCORE.INTER.VDW>
-13.6243

>  <SCORE.INTER.norm>
-2.15575

>  <SCORE.INTRA>
-2.81787

>  <SCORE.INTRA.DIHEDRAL>
2.1025

>  <SCORE.INTRA.DIHEDRAL.0>
7.7847

>  <SCORE.INTRA.POLAR>
0

>  <SCORE.INTRA.POLAR.0>
0

>  <SCORE.INTRA.REPUL>
0

>  <SCORE.INTRA.REPUL.0>
0

>  <SCORE.INTRA.SOLV>
-2.53185

>  <SCORE.INTRA.SOLV.lig_0>
-57.5465

>  <SCORE.INTRA.VDW>
-2.6032

>  <SCORE.INTRA.VDW.0>
1.39369

>  <SCORE.INTRA.norm>
-0.234823

>  <SCORE.RESTR>
0.0470335

>  <SCORE.RESTR.CAVITY>
0.0470335

>  <SCORE.RESTR.norm>
0.00391946

>  <SCORE.SYSTEM>
0

>  <SCORE.SYSTEM.CONST>
0

>  <SCORE.SYSTEM.DIHEDRAL>
0

>  <SCORE.SYSTEM.SOLV>
0

>  <SCORE.SYSTEM.norm>
0

>  <SCORE.heavy>
12

>  <SCORE.norm>
-2.38665

>  <SYMMETRIC_BONDS>
4 1 2

>  <RMSD>
13.235

$$$$
1kod cryst
 OpenBabel11021811393D
libRbt.so/2013.1/901 2013/11/27
 12 11  0  0  0  0  0  0  0  0999 V2000
   -7.1488   -2.8995   26.7284 C   0  0  0  0  0  0  0  0  0  0  0  0
   -7.8595   -2.0698   26.1807 O   0  5  0  0  0  0  0  0  0  0  0  0
   -7.4850   -3.5373   27.7182 O   0  0  0  0  0  0  0  0  0  0  0  0
   -5.7500   -3.1565   26.1338 C   0  0  1  0  0  0  0  0  0  0  0  0
   -5.8259   -4.2898   25.1620 N   0  3  0  0  0  0  0  0  0  0  0  0
   -5.2206   -1.8943   25.4136 C   0  0  0  0  0  0  0  0  0  0  0  0
   -3.6997   -1.8397   25.4755 C   0  0  0  0  0  0  0  0  0  0  0  0
   -3.2072   -0.4970   24.9405 C   0  0  0  0  0  0  0  0  0  0  0  0
   -3.8108   -0.2593   23.5922 N   0  0  0  0  0  0  0  0  0  0  0  0
   -4.2252    0.9311   23.2497 C   0  0  0  0  0  0  0  0  0  0  0  0
   -5.3692    1.1023   22.8347 O   0  0  0  0  0  0  0  0  0  0  0  0
   -3.4163    1.9470   23.3329 N   0  0  0  0  0  0  0  0  0  0  0  0
  1  2  1  0  0  0  0
  1  3  2  0  0  0  0
  4  1  1  6  0  0  0
  4  6  1  0  0  0  0
  4  5  1  0  0  0  0
  6  7  1  0  0  0  0
  7  8  1  0  0  0  0
  8  9  1  0  0  0  0
  9 10  1  0  0  0  0
 10 12  1  0  0  0  0
 10 11  2  0  0  0  0
M  CHG  2   2  -1   5   1
M  END
>  <CHROM.1>
-92.67262019,150.22428410,-65.52885428,-171.91887073,-52.28231940,-39.81169985
-5.27248180,-1.38514199,25.04296414,2.09334138,-0.21870861,2.63149287

>  <Name>
1kod cryst

>  <RI>
0

>  <Rbt.Current_Directory>
/home/itssahil/PROJECTS/Mol_Feturizer/New_Systems/rnas/1kod

>  <Rbt.Executable>
rbdock ($Id: //depot/dev/client3/rdock/2013.1/src/exe/rbdock.cxx#4 $)

>  <Rbt.Library>
libRbt.so (2013.1, Build901 2013/11/27)

>  <Rbt.Parameter_File>
/export/apps/rDock/src/rDock_2013.1_src/data/scripts/dock_solv.prm

>  <Rbt.Receptor>
prm/blind_docking_60.prm

>  <SCORE>
-25.4312

>  <SCORE.INTER>
-21.2734

>  <SCORE.INTER.CONST>
1

>  <SCORE.INTER.POLAR>
-3.37498

>  <SCORE.INTER.ROT>
5

>  <SCORE.INTER.SOLV>
26.979

>  <SCORE.INTER.VDW>
-18.8587

>  <SCORE.INTER.norm>
-1.77279

>  <SCORE.INTRA>
-4.15772

>  <SCORE.INTRA.DIHEDRAL>
-2.43593

>  <SCORE.INTRA.DIHEDRAL.0>
7.7847

>  <SCORE.INTRA.POLAR>
0

>  <SCORE.INTRA.POLAR.0>
0

>  <SCORE.INTRA.REPUL>
0

>  <SCORE.INTRA.REPUL.0>
0

>  <SCORE.INTRA.SOLV>
-2.55109

>  <SCORE.INTRA.SOLV.lig_0>
-57.5465

>  <SCORE.INTRA.VDW>
-1.66421

>  <SCORE.INTRA.VDW.0>
1.39369

>  <SCORE.INTRA.norm>
-0.346477

>  <SCORE.RESTR>
0

>  <SCORE.RESTR.CAVITY>
0

>  <SCORE.RESTR.norm>
0

>  <SCORE.SYSTEM>
0

>  <SCORE.SYSTEM.CONST>
0

>  <SCORE.SYSTEM.DIHEDRAL>
0

>  <SCORE.SYSTEM.SOLV>
0

>  <SCORE.SYSTEM.norm>
0

>  <SCORE.heavy>
12

>  <SCORE.norm>
-2.11926

>  <SYMMETRIC_BONDS>
4 1 2

>  <RMSD>
13.252

$$$$
1kod cryst
 OpenBabel11021811393D
libRbt.so/2013.1/901 2013/11/27
 12 11  0  0  0  0  0  0  0  0999 V2000
   -6.6535   -2.5238   26.2853 C   0  0  0  0  0  0  0  0  0  0  0  0
   -6.8140   -2.5556   27.4964 O   0  5  0  0  0  0  0  0  0  0  0  0
   -7.4392   -1.9970   25.5076 O   0  0  0  0  0  0  0  0  0  0  0  0
   -5.3859   -3.1843   25.7080 C   0  0  1  0  0  0  0  0  0  0  0  0
   -5.7693   -4.4185   24.9568 N   0  3  0  0  0  0  0  0  0  0  0  0
   -4.6454   -2.2125   24.7596 C   0  0  0  0  0  0  0  0  0  0  0  0
   -4.1580   -0.9870   25.5214 C   0  0  0  0  0  0  0  0  0  0  0  0
   -3.2872   -0.1237   24.6114 C   0  0  0  0  0  0  0  0  0  0  0  0
   -4.1246    0.3948   23.4851 N   0  0  0  0  0  0  0  0  0  0  0  0
   -4.3683    1.6730   23.3714 C   0  0  0  0  0  0  0  0  0  0  0  0
   -5.5217    2.0860   23.2730 O   0  0  0  0  0  0  0  0  0  0  0  0
   -3.3812    2.5205   23.3463 N   0  0  0  0  0  0  0  0  0  0  0  0
  1  2  1  0  0  0  0
  1  3  2  0  0  0  0
  4  1  1  6  0  0  0
  4  6  1  0  0  0  0
  4  5  1  0  0  0  0
  6  7  1  0  0  0  0
  7  8  1  0  0  0  0
  8  9  1  0  0  0  0
  9 10  1  0  0  0  0
 10 12  1  0  0  0  0
 10 11  2  0  0  0  0
M  CHG  2   2  -1   5   1
M  END
>  <CHROM.1>
110.19830602,63.27853823,159.25758933,173.18226632,64.19877163,-65.85156316
-5.15285581,-0.95619497,24.84486568,1.98781452,-0.40291585,2.83451716

>  <Name>
1kod cryst

>  <RI>
0

>  <Rbt.Current_Directory>
/home/itssahil/PROJECTS/Mol_Feturizer/New_Systems/rnas/1kod

>  <Rbt.Executable>
rbdock ($Id: //depot/dev/client3/rdock/2013.1/src/exe/rbdock.cxx#4 $)

>  <Rbt.Library>
libRbt.so (2013.1, Build901 2013/11/27)

>  <Rbt.Parameter_File>
/export/apps/rDock/src/rDock_2013.1_src/data/scripts/dock_solv.prm

>  <Rbt.Receptor>
prm/blind_docking_80.prm

>  <SCORE>
-29.2932

>  <SCORE.INTER>
-23.985

>  <SCORE.INTER.CONST>
1

>  <SCORE.INTER.POLAR>
-4.1199

>  <SCORE.INTER.ROT>
5

>  <SCORE.INTER.SOLV>
23.8411

>  <SCORE.INTER.VDW>
-17.1374

>  <SCORE.INTER.norm>
-1.99875

>  <SCORE.INTRA>
-5.30812

>  <SCORE.INTRA.DIHEDRAL>
-4.2823

>  <SCORE.INTRA.DIHEDRAL.0>
7.7847

>  <SCORE.INTRA.POLAR>
0

>  <SCORE.INTRA.POLAR.0>
0

>  <SCORE.INTRA.REPUL>
0

>  <SCORE.INTRA.REPUL.0>
0

>  <SCORE.INTRA.SOLV>
-2.41592

>  <SCORE.INTRA.SOLV.lig_0>
-57.5465

>  <SCORE.INTRA.VDW>
-1.95901

>  <SCORE.INTRA.VDW.0>
1.39369

>  <SCORE.INTRA.norm>
-0.442344

>  <SCORE.RESTR>
0

>  <SCORE.RESTR.CAVITY>
0

>  <SCORE.RESTR.norm>
0

>  <SCORE.SYSTEM>
0

>  <SCORE.SYSTEM.CONST>
0

>  <SCORE.SYSTEM.DIHEDRAL>
0

>  <SCORE.SYSTEM.SOLV>
0

>  <SCORE.SYSTEM.norm>
0

>  <SCORE.heavy>
12

>  <SCORE.norm>
-2.4411

>  <SYMMETRIC_BONDS>
4 1 2

>  <RMSD>
13.253

$$$$
1kod cryst
 OpenBabel11021811393D
libRbt.so/2013.1/901 2013/11/27
 12 11  0  0  0  0  0  0  0  0999 V2000
   -9.3469   -0.9486   28.0587 C   0  0  0  0  0  0  0  0  0  0  0  0
  -10.4660   -1.3791   27.8229 O   0  5  0  0  0  0  0  0  0  0  0  0
   -9.0924    0.2394   28.2122 O   0  0  0  0  0  0  0  0  0  0  0  0
   -8.1922   -1.9637   28.1710 C   0  0  1  0  0  0  0  0  0  0  0  0
   -8.6793   -3.1919   28.8703 N   0  3  0  0  0  0  0  0  0  0  0  0
   -7.6598   -2.3450   26.7698 C   0  0  0  0  0  0  0  0  0  0  0  0
   -6.9724   -1.1539   26.1150 C   0  0  0  0  0  0  0  0  0  0  0  0
   -6.7633   -1.4297   24.6277 C   0  0  0  0  0  0  0  0  0  0  0  0
   -5.4053   -2.0258   24.4295 N   0  0  0  0  0  0  0  0  0  0  0  0
   -5.0418   -3.0884   25.0964 C   0  0  0  0  0  0  0  0  0  0  0  0
   -3.9991   -3.0951   25.7470 O   0  0  0  0  0  0  0  0  0  0  0  0
   -5.7810   -4.1587   25.0619 N   0  0  0  0  0  0  0  0  0  0  0  0
  1  2  1  0  0  0  0
  1  3  2  0  0  0  0
  4  1  1  6  0  0  0
  4  6  1  0  0  0  0
  4  5  1  0  0  0  0
  6  7  1  0  0  0  0
  7  8  1  0  0  0  0
  8  9  1  0  0  0  0
  9 10  1  0  0  0  0
 10 12  1  0  0  0  0
 10 11  2  0  0  0  0
M  CHG  2   2  -1   5   1
M  END
>  <CHROM.1>
-38.50988456,67.64764923,-64.72721210,-166.07694964,-92.87776593,-125.96538373
-7.29705650,-2.07550327,26.60437074,3.08595219,-0.69668113,2.58067305

>  <Name>
1kod cryst

>  <RI>
0

>  <Rbt.Current_Directory>
/home/itssahil/PROJECTS/Mol_Feturizer/New_Systems/rnas/1kod

>  <Rbt.Executable>
rbdock ($Id: //depot/dev/client3/rdock/2013.1/src/exe/rbdock.cxx#4 $)

>  <Rbt.Library>
libRbt.so (2013.1, Build901 2013/11/27)

>  <Rbt.Parameter_File>
/export/apps/rDock/src/rDock_2013.1_src/data/scripts/dock_solv.prm

>  <Rbt.Receptor>
prm/blind_docking_40.prm

>  <SCORE>
-28.1231

>  <SCORE.INTER>
-24.3608

>  <SCORE.INTER.CONST>
1

>  <SCORE.INTER.POLAR>
-3.82385

>  <SCORE.INTER.ROT>
5

>  <SCORE.INTER.SOLV>
19.67

>  <SCORE.INTER.VDW>
-16.9843

>  <SCORE.INTER.norm>
-2.03006

>  <SCORE.INTRA>
-3.76392

>  <SCORE.INTRA.DIHEDRAL>
-1.33032

>  <SCORE.INTRA.DIHEDRAL.0>
7.7847

>  <SCORE.INTRA.POLAR>
0

>  <SCORE.INTRA.POLAR.0>
0

>  <SCORE.INTRA.REPUL>
0

>  <SCORE.INTRA.REPUL.0>
0

>  <SCORE.INTRA.SOLV>
-1.64963

>  <SCORE.INTRA.SOLV.lig_0>
-57.5465

>  <SCORE.INTRA.VDW>
-2.27395

>  <SCORE.INTRA.VDW.0>
1.39369

>  <SCORE.INTRA.norm>
-0.31366

>  <SCORE.RESTR>
0.00161303

>  <SCORE.RESTR.CAVITY>
0.00161303

>  <SCORE.RESTR.norm>
0.000134419

>  <SCORE.SYSTEM>
0

>  <SCORE.SYSTEM.CONST>
0

>  <SCORE.SYSTEM.DIHEDRAL>
0

>  <SCORE.SYSTEM.SOLV>
0

>  <SCORE.SYSTEM.norm>
0

>  <SCORE.heavy>
12

>  <SCORE.norm>
-2.34359

>  <SYMMETRIC_BONDS>
4 1 2

>  <RMSD>
13.254

$$$$
1kod cryst
 OpenBabel11021811393D
libRbt.so/2013.1/901 2013/11/27
 12 11  0  0  0  0  0  0  0  0999 V2000
   -6.5827   -2.5090   26.2639 C   0  0  0  0  0  0  0  0  0  0  0  0
   -6.6382   -2.4355   27.4825 O   0  5  0  0  0  0  0  0  0  0  0  0
   -7.4588   -2.0934   25.5159 O   0  0  0  0  0  0  0  0  0  0  0  0
   -5.3347   -3.1608   25.6365 C   0  0  1  0  0  0  0  0  0  0  0  0
   -5.7344   -4.4155   24.9290 N   0  3  0  0  0  0  0  0  0  0  0  0
   -4.6585   -2.1965   24.6339 C   0  0  0  0  0  0  0  0  0  0  0  0
   -4.1970   -0.9275   25.3385 C   0  0  0  0  0  0  0  0  0  0  0  0
   -3.3124   -0.1074   24.4022 C   0  0  0  0  0  0  0  0  0  0  0  0
   -4.1744    0.5544   23.3737 N   0  0  0  0  0  0  0  0  0  0  0  0
   -4.3810    1.8436   23.4092 C   0  0  0  0  0  0  0  0  0  0  0  0
   -5.5234    2.2968   23.4031 O   0  0  0  0  0  0  0  0  0  0  0  0
   -3.3688    2.6610   23.4358 N   0  0  0  0  0  0  0  0  0  0  0  0
  1  2  1  0  0  0  0
  1  3  2  0  0  0  0
  4  1  1  6  0  0  0
  4  6  1  0  0  0  0
  4  5  1  0  0  0  0
  6  7  1  0  0  0  0
  7  8  1  0  0  0  0
  8  9  1  0  0  0  0
  9 10  1  0  0  0  0
 10 12  1  0  0  0  0
 10 11  2  0  0  0  0
M  CHG  2   2  -1   5   1
M  END
>  <CHROM.1>
115.21845647,61.32613982,161.82278867,169.64086514,74.72314307,-71.66326802
-5.13711359,-0.88584684,24.80661657,1.98474236,-0.48783670,2.89223622

>  <Name>
1kod cryst

>  <RI>
0

>  <Rbt.Current_Directory>
/home/itssahil/PROJECTS/Mol_Feturizer/New_Systems/rnas/1kod

>  <Rbt.Executable>
rbdock ($Id: //depot/dev/client3/rdock/2013.1/src/exe/rbdock.cxx#4 $)

>  <Rbt.Library>
libRbt.so (2013.1, Build901 2013/11/27)

>  <Rbt.Parameter_File>
/export/apps/rDock/src/rDock_2013.1_src/data/scripts/dock_solv.prm

>  <Rbt.Receptor>
prm/blind_docking_80.prm

>  <SCORE>
-28.8476

>  <SCORE.INTER>
-23.6397

>  <SCORE.INTER.CONST>
1

>  <SCORE.INTER.POLAR>
-4.14718

>  <SCORE.INTER.ROT>
5

>  <SCORE.INTER.SOLV>
23.561

>  <SCORE.INTER.VDW>
-16.7229

>  <SCORE.INTER.norm>
-1.96998

>  <SCORE.INTRA>
-5.20791

>  <SCORE.INTRA.DIHEDRAL>
-3.55895

>  <SCORE.INTRA.DIHEDRAL.0>
7.7847

>  <SCORE.INTRA.POLAR>
0

>  <SCORE.INTRA.POLAR.0>
0

>  <SCORE.INTRA.REPUL>
0

>  <SCORE.INTRA.REPUL.0>
0

>  <SCORE.INTRA.SOLV>
-2.4449

>  <SCORE.INTRA.SOLV.lig_0>
-57.5465

>  <SCORE.INTRA.VDW>
-2.20599

>  <SCORE.INTRA.VDW.0>
1.39369

>  <SCORE.INTRA.norm>
-0.433993

>  <SCORE.RESTR>
0

>  <SCORE.RESTR.CAVITY>
0

>  <SCORE.RESTR.norm>
0

>  <SCORE.SYSTEM>
0

>  <SCORE.SYSTEM.CONST>
0

>  <SCORE.SYSTEM.DIHEDRAL>
0

>  <SCORE.SYSTEM.SOLV>
0

>  <SCORE.SYSTEM.norm>
0

>  <SCORE.heavy>
12

>  <SCORE.norm>
-2.40397

>  <SYMMETRIC_BONDS>
4 1 2

>  <RMSD>
13.271

$$$$
1kod cryst
 OpenBabel11021811393D
libRbt.so/2013.1/901 2013/11/27
 12 11  0  0  0  0  0  0  0  0999 V2000
   -6.8065   -2.3833   26.3358 C   0  0  0  0  0  0  0  0  0  0  0  0
   -7.4868   -1.8150   25.4947 O   0  5  0  0  0  0  0  0  0  0  0  0
   -7.0365   -2.3443   27.5380 O   0  0  0  0  0  0  0  0  0  0  0  0
   -5.5908   -3.1975   25.8505 C   0  0  1  0  0  0  0  0  0  0  0  0
   -6.0674   -4.4359   25.1622 N   0  3  0  0  0  0  0  0  0  0  0  0
   -4.7280   -2.3643   24.8740 C   0  0  0  0  0  0  0  0  0  0  0  0
   -4.2356   -1.0899   25.5471 C   0  0  0  0  0  0  0  0  0  0  0  0
   -3.3063   -0.3309   24.6026 C   0  0  0  0  0  0  0  0  0  0  0  0
   -4.0928    0.1399   23.4201 N   0  0  0  0  0  0  0  0  0  0  0  0
   -4.4147    1.3995   23.2944 C   0  0  0  0  0  0  0  0  0  0  0  0
   -5.5834    1.7338   23.1132 O   0  0  0  0  0  0  0  0  0  0  0  0
   -3.4890    2.3126   23.3457 N   0  0  0  0  0  0  0  0  0  0  0  0
  1  2  1  0  0  0  0
  1  3  2  0  0  0  0
  4  1  1  6  0  0  0
  4  6  1  0  0  0  0
  4  5  1  0  0  0  0
  6  7  1  0  0  0  0
  7  8  1  0  0  0  0
  8  9  1  0  0  0  0
  9 10  1  0  0  0  0
 10 12  1  0  0  0  0
 10 11  2  0  0  0  0
M  CHG  2   2  -1   5   1
M  END
>  <CHROM.1>
-71.53728965,59.00208677,54.93053248,175.99716263,65.67763964,-74.09288681
-5.26262679,-1.04189502,24.86691189,2.02639412,-0.39435239,2.79286862

>  <Name>
1kod cryst

>  <RI>
0

>  <Rbt.Current_Directory>
/home/itssahil/PROJECTS/Mol_Feturizer/New_Systems/rnas/1kod

>  <Rbt.Executable>
rbdock ($Id: //depot/dev/client3/rdock/2013.1/src/exe/rbdock.cxx#4 $)

>  <Rbt.Library>
libRbt.so (2013.1, Build901 2013/11/27)

>  <Rbt.Parameter_File>
/export/apps/rDock/src/rDock_2013.1_src/data/scripts/dock_solv.prm

>  <Rbt.Receptor>
prm/blind_docking_80.prm

>  <SCORE>
-28.6776

>  <SCORE.INTER>
-22.7876

>  <SCORE.INTER.CONST>
1

>  <SCORE.INTER.POLAR>
-3.91269

>  <SCORE.INTER.ROT>
5

>  <SCORE.INTER.SOLV>
24.1716

>  <SCORE.INTER.VDW>
-17.1399

>  <SCORE.INTER.norm>
-1.89896

>  <SCORE.INTRA>
-5.89008

>  <SCORE.INTRA.DIHEDRAL>
-5.28584

>  <SCORE.INTRA.DIHEDRAL.0>
7.7847

>  <SCORE.INTRA.POLAR>
0

>  <SCORE.INTRA.POLAR.0>
0

>  <SCORE.INTRA.REPUL>
0

>  <SCORE.INTRA.REPUL.0>
0

>  <SCORE.INTRA.SOLV>
-2.30026

>  <SCORE.INTRA.SOLV.lig_0>
-57.5465

>  <SCORE.INTRA.VDW>
-2.09703

>  <SCORE.INTRA.VDW.0>
1.39369

>  <SCORE.INTRA.norm>
-0.49084

>  <SCORE.RESTR>
0

>  <SCORE.RESTR.CAVITY>
0

>  <SCORE.RESTR.norm>
0

>  <SCORE.SYSTEM>
0

>  <SCORE.SYSTEM.CONST>
0

>  <SCORE.SYSTEM.DIHEDRAL>
0

>  <SCORE.SYSTEM.SOLV>
0

>  <SCORE.SYSTEM.norm>
0

>  <SCORE.heavy>
12

>  <SCORE.norm>
-2.3898

>  <SYMMETRIC_BONDS>
4 1 2

>  <RMSD>
13.279

$$$$
1kod cryst
 OpenBabel11021811393D
libRbt.so/2013.1/901 2013/11/27
 12 11  0  0  0  0  0  0  0  0999 V2000
   -8.8633   -1.2123   28.3186 C   0  0  0  0  0  0  0  0  0  0  0  0
   -9.4477   -0.4039   27.6126 O   0  5  0  0  0  0  0  0  0  0  0  0
   -9.1329   -1.4077   29.4970 O   0  0  0  0  0  0  0  0  0  0  0  0
   -7.7233   -2.0331   27.6838 C   0  0  1  0  0  0  0  0  0  0  0  0
   -7.9981   -3.4903   27.8726 N   0  3  0  0  0  0  0  0  0  0  0  0
   -7.6002   -1.7230   26.1736 C   0  0  0  0  0  0  0  0  0  0  0  0
   -6.1592   -1.8867   25.7082 C   0  0  0  0  0  0  0  0  0  0  0  0
   -6.0585   -1.5788   24.2159 C   0  0  0  0  0  0  0  0  0  0  0  0
   -4.6211   -1.3671   23.8585 N   0  0  0  0  0  0  0  0  0  0  0  0
   -4.2137   -0.2156   23.3957 C   0  0  0  0  0  0  0  0  0  0  0  0
   -3.5879   -0.1492   22.3400 O   0  0  0  0  0  0  0  0  0  0  0  0
   -4.4577    0.8738   24.0642 N   0  0  0  0  0  0  0  0  0  0  0  0
  1  2  1  0  0  0  0
  1  3  2  0  0  0  0
  4  1  1  6  0  0  0
  4  6  1  0  0  0  0
  4  5  1  0  0  0  0
  6  7  1  0  0  0  0
  7  8  1  0  0  0  0
  8  9  1  0  0  0  0
  9 10  1  0  0  0  0
 10 12  1  0  0  0  0
 10 11  2  0  0  0  0
M  CHG  2   2  -1   5   1
M  END
>  <CHROM.1>
-124.71830854,149.99738955,-96.77302722,179.90531364,164.29431043,62.23933764
-6.66151255,-1.22518006,25.91146747,2.83127738,-0.81355814,3.00355598

>  <Name>
1kod cryst

>  <RI>
0

>  <Rbt.Current_Directory>
/home/itssahil/PROJECTS/Mol_Feturizer/New_Systems/rnas/1kod

>  <Rbt.Executable>
rbdock ($Id: //depot/dev/client3/rdock/2013.1/src/exe/rbdock.cxx#4 $)

>  <Rbt.Library>
libRbt.so (2013.1, Build901 2013/11/27)

>  <Rbt.Parameter_File>
/export/apps/rDock/src/rDock_2013.1_src/data/scripts/dock_solv.prm

>  <Rbt.Receptor>
prm/blind_docking_80.prm

>  <SCORE>
-28.5254

>  <SCORE.INTER>
-26.1222

>  <SCORE.INTER.CONST>
1

>  <SCORE.INTER.POLAR>
-4.87241

>  <SCORE.INTER.ROT>
5

>  <SCORE.INTER.SOLV>
20.6739

>  <SCORE.INTER.VDW>
-14.998

>  <SCORE.INTER.norm>
-2.17685

>  <SCORE.INTRA>
-2.40328

>  <SCORE.INTRA.DIHEDRAL>
0.332884

>  <SCORE.INTRA.DIHEDRAL.0>
7.7847

>  <SCORE.INTRA.POLAR>
0

>  <SCORE.INTRA.POLAR.0>
0

>  <SCORE.INTRA.REPUL>
0

>  <SCORE.INTRA.REPUL.0>
0

>  <SCORE.INTRA.SOLV>
-2.70281

>  <SCORE.INTRA.SOLV.lig_0>
-57.5465

>  <SCORE.INTRA.VDW>
-1.21831

>  <SCORE.INTRA.VDW.0>
1.39369

>  <SCORE.INTRA.norm>
-0.200273

>  <SCORE.RESTR>
0

>  <SCORE.RESTR.CAVITY>
0

>  <SCORE.RESTR.norm>
0

>  <SCORE.SYSTEM>
0

>  <SCORE.SYSTEM.CONST>
0

>  <SCORE.SYSTEM.DIHEDRAL>
0

>  <SCORE.SYSTEM.SOLV>
0

>  <SCORE.SYSTEM.norm>
0

>  <SCORE.heavy>
12

>  <SCORE.norm>
-2.37712

>  <SYMMETRIC_BONDS>
4 1 2

>  <RMSD>
13.289

$$$$
1kod cryst
 OpenBabel11021811393D
libRbt.so/2013.1/901 2013/11/27
 12 11  0  0  0  0  0  0  0  0999 V2000
   -8.1960   -0.9416   28.3123 C   0  0  0  0  0  0  0  0  0  0  0  0
   -9.4107   -1.0199   28.4208 O   0  5  0  0  0  0  0  0  0  0  0  0
   -7.5238   -0.0473   28.8102 O   0  0  0  0  0  0  0  0  0  0  0  0
   -7.4720   -2.0358   27.5030 C   0  0  1  0  0  0  0  0  0  0  0  0
   -8.0578   -3.3693   27.8392 N   0  3  0  0  0  0  0  0  0  0  0  0
   -7.6138   -1.7782   25.9845 C   0  0  0  0  0  0  0  0  0  0  0  0
   -6.6656   -2.6738   25.1979 C   0  0  0  0  0  0  0  0  0  0  0  0
   -5.4909   -1.8508   24.6737 C   0  0  0  0  0  0  0  0  0  0  0  0
   -5.9947   -0.8767   23.6559 N   0  0  0  0  0  0  0  0  0  0  0  0
   -5.3000    0.1869   23.3526 C   0  0  0  0  0  0  0  0  0  0  0  0
   -5.8080    1.3048   23.4055 O   0  0  0  0  0  0  0  0  0  0  0  0
   -4.0608    0.0648   22.9749 N   0  0  0  0  0  0  0  0  0  0  0  0
  1  2  1  0  0  0  0
  1  3  2  0  0  0  0
  4  1  1  1  0  0  0
  4  6  1  0  0  0  0
  4  5  1  0  0  0  0
  6  7  1  0  0  0  0
  7  8  1  0  0  0  0
  8  9  1  0  0  0  0
  9 10  1  0  0  0  0
 10 12  1  0  0  0  0
 10 11  2  0  0  0  0
M  CHG  2   2  -1   5   1
M  END
>  <CHROM.1>
-41.80574934,167.99606198,161.13519743,-105.59590412,-66.72848229,-20.55872947
-6.81089376,-1.08938169,25.85603772,2.94206763,-1.00096557,-3.05675948

>  <Name>
1kod cryst

>  <RI>
0

>  <Rbt.Current_Directory>
/home/itssahil/PROJECTS/Mol_Feturizer/New_Systems/rnas/1kod

>  <Rbt.Executable>
rbdock ($Id: //depot/dev/client3/rdock/2013.1/src/exe/rbdock.cxx#4 $)

>  <Rbt.Library>
libRbt.so (2013.1, Build901 2013/11/27)

>  <Rbt.Parameter_File>
/export/apps/rDock/src/rDock_2013.1_src/data/scripts/dock_solv.prm

>  <Rbt.Receptor>
prm/blind_docking_40.prm

>  <SCORE>
-24.8281

>  <SCORE.INTER>
-22.3613

>  <SCORE.INTER.CONST>
1

>  <SCORE.INTER.POLAR>
-3.42281

>  <SCORE.INTER.ROT>
5

>  <SCORE.INTER.SOLV>
19.8255

>  <SCORE.INTER.VDW>
-17.04

>  <SCORE.INTER.norm>
-1.86344

>  <SCORE.INTRA>
-2.46688

>  <SCORE.INTRA.DIHEDRAL>
1.22153

>  <SCORE.INTRA.DIHEDRAL.0>
7.7847

>  <SCORE.INTRA.POLAR>
0

>  <SCORE.INTRA.POLAR.0>
0

>  <SCORE.INTRA.REPUL>
0

>  <SCORE.INTRA.REPUL.0>
0

>  <SCORE.INTRA.SOLV>
-2.10442

>  <SCORE.INTRA.SOLV.lig_0>
-57.5465

>  <SCORE.INTRA.VDW>
-2.02544

>  <SCORE.INTRA.VDW.0>
1.39369

>  <SCORE.INTRA.norm>
-0.205574

>  <SCORE.RESTR>
0

>  <SCORE.RESTR.CAVITY>
0

>  <SCORE.RESTR.norm>
0

>  <SCORE.SYSTEM>
0

>  <SCORE.SYSTEM.CONST>
0

>  <SCORE.SYSTEM.DIHEDRAL>
0

>  <SCORE.SYSTEM.SOLV>
0

>  <SCORE.SYSTEM.norm>
0

>  <SCORE.heavy>
12

>  <SCORE.norm>
-2.06901

>  <SYMMETRIC_BONDS>
4 1 2

>  <RMSD>
13.293

$$$$
1kod cryst
 OpenBabel11021811393D
libRbt.so/2013.1/901 2013/11/27
 12 11  0  0  0  0  0  0  0  0999 V2000
   -5.5340   -0.7101   24.5544 C   0  0  0  0  0  0  0  0  0  0  0  0
   -4.4615   -0.2466   24.1963 O   0  5  0  0  0  0  0  0  0  0  0  0
   -6.5263   -0.0309   24.7863 O   0  0  0  0  0  0  0  0  0  0  0  0
   -5.6401   -2.2390   24.7198 C   0  0  1  0  0  0  0  0  0  0  0  0
   -4.5252   -2.8963   23.9718 N   0  3  0  0  0  0  0  0  0  0  0  0
   -5.5631   -2.6350   26.2130 C   0  0  0  0  0  0  0  0  0  0  0  0
   -6.8729   -3.2647   26.6689 C   0  0  0  0  0  0  0  0  0  0  0  0
   -7.9601   -2.1957   26.7529 C   0  0  0  0  0  0  0  0  0  0  0  0
   -8.7231   -2.3765   28.0272 N   0  0  0  0  0  0  0  0  0  0  0  0
   -8.7862   -1.4130   28.9068 C   0  0  0  0  0  0  0  0  0  0  0  0
   -8.4737   -1.6114   30.0788 O   0  0  0  0  0  0  0  0  0  0  0  0
   -9.1983   -0.2328   28.5458 N   0  0  0  0  0  0  0  0  0  0  0  0
  1  2  1  0  0  0  0
  1  3  2  0  0  0  0
  4  1  1  1  0  0  0
  4  6  1  0  0  0  0
  4  5  1  0  0  0  0
  6  7  1  0  0  0  0
  7  8  1  0  0  0  0
  8  9  1  0  0  0  0
  9 10  1  0  0  0  0
 10 12  1  0  0  0  0
 10 11  2  0  0  0  0
M  CHG  2   2  -1   5   1
M  END
>  <CHROM.1>
-18.79625420,115.48875868,53.25606334,-71.38754431,-135.37027789,-58.76806981
-6.84040133,-1.64146416,26.43884254,0.21640385,0.86120160,-0.29745727

>  <Name>
1kod cryst

>  <RI>
0

>  <Rbt.Current_Directory>
/home/itssahil/PROJECTS/Mol_Feturizer/New_Systems/rnas/1kod

>  <Rbt.Executable>
rbdock ($Id: //depot/dev/client3/rdock/2013.1/src/exe/rbdock.cxx#4 $)

>  <Rbt.Library>
libRbt.so (2013.1, Build901 2013/11/27)

>  <Rbt.Parameter_File>
/export/apps/rDock/src/rDock_2013.1_src/data/scripts/dock_solv.prm

>  <Rbt.Receptor>
prm/blind_docking_40.prm

>  <SCORE>
-19.0408

>  <SCORE.INTER>
-18.0306

>  <SCORE.INTER.CONST>
1

>  <SCORE.INTER.POLAR>
-3.6264

>  <SCORE.INTER.ROT>
5

>  <SCORE.INTER.SOLV>
16.0133

>  <SCORE.INTER.VDW>
-12.2035

>  <SCORE.INTER.norm>
-1.50255

>  <SCORE.INTRA>
-1.0102

>  <SCORE.INTRA.DIHEDRAL>
4.83185

>  <SCORE.INTRA.DIHEDRAL.0>
7.7847

>  <SCORE.INTRA.POLAR>
0

>  <SCORE.INTRA.POLAR.0>
0

>  <SCORE.INTRA.REPUL>
0

>  <SCORE.INTRA.REPUL.0>
0

>  <SCORE.INTRA.SOLV>
-1.97535

>  <SCORE.INTRA.SOLV.lig_0>
-57.5465

>  <SCORE.INTRA.VDW>
-2.43845

>  <SCORE.INTRA.VDW.0>
1.39369

>  <SCORE.INTRA.norm>
-0.0841837

>  <SCORE.RESTR>
0

>  <SCORE.RESTR.CAVITY>
0

>  <SCORE.RESTR.norm>
0

>  <SCORE.SYSTEM>
0

>  <SCORE.SYSTEM.CONST>
0

>  <SCORE.SYSTEM.DIHEDRAL>
0

>  <SCORE.SYSTEM.SOLV>
0

>  <SCORE.SYSTEM.norm>
0

>  <SCORE.heavy>
12

>  <SCORE.norm>
-1.58673

>  <SYMMETRIC_BONDS>
4 1 2

>  <RMSD>
13.305

$$$$
1kod cryst
 OpenBabel11021811393D
libRbt.so/2013.1/901 2013/11/27
 12 11  0  0  0  0  0  0  0  0999 V2000
   -3.8912   -0.2691   23.4799 C   0  0  0  0  0  0  0  0  0  0  0  0
   -2.9098   -0.7117   24.0581 O   0  5  0  0  0  0  0  0  0  0  0  0
   -3.9630   -0.1347   22.2648 O   0  0  0  0  0  0  0  0  0  0  0  0
   -5.1079    0.1401   24.3335 C   0  0  1  0  0  0  0  0  0  0  0  0
   -6.0652    0.9185   23.4896 N   0  3  0  0  0  0  0  0  0  0  0  0
   -5.8210   -1.1080   24.9046 C   0  0  0  0  0  0  0  0  0  0  0  0
   -6.9268   -0.6995   25.8690 C   0  0  0  0  0  0  0  0  0  0  0  0
   -7.5123   -1.9393   26.5411 C   0  0  0  0  0  0  0  0  0  0  0  0
   -8.3174   -1.5149   27.7286 N   0  0  0  0  0  0  0  0  0  0  0  0
   -9.0659   -2.3747   28.3663 C   0  0  0  0  0  0  0  0  0  0  0  0
  -10.2570   -2.1452   28.5637 O   0  0  0  0  0  0  0  0  0  0  0  0
   -8.5451   -3.4806   28.8124 N   0  0  0  0  0  0  0  0  0  0  0  0
  1  2  1  0  0  0  0
  1  3  2  0  0  0  0
  4  1  1  6  0  0  0
  4  6  1  0  0  0  0
  4  5  1  0  0  0  0
  6  7  1  0  0  0  0
  7  8  1  0  0  0  0
  8  9  1  0  0  0  0
  9 10  1  0  0  0  0
 10 12  1  0  0  0  0
 10 11  2  0  0  0  0
M  CHG  2   2  -1   5   1
M  END
>  <CHROM.1>
167.80819384,173.77647126,71.51254598,-173.62615395,164.93920127,-9.19966855
-6.53975627,-1.09934497,25.68825118,-0.78385289,-0.36223704,2.35435860

>  <Name>
1kod cryst

>  <RI>
0

>  <Rbt.Current_Directory>
/home/itssahil/PROJECTS/Mol_Feturizer/New_Systems/rnas/1kod

>  <Rbt.Executable>
rbdock ($Id: //depot/dev/client3/rdock/2013.1/src/exe/rbdock.cxx#4 $)

>  <Rbt.Library>
libRbt.so (2013.1, Build901 2013/11/27)

>  <Rbt.Parameter_File>
/export/apps/rDock/src/rDock_2013.1_src/data/scripts/dock_solv.prm

>  <Rbt.Receptor>
prm/blind_docking_100.prm

>  <SCORE>
-24.3206

>  <SCORE.INTER>
-19.1038

>  <SCORE.INTER.CONST>
1

>  <SCORE.INTER.POLAR>
-3.62915

>  <SCORE.INTER.ROT>
5

>  <SCORE.INTER.SOLV>
25.5928

>  <SCORE.INTER.VDW>
-16.103

>  <SCORE.INTER.norm>
-1.59199

>  <SCORE.INTRA>
-5.21682

>  <SCORE.INTRA.DIHEDRAL>
-4.10579

>  <SCORE.INTRA.DIHEDRAL.0>
7.7847

>  <SCORE.INTRA.POLAR>
0

>  <SCORE.INTRA.POLAR.0>
0

>  <SCORE.INTRA.REPUL>
0

>  <SCORE.INTRA.REPUL.0>
0

>  <SCORE.INTRA.SOLV>
-2.39592

>  <SCORE.INTRA.SOLV.lig_0>
-57.5465

>  <SCORE.INTRA.VDW>
-1.96597

>  <SCORE.INTRA.VDW.0>
1.39369

>  <SCORE.INTRA.norm>
-0.434735

>  <SCORE.RESTR>
0

>  <SCORE.RESTR.CAVITY>
0

>  <SCORE.RESTR.norm>
0

>  <SCORE.SYSTEM>
0

>  <SCORE.SYSTEM.CONST>
0

>  <SCORE.SYSTEM.DIHEDRAL>
0

>  <SCORE.SYSTEM.SOLV>
0

>  <SCORE.SYSTEM.norm>
0

>  <SCORE.heavy>
12

>  <SCORE.norm>
-2.02672

>  <SYMMETRIC_BONDS>
4 1 2

>  <RMSD>
13.310

$$$$
1kod cryst
 OpenBabel11021811393D
libRbt.so/2013.1/901 2013/11/27
 12 11  0  0  0  0  0  0  0  0999 V2000
   -8.8361   -1.6208   28.2470 C   0  0  0  0  0  0  0  0  0  0  0  0
   -9.8642   -2.1514   27.8537 O   0  5  0  0  0  0  0  0  0  0  0  0
   -8.7863   -0.8568   29.2028 O   0  0  0  0  0  0  0  0  0  0  0  0
   -7.5279   -1.9365   27.4951 C   0  0  1  0  0  0  0  0  0  0  0  0
   -7.3492   -3.4184   27.4135 N   0  3  0  0  0  0  0  0  0  0  0  0
   -7.5594   -1.3415   26.0677 C   0  0  0  0  0  0  0  0  0  0  0  0
   -6.2192   -1.5439   25.3728 C   0  0  0  0  0  0  0  0  0  0  0  0
   -6.2469   -0.8895   23.9933 C   0  0  0  0  0  0  0  0  0  0  0  0
   -4.9656   -1.1953   23.2838 N   0  0  0  0  0  0  0  0  0  0  0  0
   -3.9821   -0.3358   23.2874 C   0  0  0  0  0  0  0  0  0  0  0  0
   -3.4692    0.0358   22.2342 O   0  0  0  0  0  0  0  0  0  0  0  0
   -3.5272    0.1227   24.4170 N   0  0  0  0  0  0  0  0  0  0  0  0
  1  2  1  0  0  0  0
  1  3  2  0  0  0  0
  4  1  1  6  0  0  0
  4  6  1  0  0  0  0
  4  5  1  0  0  0  0
  6  7  1  0  0  0  0
  7  8  1  0  0  0  0
  8  9  1  0  0  0  0
  9 10  1  0  0  0  0
 10 12  1  0  0  0  0
 10 11  2  0  0  0  0
M  CHG  2   2  -1   5   1
M  END
>  <CHROM.1>
-52.95859671,174.82077228,62.42812377,-177.18599147,-175.38264079,82.91930499
-6.52106502,-1.28405475,25.75334774,-2.77538330,-0.76956443,-2.32779662

>  <Name>
1kod cryst

>  <RI>
0

>  <Rbt.Current_Directory>
/home/itssahil/PROJECTS/Mol_Feturizer/New_Systems/rnas/1kod

>  <Rbt.Executable>
rbdock ($Id: //depot/dev/client3/rdock/2013.1/src/exe/rbdock.cxx#4 $)

>  <Rbt.Library>
libRbt.so (2013.1, Build901 2013/11/27)

>  <Rbt.Parameter_File>
/export/apps/rDock/src/rDock_2013.1_src/data/scripts/dock_solv.prm

>  <Rbt.Receptor>
prm/blind_docking_40.prm

>  <SCORE>
-29.0234

>  <SCORE.INTER>
-22.9034

>  <SCORE.INTER.CONST>
1

>  <SCORE.INTER.POLAR>
-4.04004

>  <SCORE.INTER.ROT>
5

>  <SCORE.INTER.SOLV>
21.2431

>  <SCORE.INTER.VDW>
-15.8165

>  <SCORE.INTER.norm>
-1.90862

>  <SCORE.INTRA>
-6.11999

>  <SCORE.INTRA.DIHEDRAL>
-5.31741

>  <SCORE.INTRA.DIHEDRAL.0>
7.7847

>  <SCORE.INTRA.POLAR>
0

>  <SCORE.INTRA.POLAR.0>
0

>  <SCORE.INTRA.REPUL>
0

>  <SCORE.INTRA.REPUL.0>
0

>  <SCORE.INTRA.SOLV>
-2.26794

>  <SCORE.INTRA.SOLV.lig_0>
-57.5465

>  <SCORE.INTRA.VDW>
-2.32731

>  <SCORE.INTRA.VDW.0>
1.39369

>  <SCORE.INTRA.norm>
-0.509999

>  <SCORE.RESTR>
0

>  <SCORE.RESTR.CAVITY>
0

>  <SCORE.RESTR.norm>
0

>  <SCORE.SYSTEM>
0

>  <SCORE.SYSTEM.CONST>
0

>  <SCORE.SYSTEM.DIHEDRAL>
0

>  <SCORE.SYSTEM.SOLV>
0

>  <SCORE.SYSTEM.norm>
0

>  <SCORE.heavy>
12

>  <SCORE.norm>
-2.41862

>  <SYMMETRIC_BONDS>
4 1 2

>  <RMSD>
13.321

$$$$
1kod cryst
 OpenBabel11021811393D
libRbt.so/2013.1/901 2013/11/27
 12 11  0  0  0  0  0  0  0  0999 V2000
   -3.9049    0.1123   23.4305 C   0  0  0  0  0  0  0  0  0  0  0  0
   -3.4326   -0.0149   22.3106 O   0  5  0  0  0  0  0  0  0  0  0  0
   -3.4275    0.8393   24.2926 O   0  0  0  0  0  0  0  0  0  0  0  0
   -5.1768   -0.6888   23.7724 C   0  0  1  0  0  0  0  0  0  0  0  0
   -6.0175   -0.8303   22.5445 N   0  3  0  0  0  0  0  0  0  0  0  0
   -4.8121   -2.0915   24.3122 C   0  0  0  0  0  0  0  0  0  0  0  0
   -4.8745   -2.1135   25.8338 C   0  0  0  0  0  0  0  0  0  0  0  0
   -6.1196   -2.8706   26.2904 C   0  0  0  0  0  0  0  0  0  0  0  0
   -7.0442   -1.9167   26.9789 N   0  0  0  0  0  0  0  0  0  0  0  0
   -8.2175   -2.3116   27.3952 C   0  0  0  0  0  0  0  0  0  0  0  0
   -9.2363   -1.7081   27.0659 O   0  0  0  0  0  0  0  0  0  0  0  0
   -8.3120   -3.3456   28.1795 N   0  0  0  0  0  0  0  0  0  0  0  0
  1  2  1  0  0  0  0
  1  3  2  0  0  0  0
  4  1  1  6  0  0  0
  4  6  1  0  0  0  0
  4  5  1  0  0  0  0
  6  7  1  0  0  0  0
  7  8  1  0  0  0  0
  8  9  1  0  0  0  0
  9 10  1  0  0  0  0
 10 12  1  0  0  0  0
 10 11  2  0  0  0  0
M  CHG  2   2  -1   5   1
M  END
>  <CHROM.1>
-32.89503282,99.08558530,-43.02624351,105.97433497,-114.26101284,-3.90864393
-5.90243440,-1.39982152,25.18010951,-0.87696134,0.05269104,2.04247564

>  <Name>
1kod cryst

>  <RI>
0

>  <Rbt.Current_Directory>
/home/itssahil/PROJECTS/Mol_Feturizer/New_Systems/rnas/1kod

>  <Rbt.Executable>
rbdock ($Id: //depot/dev/client3/rdock/2013.1/src/exe/rbdock.cxx#4 $)

>  <Rbt.Library>
libRbt.so (2013.1, Build901 2013/11/27)

>  <Rbt.Parameter_File>
/export/apps/rDock/src/rDock_2013.1_src/data/scripts/dock_solv.prm

>  <Rbt.Receptor>
prm/blind_docking_80.prm

>  <SCORE>
-26.7411

>  <SCORE.INTER>
-27.7888

>  <SCORE.INTER.CONST>
1

>  <SCORE.INTER.POLAR>
-5.18025

>  <SCORE.INTER.ROT>
5

>  <SCORE.INTER.SOLV>
27.4878

>  <SCORE.INTER.VDW>
-17.3543

>  <SCORE.INTER.norm>
-2.31573

>  <SCORE.INTRA>
1.04768

>  <SCORE.INTRA.DIHEDRAL>
9.58816

>  <SCORE.INTRA.DIHEDRAL.0>
7.7847

>  <SCORE.INTRA.POLAR>
0

>  <SCORE.INTRA.POLAR.0>
0

>  <SCORE.INTRA.REPUL>
0

>  <SCORE.INTRA.REPUL.0>
0

>  <SCORE.INTRA.SOLV>
-2.57778

>  <SCORE.INTRA.SOLV.lig_0>
-57.5465

>  <SCORE.INTRA.VDW>
-2.45751

>  <SCORE.INTRA.VDW.0>
1.39369

>  <SCORE.INTRA.norm>
0.087307

>  <SCORE.RESTR>
0

>  <SCORE.RESTR.CAVITY>
0

>  <SCORE.RESTR.norm>
0

>  <SCORE.SYSTEM>
0

>  <SCORE.SYSTEM.CONST>
0

>  <SCORE.SYSTEM.DIHEDRAL>
0

>  <SCORE.SYSTEM.SOLV>
0

>  <SCORE.SYSTEM.norm>
0

>  <SCORE.heavy>
12

>  <SCORE.norm>
-2.22842

>  <SYMMETRIC_BONDS>
4 1 2

>  <RMSD>
13.322

$$$$
1kod cryst
 OpenBabel11021811393D
libRbt.so/2013.1/901 2013/11/27
 12 11  0  0  0  0  0  0  0  0999 V2000
   -8.7815   -1.1358   28.4119 C   0  0  0  0  0  0  0  0  0  0  0  0
   -8.3132   -0.0335   28.6551 O   0  5  0  0  0  0  0  0  0  0  0  0
   -9.9693   -1.4114   28.5254 O   0  0  0  0  0  0  0  0  0  0  0  0
   -7.8179   -2.2392   27.9320 C   0  0  1  0  0  0  0  0  0  0  0  0
   -8.3528   -3.5745   28.3387 N   0  3  0  0  0  0  0  0  0  0  0  0
   -7.6565   -2.1948   26.3944 C   0  0  0  0  0  0  0  0  0  0  0  0
   -6.4659   -1.3285   26.0050 C   0  0  0  0  0  0  0  0  0  0  0  0
   -6.2978   -1.3308   24.4873 C   0  0  0  0  0  0  0  0  0  0  0  0
   -4.8966   -0.9271   24.1521 N   0  0  0  0  0  0  0  0  0  0  0  0
   -4.6674    0.0152   23.2772 C   0  0  0  0  0  0  0  0  0  0  0  0
   -3.9172   -0.1822   22.3238 O   0  0  0  0  0  0  0  0  0  0  0  0
   -5.2253    1.1819   23.4211 N   0  0  0  0  0  0  0  0  0  0  0  0
  1  2  1  0  0  0  0
  1  3  2  0  0  0  0
  4  1  1  6  0  0  0
  4  6  1  0  0  0  0
  4  5  1  0  0  0  0
  6  7  1  0  0  0  0
  7  8  1  0  0  0  0
  8  9  1  0  0  0  0
  9 10  1  0  0  0  0
 10 12  1  0  0  0  0
 10 11  2  0  0  0  0
M  CHG  2   2  -1   5   1
M  END
>  <CHROM.1>
151.62710605,92.38527465,-83.35401181,178.31417007,-159.36789124,50.42517650
-6.87515430,-1.10193605,26.00844730,2.78213087,-0.87623146,3.02595161

>  <Name>
1kod cryst

>  <RI>
0

>  <Rbt.Current_Directory>
/home/itssahil/PROJECTS/Mol_Feturizer/New_Systems/rnas/1kod

>  <Rbt.Executable>
rbdock ($Id: //depot/dev/client3/rdock/2013.1/src/exe/rbdock.cxx#4 $)

>  <Rbt.Library>
libRbt.so (2013.1, Build901 2013/11/27)

>  <Rbt.Parameter_File>
/export/apps/rDock/src/rDock_2013.1_src/data/scripts/dock_solv.prm

>  <Rbt.Receptor>
prm/blind_docking_80.prm

>  <SCORE>
-27.5637

>  <SCORE.INTER>
-23.7487

>  <SCORE.INTER.CONST>
1

>  <SCORE.INTER.POLAR>
-4.48129

>  <SCORE.INTER.ROT>
5

>  <SCORE.INTER.SOLV>
20.0332

>  <SCORE.INTER.VDW>
-14.5059

>  <SCORE.INTER.norm>
-1.97906

>  <SCORE.INTRA>
-3.81495

>  <SCORE.INTRA.DIHEDRAL>
-0.0040435

>  <SCORE.INTRA.DIHEDRAL.0>
7.7847

>  <SCORE.INTRA.POLAR>
0

>  <SCORE.INTRA.POLAR.0>
0

>  <SCORE.INTRA.REPUL>
0

>  <SCORE.INTRA.REPUL.0>
0

>  <SCORE.INTRA.SOLV>
-2.79963

>  <SCORE.INTRA.SOLV.lig_0>
-57.5465

>  <SCORE.INTRA.VDW>
-2.41312

>  <SCORE.INTRA.VDW.0>
1.39369

>  <SCORE.INTRA.norm>
-0.317913

>  <SCORE.RESTR>
0

>  <SCORE.RESTR.CAVITY>
0

>  <SCORE.RESTR.norm>
0

>  <SCORE.SYSTEM>
0

>  <SCORE.SYSTEM.CONST>
0

>  <SCORE.SYSTEM.DIHEDRAL>
0

>  <SCORE.SYSTEM.SOLV>
0

>  <SCORE.SYSTEM.norm>
0

>  <SCORE.heavy>
12

>  <SCORE.norm>
-2.29697

>  <SYMMETRIC_BONDS>
4 1 2

>  <RMSD>
13.329

$$$$
1kod cryst
 OpenBabel11021811393D
libRbt.so/2013.1/901 2013/11/27
 12 11  0  0  0  0  0  0  0  0999 V2000
   -9.0981   -1.0669   27.9534 C   0  0  0  0  0  0  0  0  0  0  0  0
   -9.1966    0.0376   27.4399 O   0  5  0  0  0  0  0  0  0  0  0  0
   -9.9532   -1.5598   28.6783 O   0  0  0  0  0  0  0  0  0  0  0  0
   -7.8230   -1.8845   27.6672 C   0  0  1  0  0  0  0  0  0  0  0  0
   -8.1058   -3.3357   27.8876 N   0  3  0  0  0  0  0  0  0  0  0  0
   -7.3482   -1.6670   26.2113 C   0  0  0  0  0  0  0  0  0  0  0  0
   -6.6609   -0.3154   26.0678 C   0  0  0  0  0  0  0  0  0  0  0  0
   -6.4687    0.0136   24.5890 C   0  0  0  0  0  0  0  0  0  0  0  0
   -5.1185   -0.4637   24.1557 N   0  0  0  0  0  0  0  0  0  0  0  0
   -4.3794    0.2637   23.3615 C   0  0  0  0  0  0  0  0  0  0  0  0
   -3.9235   -0.2073   22.3219 O   0  0  0  0  0  0  0  0  0  0  0  0
   -4.1078    1.4962   23.6783 N   0  0  0  0  0  0  0  0  0  0  0  0
  1  2  1  0  0  0  0
  1  3  2  0  0  0  0
  4  1  1  6  0  0  0
  4  6  1  0  0  0  0
  4  5  1  0  0  0  0
  6  7  1  0  0  0  0
  7  8  1  0  0  0  0
  8  9  1  0  0  0  0
  9 10  1  0  0  0  0
 10 12  1  0  0  0  0
 10 11  2  0  0  0  0
M  CHG  2   2  -1   5   1
M  END
>  <CHROM.1>
-157.29320382,76.48063354,10.03769615,-167.92754909,-92.64067287,40.97026644
-6.85248219,-0.74315698,25.84371583,2.67349434,-0.72923954,2.90385413

>  <Name>
1kod cryst

>  <RI>
0

>  <Rbt.Current_Directory>
/home/itssahil/PROJECTS/Mol_Feturizer/New_Systems/rnas/1kod

>  <Rbt.Executable>
rbdock ($Id: //depot/dev/client3/rdock/2013.1/src/exe/rbdock.cxx#4 $)

>  <Rbt.Library>
libRbt.so (2013.1, Build901 2013/11/27)

>  <Rbt.Parameter_File>
/export/apps/rDock/src/rDock_2013.1_src/data/scripts/dock_solv.prm

>  <Rbt.Receptor>
prm/blind_docking_40.prm

>  <SCORE>
-24.5563

>  <SCORE.INTER>
-23.8092

>  <SCORE.INTER.CONST>
1

>  <SCORE.INTER.POLAR>
-4.13604

>  <SCORE.INTER.ROT>
5

>  <SCORE.INTER.SOLV>
18.2376

>  <SCORE.INTER.VDW>
-15.0985

>  <SCORE.INTER.norm>
-1.9841

>  <SCORE.INTRA>
-0.74713

>  <SCORE.INTRA.DIHEDRAL>
2.43857

>  <SCORE.INTRA.DIHEDRAL.0>
7.7847

>  <SCORE.INTRA.POLAR>
0

>  <SCORE.INTRA.POLAR.0>
0

>  <SCORE.INTRA.REPUL>
0

>  <SCORE.INTRA.REPUL.0>
0

>  <SCORE.INTRA.SOLV>
-2.13638

>  <SCORE.INTRA.SOLV.lig_0>
-57.5465

>  <SCORE.INTRA.VDW>
-0.898226

>  <SCORE.INTRA.VDW.0>
1.39369

>  <SCORE.INTRA.norm>
-0.0622609

>  <SCORE.RESTR>
0

>  <SCORE.RESTR.CAVITY>
0

>  <SCORE.RESTR.norm>
0

>  <SCORE.SYSTEM>
0

>  <SCORE.SYSTEM.CONST>
0

>  <SCORE.SYSTEM.DIHEDRAL>
0

>  <SCORE.SYSTEM.SOLV>
0

>  <SCORE.SYSTEM.norm>
0

>  <SCORE.heavy>
12

>  <SCORE.norm>
-2.04636

>  <SYMMETRIC_BONDS>
4 1 2

>  <RMSD>
13.336

$$$$
1kod cryst
 OpenBabel11021811393D
libRbt.so/2013.1/901 2013/11/27
 12 11  0  0  0  0  0  0  0  0999 V2000
   -8.2452   -0.9467   26.9370 C   0  0  0  0  0  0  0  0  0  0  0  0
   -9.4558   -0.9358   27.1032 O   0  5  0  0  0  0  0  0  0  0  0  0
   -7.6099    0.0018   26.4938 O   0  0  0  0  0  0  0  0  0  0  0  0
   -7.4772   -2.2300   27.3107 C   0  0  1  0  0  0  0  0  0  0  0  0
   -8.2460   -2.9823   28.3487 N   0  3  0  0  0  0  0  0  0  0  0  0
   -7.2737   -3.1280   26.0679 C   0  0  0  0  0  0  0  0  0  0  0  0
   -5.8929   -2.9043   25.4650 C   0  0  0  0  0  0  0  0  0  0  0  0
   -5.9315   -1.7140   24.5093 C   0  0  0  0  0  0  0  0  0  0  0  0
   -4.7348   -1.7705   23.6130 N   0  0  0  0  0  0  0  0  0  0  0  0
   -3.8903   -0.7750   23.5679 C   0  0  0  0  0  0  0  0  0  0  0  0
   -3.5901   -0.2545   22.4958 O   0  0  0  0  0  0  0  0  0  0  0  0
   -3.3471   -0.3367   24.6661 N   0  0  0  0  0  0  0  0  0  0  0  0
  1  2  1  0  0  0  0
  1  3  2  0  0  0  0
  4  1  1  6  0  0  0
  4  6  1  0  0  0  0
  4  5  1  0  0  0  0
  6  7  1  0  0  0  0
  7  8  1  0  0  0  0
  8  9  1  0  0  0  0
  9 10  1  0  0  0  0
 10 12  1  0  0  0  0
 10 11  2  0  0  0  0
M  CHG  2   2  -1   5   1
M  END
>  <CHROM.1>
-25.21950811,97.13758407,64.46161860,-85.28043205,-162.05838739,57.79086715
-6.31644805,-1.49064528,25.57131823,2.81707375,-0.67030222,2.92143369

>  <Name>
1kod cryst

>  <RI>
0

>  <Rbt.Current_Directory>
/home/itssahil/PROJECTS/Mol_Feturizer/New_Systems/rnas/1kod

>  <Rbt.Executable>
rbdock ($Id: //depot/dev/client3/rdock/2013.1/src/exe/rbdock.cxx#4 $)

>  <Rbt.Library>
libRbt.so (2013.1, Build901 2013/11/27)

>  <Rbt.Parameter_File>
/export/apps/rDock/src/rDock_2013.1_src/data/scripts/dock_solv.prm

>  <Rbt.Receptor>
prm/blind_docking_80.prm

>  <SCORE>
-27.4733

>  <SCORE.INTER>
-24.5587

>  <SCORE.INTER.CONST>
1

>  <SCORE.INTER.POLAR>
-3.86106

>  <SCORE.INTER.ROT>
5

>  <SCORE.INTER.SOLV>
20.3486

>  <SCORE.INTER.VDW>
-17.2184

>  <SCORE.INTER.norm>
-2.04655

>  <SCORE.INTRA>
-2.91462

>  <SCORE.INTRA.DIHEDRAL>
1.45017

>  <SCORE.INTRA.DIHEDRAL.0>
7.7847

>  <SCORE.INTRA.POLAR>
0

>  <SCORE.INTRA.POLAR.0>
0

>  <SCORE.INTRA.REPUL>
0

>  <SCORE.INTRA.REPUL.0>
0

>  <SCORE.INTRA.SOLV>
-1.82634

>  <SCORE.INTRA.SOLV.lig_0>
-57.5465

>  <SCORE.INTRA.VDW>
-2.72654

>  <SCORE.INTRA.VDW.0>
1.39369

>  <SCORE.INTRA.norm>
-0.242885

>  <SCORE.RESTR>
0

>  <SCORE.RESTR.CAVITY>
0

>  <SCORE.RESTR.norm>
0

>  <SCORE.SYSTEM>
0

>  <SCORE.SYSTEM.CONST>
0

>  <SCORE.SYSTEM.DIHEDRAL>
0

>  <SCORE.SYSTEM.SOLV>
0

>  <SCORE.SYSTEM.norm>
0

>  <SCORE.heavy>
12

>  <SCORE.norm>
-2.28944

>  <SYMMETRIC_BONDS>
4 1 2

>  <RMSD>
13.351

$$$$
1kod cryst
 OpenBabel11021811393D
libRbt.so/2013.1/901 2013/11/27
 12 11  0  0  0  0  0  0  0  0999 V2000
   -8.7711   -0.9606   27.8048 C   0  0  0  0  0  0  0  0  0  0  0  0
   -9.8833   -0.8524   28.2995 O   0  5  0  0  0  0  0  0  0  0  0  0
   -8.2352   -0.0860   27.1357 O   0  0  0  0  0  0  0  0  0  0  0  0
   -8.0010   -2.2748   28.0414 C   0  0  1  0  0  0  0  0  0  0  0  0
   -8.7773   -3.1412   28.9801 N   0  3  0  0  0  0  0  0  0  0  0  0
   -7.7796   -3.0275   26.7085 C   0  0  0  0  0  0  0  0  0  0  0  0
   -6.4257   -2.6702   26.1092 C   0  0  0  0  0  0  0  0  0  0  0  0
   -6.6227   -1.9441   24.7804 C   0  0  0  0  0  0  0  0  0  0  0  0
   -6.4653   -0.4727   25.0017 N   0  0  0  0  0  0  0  0  0  0  0  0
   -5.6262    0.2221   24.2812 C   0  0  0  0  0  0  0  0  0  0  0  0
   -4.7739    0.9278   24.8161 O   0  0  0  0  0  0  0  0  0  0  0  0
   -5.6997    0.1813   22.9827 N   0  0  0  0  0  0  0  0  0  0  0  0
  1  2  1  0  0  0  0
  1  3  2  0  0  0  0
  4  1  1  6  0  0  0
  4  6  1  0  0  0  0
  4  5  1  0  0  0  0
  6  7  1  0  0  0  0
  7  8  1  0  0  0  0
  8  9  1  0  0  0  0
  9 10  1  0  0  0  0
 10 12  1  0  0  0  0
 10 11  2  0  0  0  0
M  CHG  2   2  -1   5   1
M  END
>  <CHROM.1>
-5.15811821,93.86576726,-163.74147473,-115.61270905,100.07638525,-53.47872980
-7.27518163,-1.16268722,26.26116070,2.60424996,-0.84400081,2.94947939

>  <Name>
1kod cryst

>  <RI>
0

>  <Rbt.Current_Directory>
/home/itssahil/PROJECTS/Mol_Feturizer/New_Systems/rnas/1kod

>  <Rbt.Executable>
rbdock ($Id: //depot/dev/client3/rdock/2013.1/src/exe/rbdock.cxx#4 $)

>  <Rbt.Library>
libRbt.so (2013.1, Build901 2013/11/27)

>  <Rbt.Parameter_File>
/export/apps/rDock/src/rDock_2013.1_src/data/scripts/dock_solv.prm

>  <Rbt.Receptor>
prm/blind_docking_40.prm

>  <SCORE>
-26.062

>  <SCORE.INTER>
-23.2107

>  <SCORE.INTER.CONST>
1

>  <SCORE.INTER.POLAR>
-3.66905

>  <SCORE.INTER.ROT>
5

>  <SCORE.INTER.SOLV>
18.0969

>  <SCORE.INTER.VDW>
-16.2092

>  <SCORE.INTER.norm>
-1.93422

>  <SCORE.INTRA>
-2.85136

>  <SCORE.INTRA.DIHEDRAL>
8.33774

>  <SCORE.INTRA.DIHEDRAL.0>
7.7847

>  <SCORE.INTRA.POLAR>
-1.24079

>  <SCORE.INTRA.POLAR.0>
0

>  <SCORE.INTRA.REPUL>
0

>  <SCORE.INTRA.REPUL.0>
0

>  <SCORE.INTRA.SOLV>
0.240275

>  <SCORE.INTRA.SOLV.lig_0>
-57.5465

>  <SCORE.INTRA.VDW>
-2.9217

>  <SCORE.INTRA.VDW.0>
1.39369

>  <SCORE.INTRA.norm>
-0.237614

>  <SCORE.RESTR>
0

>  <SCORE.RESTR.CAVITY>
0

>  <SCORE.RESTR.norm>
0

>  <SCORE.SYSTEM>
0

>  <SCORE.SYSTEM.CONST>
0

>  <SCORE.SYSTEM.DIHEDRAL>
0

>  <SCORE.SYSTEM.SOLV>
0

>  <SCORE.SYSTEM.norm>
0

>  <SCORE.heavy>
12

>  <SCORE.norm>
-2.17183

>  <SYMMETRIC_BONDS>
4 1 2

>  <RMSD>
13.363

$$$$
1kod cryst
 OpenBabel11021811393D
libRbt.so/2013.1/901 2013/11/27
 12 11  0  0  0  0  0  0  0  0999 V2000
   -8.7104   -0.8424   28.0169 C   0  0  0  0  0  0  0  0  0  0  0  0
   -9.9101   -0.8074   28.2468 O   0  5  0  0  0  0  0  0  0  0  0  0
   -8.0345    0.1491   27.7722 O   0  0  0  0  0  0  0  0  0  0  0  0
   -8.0110   -2.2159   28.0401 C   0  0  1  0  0  0  0  0  0  0  0  0
   -8.7704   -3.1429   28.9338 N   0  3  0  0  0  0  0  0  0  0  0  0
   -7.9371   -2.8170   26.6169 C   0  0  0  0  0  0  0  0  0  0  0  0
   -6.5623   -3.4204   26.3604 C   0  0  0  0  0  0  0  0  0  0  0  0
   -5.6268   -2.3554   25.7928 C   0  0  0  0  0  0  0  0  0  0  0  0
   -6.2040   -1.8310   24.5159 N   0  0  0  0  0  0  0  0  0  0  0  0
   -5.5805   -0.9077   23.8341 C   0  0  0  0  0  0  0  0  0  0  0  0
   -6.1556    0.1286   23.5087 O   0  0  0  0  0  0  0  0  0  0  0  0
   -4.3416   -1.0897   23.4804 N   0  0  0  0  0  0  0  0  0  0  0  0
  1  2  1  0  0  0  0
  1  3  2  0  0  0  0
  4  1  1  6  0  0  0
  4  6  1  0  0  0  0
  4  5  1  0  0  0  0
  6  7  1  0  0  0  0
  7  8  1  0  0  0  0
  8  9  1  0  0  0  0
  9 10  1  0  0  0  0
 10 12  1  0  0  0  0
 10 11  2  0  0  0  0
M  CHG  2   2  -1   5   1
M  END
>  <CHROM.1>
-26.17436803,136.53094706,84.55556446,-88.75132730,-59.33171941,0.23536184
-7.17147499,-1.58965455,26.27006760,2.68232276,-0.81336347,2.70475836

>  <Name>
1kod cryst

>  <RI>
0

>  <Rbt.Current_Directory>
/home/itssahil/PROJECTS/Mol_Feturizer/New_Systems/rnas/1kod

>  <Rbt.Executable>
rbdock ($Id: //depot/dev/client3/rdock/2013.1/src/exe/rbdock.cxx#4 $)

>  <Rbt.Library>
libRbt.so (2013.1, Build901 2013/11/27)

>  <Rbt.Parameter_File>
/export/apps/rDock/src/rDock_2013.1_src/data/scripts/dock_solv.prm

>  <Rbt.Receptor>
prm/blind_docking_40.prm

>  <SCORE>
-27.8215

>  <SCORE.INTER>
-26.3321

>  <SCORE.INTER.CONST>
1

>  <SCORE.INTER.POLAR>
-4.08858

>  <SCORE.INTER.ROT>
5

>  <SCORE.INTER.SOLV>
18.6134

>  <SCORE.INTER.VDW>
-17.0639

>  <SCORE.INTER.norm>
-2.19434

>  <SCORE.INTRA>
-1.48941

>  <SCORE.INTRA.DIHEDRAL>
2.84384

>  <SCORE.INTRA.DIHEDRAL.0>
7.7847

>  <SCORE.INTRA.POLAR>
0

>  <SCORE.INTRA.POLAR.0>
0

>  <SCORE.INTRA.REPUL>
0

>  <SCORE.INTRA.REPUL.0>
0

>  <SCORE.INTRA.SOLV>
-1.97731

>  <SCORE.INTRA.SOLV.lig_0>
-57.5465

>  <SCORE.INTRA.VDW>
-1.92267

>  <SCORE.INTRA.VDW.0>
1.39369

>  <SCORE.INTRA.norm>
-0.124117

>  <SCORE.RESTR>
0

>  <SCORE.RESTR.CAVITY>
0

>  <SCORE.RESTR.norm>
0

>  <SCORE.SYSTEM>
0

>  <SCORE.SYSTEM.CONST>
0

>  <SCORE.SYSTEM.DIHEDRAL>
0

>  <SCORE.SYSTEM.SOLV>
0

>  <SCORE.SYSTEM.norm>
0

>  <SCORE.heavy>
12

>  <SCORE.norm>
-2.31846

>  <SYMMETRIC_BONDS>
4 1 2

>  <RMSD>
13.364

$$$$
1kod cryst
 OpenBabel11021811393D
libRbt.so/2013.1/901 2013/11/27
 12 11  0  0  0  0  0  0  0  0999 V2000
   -8.8001   -0.8379   27.5395 C   0  0  0  0  0  0  0  0  0  0  0  0
   -8.3851    0.3099   27.4791 O   0  5  0  0  0  0  0  0  0  0  0  0
   -9.9786   -1.1439   27.4082 O   0  0  0  0  0  0  0  0  0  0  0  0
   -7.7769   -1.9626   27.7932 C   0  0  1  0  0  0  0  0  0  0  0  0
   -8.4231   -3.0486   28.5917 N   0  3  0  0  0  0  0  0  0  0  0  0
   -7.2591   -2.5437   26.4566 C   0  0  0  0  0  0  0  0  0  0  0  0
   -6.0767   -1.7332   25.9418 C   0  0  0  0  0  0  0  0  0  0  0  0
   -5.9169   -1.9475   24.4384 C   0  0  0  0  0  0  0  0  0  0  0  0
   -4.5947   -1.3965   24.0060 N   0  0  0  0  0  0  0  0  0  0  0  0
   -4.5240   -0.2531   23.3786 C   0  0  0  0  0  0  0  0  0  0  0  0
   -3.9373   -0.1627   22.3024 O   0  0  0  0  0  0  0  0  0  0  0  0
   -5.0661    0.8074   23.9026 N   0  0  0  0  0  0  0  0  0  0  0  0
  1  2  1  0  0  0  0
  1  3  2  0  0  0  0
  4  1  1  6  0  0  0
  4  6  1  0  0  0  0
  4  5  1  0  0  0  0
  6  7  1  0  0  0  0
  7  8  1  0  0  0  0
  8  9  1  0  0  0  0
  9 10  1  0  0  0  0
 10 12  1  0  0  0  0
 10 11  2  0  0  0  0
M  CHG  2   2  -1   5   1
M  END
>  <CHROM.1>
147.16144261,86.50707557,54.21530004,-158.48945921,-167.74041939,76.48314632
-6.74568017,-1.15469814,25.78771256,2.67014609,-0.72254653,2.76448441

>  <Name>
1kod cryst

>  <RI>
0

>  <Rbt.Current_Directory>
/home/itssahil/PROJECTS/Mol_Feturizer/New_Systems/rnas/1kod

>  <Rbt.Executable>
rbdock ($Id: //depot/dev/client3/rdock/2013.1/src/exe/rbdock.cxx#4 $)

>  <Rbt.Library>
libRbt.so (2013.1, Build901 2013/11/27)

>  <Rbt.Parameter_File>
/export/apps/rDock/src/rDock_2013.1_src/data/scripts/dock_solv.prm

>  <Rbt.Receptor>
prm/blind_docking_40.prm

>  <SCORE>
-32.444

>  <SCORE.INTER>
-27.8934

>  <SCORE.INTER.CONST>
1

>  <SCORE.INTER.POLAR>
-4.8366

>  <SCORE.INTER.ROT>
5

>  <SCORE.INTER.SOLV>
19.0366

>  <SCORE.INTER.VDW>
-15.7525

>  <SCORE.INTER.norm>
-2.32445

>  <SCORE.INTRA>
-4.5506

>  <SCORE.INTRA.DIHEDRAL>
-1.07165

>  <SCORE.INTRA.DIHEDRAL.0>
7.7847

>  <SCORE.INTRA.POLAR>
0

>  <SCORE.INTRA.POLAR.0>
0

>  <SCORE.INTRA.REPUL>
0

>  <SCORE.INTRA.REPUL.0>
0

>  <SCORE.INTRA.SOLV>
-2.51669

>  <SCORE.INTRA.SOLV.lig_0>
-57.5465

>  <SCORE.INTRA.VDW>
-2.75644

>  <SCORE.INTRA.VDW.0>
1.39369

>  <SCORE.INTRA.norm>
-0.379217

>  <SCORE.RESTR>
0

>  <SCORE.RESTR.CAVITY>
0

>  <SCORE.RESTR.norm>
0

>  <SCORE.SYSTEM>
0

>  <SCORE.SYSTEM.CONST>
0

>  <SCORE.SYSTEM.DIHEDRAL>
0

>  <SCORE.SYSTEM.SOLV>
0

>  <SCORE.SYSTEM.norm>
0

>  <SCORE.heavy>
12

>  <SCORE.norm>
-2.70367

>  <SYMMETRIC_BONDS>
4 1 2

>  <RMSD>
13.379

$$$$
1kod cryst
 OpenBabel11021811393D
libRbt.so/2013.1/901 2013/11/27
 12 11  0  0  0  0  0  0  0  0999 V2000
   -8.8137   -0.7628   28.3861 C   0  0  0  0  0  0  0  0  0  0  0  0
   -8.6151    0.0696   27.5138 O   0  5  0  0  0  0  0  0  0  0  0  0
   -9.6146   -0.6136   29.3005 O   0  0  0  0  0  0  0  0  0  0  0  0
   -8.0090   -2.0763   28.3266 C   0  0  1  0  0  0  0  0  0  0  0  0
   -8.8046   -3.1731   28.9579 N   0  3  0  0  0  0  0  0  0  0  0  0
   -7.6827   -2.4528   26.8624 C   0  0  0  0  0  0  0  0  0  0  0  0
   -6.5376   -1.6001   26.3319 C   0  0  0  0  0  0  0  0  0  0  0  0
   -6.2000   -2.0174   24.9023 C   0  0  0  0  0  0  0  0  0  0  0  0
   -5.3107   -0.9816   24.2900 N   0  0  0  0  0  0  0  0  0  0  0  0
   -5.0960   -0.9670   23.0017 C   0  0  0  0  0  0  0  0  0  0  0  0
   -3.9507   -0.9675   22.5560 O   0  0  0  0  0  0  0  0  0  0  0  0
   -6.1028   -0.9360   22.1779 N   0  0  0  0  0  0  0  0  0  0  0  0
  1  2  1  0  0  0  0
  1  3  2  0  0  0  0
  4  1  1  6  0  0  0
  4  6  1  0  0  0  0
  4  5  1  0  0  0  0
  6  7  1  0  0  0  0
  7  8  1  0  0  0  0
  8  9  1  0  0  0  0
  9 10  1  0  0  0  0
 10 12  1  0  0  0  0
 10 11  2  0  0  0  0
M  CHG  2   2  -1   5   1
M  END
>  <CHROM.1>
-151.49588088,77.07051650,-31.49908334,178.15217270,166.96987420,13.59588723
-7.08380979,-1.37527657,26.05736750,2.65049937,-0.89277110,2.62468693

>  <Name>
1kod cryst

>  <RI>
0

>  <Rbt.Current_Directory>
/home/itssahil/PROJECTS/Mol_Feturizer/New_Systems/rnas/1kod

>  <Rbt.Executable>
rbdock ($Id: //depot/dev/client3/rdock/2013.1/src/exe/rbdock.cxx#4 $)

>  <Rbt.Library>
libRbt.so (2013.1, Build901 2013/11/27)

>  <Rbt.Parameter_File>
/export/apps/rDock/src/rDock_2013.1_src/data/scripts/dock_solv.prm

>  <Rbt.Receptor>
prm/blind_docking_40.prm

>  <SCORE>
-34.2391

>  <SCORE.INTER>
-30.8865

>  <SCORE.INTER.CONST>
1

>  <SCORE.INTER.POLAR>
-5.93692

>  <SCORE.INTER.ROT>
5

>  <SCORE.INTER.SOLV>
20.8753

>  <SCORE.INTER.VDW>
-14.693

>  <SCORE.INTER.norm>
-2.57387

>  <SCORE.INTRA>
-3.36719

>  <SCORE.INTRA.DIHEDRAL>
-2.29685

>  <SCORE.INTRA.DIHEDRAL.0>
7.7847

>  <SCORE.INTRA.POLAR>
0

>  <SCORE.INTRA.POLAR.0>
0

>  <SCORE.INTRA.REPUL>
0

>  <SCORE.INTRA.REPUL.0>
0

>  <SCORE.INTRA.SOLV>
-2.38335

>  <SCORE.INTRA.SOLV.lig_0>
-57.5465

>  <SCORE.INTRA.VDW>
-1.02709

>  <SCORE.INTRA.VDW.0>
1.39369

>  <SCORE.INTRA.norm>
-0.2806

>  <SCORE.RESTR>
0.0145523

>  <SCORE.RESTR.CAVITY>
0.0145523

>  <SCORE.RESTR.norm>
0.00121269

>  <SCORE.SYSTEM>
0

>  <SCORE.SYSTEM.CONST>
0

>  <SCORE.SYSTEM.DIHEDRAL>
0

>  <SCORE.SYSTEM.SOLV>
0

>  <SCORE.SYSTEM.norm>
0

>  <SCORE.heavy>
12

>  <SCORE.norm>
-2.85326

>  <SYMMETRIC_BONDS>
4 1 2

>  <RMSD>
13.387

$$$$
1kod cryst
 OpenBabel11021811393D
libRbt.so/2013.1/901 2013/11/27
 12 11  0  0  0  0  0  0  0  0999 V2000
   -8.5053   -0.9104   27.1825 C   0  0  0  0  0  0  0  0  0  0  0  0
   -9.7174   -1.0480   27.1113 O   0  5  0  0  0  0  0  0  0  0  0  0
   -7.9309    0.1599   27.0267 O   0  0  0  0  0  0  0  0  0  0  0  0
   -7.6542   -2.1587   27.4888 C   0  0  1  0  0  0  0  0  0  0  0  0
   -8.3703   -3.0137   28.4842 N   0  3  0  0  0  0  0  0  0  0  0  0
   -7.3946   -2.9742   26.2006 C   0  0  0  0  0  0  0  0  0  0  0  0
   -5.9882   -2.7154   25.6763 C   0  0  0  0  0  0  0  0  0  0  0  0
   -6.0412   -1.7178   24.5214 C   0  0  0  0  0  0  0  0  0  0  0  0
   -4.6522   -1.4822   24.0176 N   0  0  0  0  0  0  0  0  0  0  0  0
   -4.3151   -0.3254   23.5133 C   0  0  0  0  0  0  0  0  0  0  0  0
   -3.8025   -0.2518   22.3987 O   0  0  0  0  0  0  0  0  0  0  0  0
   -4.5082    0.7618   24.2015 N   0  0  0  0  0  0  0  0  0  0  0  0
  1  2  1  0  0  0  0
  1  3  2  0  0  0  0
  4  1  1  6  0  0  0
  4  6  1  0  0  0  0
  4  5  1  0  0  0  0
  6  7  1  0  0  0  0
  7  8  1  0  0  0  0
  8  9  1  0  0  0  0
  9 10  1  0  0  0  0
 10 12  1  0  0  0  0
 10 11  2  0  0  0  0
M  CHG  2   2  -1   5   1
M  END
>  <CHROM.1>
-38.15778754,101.80482254,61.46930792,-100.48322060,-179.74989884,31.21716030
-6.58652501,-1.29538212,25.67366209,2.74367903,-0.72006631,2.91636068

>  <Name>
1kod cryst

>  <RI>
0

>  <Rbt.Current_Directory>
/home/itssahil/PROJECTS/Mol_Feturizer/New_Systems/rnas/1kod

>  <Rbt.Executable>
rbdock ($Id: //depot/dev/client3/rdock/2013.1/src/exe/rbdock.cxx#4 $)

>  <Rbt.Library>
libRbt.so (2013.1, Build901 2013/11/27)

>  <Rbt.Parameter_File>
/export/apps/rDock/src/rDock_2013.1_src/data/scripts/dock_solv.prm

>  <Rbt.Receptor>
prm/blind_docking_40.prm

>  <SCORE>
-31.2138

>  <SCORE.INTER>
-28.9522

>  <SCORE.INTER.CONST>
1

>  <SCORE.INTER.POLAR>
-4.75714

>  <SCORE.INTER.ROT>
5

>  <SCORE.INTER.SOLV>
18.9721

>  <SCORE.INTER.VDW>
-16.7017

>  <SCORE.INTER.norm>
-2.41268

>  <SCORE.INTRA>
-2.26165

>  <SCORE.INTRA.DIHEDRAL>
3.17192

>  <SCORE.INTRA.DIHEDRAL.0>
7.7847

>  <SCORE.INTRA.POLAR>
0

>  <SCORE.INTRA.POLAR.0>
0

>  <SCORE.INTRA.REPUL>
0

>  <SCORE.INTRA.REPUL.0>
0

>  <SCORE.INTRA.SOLV>
-2.17997

>  <SCORE.INTRA.SOLV.lig_0>
-57.5465

>  <SCORE.INTRA.VDW>
-2.75762

>  <SCORE.INTRA.VDW.0>
1.39369

>  <SCORE.INTRA.norm>
-0.18847

>  <SCORE.RESTR>
0

>  <SCORE.RESTR.CAVITY>
0

>  <SCORE.RESTR.norm>
0

>  <SCORE.SYSTEM>
0

>  <SCORE.SYSTEM.CONST>
0

>  <SCORE.SYSTEM.DIHEDRAL>
0

>  <SCORE.SYSTEM.SOLV>
0

>  <SCORE.SYSTEM.norm>
0

>  <SCORE.heavy>
12

>  <SCORE.norm>
-2.60115

>  <SYMMETRIC_BONDS>
4 1 2

>  <RMSD>
13.388

$$$$
1kod cryst
 OpenBabel11021811393D
libRbt.so/2013.1/901 2013/11/27
 12 11  0  0  0  0  0  0  0  0999 V2000
   -3.7731   -0.1145   23.9985 C   0  0  0  0  0  0  0  0  0  0  0  0
   -3.6054    0.9571   24.5615 O   0  5  0  0  0  0  0  0  0  0  0  0
   -2.8938   -0.7069   23.3857 O   0  0  0  0  0  0  0  0  0  0  0  0
   -5.1735   -0.7549   24.0686 C   0  0  1  0  0  0  0  0  0  0  0  0
   -5.7807   -0.7680   22.7026 N   0  3  0  0  0  0  0  0  0  0  0  0
   -5.0878   -2.2017   24.6087 C   0  0  0  0  0  0  0  0  0  0  0  0
   -6.4625   -2.6952   25.0406 C   0  0  0  0  0  0  0  0  0  0  0  0
   -6.8770   -2.0042   26.3378 C   0  0  0  0  0  0  0  0  0  0  0  0
   -8.0816   -2.6956   26.8941 N   0  0  0  0  0  0  0  0  0  0  0  0
   -8.9261   -2.0515   27.6544 C   0  0  0  0  0  0  0  0  0  0  0  0
   -9.2356   -2.4895   28.7602 O   0  0  0  0  0  0  0  0  0  0  0  0
   -9.4594   -0.9416   27.2339 N   0  0  0  0  0  0  0  0  0  0  0  0
  1  2  1  0  0  0  0
  1  3  2  0  0  0  0
  4  1  1  6  0  0  0
  4  6  1  0  0  0  0
  4  5  1  0  0  0  0
  6  7  1  0  0  0  0
  7  8  1  0  0  0  0
  8  9  1  0  0  0  0
  9 10  1  0  0  0  0
 10 12  1  0  0  0  0
 10 11  2  0  0  0  0
M  CHG  2   2  -1   5   1
M  END
>  <CHROM.1>
113.27165880,164.32663889,-161.37391096,-72.74757427,-168.43318693,26.62855812
-6.29302975,-1.35416982,25.41399347,-0.06576298,0.72055968,0.51024784

>  <Name>
1kod cryst

>  <RI>
0

>  <Rbt.Current_Directory>
/home/itssahil/PROJECTS/Mol_Feturizer/New_Systems/rnas/1kod

>  <Rbt.Executable>
rbdock ($Id: //depot/dev/client3/rdock/2013.1/src/exe/rbdock.cxx#4 $)

>  <Rbt.Library>
libRbt.so (2013.1, Build901 2013/11/27)

>  <Rbt.Parameter_File>
/export/apps/rDock/src/rDock_2013.1_src/data/scripts/dock_solv.prm

>  <Rbt.Receptor>
prm/blind_docking_80.prm

>  <SCORE>
-31.0317

>  <SCORE.INTER>
-26.4059

>  <SCORE.INTER.CONST>
1

>  <SCORE.INTER.POLAR>
-4.65795

>  <SCORE.INTER.ROT>
5

>  <SCORE.INTER.SOLV>
23.1766

>  <SCORE.INTER.VDW>
-16.7363

>  <SCORE.INTER.norm>
-2.2005

>  <SCORE.INTRA>
-4.62571

>  <SCORE.INTRA.DIHEDRAL>
-2.78481

>  <SCORE.INTRA.DIHEDRAL.0>
7.7847

>  <SCORE.INTRA.POLAR>
0

>  <SCORE.INTRA.POLAR.0>
0

>  <SCORE.INTRA.REPUL>
0

>  <SCORE.INTRA.REPUL.0>
0

>  <SCORE.INTRA.SOLV>
-2.54447

>  <SCORE.INTRA.SOLV.lig_0>
-57.5465

>  <SCORE.INTRA.VDW>
-1.96108

>  <SCORE.INTRA.VDW.0>
1.39369

>  <SCORE.INTRA.norm>
-0.385476

>  <SCORE.RESTR>
0

>  <SCORE.RESTR.CAVITY>
0

>  <SCORE.RESTR.norm>
0

>  <SCORE.SYSTEM>
0

>  <SCORE.SYSTEM.CONST>
0

>  <SCORE.SYSTEM.DIHEDRAL>
0

>  <SCORE.SYSTEM.SOLV>
0

>  <SCORE.SYSTEM.norm>
0

>  <SCORE.heavy>
12

>  <SCORE.norm>
-2.58597

>  <SYMMETRIC_BONDS>
4 1 2

>  <RMSD>
13.389

$$$$
1kod cryst
 OpenBabel11021811393D
libRbt.so/2013.1/901 2013/11/27
 12 11  0  0  0  0  0  0  0  0999 V2000
   -3.9269   -0.3938   24.3308 C   0  0  0  0  0  0  0  0  0  0  0  0
   -3.0919   -0.7585   23.5164 O   0  5  0  0  0  0  0  0  0  0  0  0
   -3.6545   -0.0185   25.4642 O   0  0  0  0  0  0  0  0  0  0  0  0
   -5.4072   -0.4061   23.9010 C   0  0  1  0  0  0  0  0  0  0  0  0
   -5.4942   -0.6756   22.4332 N   0  3  0  0  0  0  0  0  0  0  0  0
   -6.1924   -1.4927   24.6723 C   0  0  0  0  0  0  0  0  0  0  0  0
   -6.4739   -1.0399   26.0991 C   0  0  0  0  0  0  0  0  0  0  0  0
   -7.4725   -1.9897   26.7567 C   0  0  0  0  0  0  0  0  0  0  0  0
   -8.7948   -1.2997   26.8755 N   0  0  0  0  0  0  0  0  0  0  0  0
   -9.6213   -1.6077   27.8389 C   0  0  0  0  0  0  0  0  0  0  0  0
  -10.7837   -1.9219   27.5924 O   0  0  0  0  0  0  0  0  0  0  0  0
   -9.2180   -1.5680   29.0754 N   0  0  0  0  0  0  0  0  0  0  0  0
  1  2  1  0  0  0  0
  1  3  2  0  0  0  0
  4  1  1  1  0  0  0
  4  6  1  0  0  0  0
  4  5  1  0  0  0  0
  6  7  1  0  0  0  0
  7  8  1  0  0  0  0
  8  9  1  0  0  0  0
  9 10  1  0  0  0  0
 10 12  1  0  0  0  0
 10 11  2  0  0  0  0
M  CHG  2   2  -1   5   1
M  END
>  <CHROM.1>
-9.14301113,76.06658198,67.20777301,169.00121251,-107.29273702,28.89565157
-6.67513928,-1.09324047,25.69308022,-0.63910037,0.21426782,1.56373133

>  <Name>
1kod cryst

>  <RI>
0

>  <Rbt.Current_Directory>
/home/itssahil/PROJECTS/Mol_Feturizer/New_Systems/rnas/1kod

>  <Rbt.Executable>
rbdock ($Id: //depot/dev/client3/rdock/2013.1/src/exe/rbdock.cxx#4 $)

>  <Rbt.Library>
libRbt.so (2013.1, Build901 2013/11/27)

>  <Rbt.Parameter_File>
/export/apps/rDock/src/rDock_2013.1_src/data/scripts/dock_solv.prm

>  <Rbt.Receptor>
prm/blind_docking_100.prm

>  <SCORE>
-26.9679

>  <SCORE.INTER>
-24.0228

>  <SCORE.INTER.CONST>
1

>  <SCORE.INTER.POLAR>
-4.60271

>  <SCORE.INTER.ROT>
5

>  <SCORE.INTER.SOLV>
21.3253

>  <SCORE.INTER.VDW>
-14.7146

>  <SCORE.INTER.norm>
-2.0019

>  <SCORE.INTRA>
-2.94507

>  <SCORE.INTRA.DIHEDRAL>
0.864195

>  <SCORE.INTRA.DIHEDRAL.0>
7.7847

>  <SCORE.INTRA.POLAR>
0

>  <SCORE.INTRA.POLAR.0>
0

>  <SCORE.INTRA.REPUL>
0

>  <SCORE.INTRA.REPUL.0>
0

>  <SCORE.INTRA.SOLV>
-2.39258

>  <SCORE.INTRA.SOLV.lig_0>
-57.5465

>  <SCORE.INTRA.VDW>
-2.18087

>  <SCORE.INTRA.VDW.0>
1.39369

>  <SCORE.INTRA.norm>
-0.245422

>  <SCORE.RESTR>
0

>  <SCORE.RESTR.CAVITY>
0

>  <SCORE.RESTR.norm>
0

>  <SCORE.SYSTEM>
0

>  <SCORE.SYSTEM.CONST>
0

>  <SCORE.SYSTEM.DIHEDRAL>
0

>  <SCORE.SYSTEM.SOLV>
0

>  <SCORE.SYSTEM.norm>
0

>  <SCORE.heavy>
12

>  <SCORE.norm>
-2.24733

>  <SYMMETRIC_BONDS>
4 1 2

>  <RMSD>
13.396

$$$$
1kod cryst
 OpenBabel11021811393D
libRbt.so/2013.1/901 2013/11/27
 12 11  0  0  0  0  0  0  0  0999 V2000
   -4.4166   -0.4185   23.2143 C   0  0  0  0  0  0  0  0  0  0  0  0
   -3.8353    0.4086   22.5279 O   0  5  0  0  0  0  0  0  0  0  0  0
   -4.4054   -1.6218   22.9866 O   0  0  0  0  0  0  0  0  0  0  0  0
   -5.2063    0.0862   24.4382 C   0  0  1  0  0  0  0  0  0  0  0  0
   -5.7325    1.4568   24.1567 N   0  3  0  0  0  0  0  0  0  0  0  0
   -6.3848   -0.8628   24.7590 C   0  0  0  0  0  0  0  0  0  0  0  0
   -5.8994   -2.0737   25.5451 C   0  0  0  0  0  0  0  0  0  0  0  0
   -7.0929   -2.8179   26.1396 C   0  0  0  0  0  0  0  0  0  0  0  0
   -7.7273   -1.9607   27.1892 N   0  0  0  0  0  0  0  0  0  0  0  0
   -8.6246   -2.4558   27.9990 C   0  0  0  0  0  0  0  0  0  0  0  0
   -9.7218   -1.9166   28.1254 O   0  0  0  0  0  0  0  0  0  0  0  0
   -8.3524   -3.5224   28.6927 N   0  0  0  0  0  0  0  0  0  0  0  0
  1  2  1  0  0  0  0
  1  3  2  0  0  0  0
  4  1  1  6  0  0  0
  4  6  1  0  0  0  0
  4  5  1  0  0  0  0
  6  7  1  0  0  0  0
  7  8  1  0  0  0  0
  8  9  1  0  0  0  0
  9 10  1  0  0  0  0
 10 12  1  0  0  0  0
 10 11  2  0  0  0  0
M  CHG  2   2  -1   5   1
M  END
>  <CHROM.1>
31.11764524,80.89197573,-61.82781262,166.42096296,-67.59840444,11.53194379
-6.45571771,-1.27966729,25.47869803,-0.60452133,-0.76184177,2.86230239

>  <Name>
1kod cryst

>  <RI>
0

>  <Rbt.Current_Directory>
/home/itssahil/PROJECTS/Mol_Feturizer/New_Systems/rnas/1kod

>  <Rbt.Executable>
rbdock ($Id: //depot/dev/client3/rdock/2013.1/src/exe/rbdock.cxx#4 $)

>  <Rbt.Library>
libRbt.so (2013.1, Build901 2013/11/27)

>  <Rbt.Parameter_File>
/export/apps/rDock/src/rDock_2013.1_src/data/scripts/dock_solv.prm

>  <Rbt.Receptor>
prm/blind_docking_80.prm

>  <SCORE>
-22.8787

>  <SCORE.INTER>
-18.8034

>  <SCORE.INTER.CONST>
1

>  <SCORE.INTER.POLAR>
-2.51822

>  <SCORE.INTER.ROT>
5

>  <SCORE.INTER.SOLV>
21.377

>  <SCORE.INTER.VDW>
-18.2005

>  <SCORE.INTER.norm>
-1.56695

>  <SCORE.INTRA>
-4.07532

>  <SCORE.INTRA.DIHEDRAL>
-3.19209

>  <SCORE.INTRA.DIHEDRAL.0>
7.7847

>  <SCORE.INTRA.POLAR>
0

>  <SCORE.INTRA.POLAR.0>
0

>  <SCORE.INTRA.REPUL>
0

>  <SCORE.INTRA.REPUL.0>
0

>  <SCORE.INTRA.SOLV>
-2.21082

>  <SCORE.INTRA.SOLV.lig_0>
-57.5465

>  <SCORE.INTRA.VDW>
-1.37386

>  <SCORE.INTRA.VDW.0>
1.39369

>  <SCORE.INTRA.norm>
-0.33961

>  <SCORE.RESTR>
0

>  <SCORE.RESTR.CAVITY>
0

>  <SCORE.RESTR.norm>
0

>  <SCORE.SYSTEM>
0

>  <SCORE.SYSTEM.CONST>
0

>  <SCORE.SYSTEM.DIHEDRAL>
0

>  <SCORE.SYSTEM.SOLV>
0

>  <SCORE.SYSTEM.norm>
0

>  <SCORE.heavy>
12

>  <SCORE.norm>
-1.90656

>  <SYMMETRIC_BONDS>
4 1 2

>  <RMSD>
13.407

$$$$
1kod cryst
 OpenBabel11021811393D
libRbt.so/2013.1/901 2013/11/27
 12 11  0  0  0  0  0  0  0  0999 V2000
   -5.1607   -0.7477   24.1485 C   0  0  0  0  0  0  0  0  0  0  0  0
   -4.0104   -0.5486   23.7872 O   0  5  0  0  0  0  0  0  0  0  0  0
   -6.0080    0.1318   24.2397 O   0  0  0  0  0  0  0  0  0  0  0  0
   -5.5648   -2.1915   24.5066 C   0  0  1  0  0  0  0  0  0  0  0  0
   -4.4944   -3.1317   24.0541 N   0  3  0  0  0  0  0  0  0  0  0  0
   -5.7707   -2.3403   26.0323 C   0  0  0  0  0  0  0  0  0  0  0  0
   -7.0588   -1.6548   26.4689 C   0  0  0  0  0  0  0  0  0  0  0  0
   -8.1580   -2.6959   26.6681 C   0  0  0  0  0  0  0  0  0  0  0  0
   -8.1032   -3.1984   28.0763 N   0  0  0  0  0  0  0  0  0  0  0  0
   -8.7984   -2.6174   29.0171 C   0  0  0  0  0  0  0  0  0  0  0  0
   -8.2567   -2.2311   30.0505 O   0  0  0  0  0  0  0  0  0  0  0  0
  -10.0813   -2.4576   28.8692 N   0  0  0  0  0  0  0  0  0  0  0  0
  1  2  1  0  0  0  0
  1  3  2  0  0  0  0
  4  1  1  1  0  0  0
  4  6  1  0  0  0  0
  4  5  1  0  0  0  0
  6  7  1  0  0  0  0
  7  8  1  0  0  0  0
  8  9  1  0  0  0  0
  9 10  1  0  0  0  0
 10 12  1  0  0  0  0
 10 11  2  0  0  0  0
M  CHG  2   2  -1   5   1
M  END
>  <CHROM.1>
-11.87299322,72.86233229,49.33619963,101.16984994,88.53557891,-89.43416676
-6.77170752,-1.98198187,26.31972842,0.46109619,0.79079143,-0.35478587

>  <Name>
1kod cryst

>  <RI>
0

>  <Rbt.Current_Directory>
/home/itssahil/PROJECTS/Mol_Feturizer/New_Systems/rnas/1kod

>  <Rbt.Executable>
rbdock ($Id: //depot/dev/client3/rdock/2013.1/src/exe/rbdock.cxx#4 $)

>  <Rbt.Library>
libRbt.so (2013.1, Build901 2013/11/27)

>  <Rbt.Parameter_File>
/export/apps/rDock/src/rDock_2013.1_src/data/scripts/dock_solv.prm

>  <Rbt.Receptor>
prm/blind_docking_60.prm

>  <SCORE>
-22.6072

>  <SCORE.INTER>
-20.5831

>  <SCORE.INTER.CONST>
1

>  <SCORE.INTER.POLAR>
-4.1924

>  <SCORE.INTER.ROT>
5

>  <SCORE.INTER.SOLV>
22.0928

>  <SCORE.INTER.VDW>
-14.045

>  <SCORE.INTER.norm>
-1.71526

>  <SCORE.INTRA>
-2.02404

>  <SCORE.INTRA.DIHEDRAL>
2.59027

>  <SCORE.INTRA.DIHEDRAL.0>
7.7847

>  <SCORE.INTRA.POLAR>
0

>  <SCORE.INTRA.POLAR.0>
0

>  <SCORE.INTRA.REPUL>
0

>  <SCORE.INTRA.REPUL.0>
0

>  <SCORE.INTRA.SOLV>
-2.00358

>  <SCORE.INTRA.SOLV.lig_0>
-57.5465

>  <SCORE.INTRA.VDW>
-2.31738

>  <SCORE.INTRA.VDW.0>
1.39369

>  <SCORE.INTRA.norm>
-0.16867

>  <SCORE.RESTR>
0

>  <SCORE.RESTR.CAVITY>
0

>  <SCORE.RESTR.norm>
0

>  <SCORE.SYSTEM>
0

>  <SCORE.SYSTEM.CONST>
0

>  <SCORE.SYSTEM.DIHEDRAL>
0

>  <SCORE.SYSTEM.SOLV>
0

>  <SCORE.SYSTEM.norm>
0

>  <SCORE.heavy>
12

>  <SCORE.norm>
-1.88393

>  <SYMMETRIC_BONDS>
4 1 2

>  <RMSD>
13.417

$$$$
1kod cryst
 OpenBabel11021811393D
libRbt.so/2013.1/901 2013/11/27
 12 11  0  0  0  0  0  0  0  0999 V2000
   -8.5897   -0.9497   27.5952 C   0  0  0  0  0  0  0  0  0  0  0  0
   -9.7638   -1.2740   27.6941 O   0  5  0  0  0  0  0  0  0  0  0  0
   -8.2001    0.2112   27.6095 O   0  0  0  0  0  0  0  0  0  0  0  0
   -7.5417   -2.0704   27.4467 C   0  0  1  0  0  0  0  0  0  0  0  0
   -8.1305   -3.3633   27.9118 N   0  3  0  0  0  0  0  0  0  0  0  0
   -7.0927   -2.2087   25.9731 C   0  0  0  0  0  0  0  0  0  0  0  0
   -5.6690   -1.6971   25.7961 C   0  0  0  0  0  0  0  0  0  0  0  0
   -5.2368   -1.8612   24.3407 C   0  0  0  0  0  0  0  0  0  0  0  0
   -5.9040   -0.8083   23.5132 N   0  0  0  0  0  0  0  0  0  0  0  0
   -5.3216    0.3421   23.3051 C   0  0  0  0  0  0  0  0  0  0  0  0
   -5.9043    1.3951   23.5546 O   0  0  0  0  0  0  0  0  0  0  0  0
   -4.1172    0.3786   22.8140 N   0  0  0  0  0  0  0  0  0  0  0  0
  1  2  1  0  0  0  0
  1  3  2  0  0  0  0
  4  1  1  6  0  0  0
  4  6  1  0  0  0  0
  4  5  1  0  0  0  0
  6  7  1  0  0  0  0
  7  8  1  0  0  0  0
  8  9  1  0  0  0  0
  9 10  1  0  0  0  0
 10 12  1  0  0  0  0
 10 11  2  0  0  0  0
M  CHG  2   2  -1   5   1
M  END
>  <CHROM.1>
-19.08689768,108.50614684,-111.41328211,179.15558704,75.23872917,-88.75515620
-6.81024788,-0.99438219,25.63778460,2.51753450,-0.75890613,2.75030374

>  <Name>
1kod cryst

>  <RI>
0

>  <Rbt.Current_Directory>
/home/itssahil/PROJECTS/Mol_Feturizer/New_Systems/rnas/1kod

>  <Rbt.Executable>
rbdock ($Id: //depot/dev/client3/rdock/2013.1/src/exe/rbdock.cxx#4 $)

>  <Rbt.Library>
libRbt.so (2013.1, Build901 2013/11/27)

>  <Rbt.Parameter_File>
/export/apps/rDock/src/rDock_2013.1_src/data/scripts/dock_solv.prm

>  <Rbt.Receptor>
prm/blind_docking_40.prm

>  <SCORE>
-25.7516

>  <SCORE.INTER>
-24.349

>  <SCORE.INTER.CONST>
1

>  <SCORE.INTER.POLAR>
-3.61455

>  <SCORE.INTER.ROT>
5

>  <SCORE.INTER.SOLV>
20.1605

>  <SCORE.INTER.VDW>
-17.8377

>  <SCORE.INTER.norm>
-2.02908

>  <SCORE.INTRA>
-1.40259

>  <SCORE.INTRA.DIHEDRAL>
3.38961

>  <SCORE.INTRA.DIHEDRAL.0>
7.7847

>  <SCORE.INTRA.POLAR>
0

>  <SCORE.INTRA.POLAR.0>
0

>  <SCORE.INTRA.REPUL>
0

>  <SCORE.INTRA.REPUL.0>
0

>  <SCORE.INTRA.SOLV>
-2.45218

>  <SCORE.INTRA.SOLV.lig_0>
-57.5465

>  <SCORE.INTRA.VDW>
-1.87131

>  <SCORE.INTRA.VDW.0>
1.39369

>  <SCORE.INTRA.norm>
-0.116883

>  <SCORE.RESTR>
0

>  <SCORE.RESTR.CAVITY>
0

>  <SCORE.RESTR.norm>
0

>  <SCORE.SYSTEM>
0

>  <SCORE.SYSTEM.CONST>
0

>  <SCORE.SYSTEM.DIHEDRAL>
0

>  <SCORE.SYSTEM.SOLV>
0

>  <SCORE.SYSTEM.norm>
0

>  <SCORE.heavy>
12

>  <SCORE.norm>
-2.14597

>  <SYMMETRIC_BONDS>
4 1 2

>  <RMSD>
13.426

$$$$
1kod cryst
 OpenBabel11021811393D
libRbt.so/2013.1/901 2013/11/27
 12 11  0  0  0  0  0  0  0  0999 V2000
   -8.8282   -0.9328   27.4907 C   0  0  0  0  0  0  0  0  0  0  0  0
   -8.4330    0.2235   27.5010 O   0  5  0  0  0  0  0  0  0  0  0  0
   -9.9897   -1.2538   27.2727 O   0  0  0  0  0  0  0  0  0  0  0  0
   -7.8011   -2.0488   27.7661 C   0  0  1  0  0  0  0  0  0  0  0  0
   -8.4573   -3.1448   28.5425 N   0  3  0  0  0  0  0  0  0  0  0  0
   -7.2427   -2.6185   26.4410 C   0  0  0  0  0  0  0  0  0  0  0  0
   -6.1006   -1.7533   25.9244 C   0  0  0  0  0  0  0  0  0  0  0  0
   -5.9372   -1.9553   24.4196 C   0  0  0  0  0  0  0  0  0  0  0  0
   -4.6124   -1.4042   23.9955 N   0  0  0  0  0  0  0  0  0  0  0  0
   -4.5369   -0.2553   23.3788 C   0  0  0  0  0  0  0  0  0  0  0  0
   -3.9472   -0.1567   22.3049 O   0  0  0  0  0  0  0  0  0  0  0  0
   -5.0772    0.8020   23.9112 N   0  0  0  0  0  0  0  0  0  0  0  0
  1  2  1  0  0  0  0
  1  3  2  0  0  0  0
  4  1  1  6  0  0  0
  4  6  1  0  0  0  0
  4  5  1  0  0  0  0
  6  7  1  0  0  0  0
  7  8  1  0  0  0  0
  8  9  1  0  0  0  0
  9 10  1  0  0  0  0
 10 12  1  0  0  0  0
 10 11  2  0  0  0  0
M  CHG  2   2  -1   5   1
M  END
>  <CHROM.1>
144.20623719,83.64875541,174.44415782,-157.28162126,-164.93645832,76.52376759
-6.76469755,-1.20393542,25.76310821,2.65833957,-0.71251526,2.76897132

>  <Name>
1kod cryst

>  <RI>
0

>  <Rbt.Current_Directory>
/home/itssahil/PROJECTS/Mol_Feturizer/New_Systems/rnas/1kod

>  <Rbt.Executable>
rbdock ($Id: //depot/dev/client3/rdock/2013.1/src/exe/rbdock.cxx#4 $)

>  <Rbt.Library>
libRbt.so (2013.1, Build901 2013/11/27)

>  <Rbt.Parameter_File>
/export/apps/rDock/src/rDock_2013.1_src/data/scripts/dock_solv.prm

>  <Rbt.Receptor>
prm/blind_docking_80.prm

>  <SCORE>
-32.0923

>  <SCORE.INTER>
-27.6895

>  <SCORE.INTER.CONST>
1

>  <SCORE.INTER.POLAR>
-4.77977

>  <SCORE.INTER.ROT>
5

>  <SCORE.INTER.SOLV>
19.801

>  <SCORE.INTER.VDW>
-16.0607

>  <SCORE.INTER.norm>
-2.30746

>  <SCORE.INTRA>
-4.52632

>  <SCORE.INTRA.DIHEDRAL>
-1.00586

>  <SCORE.INTRA.DIHEDRAL.0>
7.7847

>  <SCORE.INTRA.POLAR>
0

>  <SCORE.INTRA.POLAR.0>
0

>  <SCORE.INTRA.REPUL>
0

>  <SCORE.INTRA.REPUL.0>
0

>  <SCORE.INTRA.SOLV>
-2.53031

>  <SCORE.INTRA.SOLV.lig_0>
-57.5465

>  <SCORE.INTRA.VDW>
-2.75824

>  <SCORE.INTRA.VDW.0>
1.39369

>  <SCORE.INTRA.norm>
-0.377193

>  <SCORE.RESTR>
0.123504

>  <SCORE.RESTR.CAVITY>
0.123504

>  <SCORE.RESTR.norm>
0.010292

>  <SCORE.SYSTEM>
0

>  <SCORE.SYSTEM.CONST>
0

>  <SCORE.SYSTEM.DIHEDRAL>
0

>  <SCORE.SYSTEM.SOLV>
0

>  <SCORE.SYSTEM.norm>
0

>  <SCORE.heavy>
12

>  <SCORE.norm>
-2.67436

>  <SYMMETRIC_BONDS>
4 1 2

>  <RMSD>
13.429

$$$$
1kod cryst
 OpenBabel11021811393D
libRbt.so/2013.1/901 2013/11/27
 12 11  0  0  0  0  0  0  0  0999 V2000
   -8.9429   -0.9818   27.8013 C   0  0  0  0  0  0  0  0  0  0  0  0
  -10.0858   -1.2563   27.4672 O   0  5  0  0  0  0  0  0  0  0  0  0
   -8.4992    0.1591   27.8375 O   0  0  0  0  0  0  0  0  0  0  0  0
   -8.0101   -2.1417   28.2022 C   0  0  1  0  0  0  0  0  0  0  0  0
   -8.7959   -3.1756   28.9424 N   0  3  0  0  0  0  0  0  0  0  0  0
   -7.3643   -2.7825   26.9513 C   0  0  0  0  0  0  0  0  0  0  0  0
   -6.5425   -1.7539   26.1855 C   0  0  0  0  0  0  0  0  0  0  0  0
   -5.9959   -2.3779   24.9035 C   0  0  0  0  0  0  0  0  0  0  0  0
   -6.1154   -1.3857   23.7899 N   0  0  0  0  0  0  0  0  0  0  0  0
   -5.1420   -0.5533   23.5338 C   0  0  0  0  0  0  0  0  0  0  0  0
   -5.3498    0.6566   23.4748 O   0  0  0  0  0  0  0  0  0  0  0  0
   -3.9407   -1.0069   23.3231 N   0  0  0  0  0  0  0  0  0  0  0  0
  1  2  1  0  0  0  0
  1  3  2  0  0  0  0
  4  1  1  6  0  0  0
  4  6  1  0  0  0  0
  4  5  1  0  0  0  0
  6  7  1  0  0  0  0
  7  8  1  0  0  0  0
  8  9  1  0  0  0  0
  9 10  1  0  0  0  0
 10 12  1  0  0  0  0
 10 11  2  0  0  0  0
M  CHG  2   2  -1   5   1
M  END
>  <CHROM.1>
-36.92455943,60.04252467,-48.21019332,-175.97275328,138.73236694,-89.63705215
-7.08254324,-1.38368300,26.04298789,2.61898770,-0.74225163,2.68213831

>  <Name>
1kod cryst

>  <RI>
0

>  <Rbt.Current_Directory>
/home/itssahil/PROJECTS/Mol_Feturizer/New_Systems/rnas/1kod

>  <Rbt.Executable>
rbdock ($Id: //depot/dev/client3/rdock/2013.1/src/exe/rbdock.cxx#4 $)

>  <Rbt.Library>
libRbt.so (2013.1, Build901 2013/11/27)

>  <Rbt.Parameter_File>
/export/apps/rDock/src/rDock_2013.1_src/data/scripts/dock_solv.prm

>  <Rbt.Receptor>
prm/blind_docking_80.prm

>  <SCORE>
-34.2354

>  <SCORE.INTER>
-30.3965

>  <SCORE.INTER.CONST>
1

>  <SCORE.INTER.POLAR>
-5.06817

>  <SCORE.INTER.ROT>
5

>  <SCORE.INTER.SOLV>
20.623

>  <SCORE.INTER.VDW>
-17.1781

>  <SCORE.INTER.norm>
-2.53304

>  <SCORE.INTRA>
-3.89797

>  <SCORE.INTRA.DIHEDRAL>
-0.844247

>  <SCORE.INTRA.DIHEDRAL.0>
7.7847

>  <SCORE.INTRA.POLAR>
0

>  <SCORE.INTRA.POLAR.0>
0

>  <SCORE.INTRA.REPUL>
0

>  <SCORE.INTRA.REPUL.0>
0

>  <SCORE.INTRA.SOLV>
-2.37615

>  <SCORE.INTRA.SOLV.lig_0>
-57.5465

>  <SCORE.INTRA.VDW>
-2.28777

>  <SCORE.INTRA.VDW.0>
1.39369

>  <SCORE.INTRA.norm>
-0.324831

>  <SCORE.RESTR>
0.0590512

>  <SCORE.RESTR.CAVITY>
0.0590512

>  <SCORE.RESTR.norm>
0.00492094

>  <SCORE.SYSTEM>
0

>  <SCORE.SYSTEM.CONST>
0

>  <SCORE.SYSTEM.DIHEDRAL>
0

>  <SCORE.SYSTEM.SOLV>
0

>  <SCORE.SYSTEM.norm>
0

>  <SCORE.heavy>
12

>  <SCORE.norm>
-2.85295

>  <SYMMETRIC_BONDS>
4 1 2

>  <RMSD>
13.432

$$$$
1kod cryst
 OpenBabel11021811393D
libRbt.so/2013.1/901 2013/11/27
 12 11  0  0  0  0  0  0  0  0999 V2000
   -9.0477   -0.9144   27.9765 C   0  0  0  0  0  0  0  0  0  0  0  0
  -10.1690   -1.1628   27.5588 O   0  5  0  0  0  0  0  0  0  0  0  0
   -8.6438    0.2175   28.2119 O   0  0  0  0  0  0  0  0  0  0  0  0
   -8.0907   -2.0976   28.2222 C   0  0  1  0  0  0  0  0  0  0  0  0
   -8.8115   -3.1688   28.9756 N   0  3  0  0  0  0  0  0  0  0  0  0
   -7.5716   -2.6696   26.8822 C   0  0  0  0  0  0  0  0  0  0  0  0
   -6.7989   -1.6085   26.1097 C   0  0  0  0  0  0  0  0  0  0  0  0
   -6.1438   -2.2362   24.8813 C   0  0  0  0  0  0  0  0  0  0  0  0
   -6.1608   -1.2450   23.7607 N   0  0  0  0  0  0  0  0  0  0  0  0
   -5.1460   -0.4465   23.5638 C   0  0  0  0  0  0  0  0  0  0  0  0
   -5.3089    0.7694   23.4898 O   0  0  0  0  0  0  0  0  0  0  0  0
   -3.9500   -0.9409   23.4287 N   0  0  0  0  0  0  0  0  0  0  0  0
  1  2  1  0  0  0  0
  1  3  2  0  0  0  0
  4  1  1  6  0  0  0
  4  6  1  0  0  0  0
  4  5  1  0  0  0  0
  6  7  1  0  0  0  0
  7  8  1  0  0  0  0
  8  9  1  0  0  0  0
  9 10  1  0  0  0  0
 10 12  1  0  0  0  0
 10 11  2  0  0  0  0
M  CHG  2   2  -1   5   1
M  END
>  <CHROM.1>
-46.80277002,60.92792536,-43.94283702,172.75241112,144.62561158,-87.35757763
-7.16784314,-1.29368781,26.09956580,2.67708819,-0.77485852,2.76268522

>  <Name>
1kod cryst

>  <RI>
0

>  <Rbt.Current_Directory>
/home/itssahil/PROJECTS/Mol_Feturizer/New_Systems/rnas/1kod

>  <Rbt.Executable>
rbdock ($Id: //depot/dev/client3/rdock/2013.1/src/exe/rbdock.cxx#4 $)

>  <Rbt.Library>
libRbt.so (2013.1, Build901 2013/11/27)

>  <Rbt.Parameter_File>
/export/apps/rDock/src/rDock_2013.1_src/data/scripts/dock_solv.prm

>  <Rbt.Receptor>
prm/blind_docking_40.prm

>  <SCORE>
-34.1166

>  <SCORE.INTER>
-29.9393

>  <SCORE.INTER.CONST>
1

>  <SCORE.INTER.POLAR>
-4.96789

>  <SCORE.INTER.ROT>
5

>  <SCORE.INTER.SOLV>
20.1157

>  <SCORE.INTER.VDW>
-17.0385

>  <SCORE.INTER.norm>
-2.49494

>  <SCORE.INTRA>
-4.17729

>  <SCORE.INTRA.DIHEDRAL>
-1.19442

>  <SCORE.INTRA.DIHEDRAL.0>
7.7847

>  <SCORE.INTRA.POLAR>
0

>  <SCORE.INTRA.POLAR.0>
0

>  <SCORE.INTRA.REPUL>
0

>  <SCORE.INTRA.REPUL.0>
0

>  <SCORE.INTRA.SOLV>
-2.57682

>  <SCORE.INTRA.SOLV.lig_0>
-57.5465

>  <SCORE.INTRA.VDW>
-2.29167

>  <SCORE.INTRA.VDW.0>
1.39369

>  <SCORE.INTRA.norm>
-0.348107

>  <SCORE.RESTR>
0

>  <SCORE.RESTR.CAVITY>
0

>  <SCORE.RESTR.norm>
0

>  <SCORE.SYSTEM>
0

>  <SCORE.SYSTEM.CONST>
0

>  <SCORE.SYSTEM.DIHEDRAL>
0

>  <SCORE.SYSTEM.SOLV>
0

>  <SCORE.SYSTEM.norm>
0

>  <SCORE.heavy>
12

>  <SCORE.norm>
-2.84305

>  <SYMMETRIC_BONDS>
4 1 2

>  <RMSD>
13.433

$$$$
1kod cryst
 OpenBabel11021811393D
libRbt.so/2013.1/901 2013/11/27
 12 11  0  0  0  0  0  0  0  0999 V2000
   -3.5977   -0.4207   23.4955 C   0  0  0  0  0  0  0  0  0  0  0  0
   -3.4341    0.1726   22.4398 O   0  5  0  0  0  0  0  0  0  0  0  0
   -2.6940   -0.6722   24.2827 O   0  0  0  0  0  0  0  0  0  0  0  0
   -5.0266   -0.8746   23.8540 C   0  0  1  0  0  0  0  0  0  0  0  0
   -5.8994   -0.7622   22.6457 N   0  3  0  0  0  0  0  0  0  0  0  0
   -5.0268   -2.3375   24.3561 C   0  0  0  0  0  0  0  0  0  0  0  0
   -5.7343   -2.4429   25.7007 C   0  0  0  0  0  0  0  0  0  0  0  0
   -7.2118   -2.0929   25.5377 C   0  0  0  0  0  0  0  0  0  0  0  0
   -7.9813   -2.6881   26.6744 N   0  0  0  0  0  0  0  0  0  0  0  0
   -8.4499   -1.9301   27.6293 C   0  0  0  0  0  0  0  0  0  0  0  0
   -8.1979   -2.1758   28.8068 O   0  0  0  0  0  0  0  0  0  0  0  0
   -9.2046   -0.9115   27.3359 N   0  0  0  0  0  0  0  0  0  0  0  0
  1  2  1  0  0  0  0
  1  3  2  0  0  0  0
  4  1  1  6  0  0  0
  4  6  1  0  0  0  0
  4  5  1  0  0  0  0
  6  7  1  0  0  0  0
  7  8  1  0  0  0  0
  8  9  1  0  0  0  0
  9 10  1  0  0  0  0
 10 12  1  0  0  0  0
 10 11  2  0  0  0  0
M  CHG  2   2  -1   5   1
M  END
>  <CHROM.1>
13.27113629,127.39965225,69.81918026,65.09426443,158.35835617,-73.12727821
-6.05402922,-1.40943131,25.21035046,-0.78432063,-0.07887346,1.96357531

>  <Name>
1kod cryst

>  <RI>
0

>  <Rbt.Current_Directory>
/home/itssahil/PROJECTS/Mol_Feturizer/New_Systems/rnas/1kod

>  <Rbt.Executable>
rbdock ($Id: //depot/dev/client3/rdock/2013.1/src/exe/rbdock.cxx#4 $)

>  <Rbt.Library>
libRbt.so (2013.1, Build901 2013/11/27)

>  <Rbt.Parameter_File>
/export/apps/rDock/src/rDock_2013.1_src/data/scripts/dock_solv.prm

>  <Rbt.Receptor>
prm/blind_docking_100.prm

>  <SCORE>
-28.7385

>  <SCORE.INTER>
-26.6459

>  <SCORE.INTER.CONST>
1

>  <SCORE.INTER.POLAR>
-5.24617

>  <SCORE.INTER.ROT>
5

>  <SCORE.INTER.SOLV>
27.5523

>  <SCORE.INTER.VDW>
-16.3941

>  <SCORE.INTER.norm>
-2.22049

>  <SCORE.INTRA>
-2.0926

>  <SCORE.INTRA.DIHEDRAL>
1.33059

>  <SCORE.INTRA.DIHEDRAL.0>
7.7847

>  <SCORE.INTRA.POLAR>
0

>  <SCORE.INTRA.POLAR.0>
0

>  <SCORE.INTRA.REPUL>
0

>  <SCORE.INTRA.REPUL.0>
0

>  <SCORE.INTRA.SOLV>
-1.85493

>  <SCORE.INTRA.SOLV.lig_0>
-57.5465

>  <SCORE.INTRA.VDW>
-1.83043

>  <SCORE.INTRA.VDW.0>
1.39369

>  <SCORE.INTRA.norm>
-0.174383

>  <SCORE.RESTR>
0

>  <SCORE.RESTR.CAVITY>
0

>  <SCORE.RESTR.norm>
0

>  <SCORE.SYSTEM>
0

>  <SCORE.SYSTEM.CONST>
0

>  <SCORE.SYSTEM.DIHEDRAL>
0

>  <SCORE.SYSTEM.SOLV>
0

>  <SCORE.SYSTEM.norm>
0

>  <SCORE.heavy>
12

>  <SCORE.norm>
-2.39488

>  <SYMMETRIC_BONDS>
4 1 2

>  <RMSD>
13.434

$$$$
1kod cryst
 OpenBabel11021811393D
libRbt.so/2013.1/901 2013/11/27
 12 11  0  0  0  0  0  0  0  0999 V2000
   -9.4536   -1.0171   28.3120 C   0  0  0  0  0  0  0  0  0  0  0  0
  -10.5731   -1.4801   28.4727 O   0  5  0  0  0  0  0  0  0  0  0  0
   -9.2116    0.1828   28.2743 O   0  0  0  0  0  0  0  0  0  0  0  0
   -8.2809   -2.0045   28.1506 C   0  0  1  0  0  0  0  0  0  0  0  0
   -8.6100   -3.2828   28.8522 N   0  3  0  0  0  0  0  0  0  0  0  0
   -8.0088   -2.2921   26.6555 C   0  0  0  0  0  0  0  0  0  0  0  0
   -6.5553   -2.6942   26.4426 C   0  0  0  0  0  0  0  0  0  0  0  0
   -6.2600   -2.7983   24.9480 C   0  0  0  0  0  0  0  0  0  0  0  0
   -6.2837   -1.4268   24.3505 N   0  0  0  0  0  0  0  0  0  0  0  0
   -5.1726   -0.8310   24.0091 C   0  0  0  0  0  0  0  0  0  0  0  0
   -4.9110    0.2958   24.4246 O   0  0  0  0  0  0  0  0  0  0  0  0
   -4.3379   -1.4271   23.2084 N   0  0  0  0  0  0  0  0  0  0  0  0
  1  2  1  0  0  0  0
  1  3  2  0  0  0  0
  4  1  1  6  0  0  0
  4  6  1  0  0  0  0
  4  5  1  0  0  0  0
  6  7  1  0  0  0  0
  7  8  1  0  0  0  0
  8  9  1  0  0  0  0
  9 10  1  0  0  0  0
 10 12  1  0  0  0  0
 10 11  2  0  0  0  0
M  CHG  2   2  -1   5   1
M  END
>  <CHROM.1>
-27.10181514,153.75391921,66.69827722,-172.73427463,69.49237825,-74.06991953
-7.31583485,-1.56725906,26.35409088,2.91118527,-0.78077622,2.93790192

>  <Name>
1kod cryst

>  <RI>
0

>  <Rbt.Current_Directory>
/home/itssahil/PROJECTS/Mol_Feturizer/New_Systems/rnas/1kod

>  <Rbt.Executable>
rbdock ($Id: //depot/dev/client3/rdock/2013.1/src/exe/rbdock.cxx#4 $)

>  <Rbt.Library>
libRbt.so (2013.1, Build901 2013/11/27)

>  <Rbt.Parameter_File>
/export/apps/rDock/src/rDock_2013.1_src/data/scripts/dock_solv.prm

>  <Rbt.Receptor>
prm/blind_docking_40.prm

>  <SCORE>
-29.5948

>  <SCORE.INTER>
-24.4086

>  <SCORE.INTER.CONST>
1

>  <SCORE.INTER.POLAR>
-3.8675

>  <SCORE.INTER.ROT>
5

>  <SCORE.INTER.SOLV>
18.0697

>  <SCORE.INTER.VDW>
-16.3373

>  <SCORE.INTER.norm>
-2.03405

>  <SCORE.INTRA>
-5.18637

>  <SCORE.INTRA.DIHEDRAL>
-2.80874

>  <SCORE.INTRA.DIHEDRAL.0>
7.7847

>  <SCORE.INTRA.POLAR>
0

>  <SCORE.INTRA.POLAR.0>
0

>  <SCORE.INTRA.REPUL>
0

>  <SCORE.INTRA.REPUL.0>
0

>  <SCORE.INTRA.SOLV>
-2.31116

>  <SCORE.INTRA.SOLV.lig_0>
-57.5465

>  <SCORE.INTRA.VDW>
-2.62642

>  <SCORE.INTRA.VDW.0>
1.39369

>  <SCORE.INTRA.norm>
-0.432198

>  <SCORE.RESTR>
0.000250127

>  <SCORE.RESTR.CAVITY>
0.000250127

>  <SCORE.RESTR.norm>
2.08439e-05

>  <SCORE.SYSTEM>
0

>  <SCORE.SYSTEM.CONST>
0

>  <SCORE.SYSTEM.DIHEDRAL>
0

>  <SCORE.SYSTEM.SOLV>
0

>  <SCORE.SYSTEM.norm>
0

>  <SCORE.heavy>
12

>  <SCORE.norm>
-2.46623

>  <SYMMETRIC_BONDS>
4 1 2

>  <RMSD>
13.435

$$$$
1kod cryst
 OpenBabel11021811393D
libRbt.so/2013.1/901 2013/11/27
 12 11  0  0  0  0  0  0  0  0999 V2000
   -5.4379    1.3215   23.6750 C   0  0  0  0  0  0  0  0  0  0  0  0
   -4.2633    1.6582   23.6933 O   0  5  0  0  0  0  0  0  0  0  0  0
   -6.3734    2.1109   23.7100 O   0  0  0  0  0  0  0  0  0  0  0  0
   -5.7554   -0.1852   23.6009 C   0  0  1  0  0  0  0  0  0  0  0  0
   -4.6793   -0.8805   22.8308 N   0  3  0  0  0  0  0  0  0  0  0  0
   -5.8510   -0.7952   25.0190 C   0  0  0  0  0  0  0  0  0  0  0  0
   -6.3996   -2.2147   24.9562 C   0  0  0  0  0  0  0  0  0  0  0  0
   -6.5041   -2.7926   26.3658 C   0  0  0  0  0  0  0  0  0  0  0  0
   -7.3774   -1.9030   27.1931 N   0  0  0  0  0  0  0  0  0  0  0  0
   -8.4886   -2.3555   27.7092 C   0  0  0  0  0  0  0  0  0  0  0  0
   -9.5531   -1.7716   27.5180 O   0  0  0  0  0  0  0  0  0  0  0  0
   -8.4706   -3.4272   28.4469 N   0  0  0  0  0  0  0  0  0  0  0  0
  1  2  1  0  0  0  0
  1  3  2  0  0  0  0
  4  1  1  1  0  0  0
  4  6  1  0  0  0  0
  4  5  1  0  0  0  0
  6  7  1  0  0  0  0
  7  8  1  0  0  0  0
  8  9  1  0  0  0  0
  9 10  1  0  0  0  0
 10 12  1  0  0  0  0
 10 11  2  0  0  0  0
M  CHG  2   2  -1   5   1
M  END
>  <CHROM.1>
-31.49864024,170.13932379,-39.96508150,-179.24610320,57.56027841,-61.50726484
-6.58413266,-0.93091825,25.38468438,0.82314266,0.72712911,-0.32628210

>  <Name>
1kod cryst

>  <RI>
0

>  <Rbt.Current_Directory>
/home/itssahil/PROJECTS/Mol_Feturizer/New_Systems/rnas/1kod

>  <Rbt.Executable>
rbdock ($Id: //depot/dev/client3/rdock/2013.1/src/exe/rbdock.cxx#4 $)

>  <Rbt.Library>
libRbt.so (2013.1, Build901 2013/11/27)

>  <Rbt.Parameter_File>
/export/apps/rDock/src/rDock_2013.1_src/data/scripts/dock_solv.prm

>  <Rbt.Receptor>
prm/blind_docking_60.prm

>  <SCORE>
-23.4565

>  <SCORE.INTER>
-18.2095

>  <SCORE.INTER.CONST>
1

>  <SCORE.INTER.POLAR>
-2.47242

>  <SCORE.INTER.ROT>
5

>  <SCORE.INTER.SOLV>
21.7708

>  <SCORE.INTER.VDW>
-18.0886

>  <SCORE.INTER.norm>
-1.51746

>  <SCORE.INTRA>
-5.24696

>  <SCORE.INTRA.DIHEDRAL>
-4.27748

>  <SCORE.INTRA.DIHEDRAL.0>
7.7847

>  <SCORE.INTRA.POLAR>
0

>  <SCORE.INTRA.POLAR.0>
0

>  <SCORE.INTRA.REPUL>
0

>  <SCORE.INTRA.REPUL.0>
0

>  <SCORE.INTRA.SOLV>
-2.13783

>  <SCORE.INTRA.SOLV.lig_0>
-57.5465

>  <SCORE.INTRA.VDW>
-2.03931

>  <SCORE.INTRA.VDW.0>
1.39369

>  <SCORE.INTRA.norm>
-0.437247

>  <SCORE.RESTR>
0

>  <SCORE.RESTR.CAVITY>
0

>  <SCORE.RESTR.norm>
0

>  <SCORE.SYSTEM>
0

>  <SCORE.SYSTEM.CONST>
0

>  <SCORE.SYSTEM.DIHEDRAL>
0

>  <SCORE.SYSTEM.SOLV>
0

>  <SCORE.SYSTEM.norm>
0

>  <SCORE.heavy>
12

>  <SCORE.norm>
-1.95471

>  <SYMMETRIC_BONDS>
4 1 2

>  <RMSD>
13.442

$$$$
1kod cryst
 OpenBabel11021811393D
libRbt.so/2013.1/901 2013/11/27
 12 11  0  0  0  0  0  0  0  0999 V2000
   -8.8134   -1.0351   27.6730 C   0  0  0  0  0  0  0  0  0  0  0  0
   -9.9607   -1.2142   27.2922 O   0  5  0  0  0  0  0  0  0  0  0  0
   -8.2940    0.0693   27.7746 O   0  0  0  0  0  0  0  0  0  0  0  0
   -7.9762   -2.2737   28.0485 C   0  0  1  0  0  0  0  0  0  0  0  0
   -8.7847   -3.1682   28.9322 N   0  3  0  0  0  0  0  0  0  0  0  0
   -7.5485   -3.0505   26.7813 C   0  0  0  0  0  0  0  0  0  0  0  0
   -6.3414   -2.3892   26.1289 C   0  0  0  0  0  0  0  0  0  0  0  0
   -6.7974   -1.2144   25.2665 C   0  0  0  0  0  0  0  0  0  0  0  0
   -5.5949   -0.5495   24.6746 N   0  0  0  0  0  0  0  0  0  0  0  0
   -5.1394   -0.9166   23.5067 C   0  0  0  0  0  0  0  0  0  0  0  0
   -3.9607   -1.2340   23.3640 O   0  0  0  0  0  0  0  0  0  0  0  0
   -5.9354   -0.9331   22.4774 N   0  0  0  0  0  0  0  0  0  0  0  0
  1  2  1  0  0  0  0
  1  3  2  0  0  0  0
  4  1  1  6  0  0  0
  4  6  1  0  0  0  0
  4  5  1  0  0  0  0
  6  7  1  0  0  0  0
  7  8  1  0  0  0  0
  8  9  1  0  0  0  0
  9 10  1  0  0  0  0
 10 12  1  0  0  0  0
 10 11  2  0  0  0  0
M  CHG  2   2  -1   5   1
M  END
>  <CHROM.1>
-47.23425485,80.29794910,-167.98508954,-81.79378481,177.99922737,-88.67205853
-7.11497439,-1.49253522,26.00049900,2.51259879,-0.70195135,2.49063320

>  <Name>
1kod cryst

>  <RI>
0

>  <Rbt.Current_Directory>
/home/itssahil/PROJECTS/Mol_Feturizer/New_Systems/rnas/1kod

>  <Rbt.Executable>
rbdock ($Id: //depot/dev/client3/rdock/2013.1/src/exe/rbdock.cxx#4 $)

>  <Rbt.Library>
libRbt.so (2013.1, Build901 2013/11/27)

>  <Rbt.Parameter_File>
/export/apps/rDock/src/rDock_2013.1_src/data/scripts/dock_solv.prm

>  <Rbt.Receptor>
prm/blind_docking_40.prm

>  <SCORE>
-32.5204

>  <SCORE.INTER>
-28.2569

>  <SCORE.INTER.CONST>
1

>  <SCORE.INTER.POLAR>
-4.76504

>  <SCORE.INTER.ROT>
5

>  <SCORE.INTER.SOLV>
20.9024

>  <SCORE.INTER.VDW>
-16.8553

>  <SCORE.INTER.norm>
-2.35474

>  <SCORE.INTRA>
-4.26354

>  <SCORE.INTRA.DIHEDRAL>
-2.08139

>  <SCORE.INTRA.DIHEDRAL.0>
7.7847

>  <SCORE.INTRA.POLAR>
0

>  <SCORE.INTRA.POLAR.0>
0

>  <SCORE.INTRA.REPUL>
0

>  <SCORE.INTRA.REPUL.0>
0

>  <SCORE.INTRA.SOLV>
-1.37985

>  <SCORE.INTRA.SOLV.lig_0>
-57.5465

>  <SCORE.INTRA.VDW>
-2.53292

>  <SCORE.INTRA.VDW.0>
1.39369

>  <SCORE.INTRA.norm>
-0.355295

>  <SCORE.RESTR>
0

>  <SCORE.RESTR.CAVITY>
0

>  <SCORE.RESTR.norm>
0

>  <SCORE.SYSTEM>
0

>  <SCORE.SYSTEM.CONST>
0

>  <SCORE.SYSTEM.DIHEDRAL>
0

>  <SCORE.SYSTEM.SOLV>
0

>  <SCORE.SYSTEM.norm>
0

>  <SCORE.heavy>
12

>  <SCORE.norm>
-2.71004

>  <SYMMETRIC_BONDS>
4 1 2

>  <RMSD>
13.453

$$$$
1kod cryst
 OpenBabel11021811393D
libRbt.so/2013.1/901 2013/11/27
 12 11  0  0  0  0  0  0  0  0999 V2000
   -8.9137   -1.0374   27.6790 C   0  0  0  0  0  0  0  0  0  0  0  0
   -8.5083   -0.3007   26.7923 O   0  5  0  0  0  0  0  0  0  0  0  0
  -10.0016   -0.9097   28.2265 O   0  0  0  0  0  0  0  0  0  0  0  0
   -8.0004   -2.1948   28.1294 C   0  0  1  0  0  0  0  0  0  0  0  0
   -8.7956   -3.1652   28.9420 N   0  3  0  0  0  0  0  0  0  0  0  0
   -7.3939   -2.9216   26.9062 C   0  0  0  0  0  0  0  0  0  0  0  0
   -6.2654   -2.0987   26.2987 C   0  0  0  0  0  0  0  0  0  0  0  0
   -5.9623   -2.5971   24.8875 C   0  0  0  0  0  0  0  0  0  0  0  0
   -6.1632   -1.4730   23.9206 N   0  0  0  0  0  0  0  0  0  0  0  0
   -5.2249   -0.5847   23.7295 C   0  0  0  0  0  0  0  0  0  0  0  0
   -5.4648    0.6156   23.8397 O   0  0  0  0  0  0  0  0  0  0  0  0
   -4.0254   -0.9699   23.4037 N   0  0  0  0  0  0  0  0  0  0  0  0
  1  2  1  0  0  0  0
  1  3  2  0  0  0  0
  4  1  1  6  0  0  0
  4  6  1  0  0  0  0
  4  5  1  0  0  0  0
  6  7  1  0  0  0  0
  7  8  1  0  0  0  0
  8  9  1  0  0  0  0
  9 10  1  0  0  0  0
 10 12  1  0  0  0  0
 10 11  2  0  0  0  0
M  CHG  2   2  -1   5   1
M  END
>  <CHROM.1>
-165.51909132,76.26060515,-52.75449646,-163.13607100,120.67727081,-97.76379842
-7.07866754,-1.46624630,26.07258807,2.58881412,-0.70775595,2.63261344

>  <Name>
1kod cryst

>  <RI>
0

>  <Rbt.Current_Directory>
/home/itssahil/PROJECTS/Mol_Feturizer/New_Systems/rnas/1kod

>  <Rbt.Executable>
rbdock ($Id: //depot/dev/client3/rdock/2013.1/src/exe/rbdock.cxx#4 $)

>  <Rbt.Library>
libRbt.so (2013.1, Build901 2013/11/27)

>  <Rbt.Parameter_File>
/export/apps/rDock/src/rDock_2013.1_src/data/scripts/dock_solv.prm

>  <Rbt.Receptor>
prm/blind_docking_60.prm

>  <SCORE>
-31.5395

>  <SCORE.INTER>
-29.8692

>  <SCORE.INTER.CONST>
1

>  <SCORE.INTER.POLAR>
-4.99428

>  <SCORE.INTER.ROT>
5

>  <SCORE.INTER.SOLV>
20.0909

>  <SCORE.INTER.VDW>
-16.8955

>  <SCORE.INTER.norm>
-2.4891

>  <SCORE.INTRA>
-1.69397

>  <SCORE.INTRA.DIHEDRAL>
2.09606

>  <SCORE.INTRA.DIHEDRAL.0>
7.7847

>  <SCORE.INTRA.POLAR>
0

>  <SCORE.INTRA.POLAR.0>
0

>  <SCORE.INTRA.REPUL>
0

>  <SCORE.INTRA.REPUL.0>
0

>  <SCORE.INTRA.SOLV>
-1.52054

>  <SCORE.INTRA.SOLV.lig_0>
-57.5465

>  <SCORE.INTRA.VDW>
-1.98173

>  <SCORE.INTRA.VDW.0>
1.39369

>  <SCORE.INTRA.norm>
-0.141164

>  <SCORE.RESTR>
0.0236554

>  <SCORE.RESTR.CAVITY>
0.0236554

>  <SCORE.RESTR.norm>
0.00197128

>  <SCORE.SYSTEM>
0

>  <SCORE.SYSTEM.CONST>
0

>  <SCORE.SYSTEM.DIHEDRAL>
0

>  <SCORE.SYSTEM.SOLV>
0

>  <SCORE.SYSTEM.norm>
0

>  <SCORE.heavy>
12

>  <SCORE.norm>
-2.62829

>  <SYMMETRIC_BONDS>
4 1 2

>  <RMSD>
13.454

$$$$
1kod cryst
 OpenBabel11021811393D
libRbt.so/2013.1/901 2013/11/27
 12 11  0  0  0  0  0  0  0  0999 V2000
   -3.7847    0.3577   23.2802 C   0  0  0  0  0  0  0  0  0  0  0  0
   -3.0413   -0.6118   23.2530 O   0  5  0  0  0  0  0  0  0  0  0  0
   -3.4117    1.5078   23.0854 O   0  0  0  0  0  0  0  0  0  0  0  0
   -5.2780    0.1138   23.5746 C   0  0  1  0  0  0  0  0  0  0  0  0
   -5.8195   -0.8789   22.5969 N   0  3  0  0  0  0  0  0  0  0  0  0
   -5.4726   -0.4203   25.0130 C   0  0  0  0  0  0  0  0  0  0  0  0
   -6.9246   -0.2716   25.4484 C   0  0  0  0  0  0  0  0  0  0  0  0
   -7.0674   -0.6611   26.9180 C   0  0  0  0  0  0  0  0  0  0  0  0
   -8.4839   -0.4385   27.3451 N   0  0  0  0  0  0  0  0  0  0  0  0
   -9.3047   -1.4459   27.4772 C   0  0  0  0  0  0  0  0  0  0  0  0
  -10.3905   -1.4508   26.9012 O   0  0  0  0  0  0  0  0  0  0  0  0
   -8.9798   -2.4504   28.2379 N   0  0  0  0  0  0  0  0  0  0  0  0
  1  2  1  0  0  0  0
  1  3  2  0  0  0  0
  4  1  1  6  0  0  0
  4  6  1  0  0  0  0
  4  5  1  0  0  0  0
  6  7  1  0  0  0  0
  7  8  1  0  0  0  0
  8  9  1  0  0  0  0
  9 10  1  0  0  0  0
 10 12  1  0  0  0  0
 10 11  2  0  0  0  0
M  CHG  2   2  -1   5   1
M  END
>  <CHROM.1>
-55.18916921,163.20335337,-173.50809391,-173.87804226,176.99852965,-76.71706303
-6.50309414,-0.57524589,25.23992691,-0.62928259,0.38582917,1.46716233

>  <Name>
1kod cryst

>  <RI>
0

>  <Rbt.Current_Directory>
/home/itssahil/PROJECTS/Mol_Feturizer/New_Systems/rnas/1kod

>  <Rbt.Executable>
rbdock ($Id: //depot/dev/client3/rdock/2013.1/src/exe/rbdock.cxx#4 $)

>  <Rbt.Library>
libRbt.so (2013.1, Build901 2013/11/27)

>  <Rbt.Parameter_File>
/export/apps/rDock/src/rDock_2013.1_src/data/scripts/dock_solv.prm

>  <Rbt.Receptor>
prm/blind_docking_40.prm

>  <SCORE>
-25.0194

>  <SCORE.INTER>
-18.9601

>  <SCORE.INTER.CONST>
1

>  <SCORE.INTER.POLAR>
-3.94661

>  <SCORE.INTER.ROT>
5

>  <SCORE.INTER.SOLV>
25.8545

>  <SCORE.INTER.VDW>
-15.0362

>  <SCORE.INTER.norm>
-1.58001

>  <SCORE.INTRA>
-6.06191

>  <SCORE.INTRA.DIHEDRAL>
-4.31459

>  <SCORE.INTRA.DIHEDRAL.0>
7.7847

>  <SCORE.INTRA.POLAR>
0

>  <SCORE.INTRA.POLAR.0>
0

>  <SCORE.INTRA.REPUL>
0

>  <SCORE.INTRA.REPUL.0>
0

>  <SCORE.INTRA.SOLV>
-2.62777

>  <SCORE.INTRA.SOLV.lig_0>
-57.5465

>  <SCORE.INTRA.VDW>
-2.59074

>  <SCORE.INTRA.VDW.0>
1.39369

>  <SCORE.INTRA.norm>
-0.50516

>  <SCORE.RESTR>
0.00258317

>  <SCORE.RESTR.CAVITY>
0.00258317

>  <SCORE.RESTR.norm>
0.000215264

>  <SCORE.SYSTEM>
0

>  <SCORE.SYSTEM.CONST>
0

>  <SCORE.SYSTEM.DIHEDRAL>
0

>  <SCORE.SYSTEM.SOLV>
0

>  <SCORE.SYSTEM.norm>
0

>  <SCORE.heavy>
12

>  <SCORE.norm>
-2.08495

>  <SYMMETRIC_BONDS>
4 1 2

>  <RMSD>
13.457

$$$$
1kod cryst
 OpenBabel11021811393D
libRbt.so/2013.1/901 2013/11/27
 12 11  0  0  0  0  0  0  0  0999 V2000
   -6.4503   -2.4196   26.1960 C   0  0  0  0  0  0  0  0  0  0  0  0
   -6.3396   -2.1959   27.3923 O   0  5  0  0  0  0  0  0  0  0  0  0
   -7.4469   -2.1425   25.5405 O   0  0  0  0  0  0  0  0  0  0  0  0
   -5.2631   -3.0870   25.4739 C   0  0  1  0  0  0  0  0  0  0  0  0
   -5.7022   -4.3992   24.9084 N   0  3  0  0  0  0  0  0  0  0  0  0
   -4.7377   -2.1838   24.3335 C   0  0  0  0  0  0  0  0  0  0  0  0
   -4.0635   -0.9414   24.9008 C   0  0  0  0  0  0  0  0  0  0  0  0
   -3.5789   -0.0487   23.7607 C   0  0  0  0  0  0  0  0  0  0  0  0
   -4.7651    0.5535   23.0760 N   0  0  0  0  0  0  0  0  0  0  0  0
   -5.0792    1.8065   23.2691 C   0  0  0  0  0  0  0  0  0  0  0  0
   -6.2126    2.1220   23.6248 O   0  0  0  0  0  0  0  0  0  0  0  0
   -4.1899    2.7351   23.0691 N   0  0  0  0  0  0  0  0  0  0  0  0
  1  2  1  0  0  0  0
  1  3  2  0  0  0  0
  4  1  1  6  0  0  0
  4  6  1  0  0  0  0
  4  5  1  0  0  0  0
  6  7  1  0  0  0  0
  7  8  1  0  0  0  0
  8  9  1  0  0  0  0
  9 10  1  0  0  0  0
 10 12  1  0  0  0  0
 10 11  2  0  0  0  0
M  CHG  2   2  -1   5   1
M  END
>  <CHROM.1>
118.87906295,69.16148848,-75.66086287,-178.78042632,70.04813757,-75.16688900
-5.34623648,-0.86225429,24.62321516,1.85486551,-0.59698244,2.83178540

>  <Name>
1kod cryst

>  <RI>
0

>  <Rbt.Current_Directory>
/home/itssahil/PROJECTS/Mol_Feturizer/New_Systems/rnas/1kod

>  <Rbt.Executable>
rbdock ($Id: //depot/dev/client3/rdock/2013.1/src/exe/rbdock.cxx#4 $)

>  <Rbt.Library>
libRbt.so (2013.1, Build901 2013/11/27)

>  <Rbt.Parameter_File>
/export/apps/rDock/src/rDock_2013.1_src/data/scripts/dock_solv.prm

>  <Rbt.Receptor>
prm/blind_docking_100.prm

>  <SCORE>
-26.1829

>  <SCORE.INTER>
-20.3764

>  <SCORE.INTER.CONST>
1

>  <SCORE.INTER.POLAR>
-3.22446

>  <SCORE.INTER.ROT>
5

>  <SCORE.INTER.SOLV>
24.2521

>  <SCORE.INTER.VDW>
-17.8534

>  <SCORE.INTER.norm>
-1.69803

>  <SCORE.INTRA>
-5.80653

>  <SCORE.INTRA.DIHEDRAL>
-4.30072

>  <SCORE.INTRA.DIHEDRAL.0>
7.7847

>  <SCORE.INTRA.POLAR>
0

>  <SCORE.INTRA.POLAR.0>
0

>  <SCORE.INTRA.REPUL>
0

>  <SCORE.INTRA.REPUL.0>
0

>  <SCORE.INTRA.SOLV>
-2.45079

>  <SCORE.INTRA.SOLV.lig_0>
-57.5465

>  <SCORE.INTRA.VDW>
-2.43078

>  <SCORE.INTRA.VDW.0>
1.39369

>  <SCORE.INTRA.norm>
-0.483877

>  <SCORE.RESTR>
0

>  <SCORE.RESTR.CAVITY>
0

>  <SCORE.RESTR.norm>
0

>  <SCORE.SYSTEM>
0

>  <SCORE.SYSTEM.CONST>
0

>  <SCORE.SYSTEM.DIHEDRAL>
0

>  <SCORE.SYSTEM.SOLV>
0

>  <SCORE.SYSTEM.norm>
0

>  <SCORE.heavy>
12

>  <SCORE.norm>
-2.18191

>  <SYMMETRIC_BONDS>
4 1 2

>  <RMSD>
13.460

$$$$
1kod cryst
 OpenBabel11021811393D
libRbt.so/2013.1/901 2013/11/27
 12 11  0  0  0  0  0  0  0  0999 V2000
   -8.8886   -0.9362   27.8796 C   0  0  0  0  0  0  0  0  0  0  0  0
  -10.1045   -1.0575   27.8652 O   0  5  0  0  0  0  0  0  0  0  0  0
   -8.3084    0.1301   27.7187 O   0  0  0  0  0  0  0  0  0  0  0  0
   -8.0401   -2.2012   28.1171 C   0  0  1  0  0  0  0  0  0  0  0  0
   -8.8100   -3.1613   28.9657 N   0  3  0  0  0  0  0  0  0  0  0  0
   -7.6763   -2.8768   26.7742 C   0  0  0  0  0  0  0  0  0  0  0  0
   -6.2784   -2.4672   26.3293 C   0  0  0  0  0  0  0  0  0  0  0  0
   -6.0791   -2.8202   24.8571 C   0  0  0  0  0  0  0  0  0  0  0  0
   -6.3324   -1.6022   24.0259 N   0  0  0  0  0  0  0  0  0  0  0  0
   -5.3402   -0.8557   23.6205 C   0  0  0  0  0  0  0  0  0  0  0  0
   -5.3347    0.3539   23.8383 O   0  0  0  0  0  0  0  0  0  0  0  0
   -4.3521   -1.3920   22.9653 N   0  0  0  0  0  0  0  0  0  0  0  0
  1  2  1  0  0  0  0
  1  3  2  0  0  0  0
  4  1  1  6  0  0  0
  4  6  1  0  0  0  0
  4  5  1  0  0  0  0
  6  7  1  0  0  0  0
  7  8  1  0  0  0  0
  8  9  1  0  0  0  0
  9 10  1  0  0  0  0
 10 12  1  0  0  0  0
 10 11  2  0  0  0  0
M  CHG  2   2  -1   5   1
M  END
>  <CHROM.1>
-29.68944725,97.53834012,-163.72648409,-164.71858789,97.45462694,-82.90780857
-7.14712875,-1.56913211,26.09027959,2.76525391,-0.82791366,2.80139485

>  <Name>
1kod cryst

>  <RI>
0

>  <Rbt.Current_Directory>
/home/itssahil/PROJECTS/Mol_Feturizer/New_Systems/rnas/1kod

>  <Rbt.Executable>
rbdock ($Id: //depot/dev/client3/rdock/2013.1/src/exe/rbdock.cxx#4 $)

>  <Rbt.Library>
libRbt.so (2013.1, Build901 2013/11/27)

>  <Rbt.Parameter_File>
/export/apps/rDock/src/rDock_2013.1_src/data/scripts/dock_solv.prm

>  <Rbt.Receptor>
prm/blind_docking_80.prm

>  <SCORE>
-29.8978

>  <SCORE.INTER>
-27.6095

>  <SCORE.INTER.CONST>
1

>  <SCORE.INTER.POLAR>
-4.61617

>  <SCORE.INTER.ROT>
5

>  <SCORE.INTER.SOLV>
19.9793

>  <SCORE.INTER.VDW>
-16.6122

>  <SCORE.INTER.norm>
-2.30079

>  <SCORE.INTRA>
-2.32297

>  <SCORE.INTRA.DIHEDRAL>
3.36069

>  <SCORE.INTRA.DIHEDRAL.0>
7.7847

>  <SCORE.INTRA.POLAR>
0

>  <SCORE.INTRA.POLAR.0>
0

>  <SCORE.INTRA.REPUL>
0

>  <SCORE.INTRA.REPUL.0>
0

>  <SCORE.INTRA.SOLV>
-2.5412

>  <SCORE.INTRA.SOLV.lig_0>
-57.5465

>  <SCORE.INTRA.VDW>
-2.73272

>  <SCORE.INTRA.VDW.0>
1.39369

>  <SCORE.INTRA.norm>
-0.193581

>  <SCORE.RESTR>
0.0346292

>  <SCORE.RESTR.CAVITY>
0.0346292

>  <SCORE.RESTR.norm>
0.00288577

>  <SCORE.SYSTEM>
0

>  <SCORE.SYSTEM.CONST>
0

>  <SCORE.SYSTEM.DIHEDRAL>
0

>  <SCORE.SYSTEM.SOLV>
0

>  <SCORE.SYSTEM.norm>
0

>  <SCORE.heavy>
12

>  <SCORE.norm>
-2.49148

>  <SYMMETRIC_BONDS>
4 1 2

>  <RMSD>
13.468

$$$$
1kod cryst
 OpenBabel11021811393D
libRbt.so/2013.1/901 2013/11/27
 12 11  0  0  0  0  0  0  0  0999 V2000
   -4.1663    0.6060   23.0998 C   0  0  0  0  0  0  0  0  0  0  0  0
   -3.5244    0.1160   22.1826 O   0  5  0  0  0  0  0  0  0  0  0  0
   -3.6607    1.2009   24.0433 O   0  0  0  0  0  0  0  0  0  0  0  0
   -5.7010    0.4670   23.0613 C   0  0  1  0  0  0  0  0  0  0  0  0
   -6.0631   -0.8651   22.4878 N   0  3  0  0  0  0  0  0  0  0  0  0
   -6.2985    0.5964   24.4821 C   0  0  0  0  0  0  0  0  0  0  0  0
   -6.4272   -0.7730   25.1364 C   0  0  0  0  0  0  0  0  0  0  0  0
   -7.4935   -0.7271   26.2286 C   0  0  0  0  0  0  0  0  0  0  0  0
   -7.7051   -2.1095   26.7605 N   0  0  0  0  0  0  0  0  0  0  0  0
   -8.5203   -2.3201   27.7591 C   0  0  0  0  0  0  0  0  0  0  0  0
   -8.1440   -2.9265   28.7596 O   0  0  0  0  0  0  0  0  0  0  0  0
   -9.7494   -1.8983   27.6914 N   0  0  0  0  0  0  0  0  0  0  0  0
  1  2  1  0  0  0  0
  1  3  2  0  0  0  0
  4  1  1  1  0  0  0
  4  6  1  0  0  0  0
  4  5  1  0  0  0  0
  6  7  1  0  0  0  0
  7  8  1  0  0  0  0
  8  9  1  0  0  0  0
  9 10  1  0  0  0  0
 10 12  1  0  0  0  0
 10 11  2  0  0  0  0
M  CHG  2   2  -1   5   1
M  END
>  <CHROM.1>
36.18397651,-91.95112325,52.09639534,-156.88501460,174.19434533,-3.79019224
-6.45787250,-0.74847240,25.12923437,-0.82744915,0.46747184,1.67707362

>  <Name>
1kod cryst

>  <RI>
0

>  <Rbt.Current_Directory>
/home/itssahil/PROJECTS/Mol_Feturizer/New_Systems/rnas/1kod

>  <Rbt.Executable>
rbdock ($Id: //depot/dev/client3/rdock/2013.1/src/exe/rbdock.cxx#4 $)

>  <Rbt.Library>
libRbt.so (2013.1, Build901 2013/11/27)

>  <Rbt.Parameter_File>
/export/apps/rDock/src/rDock_2013.1_src/data/scripts/dock_solv.prm

>  <Rbt.Receptor>
prm/blind_docking_80.prm

>  <SCORE>
-20.9488

>  <SCORE.INTER>
-20.5114

>  <SCORE.INTER.CONST>
1

>  <SCORE.INTER.POLAR>
-3.78457

>  <SCORE.INTER.ROT>
5

>  <SCORE.INTER.SOLV>
24.9489

>  <SCORE.INTER.VDW>
-16.3086

>  <SCORE.INTER.norm>
-1.70928

>  <SCORE.INTRA>
-0.437413

>  <SCORE.INTRA.DIHEDRAL>
-0.451891

>  <SCORE.INTRA.DIHEDRAL.0>
7.7847

>  <SCORE.INTRA.POLAR>
0

>  <SCORE.INTRA.POLAR.0>
0

>  <SCORE.INTRA.REPUL>
0

>  <SCORE.INTRA.REPUL.0>
0

>  <SCORE.INTRA.SOLV>
-1.09082

>  <SCORE.INTRA.SOLV.lig_0>
-57.5465

>  <SCORE.INTRA.VDW>
0.333944

>  <SCORE.INTRA.VDW.0>
1.39369

>  <SCORE.INTRA.norm>
-0.036451

>  <SCORE.RESTR>
0

>  <SCORE.RESTR.CAVITY>
0

>  <SCORE.RESTR.norm>
0

>  <SCORE.SYSTEM>
0

>  <SCORE.SYSTEM.CONST>
0

>  <SCORE.SYSTEM.DIHEDRAL>
0

>  <SCORE.SYSTEM.SOLV>
0

>  <SCORE.SYSTEM.norm>
0

>  <SCORE.heavy>
12

>  <SCORE.norm>
-1.74573

>  <SYMMETRIC_BONDS>
4 1 2

>  <RMSD>
13.473

$$$$
1kod cryst
 OpenBabel11021811393D
libRbt.so/2013.1/901 2013/11/27
 12 11  0  0  0  0  0  0  0  0999 V2000
   -8.9458   -0.9285   27.8976 C   0  0  0  0  0  0  0  0  0  0  0  0
  -10.0828   -1.1833   27.5293 O   0  5  0  0  0  0  0  0  0  0  0  0
   -8.5064    0.2086   28.0147 O   0  0  0  0  0  0  0  0  0  0  0  0
   -8.0151   -2.1099   28.2357 C   0  0  1  0  0  0  0  0  0  0  0  0
   -8.8018   -3.1781   28.9248 N   0  3  0  0  0  0  0  0  0  0  0  0
   -7.3751   -2.6879   26.9517 C   0  0  0  0  0  0  0  0  0  0  0  0
   -6.4136   -1.6820   26.3323 C   0  0  0  0  0  0  0  0  0  0  0  0
   -5.9738   -2.1674   24.9529 C   0  0  0  0  0  0  0  0  0  0  0  0
   -5.1147   -1.1191   24.3191 N   0  0  0  0  0  0  0  0  0  0  0  0
   -5.0003   -1.0493   23.0199 C   0  0  0  0  0  0  0  0  0  0  0  0
   -3.8932   -1.0478   22.4862 O   0  0  0  0  0  0  0  0  0  0  0  0
   -6.0672   -0.9648   22.2797 N   0  0  0  0  0  0  0  0  0  0  0  0
  1  2  1  0  0  0  0
  1  3  2  0  0  0  0
  4  1  1  6  0  0  0
  4  6  1  0  0  0  0
  4  5  1  0  0  0  0
  6  7  1  0  0  0  0
  7  8  1  0  0  0  0
  8  9  1  0  0  0  0
  9 10  1  0  0  0  0
 10 12  1  0  0  0  0
 10 11  2  0  0  0  0
M  CHG  2   2  -1   5   1
M  END
>  <CHROM.1>
-38.27595096,67.22295361,-47.10894977,-170.50722783,175.72594176,24.39129120
-7.04127383,-1.49359230,25.91635967,2.47293546,-0.69872821,2.36660735

>  <Name>
1kod cryst

>  <RI>
0

>  <Rbt.Current_Directory>
/home/itssahil/PROJECTS/Mol_Feturizer/New_Systems/rnas/1kod

>  <Rbt.Executable>
rbdock ($Id: //depot/dev/client3/rdock/2013.1/src/exe/rbdock.cxx#4 $)

>  <Rbt.Library>
libRbt.so (2013.1, Build901 2013/11/27)

>  <Rbt.Parameter_File>
/export/apps/rDock/src/rDock_2013.1_src/data/scripts/dock_solv.prm

>  <Rbt.Receptor>
prm/blind_docking_80.prm

>  <SCORE>
-36.8338

>  <SCORE.INTER>
-31.0786

>  <SCORE.INTER.CONST>
1

>  <SCORE.INTER.POLAR>
-5.78191

>  <SCORE.INTER.ROT>
5

>  <SCORE.INTER.SOLV>
21.6653

>  <SCORE.INTER.VDW>
-15.6011

>  <SCORE.INTER.norm>
-2.58988

>  <SCORE.INTRA>
-5.86871

>  <SCORE.INTRA.DIHEDRAL>
-4.52638

>  <SCORE.INTRA.DIHEDRAL.0>
7.7847

>  <SCORE.INTRA.POLAR>
0

>  <SCORE.INTRA.POLAR.0>
0

>  <SCORE.INTRA.REPUL>
0

>  <SCORE.INTRA.REPUL.0>
0

>  <SCORE.INTRA.SOLV>
-2.67415

>  <SCORE.INTRA.SOLV.lig_0>
-57.5465

>  <SCORE.INTRA.VDW>
-2.26845

>  <SCORE.INTRA.VDW.0>
1.39369

>  <SCORE.INTRA.norm>
-0.48906

>  <SCORE.RESTR>
0.113447

>  <SCORE.RESTR.CAVITY>
0.113447

>  <SCORE.RESTR.norm>
0.00945388

>  <SCORE.SYSTEM>
0

>  <SCORE.SYSTEM.CONST>
0

>  <SCORE.SYSTEM.DIHEDRAL>
0

>  <SCORE.SYSTEM.SOLV>
0

>  <SCORE.SYSTEM.norm>
0

>  <SCORE.heavy>
12

>  <SCORE.norm>
-3.06949

>  <SYMMETRIC_BONDS>
4 1 2

>  <RMSD>
13.475

$$$$
1kod cryst
 OpenBabel11021811393D
libRbt.so/2013.1/901 2013/11/27
 12 11  0  0  0  0  0  0  0  0999 V2000
   -8.7179   -0.9980   27.7389 C   0  0  0  0  0  0  0  0  0  0  0  0
   -9.8990   -1.0677   27.4331 O   0  5  0  0  0  0  0  0  0  0  0  0
   -8.1004    0.0550   27.8361 O   0  0  0  0  0  0  0  0  0  0  0  0
   -7.9666   -2.3143   28.0202 C   0  0  1  0  0  0  0  0  0  0  0  0
   -8.7744   -3.1550   28.9558 N   0  3  0  0  0  0  0  0  0  0  0  0
   -7.7195   -3.0951   26.7081 C   0  0  0  0  0  0  0  0  0  0  0  0
   -6.3576   -2.7437   26.1234 C   0  0  0  0  0  0  0  0  0  0  0  0
   -6.5074   -1.6205   25.0998 C   0  0  0  0  0  0  0  0  0  0  0  0
   -5.2027   -1.4290   24.3929 N   0  0  0  0  0  0  0  0  0  0  0  0
   -5.1074   -0.6037   23.3850 C   0  0  0  0  0  0  0  0  0  0  0  0
   -4.6462   -0.9775   22.3089 O   0  0  0  0  0  0  0  0  0  0  0  0
   -5.4897    0.6325   23.5221 N   0  0  0  0  0  0  0  0  0  0  0  0
  1  2  1  0  0  0  0
  1  3  2  0  0  0  0
  4  1  1  6  0  0  0
  4  6  1  0  0  0  0
  4  5  1  0  0  0  0
  6  7  1  0  0  0  0
  7  8  1  0  0  0  0
  8  9  1  0  0  0  0
  9 10  1  0  0  0  0
 10 12  1  0  0  0  0
 10 11  2  0  0  0  0
M  CHG  2   2  -1   5   1
M  END
>  <CHROM.1>
-48.48919880,92.88623035,-44.11197960,-94.05543515,-171.69173380,-6.14229644
-7.05734999,-1.43281582,25.97498875,2.62522576,-0.82192430,2.75139489

>  <Name>
1kod cryst

>  <RI>
0

>  <Rbt.Current_Directory>
/home/itssahil/PROJECTS/Mol_Feturizer/New_Systems/rnas/1kod

>  <Rbt.Executable>
rbdock ($Id: //depot/dev/client3/rdock/2013.1/src/exe/rbdock.cxx#4 $)

>  <Rbt.Library>
libRbt.so (2013.1, Build901 2013/11/27)

>  <Rbt.Parameter_File>
/export/apps/rDock/src/rDock_2013.1_src/data/scripts/dock_solv.prm

>  <Rbt.Receptor>
prm/blind_docking_40.prm

>  <SCORE>
-29.0773

>  <SCORE.INTER>
-26.4938

>  <SCORE.INTER.CONST>
1

>  <SCORE.INTER.POLAR>
-4.27726

>  <SCORE.INTER.ROT>
5

>  <SCORE.INTER.SOLV>
20.2729

>  <SCORE.INTER.VDW>
-17.096

>  <SCORE.INTER.norm>
-2.20782

>  <SCORE.INTRA>
-2.58347

>  <SCORE.INTRA.DIHEDRAL>
1.95546

>  <SCORE.INTRA.DIHEDRAL.0>
7.7847

>  <SCORE.INTRA.POLAR>
0

>  <SCORE.INTRA.POLAR.0>
0

>  <SCORE.INTRA.REPUL>
0

>  <SCORE.INTRA.REPUL.0>
0

>  <SCORE.INTRA.SOLV>
-2.22361

>  <SCORE.INTRA.SOLV.lig_0>
-57.5465

>  <SCORE.INTRA.VDW>
-2.4494

>  <SCORE.INTRA.VDW.0>
1.39369

>  <SCORE.INTRA.norm>
-0.215289

>  <SCORE.RESTR>
0

>  <SCORE.RESTR.CAVITY>
0

>  <SCORE.RESTR.norm>
0

>  <SCORE.SYSTEM>
0

>  <SCORE.SYSTEM.CONST>
0

>  <SCORE.SYSTEM.DIHEDRAL>
0

>  <SCORE.SYSTEM.SOLV>
0

>  <SCORE.SYSTEM.norm>
0

>  <SCORE.heavy>
12

>  <SCORE.norm>
-2.42311

>  <SYMMETRIC_BONDS>
4 1 2

>  <RMSD>
13.477

$$$$
1kod cryst
 OpenBabel11021811393D
libRbt.so/2013.1/901 2013/11/27
 12 11  0  0  0  0  0  0  0  0999 V2000
   -8.5382   -0.9349   27.5913 C   0  0  0  0  0  0  0  0  0  0  0  0
   -8.0950    0.2032   27.6308 O   0  5  0  0  0  0  0  0  0  0  0  0
   -9.7320   -1.2032   27.6428 O   0  0  0  0  0  0  0  0  0  0  0  0
   -7.5328   -2.0968   27.4667 C   0  0  1  0  0  0  0  0  0  0  0  0
   -8.1739   -3.3594   27.9456 N   0  3  0  0  0  0  0  0  0  0  0  0
   -7.0789   -2.2734   25.9988 C   0  0  0  0  0  0  0  0  0  0  0  0
   -5.8347   -1.4408   25.7183 C   0  0  0  0  0  0  0  0  0  0  0  0
   -5.3363   -1.7151   24.3012 C   0  0  0  0  0  0  0  0  0  0  0  0
   -5.9060   -0.6856   23.3770 N   0  0  0  0  0  0  0  0  0  0  0  0
   -5.2807    0.4426   23.1719 C   0  0  0  0  0  0  0  0  0  0  0  0
   -5.8569    1.5171   23.3272 O   0  0  0  0  0  0  0  0  0  0  0  0
   -4.0387    0.4332   22.7841 N   0  0  0  0  0  0  0  0  0  0  0  0
  1  2  1  0  0  0  0
  1  3  2  0  0  0  0
  4  1  1  6  0  0  0
  4  6  1  0  0  0  0
  4  5  1  0  0  0  0
  6  7  1  0  0  0  0
  7  8  1  0  0  0  0
  8  9  1  0  0  0  0
  9 10  1  0  0  0  0
 10 12  1  0  0  0  0
 10 11  2  0  0  0  0
M  CHG  2   2  -1   5   1
M  END
>  <CHROM.1>
158.70186785,90.71859906,127.75635391,175.41894194,94.41103933,-91.33369079
-6.80359593,-0.92872961,25.58801538,2.50174805,-0.77753523,2.76255875

>  <Name>
1kod cryst

>  <RI>
0

>  <Rbt.Current_Directory>
/home/itssahil/PROJECTS/Mol_Feturizer/New_Systems/rnas/1kod

>  <Rbt.Executable>
rbdock ($Id: //depot/dev/client3/rdock/2013.1/src/exe/rbdock.cxx#4 $)

>  <Rbt.Library>
libRbt.so (2013.1, Build901 2013/11/27)

>  <Rbt.Parameter_File>
/export/apps/rDock/src/rDock_2013.1_src/data/scripts/dock_solv.prm

>  <Rbt.Receptor>
prm/blind_docking_40.prm

>  <SCORE>
-25.2699

>  <SCORE.INTER>
-24.1903

>  <SCORE.INTER.CONST>
1

>  <SCORE.INTER.POLAR>
-3.64438

>  <SCORE.INTER.ROT>
5

>  <SCORE.INTER.SOLV>
20.7877

>  <SCORE.INTER.VDW>
-17.8415

>  <SCORE.INTER.norm>
-2.01586

>  <SCORE.INTRA>
-1.07962

>  <SCORE.INTRA.DIHEDRAL>
4.04301

>  <SCORE.INTRA.DIHEDRAL.0>
7.7847

>  <SCORE.INTRA.POLAR>
0

>  <SCORE.INTRA.POLAR.0>
0

>  <SCORE.INTRA.REPUL>
0

>  <SCORE.INTRA.REPUL.0>
0

>  <SCORE.INTRA.SOLV>
-2.47467

>  <SCORE.INTRA.SOLV.lig_0>
-57.5465

>  <SCORE.INTRA.VDW>
-1.86379

>  <SCORE.INTRA.VDW.0>
1.39369

>  <SCORE.INTRA.norm>
-0.0899683

>  <SCORE.RESTR>
0

>  <SCORE.RESTR.CAVITY>
0

>  <SCORE.RESTR.norm>
0

>  <SCORE.SYSTEM>
0

>  <SCORE.SYSTEM.CONST>
0

>  <SCORE.SYSTEM.DIHEDRAL>
0

>  <SCORE.SYSTEM.SOLV>
0

>  <SCORE.SYSTEM.norm>
0

>  <SCORE.heavy>
12

>  <SCORE.norm>
-2.10583

>  <SYMMETRIC_BONDS>
4 1 2

>  <RMSD>
13.477

$$$$
1kod cryst
 OpenBabel11021811393D
libRbt.so/2013.1/901 2013/11/27
 12 11  0  0  0  0  0  0  0  0999 V2000
   -9.0037   -0.9088   28.0014 C   0  0  0  0  0  0  0  0  0  0  0  0
  -10.1847   -1.1120   27.7617 O   0  5  0  0  0  0  0  0  0  0  0  0
   -8.5086    0.2079   28.0880 O   0  0  0  0  0  0  0  0  0  0  0  0
   -8.0887   -2.1319   28.2087 C   0  0  1  0  0  0  0  0  0  0  0  0
   -8.8233   -3.1726   28.9910 N   0  3  0  0  0  0  0  0  0  0  0  0
   -7.6489   -2.7236   26.8491 C   0  0  0  0  0  0  0  0  0  0  0  0
   -6.6004   -1.8357   26.1918 C   0  0  0  0  0  0  0  0  0  0  0  0
   -6.3222   -2.3260   24.7726 C   0  0  0  0  0  0  0  0  0  0  0  0
   -5.0799   -1.6651   24.2641 N   0  0  0  0  0  0  0  0  0  0  0  0
   -5.1483   -0.7348   23.3498 C   0  0  0  0  0  0  0  0  0  0  0  0
   -4.4868   -0.8193   22.3174 O   0  0  0  0  0  0  0  0  0  0  0  0
   -5.9121    0.3019   23.5369 N   0  0  0  0  0  0  0  0  0  0  0  0
  1  2  1  0  0  0  0
  1  3  2  0  0  0  0
  4  1  1  6  0  0  0
  4  6  1  0  0  0  0
  4  5  1  0  0  0  0
  6  7  1  0  0  0  0
  7  8  1  0  0  0  0
  8  9  1  0  0  0  0
  9 10  1  0  0  0  0
 10 12  1  0  0  0  0
 10 11  2  0  0  0  0
M  CHG  2   2  -1   5   1
M  END
>  <CHROM.1>
-39.55360203,74.31300962,75.66339169,-172.13832567,-166.62273025,72.34559758
-7.17038775,-1.40429416,26.04265143,2.64245603,-0.80784869,2.67028953

>  <Name>
1kod cryst

>  <RI>
0

>  <Rbt.Current_Directory>
/home/itssahil/PROJECTS/Mol_Feturizer/New_Systems/rnas/1kod

>  <Rbt.Executable>
rbdock ($Id: //depot/dev/client3/rdock/2013.1/src/exe/rbdock.cxx#4 $)

>  <Rbt.Library>
libRbt.so (2013.1, Build901 2013/11/27)

>  <Rbt.Parameter_File>
/export/apps/rDock/src/rDock_2013.1_src/data/scripts/dock_solv.prm

>  <Rbt.Receptor>
prm/blind_docking_40.prm

>  <SCORE>
-31.9599

>  <SCORE.INTER>
-26.3452

>  <SCORE.INTER.CONST>
1

>  <SCORE.INTER.POLAR>
-4.33442

>  <SCORE.INTER.ROT>
5

>  <SCORE.INTER.SOLV>
20.0997

>  <SCORE.INTER.VDW>
-16.7486

>  <SCORE.INTER.norm>
-2.19543

>  <SCORE.INTRA>
-5.61475

>  <SCORE.INTRA.DIHEDRAL>
-3.37897

>  <SCORE.INTRA.DIHEDRAL.0>
7.7847

>  <SCORE.INTRA.POLAR>
0

>  <SCORE.INTRA.POLAR.0>
0

>  <SCORE.INTRA.REPUL>
0

>  <SCORE.INTRA.REPUL.0>
0

>  <SCORE.INTRA.SOLV>
-2.62672

>  <SCORE.INTRA.SOLV.lig_0>
-57.5465

>  <SCORE.INTRA.VDW>
-2.61191

>  <SCORE.INTRA.VDW.0>
1.39369

>  <SCORE.INTRA.norm>
-0.467896

>  <SCORE.RESTR>
0

>  <SCORE.RESTR.CAVITY>
0

>  <SCORE.RESTR.norm>
0

>  <SCORE.SYSTEM>
0

>  <SCORE.SYSTEM.CONST>
0

>  <SCORE.SYSTEM.DIHEDRAL>
0

>  <SCORE.SYSTEM.SOLV>
0

>  <SCORE.SYSTEM.norm>
0

>  <SCORE.heavy>
12

>  <SCORE.norm>
-2.66333

>  <SYMMETRIC_BONDS>
4 1 2

>  <RMSD>
13.481

$$$$
1kod cryst
 OpenBabel11021811393D
libRbt.so/2013.1/901 2013/11/27
 12 11  0  0  0  0  0  0  0  0999 V2000
   -8.9611   -0.9215   27.9328 C   0  0  0  0  0  0  0  0  0  0  0  0
  -10.1107   -1.1729   27.6033 O   0  5  0  0  0  0  0  0  0  0  0  0
   -8.5136    0.2142   28.0314 O   0  0  0  0  0  0  0  0  0  0  0  0
   -8.0244   -2.1056   28.2439 C   0  0  1  0  0  0  0  0  0  0  0  0
   -8.7978   -3.1788   28.9401 N   0  3  0  0  0  0  0  0  0  0  0  0
   -7.4097   -2.6740   26.9434 C   0  0  0  0  0  0  0  0  0  0  0  0
   -6.5645   -1.6178   26.2435 C   0  0  0  0  0  0  0  0  0  0  0  0
   -5.9399   -2.2071   24.9808 C   0  0  0  0  0  0  0  0  0  0  0  0
   -5.0877   -1.1653   24.3274 N   0  0  0  0  0  0  0  0  0  0  0  0
   -5.0162   -1.0853   23.0257 C   0  0  0  0  0  0  0  0  0  0  0  0
   -3.9277   -1.0945   22.4549 O   0  0  0  0  0  0  0  0  0  0  0  0
   -6.1060   -0.9790   22.3228 N   0  0  0  0  0  0  0  0  0  0  0  0
  1  2  1  0  0  0  0
  1  3  2  0  0  0  0
  4  1  1  6  0  0  0
  4  6  1  0  0  0  0
  4  5  1  0  0  0  0
  6  7  1  0  0  0  0
  7  8  1  0  0  0  0
  8  9  1  0  0  0  0
  9 10  1  0  0  0  0
 10 12  1  0  0  0  0
 10 11  2  0  0  0  0
M  CHG  2   2  -1   5   1
M  END
>  <CHROM.1>
-37.25254165,61.85426840,74.40859467,178.65717287,-178.60422000,36.13710258
-7.06332191,-1.50031658,25.92592061,2.49292151,-0.71692865,2.38712013

>  <Name>
1kod cryst

>  <RI>
0

>  <Rbt.Current_Directory>
/home/itssahil/PROJECTS/Mol_Feturizer/New_Systems/rnas/1kod

>  <Rbt.Executable>
rbdock ($Id: //depot/dev/client3/rdock/2013.1/src/exe/rbdock.cxx#4 $)

>  <Rbt.Library>
libRbt.so (2013.1, Build901 2013/11/27)

>  <Rbt.Parameter_File>
/export/apps/rDock/src/rDock_2013.1_src/data/scripts/dock_solv.prm

>  <Rbt.Receptor>
prm/blind_docking_80.prm

>  <SCORE>
-36.9874

>  <SCORE.INTER>
-31.0978

>  <SCORE.INTER.CONST>
1

>  <SCORE.INTER.POLAR>
-5.7645

>  <SCORE.INTER.ROT>
5

>  <SCORE.INTER.SOLV>
21.4968

>  <SCORE.INTER.VDW>
-15.6158

>  <SCORE.INTER.norm>
-2.59148

>  <SCORE.INTRA>
-6.02473

>  <SCORE.INTRA.DIHEDRAL>
-5.02518

>  <SCORE.INTRA.DIHEDRAL.0>
7.7847

>  <SCORE.INTRA.POLAR>
0

>  <SCORE.INTRA.POLAR.0>
0

>  <SCORE.INTRA.REPUL>
0

>  <SCORE.INTRA.REPUL.0>
0

>  <SCORE.INTRA.SOLV>
-2.61392

>  <SCORE.INTRA.SOLV.lig_0>
-57.5465

>  <SCORE.INTRA.VDW>
-2.20518

>  <SCORE.INTRA.VDW.0>
1.39369

>  <SCORE.INTRA.norm>
-0.502061

>  <SCORE.RESTR>
0.135057

>  <SCORE.RESTR.CAVITY>
0.135057

>  <SCORE.RESTR.norm>
0.0112548

>  <SCORE.SYSTEM>
0

>  <SCORE.SYSTEM.CONST>
0

>  <SCORE.SYSTEM.DIHEDRAL>
0

>  <SCORE.SYSTEM.SOLV>
0

>  <SCORE.SYSTEM.norm>
0

>  <SCORE.heavy>
12

>  <SCORE.norm>
-3.08229

>  <SYMMETRIC_BONDS>
4 1 2

>  <RMSD>
13.482

$$$$
1kod cryst
 OpenBabel11021811393D
libRbt.so/2013.1/901 2013/11/27
 12 11  0  0  0  0  0  0  0  0999 V2000
   -7.9778   -1.2339   26.2935 C   0  0  0  0  0  0  0  0  0  0  0  0
   -7.8362   -0.9576   25.1116 O   0  5  0  0  0  0  0  0  0  0  0  0
   -8.7486   -0.6471   27.0426 O   0  0  0  0  0  0  0  0  0  0  0  0
   -7.1371   -2.3903   26.8699 C   0  0  1  0  0  0  0  0  0  0  0  0
   -7.9567   -3.1518   27.8613 N   0  3  0  0  0  0  0  0  0  0  0  0
   -6.6725   -3.3437   25.7441 C   0  0  0  0  0  0  0  0  0  0  0  0
   -5.3039   -2.9282   25.2203 C   0  0  0  0  0  0  0  0  0  0  0  0
   -5.4333   -1.6571   24.3841 C   0  0  0  0  0  0  0  0  0  0  0  0
   -4.1299   -1.3900   23.6996 N   0  0  0  0  0  0  0  0  0  0  0  0
   -3.7983   -0.1755   23.3515 C   0  0  0  0  0  0  0  0  0  0  0  0
   -3.4669    0.0779   22.1955 O   0  0  0  0  0  0  0  0  0  0  0  0
   -3.8028    0.7763   24.2388 N   0  0  0  0  0  0  0  0  0  0  0  0
  1  2  1  0  0  0  0
  1  3  2  0  0  0  0
  4  1  1  6  0  0  0
  4  6  1  0  0  0  0
  4  5  1  0  0  0  0
  6  7  1  0  0  0  0
  7  8  1  0  0  0  0
  8  9  1  0  0  0  0
  9 10  1  0  0  0  0
 10 12  1  0  0  0  0
 10 11  2  0  0  0  0
M  CHG  2   2  -1   5   1
M  END
>  <CHROM.1>
-142.90972511,92.10297773,-160.60799938,-72.86175007,-170.91744119,25.78170987
-6.03782103,-1.40617624,25.18688906,2.61263015,-0.61436054,2.83644421

>  <Name>
1kod cryst

>  <RI>
0

>  <Rbt.Current_Directory>
/home/itssahil/PROJECTS/Mol_Feturizer/New_Systems/rnas/1kod

>  <Rbt.Executable>
rbdock ($Id: //depot/dev/client3/rdock/2013.1/src/exe/rbdock.cxx#4 $)

>  <Rbt.Library>
libRbt.so (2013.1, Build901 2013/11/27)

>  <Rbt.Parameter_File>
/export/apps/rDock/src/rDock_2013.1_src/data/scripts/dock_solv.prm

>  <Rbt.Receptor>
prm/blind_docking_40.prm

>  <SCORE>
-27.5528

>  <SCORE.INTER>
-27.0648

>  <SCORE.INTER.CONST>
1

>  <SCORE.INTER.POLAR>
-5.06344

>  <SCORE.INTER.ROT>
5

>  <SCORE.INTER.SOLV>
22.6612

>  <SCORE.INTER.VDW>
-15.6521

>  <SCORE.INTER.norm>
-2.2554

>  <SCORE.INTRA>
-0.488059

>  <SCORE.INTRA.DIHEDRAL>
-0.872957

>  <SCORE.INTRA.DIHEDRAL.0>
7.7847

>  <SCORE.INTRA.POLAR>
0

>  <SCORE.INTRA.POLAR.0>
0

>  <SCORE.INTRA.REPUL>
0

>  <SCORE.INTRA.REPUL.0>
0

>  <SCORE.INTRA.SOLV>
-1.28033

>  <SCORE.INTRA.SOLV.lig_0>
-57.5465

>  <SCORE.INTRA.VDW>
0.588587

>  <SCORE.INTRA.VDW.0>
1.39369

>  <SCORE.INTRA.norm>
-0.0406716

>  <SCORE.RESTR>
0

>  <SCORE.RESTR.CAVITY>
0

>  <SCORE.RESTR.norm>
0

>  <SCORE.SYSTEM>
0

>  <SCORE.SYSTEM.CONST>
0

>  <SCORE.SYSTEM.DIHEDRAL>
0

>  <SCORE.SYSTEM.SOLV>
0

>  <SCORE.SYSTEM.norm>
0

>  <SCORE.heavy>
12

>  <SCORE.norm>
-2.29607

>  <SYMMETRIC_BONDS>
4 1 2

>  <RMSD>
13.491

$$$$
1kod cryst
 OpenBabel11021811393D
libRbt.so/2013.1/901 2013/11/27
 12 11  0  0  0  0  0  0  0  0999 V2000
   -8.6826   -1.0542   27.1626 C   0  0  0  0  0  0  0  0  0  0  0  0
   -9.7668   -1.4348   27.5783 O   0  5  0  0  0  0  0  0  0  0  0  0
   -8.4875    0.0570   26.6864 O   0  0  0  0  0  0  0  0  0  0  0  0
   -7.4938   -2.0320   27.2470 C   0  0  1  0  0  0  0  0  0  0  0  0
   -7.9807   -3.3631   27.7220 N   0  3  0  0  0  0  0  0  0  0  0  0
   -6.8181   -2.1933   25.8651 C   0  0  0  0  0  0  0  0  0  0  0  0
   -5.3545   -2.5829   26.0261 C   0  0  0  0  0  0  0  0  0  0  0  0
   -4.6514   -2.5271   24.6717 C   0  0  0  0  0  0  0  0  0  0  0  0
   -4.4421   -1.0954   24.2906 N   0  0  0  0  0  0  0  0  0  0  0  0
   -4.7269   -0.6796   23.0856 C   0  0  0  0  0  0  0  0  0  0  0  0
   -3.8906   -0.0788   22.4147 O   0  0  0  0  0  0  0  0  0  0  0  0
   -5.9127   -0.8883   22.5922 N   0  0  0  0  0  0  0  0  0  0  0  0
  1  2  1  0  0  0  0
  1  3  2  0  0  0  0
  4  1  1  6  0  0  0
  4  6  1  0  0  0  0
  4  5  1  0  0  0  0
  6  7  1  0  0  0  0
  7  8  1  0  0  0  0
  8  9  1  0  0  0  0
  9 10  1  0  0  0  0
 10 12  1  0  0  0  0
 10 11  2  0  0  0  0
M  CHG  2   2  -1   5   1
M  END
>  <CHROM.1>
5.94449049,153.65261572,111.00814344,-171.30307709,73.83277554,46.13276909
-6.54816947,-1.49206445,25.44963870,2.49947257,-0.55112519,2.39811861

>  <Name>
1kod cryst

>  <RI>
0

>  <Rbt.Current_Directory>
/home/itssahil/PROJECTS/Mol_Feturizer/New_Systems/rnas/1kod

>  <Rbt.Executable>
rbdock ($Id: //depot/dev/client3/rdock/2013.1/src/exe/rbdock.cxx#4 $)

>  <Rbt.Library>
libRbt.so (2013.1, Build901 2013/11/27)

>  <Rbt.Parameter_File>
/export/apps/rDock/src/rDock_2013.1_src/data/scripts/dock_solv.prm

>  <Rbt.Receptor>
prm/blind_docking_100.prm

>  <SCORE>
-27.8841

>  <SCORE.INTER>
-25.6644

>  <SCORE.INTER.CONST>
1

>  <SCORE.INTER.POLAR>
-4.2016

>  <SCORE.INTER.ROT>
5

>  <SCORE.INTER.SOLV>
22.1815

>  <SCORE.INTER.VDW>
-17.4314

>  <SCORE.INTER.norm>
-2.1387

>  <SCORE.INTRA>
-2.30612

>  <SCORE.INTRA.DIHEDRAL>
0.942355

>  <SCORE.INTRA.DIHEDRAL.0>
7.7847

>  <SCORE.INTRA.POLAR>
0

>  <SCORE.INTRA.POLAR.0>
0

>  <SCORE.INTRA.REPUL>
0

>  <SCORE.INTRA.REPUL.0>
0

>  <SCORE.INTRA.SOLV>
-2.06241

>  <SCORE.INTRA.SOLV.lig_0>
-57.5465

>  <SCORE.INTRA.VDW>
-1.74609

>  <SCORE.INTRA.VDW.0>
1.39369

>  <SCORE.INTRA.norm>
-0.192177

>  <SCORE.RESTR>
0.0863538

>  <SCORE.RESTR.CAVITY>
0.0863538

>  <SCORE.RESTR.norm>
0.00719615

>  <SCORE.SYSTEM>
0

>  <SCORE.SYSTEM.CONST>
0

>  <SCORE.SYSTEM.DIHEDRAL>
0

>  <SCORE.SYSTEM.SOLV>
0

>  <SCORE.SYSTEM.norm>
0

>  <SCORE.heavy>
12

>  <SCORE.norm>
-2.32368

>  <SYMMETRIC_BONDS>
4 1 2

>  <RMSD>
13.493

$$$$
1kod cryst
 OpenBabel11021811393D
libRbt.so/2013.1/901 2013/11/27
 12 11  0  0  0  0  0  0  0  0999 V2000
   -8.4698   -0.9195   27.0293 C   0  0  0  0  0  0  0  0  0  0  0  0
   -8.0792    0.1940   26.7117 O   0  5  0  0  0  0  0  0  0  0  0  0
   -9.6506   -1.2141   27.1653 O   0  0  0  0  0  0  0  0  0  0  0  0
   -7.4113   -2.0142   27.2690 C   0  0  1  0  0  0  0  0  0  0  0  0
   -8.0514   -3.1810   27.9499 N   0  3  0  0  0  0  0  0  0  0  0  0
   -6.7883   -2.4762   25.9309 C   0  0  0  0  0  0  0  0  0  0  0  0
   -5.4230   -1.8332   25.7248 C   0  0  0  0  0  0  0  0  0  0  0  0
   -5.0303   -1.9121   24.2512 C   0  0  0  0  0  0  0  0  0  0  0  0
   -5.7629   -0.8492   23.4947 N   0  0  0  0  0  0  0  0  0  0  0  0
   -5.2371    0.3358   23.3353 C   0  0  0  0  0  0  0  0  0  0  0  0
   -5.8598    1.3468   23.6524 O   0  0  0  0  0  0  0  0  0  0  0  0
   -4.0474    0.4523   22.8213 N   0  0  0  0  0  0  0  0  0  0  0  0
  1  2  1  0  0  0  0
  1  3  2  0  0  0  0
  4  1  1  6  0  0  0
  4  6  1  0  0  0  0
  4  5  1  0  0  0  0
  6  7  1  0  0  0  0
  7  8  1  0  0  0  0
  8  9  1  0  0  0  0
  9 10  1  0  0  0  0
 10 12  1  0  0  0  0
 10 11  2  0  0  0  0
M  CHG  2   2  -1   5   1
M  END
>  <CHROM.1>
166.69416953,101.20064857,-157.43338410,-161.39461951,78.25902037,-89.38846742
-6.67458040,-1.00378140,25.45382237,2.43107072,-0.63920520,2.64067830

>  <Name>
1kod cryst

>  <RI>
0

>  <Rbt.Current_Directory>
/home/itssahil/PROJECTS/Mol_Feturizer/New_Systems/rnas/1kod

>  <Rbt.Executable>
rbdock ($Id: //depot/dev/client3/rdock/2013.1/src/exe/rbdock.cxx#4 $)

>  <Rbt.Library>
libRbt.so (2013.1, Build901 2013/11/27)

>  <Rbt.Parameter_File>
/export/apps/rDock/src/rDock_2013.1_src/data/scripts/dock_solv.prm

>  <Rbt.Receptor>
prm/blind_docking_80.prm

>  <SCORE>
-24.2437

>  <SCORE.INTER>
-21.7577

>  <SCORE.INTER.CONST>
1

>  <SCORE.INTER.POLAR>
-3.0754

>  <SCORE.INTER.ROT>
5

>  <SCORE.INTER.SOLV>
21.2328

>  <SCORE.INTER.VDW>
-18.2647

>  <SCORE.INTER.norm>
-1.81314

>  <SCORE.INTRA>
-2.48865

>  <SCORE.INTRA.DIHEDRAL>
2.06284

>  <SCORE.INTRA.DIHEDRAL.0>
7.7847

>  <SCORE.INTRA.POLAR>
0

>  <SCORE.INTRA.POLAR.0>
0

>  <SCORE.INTRA.REPUL>
0

>  <SCORE.INTRA.REPUL.0>
0

>  <SCORE.INTRA.SOLV>
-1.72565

>  <SCORE.INTRA.SOLV.lig_0>
-57.5465

>  <SCORE.INTRA.VDW>
-2.65725

>  <SCORE.INTRA.VDW.0>
1.39369

>  <SCORE.INTRA.norm>
-0.207388

>  <SCORE.RESTR>
0.00266409

>  <SCORE.RESTR.CAVITY>
0.00266409

>  <SCORE.RESTR.norm>
0.000222007

>  <SCORE.SYSTEM>
0

>  <SCORE.SYSTEM.CONST>
0

>  <SCORE.SYSTEM.DIHEDRAL>
0

>  <SCORE.SYSTEM.SOLV>
0

>  <SCORE.SYSTEM.norm>
0

>  <SCORE.heavy>
12

>  <SCORE.norm>
-2.02031

>  <SYMMETRIC_BONDS>
4 1 2

>  <RMSD>
13.494

$$$$
1kod cryst
 OpenBabel11021811393D
libRbt.so/2013.1/901 2013/11/27
 12 11  0  0  0  0  0  0  0  0999 V2000
   -8.9004   -1.0354   27.7814 C   0  0  0  0  0  0  0  0  0  0  0  0
   -8.3056    0.0154   27.5933 O   0  5  0  0  0  0  0  0  0  0  0  0
  -10.1197   -1.1437   27.7456 O   0  0  0  0  0  0  0  0  0  0  0  0
   -8.0633   -2.2953   28.0781 C   0  0  1  0  0  0  0  0  0  0  0  0
   -8.8257   -3.1900   29.0015 N   0  3  0  0  0  0  0  0  0  0  0  0
   -7.7394   -3.0578   26.7719 C   0  0  0  0  0  0  0  0  0  0  0  0
   -6.3590   -2.6739   26.2552 C   0  0  0  0  0  0  0  0  0  0  0  0
   -6.3838   -1.2420   25.7253 C   0  0  0  0  0  0  0  0  0  0  0  0
   -6.3739   -1.2762   24.2295 N   0  0  0  0  0  0  0  0  0  0  0  0
   -5.2452   -1.2862   23.5722 C   0  0  0  0  0  0  0  0  0  0  0  0
   -5.0241   -0.4578   22.6917 O   0  0  0  0  0  0  0  0  0  0  0  0
   -4.3488   -2.1909   23.8388 N   0  0  0  0  0  0  0  0  0  0  0  0
  1  2  1  0  0  0  0
  1  3  2  0  0  0  0
  4  1  1  6  0  0  0
  4  6  1  0  0  0  0
  4  5  1  0  0  0  0
  6  7  1  0  0  0  0
  7  8  1  0  0  0  0
  8  9  1  0  0  0  0
  9 10  1  0  0  0  0
 10 12  1  0  0  0  0
 10 11  2  0  0  0  0
M  CHG  2   2  -1   5   1
M  END
>  <CHROM.1>
147.47244062,96.31250445,-166.19244421,-70.62409250,-104.92370496,90.85039445
-7.15654770,-1.66042922,26.11736634,2.60978221,-0.73312023,2.54420088

>  <Name>
1kod cryst

>  <RI>
0

>  <Rbt.Current_Directory>
/home/itssahil/PROJECTS/Mol_Feturizer/New_Systems/rnas/1kod

>  <Rbt.Executable>
rbdock ($Id: //depot/dev/client3/rdock/2013.1/src/exe/rbdock.cxx#4 $)

>  <Rbt.Library>
libRbt.so (2013.1, Build901 2013/11/27)

>  <Rbt.Parameter_File>
/export/apps/rDock/src/rDock_2013.1_src/data/scripts/dock_solv.prm

>  <Rbt.Receptor>
prm/blind_docking_100.prm

>  <SCORE>
-27.1563

>  <SCORE.INTER>
-26.9947

>  <SCORE.INTER.CONST>
1

>  <SCORE.INTER.POLAR>
-4.74368

>  <SCORE.INTER.ROT>
5

>  <SCORE.INTER.SOLV>
20.4532

>  <SCORE.INTER.VDW>
-15.9353

>  <SCORE.INTER.norm>
-2.24956

>  <SCORE.INTRA>
-0.731352

>  <SCORE.INTRA.DIHEDRAL>
3.4653

>  <SCORE.INTRA.DIHEDRAL.0>
7.7847

>  <SCORE.INTRA.POLAR>
0

>  <SCORE.INTRA.POLAR.0>
0

>  <SCORE.INTRA.REPUL>
0

>  <SCORE.INTRA.REPUL.0>
0

>  <SCORE.INTRA.SOLV>
-1.17403

>  <SCORE.INTRA.SOLV.lig_0>
-57.5465

>  <SCORE.INTRA.VDW>
-1.87699

>  <SCORE.INTRA.VDW.0>
1.39369

>  <SCORE.INTRA.norm>
-0.060946

>  <SCORE.RESTR>
0.569687

>  <SCORE.RESTR.CAVITY>
0.569687

>  <SCORE.RESTR.norm>
0.0474739

>  <SCORE.SYSTEM>
0

>  <SCORE.SYSTEM.CONST>
0

>  <SCORE.SYSTEM.DIHEDRAL>
0

>  <SCORE.SYSTEM.SOLV>
0

>  <SCORE.SYSTEM.norm>
0

>  <SCORE.heavy>
12

>  <SCORE.norm>
-2.26303

>  <SYMMETRIC_BONDS>
4 1 2

>  <RMSD>
13.499

$$$$
1kod cryst
 OpenBabel11021811393D
libRbt.so/2013.1/901 2013/11/27
 12 11  0  0  0  0  0  0  0  0999 V2000
   -8.9619   -0.8999   27.9576 C   0  0  0  0  0  0  0  0  0  0  0  0
   -8.4507    0.1519   27.6031 O   0  5  0  0  0  0  0  0  0  0  0  0
  -10.1673   -1.0550   28.1073 O   0  0  0  0  0  0  0  0  0  0  0  0
   -8.0316   -2.0989   28.2283 C   0  0  1  0  0  0  0  0  0  0  0  0
   -8.7976   -3.1695   28.9366 N   0  3  0  0  0  0  0  0  0  0  0  0
   -7.4636   -2.6614   26.9042 C   0  0  0  0  0  0  0  0  0  0  0  0
   -6.6932   -1.5847   26.1510 C   0  0  0  0  0  0  0  0  0  0  0  0
   -5.9280   -2.2127   24.9883 C   0  0  0  0  0  0  0  0  0  0  0  0
   -5.0751   -1.1653   24.3446 N   0  0  0  0  0  0  0  0  0  0  0  0
   -4.9800   -1.0921   23.0440 C   0  0  0  0  0  0  0  0  0  0  0  0
   -3.8810   -1.0926   22.4938 O   0  0  0  0  0  0  0  0  0  0  0  0
   -6.0576   -1.0022   22.3201 N   0  0  0  0  0  0  0  0  0  0  0  0
  1  2  1  0  0  0  0
  1  3  2  0  0  0  0
  4  1  1  6  0  0  0
  4  6  1  0  0  0  0
  4  5  1  0  0  0  0
  6  7  1  0  0  0  0
  7  8  1  0  0  0  0
  8  9  1  0  0  0  0
  9 10  1  0  0  0  0
 10 12  1  0  0  0  0
 10 11  2  0  0  0  0
M  CHG  2   2  -1   5   1
M  END
>  <CHROM.1>
167.24241328,58.59339306,-43.30098251,169.59376099,-174.53002548,41.86313778
-7.06474134,-1.49156974,25.92911699,2.52441499,-0.73010701,2.42600431

>  <Name>
1kod cryst

>  <RI>
0

>  <Rbt.Current_Directory>
/home/itssahil/PROJECTS/Mol_Feturizer/New_Systems/rnas/1kod

>  <Rbt.Executable>
rbdock ($Id: //depot/dev/client3/rdock/2013.1/src/exe/rbdock.cxx#4 $)

>  <Rbt.Library>
libRbt.so (2013.1, Build901 2013/11/27)

>  <Rbt.Parameter_File>
/export/apps/rDock/src/rDock_2013.1_src/data/scripts/dock_solv.prm

>  <Rbt.Receptor>
prm/blind_docking_60.prm

>  <SCORE>
-35.5095

>  <SCORE.INTER>
-31.3517

>  <SCORE.INTER.CONST>
1

>  <SCORE.INTER.POLAR>
-5.72683

>  <SCORE.INTER.ROT>
5

>  <SCORE.INTER.SOLV>
20.9489

>  <SCORE.INTER.VDW>
-15.728

>  <SCORE.INTER.norm>
-2.61264

>  <SCORE.INTRA>
-4.87283

>  <SCORE.INTRA.DIHEDRAL>
-4.33511

>  <SCORE.INTRA.DIHEDRAL.0>
7.7847

>  <SCORE.INTRA.POLAR>
0

>  <SCORE.INTRA.POLAR.0>
0

>  <SCORE.INTRA.REPUL>
0

>  <SCORE.INTRA.REPUL.0>
0

>  <SCORE.INTRA.SOLV>
-2.27543

>  <SCORE.INTRA.SOLV.lig_0>
-57.5465

>  <SCORE.INTRA.VDW>
-1.56756

>  <SCORE.INTRA.VDW.0>
1.39369

>  <SCORE.INTRA.norm>
-0.406069

>  <SCORE.RESTR>
0.714952

>  <SCORE.RESTR.CAVITY>
0.714952

>  <SCORE.RESTR.norm>
0.0595794

>  <SCORE.SYSTEM>
0

>  <SCORE.SYSTEM.CONST>
0

>  <SCORE.SYSTEM.DIHEDRAL>
0

>  <SCORE.SYSTEM.SOLV>
0

>  <SCORE.SYSTEM.norm>
0

>  <SCORE.heavy>
12

>  <SCORE.norm>
-2.95913

>  <SYMMETRIC_BONDS>
4 1 2

>  <RMSD>
13.507

$$$$
1kod cryst
 OpenBabel11021811393D
libRbt.so/2013.1/901 2013/11/27
 12 11  0  0  0  0  0  0  0  0999 V2000
   -8.9637   -0.9678   27.8198 C   0  0  0  0  0  0  0  0  0  0  0  0
  -10.1458   -1.2316   27.6575 O   0  5  0  0  0  0  0  0  0  0  0  0
   -8.4915    0.1541   27.6859 O   0  0  0  0  0  0  0  0  0  0  0  0
   -8.0163   -2.1166   28.2187 C   0  0  1  0  0  0  0  0  0  0  0  0
   -8.7958   -3.1778   28.9263 N   0  3  0  0  0  0  0  0  0  0  0  0
   -7.3350   -2.7233   26.9698 C   0  0  0  0  0  0  0  0  0  0  0  0
   -6.5233   -1.6649   26.2343 C   0  0  0  0  0  0  0  0  0  0  0  0
   -5.9086   -2.2673   24.9729 C   0  0  0  0  0  0  0  0  0  0  0  0
   -5.0528   -1.2356   24.3081 N   0  0  0  0  0  0  0  0  0  0  0  0
   -5.0111   -1.1452   23.0057 C   0  0  0  0  0  0  0  0  0  0  0  0
   -3.9370   -1.1696   22.4088 O   0  0  0  0  0  0  0  0  0  0  0  0
   -6.1153   -1.0122   22.3303 N   0  0  0  0  0  0  0  0  0  0  0  0
  1  2  1  0  0  0  0
  1  3  2  0  0  0  0
  4  1  1  6  0  0  0
  4  6  1  0  0  0  0
  4  5  1  0  0  0  0
  6  7  1  0  0  0  0
  7  8  1  0  0  0  0
  8  9  1  0  0  0  0
  9 10  1  0  0  0  0
 10 12  1  0  0  0  0
 10 11  2  0  0  0  0
M  CHG  2   2  -1   5   1
M  END
>  <CHROM.1>
-25.95820095,59.82843445,-48.45589654,-177.55201883,-176.76986822,37.73458436
-7.05040056,-1.54755326,25.88269091,2.45787562,-0.67336633,2.32877908

>  <Name>
1kod cryst

>  <RI>
0

>  <Rbt.Current_Directory>
/home/itssahil/PROJECTS/Mol_Feturizer/New_Systems/rnas/1kod

>  <Rbt.Executable>
rbdock ($Id: //depot/dev/client3/rdock/2013.1/src/exe/rbdock.cxx#4 $)

>  <Rbt.Library>
libRbt.so (2013.1, Build901 2013/11/27)

>  <Rbt.Parameter_File>
/export/apps/rDock/src/rDock_2013.1_src/data/scripts/dock_solv.prm

>  <Rbt.Receptor>
prm/blind_docking_80.prm

>  <SCORE>
-36.452

>  <SCORE.INTER>
-30.7178

>  <SCORE.INTER.CONST>
1

>  <SCORE.INTER.POLAR>
-5.72959

>  <SCORE.INTER.ROT>
5

>  <SCORE.INTER.SOLV>
21.7207

>  <SCORE.INTER.VDW>
-15.5535

>  <SCORE.INTER.norm>
-2.55982

>  <SCORE.INTRA>
-5.83411

>  <SCORE.INTRA.DIHEDRAL>
-5.15608

>  <SCORE.INTRA.DIHEDRAL.0>
7.7847

>  <SCORE.INTRA.POLAR>
0

>  <SCORE.INTRA.POLAR.0>
0

>  <SCORE.INTRA.REPUL>
0

>  <SCORE.INTRA.REPUL.0>
0

>  <SCORE.INTRA.SOLV>
-2.41064

>  <SCORE.INTRA.SOLV.lig_0>
-57.5465

>  <SCORE.INTRA.VDW>
-2.05075

>  <SCORE.INTRA.VDW.0>
1.39369

>  <SCORE.INTRA.norm>
-0.486176

>  <SCORE.RESTR>
0.099956

>  <SCORE.RESTR.CAVITY>
0.099956

>  <SCORE.RESTR.norm>
0.00832966

>  <SCORE.SYSTEM>
0

>  <SCORE.SYSTEM.CONST>
0

>  <SCORE.SYSTEM.DIHEDRAL>
0

>  <SCORE.SYSTEM.SOLV>
0

>  <SCORE.SYSTEM.norm>
0

>  <SCORE.heavy>
12

>  <SCORE.norm>
-3.03766

>  <SYMMETRIC_BONDS>
4 1 2

>  <RMSD>
13.515

$$$$
1kod cryst
 OpenBabel11021811393D
libRbt.so/2013.1/901 2013/11/27
 12 11  0  0  0  0  0  0  0  0999 V2000
   -8.8271   -1.0358   27.6498 C   0  0  0  0  0  0  0  0  0  0  0  0
   -8.3304    0.0798   27.6936 O   0  5  0  0  0  0  0  0  0  0  0  0
   -9.9725   -1.2574   27.2774 O   0  0  0  0  0  0  0  0  0  0  0  0
   -7.9569   -2.2307   28.0872 C   0  0  1  0  0  0  0  0  0  0  0  0
   -8.7755   -3.1580   28.9266 N   0  3  0  0  0  0  0  0  0  0  0  0
   -7.4144   -2.9931   26.8557 C   0  0  0  0  0  0  0  0  0  0  0  0
   -6.2878   -2.2102   26.1939 C   0  0  0  0  0  0  0  0  0  0  0  0
   -5.9663   -2.8176   24.8302 C   0  0  0  0  0  0  0  0  0  0  0  0
   -4.8522   -2.0413   24.2021 N   0  0  0  0  0  0  0  0  0  0  0  0
   -5.1062   -1.0058   23.4475 C   0  0  0  0  0  0  0  0  0  0  0  0
   -4.6423   -0.9275   22.3121 O   0  0  0  0  0  0  0  0  0  0  0  0
   -5.8454   -0.0374   23.9046 N   0  0  0  0  0  0  0  0  0  0  0  0
  1  2  1  0  0  0  0
  1  3  2  0  0  0  0
  4  1  1  6  0  0  0
  4  6  1  0  0  0  0
  4  5  1  0  0  0  0
  6  7  1  0  0  0  0
  7  8  1  0  0  0  0
  8  9  1  0  0  0  0
  9 10  1  0  0  0  0
 10 12  1  0  0  0  0
 10 11  2  0  0  0  0
M  CHG  2   2  -1   5   1
M  END
>  <CHROM.1>
137.40682381,74.84757928,-170.61008304,-168.09192595,-179.59733706,90.40727841
-7.02147785,-1.62644840,25.96310019,2.62310948,-0.76808549,2.60444361

>  <Name>
1kod cryst

>  <RI>
0

>  <Rbt.Current_Directory>
/home/itssahil/PROJECTS/Mol_Feturizer/New_Systems/rnas/1kod

>  <Rbt.Executable>
rbdock ($Id: //depot/dev/client3/rdock/2013.1/src/exe/rbdock.cxx#4 $)

>  <Rbt.Library>
libRbt.so (2013.1, Build901 2013/11/27)

>  <Rbt.Parameter_File>
/export/apps/rDock/src/rDock_2013.1_src/data/scripts/dock_solv.prm

>  <Rbt.Receptor>
prm/blind_docking_80.prm

>  <SCORE>
-36.3775

>  <SCORE.INTER>
-30.8619

>  <SCORE.INTER.CONST>
1

>  <SCORE.INTER.POLAR>
-5.36328

>  <SCORE.INTER.ROT>
5

>  <SCORE.INTER.SOLV>
20.7317

>  <SCORE.INTER.VDW>
-16.5409

>  <SCORE.INTER.norm>
-2.57182

>  <SCORE.INTRA>
-5.51569

>  <SCORE.INTRA.DIHEDRAL>
-4.01913

>  <SCORE.INTRA.DIHEDRAL.0>
7.7847

>  <SCORE.INTRA.POLAR>
0

>  <SCORE.INTRA.POLAR.0>
0

>  <SCORE.INTRA.REPUL>
0

>  <SCORE.INTRA.REPUL.0>
0

>  <SCORE.INTRA.SOLV>
-2.36744

>  <SCORE.INTRA.SOLV.lig_0>
-57.5465

>  <SCORE.INTRA.VDW>
-2.3224

>  <SCORE.INTRA.VDW.0>
1.39369

>  <SCORE.INTRA.norm>
-0.459641

>  <SCORE.RESTR>
0

>  <SCORE.RESTR.CAVITY>
0

>  <SCORE.RESTR.norm>
0

>  <SCORE.SYSTEM>
0

>  <SCORE.SYSTEM.CONST>
0

>  <SCORE.SYSTEM.DIHEDRAL>
0

>  <SCORE.SYSTEM.SOLV>
0

>  <SCORE.SYSTEM.norm>
0

>  <SCORE.heavy>
12

>  <SCORE.norm>
-3.03146

>  <SYMMETRIC_BONDS>
4 1 2

>  <RMSD>
13.521

$$$$
1kod cryst
 OpenBabel11021811393D
libRbt.so/2013.1/901 2013/11/27
 12 11  0  0  0  0  0  0  0  0999 V2000
   -8.9069   -1.3607   27.5721 C   0  0  0  0  0  0  0  0  0  0  0  0
  -10.0340   -1.6013   27.9782 O   0  5  0  0  0  0  0  0  0  0  0  0
   -8.6153   -0.3649   26.9217 O   0  0  0  0  0  0  0  0  0  0  0  0
   -7.7901   -2.3707   27.9022 C   0  0  1  0  0  0  0  0  0  0  0  0
   -8.3998   -3.6217   28.4479 N   0  3  0  0  0  0  0  0  0  0  0  0
   -6.9654   -2.7079   26.6379 C   0  0  0  0  0  0  0  0  0  0  0  0
   -6.1390   -1.5057   26.2003 C   0  0  0  0  0  0  0  0  0  0  0  0
   -5.2606   -1.8861   25.0105 C   0  0  0  0  0  0  0  0  0  0  0  0
   -4.8407   -0.6397   24.2973 N   0  0  0  0  0  0  0  0  0  0  0  0
   -4.8669   -0.5792   22.9928 C   0  0  0  0  0  0  0  0  0  0  0  0
   -3.8689   -0.2420   22.3597 O   0  0  0  0  0  0  0  0  0  0  0  0
   -5.9641   -0.8633   22.3535 N   0  0  0  0  0  0  0  0  0  0  0  0
  1  2  1  0  0  0  0
  1  3  2  0  0  0  0
  4  1  1  6  0  0  0
  4  6  1  0  0  0  0
  4  5  1  0  0  0  0
  6  7  1  0  0  0  0
  7  8  1  0  0  0  0
  8  9  1  0  0  0  0
  9 10  1  0  0  0  0
 10 12  1  0  0  0  0
 10 11  2  0  0  0  0
M  CHG  2   2  -1   5   1
M  END
>  <CHROM.1>
11.46156355,69.23205323,5.93726429,176.13285773,160.11133759,43.58752003
-6.83265281,-1.48659338,25.72405065,2.34788193,-0.49726836,2.31234240

>  <Name>
1kod cryst

>  <RI>
0

>  <Rbt.Current_Directory>
/home/itssahil/PROJECTS/Mol_Feturizer/New_Systems/rnas/1kod

>  <Rbt.Executable>
rbdock ($Id: //depot/dev/client3/rdock/2013.1/src/exe/rbdock.cxx#4 $)

>  <Rbt.Library>
libRbt.so (2013.1, Build901 2013/11/27)

>  <Rbt.Parameter_File>
/export/apps/rDock/src/rDock_2013.1_src/data/scripts/dock_solv.prm

>  <Rbt.Receptor>
prm/blind_docking_100.prm

>  <SCORE>
-27.3421

>  <SCORE.INTER>
-25.4967

>  <SCORE.INTER.CONST>
1

>  <SCORE.INTER.POLAR>
-5.20597

>  <SCORE.INTER.ROT>
5

>  <SCORE.INTER.SOLV>
24.024

>  <SCORE.INTER.VDW>
-14.5859

>  <SCORE.INTER.norm>
-2.12473

>  <SCORE.INTRA>
-1.96828

>  <SCORE.INTRA.DIHEDRAL>
-0.312947

>  <SCORE.INTRA.DIHEDRAL.0>
7.7847

>  <SCORE.INTRA.POLAR>
0

>  <SCORE.INTRA.POLAR.0>
0

>  <SCORE.INTRA.REPUL>
0

>  <SCORE.INTRA.REPUL.0>
0

>  <SCORE.INTRA.SOLV>
-2.22973

>  <SCORE.INTRA.SOLV.lig_0>
-57.5465

>  <SCORE.INTRA.VDW>
-0.696948

>  <SCORE.INTRA.VDW.0>
1.39369

>  <SCORE.INTRA.norm>
-0.164024

>  <SCORE.RESTR>
0.12291

>  <SCORE.RESTR.CAVITY>
0.12291

>  <SCORE.RESTR.norm>
0.0102425

>  <SCORE.SYSTEM>
0

>  <SCORE.SYSTEM.CONST>
0

>  <SCORE.SYSTEM.DIHEDRAL>
0

>  <SCORE.SYSTEM.SOLV>
0

>  <SCORE.SYSTEM.norm>
0

>  <SCORE.heavy>
12

>  <SCORE.norm>
-2.27851

>  <SYMMETRIC_BONDS>
4 1 2

>  <RMSD>
13.523

$$$$
1kod cryst
 OpenBabel11021811393D
libRbt.so/2013.1/901 2013/11/27
 12 11  0  0  0  0  0  0  0  0999 V2000
   -8.8360   -1.0710   27.5966 C   0  0  0  0  0  0  0  0  0  0  0  0
   -9.9810   -1.3197   27.2496 O   0  5  0  0  0  0  0  0  0  0  0  0
   -8.3497    0.0529   27.5853 O   0  0  0  0  0  0  0  0  0  0  0  0
   -7.9574   -2.2426   28.0780 C   0  0  1  0  0  0  0  0  0  0  0  0
   -8.7764   -3.1577   28.9303 N   0  3  0  0  0  0  0  0  0  0  0  0
   -7.3878   -3.0304   26.8750 C   0  0  0  0  0  0  0  0  0  0  0  0
   -6.3216   -2.2143   26.1560 C   0  0  0  0  0  0  0  0  0  0  0  0
   -5.9013   -2.9272   24.8726 C   0  0  0  0  0  0  0  0  0  0  0  0
   -4.8419   -2.1194   24.1917 N   0  0  0  0  0  0  0  0  0  0  0  0
   -5.1646   -1.1318   23.4001 C   0  0  0  0  0  0  0  0  0  0  0  0
   -4.7251   -1.0767   22.2537 O   0  0  0  0  0  0  0  0  0  0  0  0
   -5.9476   -0.1860   23.8311 N   0  0  0  0  0  0  0  0  0  0  0  0
  1  2  1  0  0  0  0
  1  3  2  0  0  0  0
  4  1  1  6  0  0  0
  4  6  1  0  0  0  0
  4  5  1  0  0  0  0
  6  7  1  0  0  0  0
  7  8  1  0  0  0  0
  8  9  1  0  0  0  0
  9 10  1  0  0  0  0
 10 12  1  0  0  0  0
 10 11  2  0  0  0  0
M  CHG  2   2  -1   5   1
M  END
>  <CHROM.1>
-40.82556649,71.31802778,66.76542583,-172.71793832,-179.25313470,95.43874327
-7.04025653,-1.69222062,25.93230337,2.59621035,-0.75852429,2.54634593

>  <Name>
1kod cryst

>  <RI>
0

>  <Rbt.Current_Directory>
/home/itssahil/PROJECTS/Mol_Feturizer/New_Systems/rnas/1kod

>  <Rbt.Executable>
rbdock ($Id: //depot/dev/client3/rdock/2013.1/src/exe/rbdock.cxx#4 $)

>  <Rbt.Library>
libRbt.so (2013.1, Build901 2013/11/27)

>  <Rbt.Parameter_File>
/export/apps/rDock/src/rDock_2013.1_src/data/scripts/dock_solv.prm

>  <Rbt.Receptor>
prm/blind_docking_40.prm

>  <SCORE>
-36.5545

>  <SCORE.INTER>
-31.1434

>  <SCORE.INTER.CONST>
1

>  <SCORE.INTER.POLAR>
-5.34913

>  <SCORE.INTER.ROT>
5

>  <SCORE.INTER.SOLV>
21.2829

>  <SCORE.INTER.VDW>
-16.9595

>  <SCORE.INTER.norm>
-2.59529

>  <SCORE.INTRA>
-5.41104

>  <SCORE.INTRA.DIHEDRAL>
-4.77106

>  <SCORE.INTRA.DIHEDRAL.0>
7.7847

>  <SCORE.INTRA.POLAR>
0

>  <SCORE.INTRA.POLAR.0>
0

>  <SCORE.INTRA.REPUL>
0

>  <SCORE.INTRA.REPUL.0>
0

>  <SCORE.INTRA.SOLV>
-2.24881

>  <SCORE.INTRA.SOLV.lig_0>
-57.5465

>  <SCORE.INTRA.VDW>
-1.90111

>  <SCORE.INTRA.VDW.0>
1.39369

>  <SCORE.INTRA.norm>
-0.45092

>  <SCORE.RESTR>
0

>  <SCORE.RESTR.CAVITY>
0

>  <SCORE.RESTR.norm>
0

>  <SCORE.SYSTEM>
0

>  <SCORE.SYSTEM.CONST>
0

>  <SCORE.SYSTEM.DIHEDRAL>
0

>  <SCORE.SYSTEM.SOLV>
0

>  <SCORE.SYSTEM.norm>
0

>  <SCORE.heavy>
12

>  <SCORE.norm>
-3.04621

>  <SYMMETRIC_BONDS>
4 1 2

>  <RMSD>
13.536

$$$$
1kod cryst
 OpenBabel11021811393D
libRbt.so/2013.1/901 2013/11/27
 12 11  0  0  0  0  0  0  0  0999 V2000
   -9.0402   -1.1313   27.7033 C   0  0  0  0  0  0  0  0  0  0  0  0
   -8.9902   -0.0673   27.1043 O   0  5  0  0  0  0  0  0  0  0  0  0
   -9.9749   -1.4660   28.4203 O   0  0  0  0  0  0  0  0  0  0  0  0
   -7.8573   -2.1064   27.5419 C   0  0  1  0  0  0  0  0  0  0  0  0
   -8.2462   -3.4484   28.0733 N   0  3  0  0  0  0  0  0  0  0  0  0
   -7.4547   -2.2377   26.0544 C   0  0  0  0  0  0  0  0  0  0  0  0
   -6.7917   -0.9574   25.5633 C   0  0  0  0  0  0  0  0  0  0  0  0
   -5.3238   -1.2256   25.2388 C   0  0  0  0  0  0  0  0  0  0  0  0
   -4.8276   -0.1605   24.3125 N   0  0  0  0  0  0  0  0  0  0  0  0
   -4.7920   -0.3646   23.0229 C   0  0  0  0  0  0  0  0  0  0  0  0
   -3.7546   -0.1882   22.3878 O   0  0  0  0  0  0  0  0  0  0  0  0
   -5.8681   -0.7441   22.3975 N   0  0  0  0  0  0  0  0  0  0  0  0
  1  2  1  0  0  0  0
  1  3  2  0  0  0  0
  4  1  1  6  0  0  0
  4  6  1  0  0  0  0
  4  5  1  0  0  0  0
  6  7  1  0  0  0  0
  7  8  1  0  0  0  0
  8  9  1  0  0  0  0
  9 10  1  0  0  0  0
 10 12  1  0  0  0  0
 10 11  2  0  0  0  0
M  CHG  2   2  -1   5   1
M  END
>  <CHROM.1>
-166.72488774,70.74372395,123.26691850,113.42681837,159.27860566,83.08229933
-6.93073611,-1.18911773,25.65653930,2.51748899,-0.65582565,2.55776564

>  <Name>
1kod cryst

>  <RI>
0

>  <Rbt.Current_Directory>
/home/itssahil/PROJECTS/Mol_Feturizer/New_Systems/rnas/1kod

>  <Rbt.Executable>
rbdock ($Id: //depot/dev/client3/rdock/2013.1/src/exe/rbdock.cxx#4 $)

>  <Rbt.Library>
libRbt.so (2013.1, Build901 2013/11/27)

>  <Rbt.Parameter_File>
/export/apps/rDock/src/rDock_2013.1_src/data/scripts/dock_solv.prm

>  <Rbt.Receptor>
prm/blind_docking_80.prm

>  <SCORE>
-27.8526

>  <SCORE.INTER>
-29.0188

>  <SCORE.INTER.CONST>
1

>  <SCORE.INTER.POLAR>
-5.3949

>  <SCORE.INTER.ROT>
5

>  <SCORE.INTER.SOLV>
21.5183

>  <SCORE.INTER.VDW>
-15.4689

>  <SCORE.INTER.norm>
-2.41823

>  <SCORE.INTRA>
1.16617

>  <SCORE.INTRA.DIHEDRAL>
5.83231

>  <SCORE.INTRA.DIHEDRAL.0>
7.7847

>  <SCORE.INTRA.POLAR>
0

>  <SCORE.INTRA.POLAR.0>
0

>  <SCORE.INTRA.REPUL>
0

>  <SCORE.INTRA.REPUL.0>
0

>  <SCORE.INTRA.SOLV>
-2.05285

>  <SCORE.INTRA.SOLV.lig_0>
-57.5465

>  <SCORE.INTRA.VDW>
-0.723562

>  <SCORE.INTRA.VDW.0>
1.39369

>  <SCORE.INTRA.norm>
0.0971804

>  <SCORE.RESTR>
0

>  <SCORE.RESTR.CAVITY>
0

>  <SCORE.RESTR.norm>
0

>  <SCORE.SYSTEM>
0

>  <SCORE.SYSTEM.CONST>
0

>  <SCORE.SYSTEM.DIHEDRAL>
0

>  <SCORE.SYSTEM.SOLV>
0

>  <SCORE.SYSTEM.norm>
0

>  <SCORE.heavy>
12

>  <SCORE.norm>
-2.32105

>  <SYMMETRIC_BONDS>
4 1 2

>  <RMSD>
13.550

$$$$
1kod cryst
 OpenBabel11021811393D
libRbt.so/2013.1/901 2013/11/27
 12 11  0  0  0  0  0  0  0  0999 V2000
   -9.1939   -1.0943   27.6672 C   0  0  0  0  0  0  0  0  0  0  0  0
   -8.7961   -0.0294   27.2187 O   0  5  0  0  0  0  0  0  0  0  0  0
  -10.3762   -1.4069   27.7321 O   0  0  0  0  0  0  0  0  0  0  0  0
   -8.1430   -2.1001   28.1772 C   0  0  1  0  0  0  0  0  0  0  0  0
   -8.8213   -3.1545   28.9914 N   0  3  0  0  0  0  0  0  0  0  0  0
   -7.3985   -2.7617   26.9939 C   0  0  0  0  0  0  0  0  0  0  0  0
   -6.6525   -1.7147   26.1770 C   0  0  0  0  0  0  0  0  0  0  0  0
   -6.0810   -2.3540   24.9135 C   0  0  0  0  0  0  0  0  0  0  0  0
   -6.1376   -1.3600   23.7967 N   0  0  0  0  0  0  0  0  0  0  0  0
   -5.1466   -0.5345   23.5904 C   0  0  0  0  0  0  0  0  0  0  0  0
   -5.3423    0.6770   23.5228 O   0  0  0  0  0  0  0  0  0  0  0  0
   -3.9398   -0.9968   23.4392 N   0  0  0  0  0  0  0  0  0  0  0  0
  1  2  1  0  0  0  0
  1  3  2  0  0  0  0
  4  1  1  6  0  0  0
  4  6  1  0  0  0  0
  4  5  1  0  0  0  0
  6  7  1  0  0  0  0
  7  8  1  0  0  0  0
  8  9  1  0  0  0  0
  9 10  1  0  0  0  0
 10 12  1  0  0  0  0
 10 11  2  0  0  0  0
M  CHG  2   2  -1   5   1
M  END
>  <CHROM.1>
165.48791880,61.56836479,-56.79961764,-172.45084940,144.94064616,-91.10965606
-7.18494186,-1.40429653,26.02769080,2.54078889,-0.63803931,2.56109950

>  <Name>
1kod cryst

>  <RI>
0

>  <Rbt.Current_Directory>
/home/itssahil/PROJECTS/Mol_Feturizer/New_Systems/rnas/1kod

>  <Rbt.Executable>
rbdock ($Id: //depot/dev/client3/rdock/2013.1/src/exe/rbdock.cxx#4 $)

>  <Rbt.Library>
libRbt.so (2013.1, Build901 2013/11/27)

>  <Rbt.Parameter_File>
/export/apps/rDock/src/rDock_2013.1_src/data/scripts/dock_solv.prm

>  <Rbt.Receptor>
prm/blind_docking_60.prm

>  <SCORE>
-33.126

>  <SCORE.INTER>
-29.7647

>  <SCORE.INTER.CONST>
1

>  <SCORE.INTER.POLAR>
-4.92758

>  <SCORE.INTER.ROT>
5

>  <SCORE.INTER.SOLV>
21.1772

>  <SCORE.INTER.VDW>
-17.4102

>  <SCORE.INTER.norm>
-2.48039

>  <SCORE.INTRA>
-3.9048

>  <SCORE.INTRA.DIHEDRAL>
-1.78908

>  <SCORE.INTRA.DIHEDRAL.0>
7.7847

>  <SCORE.INTRA.POLAR>
0

>  <SCORE.INTRA.POLAR.0>
0

>  <SCORE.INTRA.REPUL>
0

>  <SCORE.INTRA.REPUL.0>
0

>  <SCORE.INTRA.SOLV>
-2.08968

>  <SCORE.INTRA.SOLV.lig_0>
-57.5465

>  <SCORE.INTRA.VDW>
-1.96542

>  <SCORE.INTRA.VDW.0>
1.39369

>  <SCORE.INTRA.norm>
-0.3254

>  <SCORE.RESTR>
0.543439

>  <SCORE.RESTR.CAVITY>
0.543439

>  <SCORE.RESTR.norm>
0.0452866

>  <SCORE.SYSTEM>
0

>  <SCORE.SYSTEM.CONST>
0

>  <SCORE.SYSTEM.DIHEDRAL>
0

>  <SCORE.SYSTEM.SOLV>
0

>  <SCORE.SYSTEM.norm>
0

>  <SCORE.heavy>
12

>  <SCORE.norm>
-2.7605

>  <SYMMETRIC_BONDS>
4 1 2

>  <RMSD>
13.556

$$$$
1kod cryst
 OpenBabel11021811393D
libRbt.so/2013.1/901 2013/11/27
 12 11  0  0  0  0  0  0  0  0999 V2000
   -9.1556   -0.9905   27.7604 C   0  0  0  0  0  0  0  0  0  0  0  0
   -8.8954    0.1812   27.9903 O   0  5  0  0  0  0  0  0  0  0  0  0
  -10.1917   -1.3661   27.2265 O   0  0  0  0  0  0  0  0  0  0  0  0
   -8.1153   -2.0535   28.1655 C   0  0  1  0  0  0  0  0  0  0  0  0
   -8.7920   -3.1381   28.9404 N   0  3  0  0  0  0  0  0  0  0  0  0
   -7.4363   -2.6598   26.9150 C   0  0  0  0  0  0  0  0  0  0  0  0
   -6.8250   -1.5635   26.0523 C   0  0  0  0  0  0  0  0  0  0  0  0
   -6.0408   -2.1877   24.9002 C   0  0  0  0  0  0  0  0  0  0  0  0
   -6.1185   -1.2822   23.7116 N   0  0  0  0  0  0  0  0  0  0  0  0
   -5.1196   -0.4977   23.4070 C   0  0  0  0  0  0  0  0  0  0  0  0
   -5.2937    0.7089   23.2515 O   0  0  0  0  0  0  0  0  0  0  0  0
   -3.9283   -0.9974   23.2504 N   0  0  0  0  0  0  0  0  0  0  0  0
  1  2  1  0  0  0  0
  1  3  2  0  0  0  0
  4  1  1  6  0  0  0
  4  6  1  0  0  0  0
  4  5  1  0  0  0  0
  6  7  1  0  0  0  0
  7  8  1  0  0  0  0
  8  9  1  0  0  0  0
  9 10  1  0  0  0  0
 10 12  1  0  0  0  0
 10 11  2  0  0  0  0
M  CHG  2   2  -1   5   1
M  END
>  <CHROM.1>
130.32262579,55.24494974,-172.47917371,174.34736067,148.00093867,-78.84832088
-7.17443738,-1.32400035,25.97324289,2.58176429,-0.70585861,2.61756272

>  <Name>
1kod cryst

>  <RI>
0

>  <Rbt.Current_Directory>
/home/itssahil/PROJECTS/Mol_Feturizer/New_Systems/rnas/1kod

>  <Rbt.Executable>
rbdock ($Id: //depot/dev/client3/rdock/2013.1/src/exe/rbdock.cxx#4 $)

>  <Rbt.Library>
libRbt.so (2013.1, Build901 2013/11/27)

>  <Rbt.Parameter_File>
/export/apps/rDock/src/rDock_2013.1_src/data/scripts/dock_solv.prm

>  <Rbt.Receptor>
prm/blind_docking_40.prm

>  <SCORE>
-34.7221

>  <SCORE.INTER>
-30.1322

>  <SCORE.INTER.CONST>
1

>  <SCORE.INTER.POLAR>
-4.82844

>  <SCORE.INTER.ROT>
5

>  <SCORE.INTER.SOLV>
21.6852

>  <SCORE.INTER.VDW>
-18.1551

>  <SCORE.INTER.norm>
-2.51102

>  <SCORE.INTRA>
-4.58986

>  <SCORE.INTRA.DIHEDRAL>
-2.14219

>  <SCORE.INTRA.DIHEDRAL.0>
7.7847

>  <SCORE.INTRA.POLAR>
0

>  <SCORE.INTRA.POLAR.0>
0

>  <SCORE.INTRA.REPUL>
0

>  <SCORE.INTRA.REPUL.0>
0

>  <SCORE.INTRA.SOLV>
-2.56466

>  <SCORE.INTRA.SOLV.lig_0>
-57.5465

>  <SCORE.INTRA.VDW>
-2.23644

>  <SCORE.INTRA.VDW.0>
1.39369

>  <SCORE.INTRA.norm>
-0.382489

>  <SCORE.RESTR>
0

>  <SCORE.RESTR.CAVITY>
0

>  <SCORE.RESTR.norm>
0

>  <SCORE.SYSTEM>
0

>  <SCORE.SYSTEM.CONST>
0

>  <SCORE.SYSTEM.DIHEDRAL>
0

>  <SCORE.SYSTEM.SOLV>
0

>  <SCORE.SYSTEM.norm>
0

>  <SCORE.heavy>
12

>  <SCORE.norm>
-2.89351

>  <SYMMETRIC_BONDS>
4 1 2

>  <RMSD>
13.559

$$$$
1kod cryst
 OpenBabel11021811393D
libRbt.so/2013.1/901 2013/11/27
 12 11  0  0  0  0  0  0  0  0999 V2000
   -8.4240   -1.0649   27.1486 C   0  0  0  0  0  0  0  0  0  0  0  0
   -8.1986    0.0216   26.6367 O   0  5  0  0  0  0  0  0  0  0  0  0
   -9.4641   -1.3395   27.7338 O   0  0  0  0  0  0  0  0  0  0  0  0
   -7.3342   -2.1503   27.0471 C   0  0  1  0  0  0  0  0  0  0  0  0
   -7.8464   -3.4230   27.6408 N   0  3  0  0  0  0  0  0  0  0  0  0
   -6.9378   -2.3923   25.5718 C   0  0  0  0  0  0  0  0  0  0  0  0
   -5.6941   -1.5901   25.2121 C   0  0  0  0  0  0  0  0  0  0  0  0
   -6.0538   -0.1130   25.0686 C   0  0  0  0  0  0  0  0  0  0  0  0
   -5.2667    0.4721   23.9387 N   0  0  0  0  0  0  0  0  0  0  0  0
   -4.9862   -0.2439   22.8829 C   0  0  0  0  0  0  0  0  0  0  0  0
   -3.8271   -0.3557   22.4900 O   0  0  0  0  0  0  0  0  0  0  0  0
   -5.9432   -0.8343   22.2281 N   0  0  0  0  0  0  0  0  0  0  0  0
  1  2  1  0  0  0  0
  1  3  2  0  0  0  0
  4  1  1  6  0  0  0
  4  6  1  0  0  0  0
  4  5  1  0  0  0  0
  6  7  1  0  0  0  0
  7  8  1  0  0  0  0
  8  9  1  0  0  0  0
  9 10  1  0  0  0  0
 10 12  1  0  0  0  0
 10 11  2  0  0  0  0
M  CHG  2   2  -1   5   1
M  END
>  <CHROM.1>
-175.75531816,96.38495132,127.83473590,-74.07829999,-142.26814066,-145.47411884
-6.68532731,-1.10097242,25.30436901,2.60274324,-0.80807109,2.78987796

>  <Name>
1kod cryst

>  <RI>
0

>  <Rbt.Current_Directory>
/home/itssahil/PROJECTS/Mol_Feturizer/New_Systems/rnas/1kod

>  <Rbt.Executable>
rbdock ($Id: //depot/dev/client3/rdock/2013.1/src/exe/rbdock.cxx#4 $)

>  <Rbt.Library>
libRbt.so (2013.1, Build901 2013/11/27)

>  <Rbt.Parameter_File>
/export/apps/rDock/src/rDock_2013.1_src/data/scripts/dock_solv.prm

>  <Rbt.Receptor>
prm/blind_docking_60.prm

>  <SCORE>
-25.7149

>  <SCORE.INTER>
-29.4327

>  <SCORE.INTER.CONST>
1

>  <SCORE.INTER.POLAR>
-5.24833

>  <SCORE.INTER.ROT>
5

>  <SCORE.INTER.SOLV>
21.8386

>  <SCORE.INTER.VDW>
-16.3402

>  <SCORE.INTER.norm>
-2.45272

>  <SCORE.INTRA>
3.68114

>  <SCORE.INTRA.DIHEDRAL>
5.94857

>  <SCORE.INTRA.DIHEDRAL.0>
7.7847

>  <SCORE.INTRA.POLAR>
0

>  <SCORE.INTRA.POLAR.0>
0

>  <SCORE.INTRA.REPUL>
0

>  <SCORE.INTRA.REPUL.0>
0

>  <SCORE.INTRA.SOLV>
-0.78936

>  <SCORE.INTRA.SOLV.lig_0>
-57.5465

>  <SCORE.INTRA.VDW>
1.10153

>  <SCORE.INTRA.VDW.0>
1.39369

>  <SCORE.INTRA.norm>
0.306761

>  <SCORE.RESTR>
0.0366563

>  <SCORE.RESTR.CAVITY>
0.0366563

>  <SCORE.RESTR.norm>
0.0030547

>  <SCORE.SYSTEM>
0

>  <SCORE.SYSTEM.CONST>
0

>  <SCORE.SYSTEM.DIHEDRAL>
0

>  <SCORE.SYSTEM.SOLV>
0

>  <SCORE.SYSTEM.norm>
0

>  <SCORE.heavy>
12

>  <SCORE.norm>
-2.14291

>  <SYMMETRIC_BONDS>
4 1 2

>  <RMSD>
13.560

$$$$
1kod cryst
 OpenBabel11021811393D
libRbt.so/2013.1/901 2013/11/27
 12 11  0  0  0  0  0  0  0  0999 V2000
   -8.8717   -1.1285   27.5307 C   0  0  0  0  0  0  0  0  0  0  0  0
  -10.0321   -1.4027   27.2633 O   0  5  0  0  0  0  0  0  0  0  0  0
   -8.3870   -0.0120   27.3954 O   0  0  0  0  0  0  0  0  0  0  0  0
   -7.9703   -2.2557   28.0720 C   0  0  1  0  0  0  0  0  0  0  0  0
   -8.7807   -3.1641   28.9394 N   0  3  0  0  0  0  0  0  0  0  0  0
   -7.3521   -3.0682   26.9101 C   0  0  0  0  0  0  0  0  0  0  0  0
   -6.2731   -2.2579   26.2037 C   0  0  0  0  0  0  0  0  0  0  0  0
   -5.9231   -2.9131   24.8695 C   0  0  0  0  0  0  0  0  0  0  0  0
   -4.8626   -2.1031   24.1928 N   0  0  0  0  0  0  0  0  0  0  0  0
   -5.1844   -1.1182   23.3974 C   0  0  0  0  0  0  0  0  0  0  0  0
   -4.7387   -1.0639   22.2533 O   0  0  0  0  0  0  0  0  0  0  0  0
   -5.9729   -0.1743   23.8221 N   0  0  0  0  0  0  0  0  0  0  0  0
  1  2  1  0  0  0  0
  1  3  2  0  0  0  0
  4  1  1  6  0  0  0
  4  6  1  0  0  0  0
  4  5  1  0  0  0  0
  6  7  1  0  0  0  0
  7  8  1  0  0  0  0
  8  9  1  0  0  0  0
  9 10  1  0  0  0  0
 10 12  1  0  0  0  0
 10 11  2  0  0  0  0
M  CHG  2   2  -1   5   1
M  END
>  <CHROM.1>
-35.46512810,72.56334535,-174.82777714,-165.88816003,-179.97997588,90.94413863
-7.05382668,-1.71204389,25.91762681,2.55638563,-0.72845457,2.50548597

>  <Name>
1kod cryst

>  <RI>
0

>  <Rbt.Current_Directory>
/home/itssahil/PROJECTS/Mol_Feturizer/New_Systems/rnas/1kod

>  <Rbt.Executable>
rbdock ($Id: //depot/dev/client3/rdock/2013.1/src/exe/rbdock.cxx#4 $)

>  <Rbt.Library>
libRbt.so (2013.1, Build901 2013/11/27)

>  <Rbt.Parameter_File>
/export/apps/rDock/src/rDock_2013.1_src/data/scripts/dock_solv.prm

>  <Rbt.Receptor>
prm/blind_docking_40.prm

>  <SCORE>
-36.5625

>  <SCORE.INTER>
-31.1685

>  <SCORE.INTER.CONST>
1

>  <SCORE.INTER.POLAR>
-5.36481

>  <SCORE.INTER.ROT>
5

>  <SCORE.INTER.SOLV>
21.6619

>  <SCORE.INTER.VDW>
-17.0503

>  <SCORE.INTER.norm>
-2.59738

>  <SCORE.INTRA>
-5.39397

>  <SCORE.INTRA.DIHEDRAL>
-4.14302

>  <SCORE.INTRA.DIHEDRAL.0>
7.7847

>  <SCORE.INTRA.POLAR>
0

>  <SCORE.INTRA.POLAR.0>
0

>  <SCORE.INTRA.REPUL>
0

>  <SCORE.INTRA.REPUL.0>
0

>  <SCORE.INTRA.SOLV>
-2.07504

>  <SCORE.INTRA.SOLV.lig_0>
-57.5465

>  <SCORE.INTRA.VDW>
-2.28494

>  <SCORE.INTRA.VDW.0>
1.39369

>  <SCORE.INTRA.norm>
-0.449498

>  <SCORE.RESTR>
0

>  <SCORE.RESTR.CAVITY>
0

>  <SCORE.RESTR.norm>
0

>  <SCORE.SYSTEM>
0

>  <SCORE.SYSTEM.CONST>
0

>  <SCORE.SYSTEM.DIHEDRAL>
0

>  <SCORE.SYSTEM.SOLV>
0

>  <SCORE.SYSTEM.norm>
0

>  <SCORE.heavy>
12

>  <SCORE.norm>
-3.04687

>  <SYMMETRIC_BONDS>
4 1 2

>  <RMSD>
13.564

$$$$
1kod cryst
 OpenBabel11021811393D
libRbt.so/2013.1/901 2013/11/27
 12 11  0  0  0  0  0  0  0  0999 V2000
   -9.5240   -1.0292   28.0755 C   0  0  0  0  0  0  0  0  0  0  0  0
  -10.5880   -1.4883   28.4636 O   0  5  0  0  0  0  0  0  0  0  0  0
   -9.3695    0.1363   27.7329 O   0  0  0  0  0  0  0  0  0  0  0  0
   -8.3081   -1.9751   28.0181 C   0  0  1  0  0  0  0  0  0  0  0  0
   -8.6081   -3.2146   28.7979 N   0  3  0  0  0  0  0  0  0  0  0  0
   -7.9771   -2.3534   26.5554 C   0  0  0  0  0  0  0  0  0  0  0  0
   -6.4735   -2.5091   26.3690 C   0  0  0  0  0  0  0  0  0  0  0  0
   -6.1637   -2.8405   24.9109 C   0  0  0  0  0  0  0  0  0  0  0  0
   -6.3328   -1.6048   24.0844 N   0  0  0  0  0  0  0  0  0  0  0  0
   -5.2937   -0.9063   23.7123 C   0  0  0  0  0  0  0  0  0  0  0  0
   -5.2332    0.2997   23.9412 O   0  0  0  0  0  0  0  0  0  0  0  0
   -4.3166   -1.4869   23.0788 N   0  0  0  0  0  0  0  0  0  0  0  0
  1  2  1  0  0  0  0
  1  3  2  0  0  0  0
  4  1  1  6  0  0  0
  4  6  1  0  0  0  0
  4  5  1  0  0  0  0
  6  7  1  0  0  0  0
  7  8  1  0  0  0  0
  8  9  1  0  0  0  0
  9 10  1  0  0  0  0
 10 12  1  0  0  0  0
 10 11  2  0  0  0  0
M  CHG  2   2  -1   5   1
M  END
>  <CHROM.1>
-14.62337954,145.48771010,-56.24856048,-178.28637319,74.43072975,-79.27105594
-7.36096548,-1.58404515,26.15672754,2.76709650,-0.74942035,2.72703115

>  <Name>
1kod cryst

>  <RI>
0

>  <Rbt.Current_Directory>
/home/itssahil/PROJECTS/Mol_Feturizer/New_Systems/rnas/1kod

>  <Rbt.Executable>
rbdock ($Id: //depot/dev/client3/rdock/2013.1/src/exe/rbdock.cxx#4 $)

>  <Rbt.Library>
libRbt.so (2013.1, Build901 2013/11/27)

>  <Rbt.Parameter_File>
/export/apps/rDock/src/rDock_2013.1_src/data/scripts/dock_solv.prm

>  <Rbt.Receptor>
prm/blind_docking_40.prm

>  <SCORE>
-29.5228

>  <SCORE.INTER>
-24.9459

>  <SCORE.INTER.CONST>
1

>  <SCORE.INTER.POLAR>
-3.95545

>  <SCORE.INTER.ROT>
5

>  <SCORE.INTER.SOLV>
19.4749

>  <SCORE.INTER.VDW>
-16.8708

>  <SCORE.INTER.norm>
-2.07882

>  <SCORE.INTRA>
-4.57691

>  <SCORE.INTRA.DIHEDRAL>
-1.57176

>  <SCORE.INTRA.DIHEDRAL.0>
7.7847

>  <SCORE.INTRA.POLAR>
0

>  <SCORE.INTRA.POLAR.0>
0

>  <SCORE.INTRA.REPUL>
0

>  <SCORE.INTRA.REPUL.0>
0

>  <SCORE.INTRA.SOLV>
-2.34374

>  <SCORE.INTRA.SOLV.lig_0>
-57.5465

>  <SCORE.INTRA.VDW>
-2.61916

>  <SCORE.INTRA.VDW.0>
1.39369

>  <SCORE.INTRA.norm>
-0.381409

>  <SCORE.RESTR>
0

>  <SCORE.RESTR.CAVITY>
0

>  <SCORE.RESTR.norm>
0

>  <SCORE.SYSTEM>
0

>  <SCORE.SYSTEM.CONST>
0

>  <SCORE.SYSTEM.DIHEDRAL>
0

>  <SCORE.SYSTEM.SOLV>
0

>  <SCORE.SYSTEM.norm>
0

>  <SCORE.heavy>
12

>  <SCORE.norm>
-2.46023

>  <SYMMETRIC_BONDS>
4 1 2

>  <RMSD>
13.589

$$$$
1kod cryst
 OpenBabel11021811393D
libRbt.so/2013.1/901 2013/11/27
 12 11  0  0  0  0  0  0  0  0999 V2000
   -9.3495   -1.1841   28.2753 C   0  0  0  0  0  0  0  0  0  0  0  0
  -10.0715   -1.1751   29.2612 O   0  5  0  0  0  0  0  0  0  0  0  0
   -9.5015   -0.4423   27.3129 O   0  0  0  0  0  0  0  0  0  0  0  0
   -8.1794   -2.1873   28.2471 C   0  0  1  0  0  0  0  0  0  0  0  0
   -8.5801   -3.4353   28.9658 N   0  3  0  0  0  0  0  0  0  0  0  0
   -7.7896   -2.5333   26.7909 C   0  0  0  0  0  0  0  0  0  0  0  0
   -6.7754   -1.5315   26.2548 C   0  0  0  0  0  0  0  0  0  0  0  0
   -6.2355   -2.0105   24.9091 C   0  0  0  0  0  0  0  0  0  0  0  0
   -5.3592   -0.9454   24.3291 N   0  0  0  0  0  0  0  0  0  0  0  0
   -5.1038   -0.9187   23.0485 C   0  0  0  0  0  0  0  0  0  0  0  0
   -3.9452   -0.8824   22.6400 O   0  0  0  0  0  0  0  0  0  0  0  0
   -6.0841   -0.9151   22.1928 N   0  0  0  0  0  0  0  0  0  0  0  0
  1  2  1  0  0  0  0
  1  3  2  0  0  0  0
  4  1  1  6  0  0  0
  4  6  1  0  0  0  0
  4  5  1  0  0  0  0
  6  7  1  0  0  0  0
  7  8  1  0  0  0  0
  8  9  1  0  0  0  0
  9 10  1  0  0  0  0
 10 12  1  0  0  0  0
 10 11  2  0  0  0  0
M  CHG  2   2  -1   5   1
M  END
>  <CHROM.1>
33.54202617,87.32601392,179.87579075,170.96653547,173.79846432,20.72412787
-7.26557093,-1.52089239,26.02721715,2.39691151,-0.63852540,2.29743131

>  <Name>
1kod cryst

>  <RI>
0

>  <Rbt.Current_Directory>
/home/itssahil/PROJECTS/Mol_Feturizer/New_Systems/rnas/1kod

>  <Rbt.Executable>
rbdock ($Id: //depot/dev/client3/rdock/2013.1/src/exe/rbdock.cxx#4 $)

>  <Rbt.Library>
libRbt.so (2013.1, Build901 2013/11/27)

>  <Rbt.Parameter_File>
/export/apps/rDock/src/rDock_2013.1_src/data/scripts/dock_solv.prm

>  <Rbt.Receptor>
prm/blind_docking_100.prm

>  <SCORE>
-32.7282

>  <SCORE.INTER>
-28.7582

>  <SCORE.INTER.CONST>
1

>  <SCORE.INTER.POLAR>
-5.373

>  <SCORE.INTER.ROT>
5

>  <SCORE.INTER.SOLV>
23.946

>  <SCORE.INTER.VDW>
-16.1774

>  <SCORE.INTER.norm>
-2.39651

>  <SCORE.INTRA>
-4.3723

>  <SCORE.INTRA.DIHEDRAL>
-2.85798

>  <SCORE.INTRA.DIHEDRAL.0>
7.7847

>  <SCORE.INTRA.POLAR>
0

>  <SCORE.INTRA.POLAR.0>
0

>  <SCORE.INTRA.REPUL>
0

>  <SCORE.INTRA.REPUL.0>
0

>  <SCORE.INTRA.SOLV>
-2.60538

>  <SCORE.INTRA.SOLV.lig_0>
-57.5465

>  <SCORE.INTRA.VDW>
-1.64061

>  <SCORE.INTRA.VDW.0>
1.39369

>  <SCORE.INTRA.norm>
-0.364358

>  <SCORE.RESTR>
0.402249

>  <SCORE.RESTR.CAVITY>
0.402249

>  <SCORE.RESTR.norm>
0.0335207

>  <SCORE.SYSTEM>
0

>  <SCORE.SYSTEM.CONST>
0

>  <SCORE.SYSTEM.DIHEDRAL>
0

>  <SCORE.SYSTEM.SOLV>
0

>  <SCORE.SYSTEM.norm>
0

>  <SCORE.heavy>
12

>  <SCORE.norm>
-2.72735

>  <SYMMETRIC_BONDS>
4 1 2

>  <RMSD>
13.602

$$$$
1kod cryst
 OpenBabel11021811393D
libRbt.so/2013.1/901 2013/11/27
 12 11  0  0  0  0  0  0  0  0999 V2000
   -7.0032   -2.8579   26.7436 C   0  0  0  0  0  0  0  0  0  0  0  0
   -7.0841   -3.5992   27.7117 O   0  5  0  0  0  0  0  0  0  0  0  0
   -7.8340   -2.0005   26.4709 O   0  0  0  0  0  0  0  0  0  0  0  0
   -5.7818   -3.0131   25.8161 C   0  0  1  0  0  0  0  0  0  0  0  0
   -5.8738   -4.3168   25.0905 N   0  3  0  0  0  0  0  0  0  0  0  0
   -5.7214   -1.8559   24.7916 C   0  0  0  0  0  0  0  0  0  0  0  0
   -5.2292   -0.5767   25.4560 C   0  0  0  0  0  0  0  0  0  0  0  0
   -5.9250    0.6314   24.8331 C   0  0  0  0  0  0  0  0  0  0  0  0
   -5.2413    0.9780   23.5482 N   0  0  0  0  0  0  0  0  0  0  0  0
   -4.9244    0.0450   22.6909 C   0  0  0  0  0  0  0  0  0  0  0  0
   -3.7739   -0.0573   22.2709 O   0  0  0  0  0  0  0  0  0  0  0  0
   -5.8371   -0.7777   22.2626 N   0  0  0  0  0  0  0  0  0  0  0  0
  1  2  1  0  0  0  0
  1  3  2  0  0  0  0
  4  1  1  1  0  0  0
  4  6  1  0  0  0  0
  4  5  1  0  0  0  0
  6  7  1  0  0  0  0
  7  8  1  0  0  0  0
  8  9  1  0  0  0  0
  9 10  1  0  0  0  0
 10 12  1  0  0  0  0
 10 11  2  0  0  0  0
M  CHG  2   2  -1   5   1
M  END
>  <CHROM.1>
68.65529958,75.74130156,-55.45006382,-145.41569386,-80.76773381,-134.82187235
-5.86295327,-1.48778056,24.78913607,2.37208030,-1.04993382,3.04647757

>  <Name>
1kod cryst

>  <RI>
0

>  <Rbt.Current_Directory>
/home/itssahil/PROJECTS/Mol_Feturizer/New_Systems/rnas/1kod

>  <Rbt.Executable>
rbdock ($Id: //depot/dev/client3/rdock/2013.1/src/exe/rbdock.cxx#4 $)

>  <Rbt.Library>
libRbt.so (2013.1, Build901 2013/11/27)

>  <Rbt.Parameter_File>
/export/apps/rDock/src/rDock_2013.1_src/data/scripts/dock_solv.prm

>  <Rbt.Receptor>
prm/blind_docking_40.prm

>  <SCORE>
-31.355

>  <SCORE.INTER>
-31.2017

>  <SCORE.INTER.CONST>
1

>  <SCORE.INTER.POLAR>
-5.70425

>  <SCORE.INTER.ROT>
5

>  <SCORE.INTER.SOLV>
27.7058

>  <SCORE.INTER.VDW>
-17.9556

>  <SCORE.INTER.norm>
-2.60015

>  <SCORE.INTRA>
-0.153247

>  <SCORE.INTRA.DIHEDRAL>
0.595469

>  <SCORE.INTRA.DIHEDRAL.0>
7.7847

>  <SCORE.INTRA.POLAR>
0

>  <SCORE.INTRA.POLAR.0>
0

>  <SCORE.INTRA.REPUL>
0

>  <SCORE.INTRA.REPUL.0>
0

>  <SCORE.INTRA.SOLV>
-1.2289

>  <SCORE.INTRA.SOLV.lig_0>
-57.5465

>  <SCORE.INTRA.VDW>
0.163469

>  <SCORE.INTRA.VDW.0>
1.39369

>  <SCORE.INTRA.norm>
-0.0127705

>  <SCORE.RESTR>
0

>  <SCORE.RESTR.CAVITY>
0

>  <SCORE.RESTR.norm>
0

>  <SCORE.SYSTEM>
0

>  <SCORE.SYSTEM.CONST>
0

>  <SCORE.SYSTEM.DIHEDRAL>
0

>  <SCORE.SYSTEM.SOLV>
0

>  <SCORE.SYSTEM.norm>
0

>  <SCORE.heavy>
12

>  <SCORE.norm>
-2.61292

>  <SYMMETRIC_BONDS>
4 1 2

>  <RMSD>
13.604

$$$$
1kod cryst
 OpenBabel11021811393D
libRbt.so/2013.1/901 2013/11/27
 12 11  0  0  0  0  0  0  0  0999 V2000
   -9.6177   -1.1063   28.3366 C   0  0  0  0  0  0  0  0  0  0  0  0
  -10.5964   -1.3255   27.6384 O   0  5  0  0  0  0  0  0  0  0  0  0
   -9.5521   -0.1934   29.1502 O   0  0  0  0  0  0  0  0  0  0  0  0
   -8.3986   -2.0370   28.1827 C   0  0  1  0  0  0  0  0  0  0  0  0
   -8.6456   -3.3048   28.9352 N   0  3  0  0  0  0  0  0  0  0  0  0
   -8.1432   -2.3633   26.6925 C   0  0  0  0  0  0  0  0  0  0  0  0
   -6.6937   -2.0780   26.3219 C   0  0  0  0  0  0  0  0  0  0  0  0
   -6.4624   -2.4023   24.8477 C   0  0  0  0  0  0  0  0  0  0  0  0
   -5.1848   -1.7630   24.4033 N   0  0  0  0  0  0  0  0  0  0  0  0
   -5.1856   -0.8637   23.4560 C   0  0  0  0  0  0  0  0  0  0  0  0
   -4.4560   -0.9850   22.4745 O   0  0  0  0  0  0  0  0  0  0  0  0
   -5.9547    0.1812   23.5560 N   0  0  0  0  0  0  0  0  0  0  0  0
  1  2  1  0  0  0  0
  1  3  2  0  0  0  0
  4  1  1  6  0  0  0
  4  6  1  0  0  0  0
  4  5  1  0  0  0  0
  6  7  1  0  0  0  0
  7  8  1  0  0  0  0
  8  9  1  0  0  0  0
  9 10  1  0  0  0  0
 10 12  1  0  0  0  0
 10 11  2  0  0  0  0
M  CHG  2   2  -1   5   1
M  END
>  <CHROM.1>
-79.51271888,128.02162966,64.58509951,-179.84909658,163.89547921,61.50344414
-7.42032603,-1.52063714,26.18312263,2.61262145,-0.73577548,2.55071570

>  <Name>
1kod cryst

>  <RI>
0

>  <Rbt.Current_Directory>
/home/itssahil/PROJECTS/Mol_Feturizer/New_Systems/rnas/1kod

>  <Rbt.Executable>
rbdock ($Id: //depot/dev/client3/rdock/2013.1/src/exe/rbdock.cxx#4 $)

>  <Rbt.Library>
libRbt.so (2013.1, Build901 2013/11/27)

>  <Rbt.Parameter_File>
/export/apps/rDock/src/rDock_2013.1_src/data/scripts/dock_solv.prm

>  <Rbt.Receptor>
prm/blind_docking_60.prm

>  <SCORE>
-26.7307

>  <SCORE.INTER>
-23.7613

>  <SCORE.INTER.CONST>
1

>  <SCORE.INTER.POLAR>
-3.79777

>  <SCORE.INTER.ROT>
5

>  <SCORE.INTER.SOLV>
20.8938

>  <SCORE.INTER.VDW>
-17.0795

>  <SCORE.INTER.norm>
-1.98011

>  <SCORE.INTRA>
-3.87182

>  <SCORE.INTRA.DIHEDRAL>
0.342903

>  <SCORE.INTRA.DIHEDRAL.0>
7.7847

>  <SCORE.INTRA.POLAR>
0

>  <SCORE.INTRA.POLAR.0>
0

>  <SCORE.INTRA.REPUL>
0

>  <SCORE.INTRA.REPUL.0>
0

>  <SCORE.INTRA.SOLV>
-3.10336

>  <SCORE.INTRA.SOLV.lig_0>
-57.5465

>  <SCORE.INTRA.VDW>
-2.49159

>  <SCORE.INTRA.VDW.0>
1.39369

>  <SCORE.INTRA.norm>
-0.322652

>  <SCORE.RESTR>
0.902457

>  <SCORE.RESTR.CAVITY>
0.902457

>  <SCORE.RESTR.norm>
0.0752048

>  <SCORE.SYSTEM>
0

>  <SCORE.SYSTEM.CONST>
0

>  <SCORE.SYSTEM.DIHEDRAL>
0

>  <SCORE.SYSTEM.SOLV>
0

>  <SCORE.SYSTEM.norm>
0

>  <SCORE.heavy>
12

>  <SCORE.norm>
-2.22755

>  <SYMMETRIC_BONDS>
4 1 2

>  <RMSD>
13.617

$$$$
1kod cryst
 OpenBabel11021811393D
libRbt.so/2013.1/901 2013/11/27
 12 11  0  0  0  0  0  0  0  0999 V2000
   -5.0557   -0.6130   24.1036 C   0  0  0  0  0  0  0  0  0  0  0  0
   -3.8764   -0.3075   24.0069 O   0  5  0  0  0  0  0  0  0  0  0  0
   -5.9794    0.1324   23.8021 O   0  0  0  0  0  0  0  0  0  0  0  0
   -5.3954   -2.0200   24.6339 C   0  0  1  0  0  0  0  0  0  0  0  0
   -4.4467   -3.0134   24.0442 N   0  3  0  0  0  0  0  0  0  0  0  0
   -5.2942   -2.0631   26.1766 C   0  0  0  0  0  0  0  0  0  0  0  0
   -6.5220   -1.4244   26.8126 C   0  0  0  0  0  0  0  0  0  0  0  0
   -7.7729   -2.2118   26.4292 C   0  0  0  0  0  0  0  0  0  0  0  0
   -8.9830   -1.4105   26.7929 N   0  0  0  0  0  0  0  0  0  0  0  0
   -9.8009   -1.8260   27.7225 C   0  0  0  0  0  0  0  0  0  0  0  0
  -11.0048   -1.9313   27.4984 O   0  0  0  0  0  0  0  0  0  0  0  0
   -9.3425   -2.1183   28.9048 N   0  0  0  0  0  0  0  0  0  0  0  0
  1  2  1  0  0  0  0
  1  3  2  0  0  0  0
  4  1  1  6  0  0  0
  4  6  1  0  0  0  0
  4  5  1  0  0  0  0
  6  7  1  0  0  0  0
  7  8  1  0  0  0  0
  8  9  1  0  0  0  0
  9 10  1  0  0  0  0
 10 12  1  0  0  0  0
 10 11  2  0  0  0  0
M  CHG  2   2  -1   5   1
M  END
>  <CHROM.1>
-40.67376821,77.72067890,60.03286660,62.31203842,-167.26673504,65.85675641
-6.94511766,-1.57375725,25.89798290,0.46444099,0.43679218,-0.68698225

>  <Name>
1kod cryst

>  <RI>
0

>  <Rbt.Current_Directory>
/home/itssahil/PROJECTS/Mol_Feturizer/New_Systems/rnas/1kod

>  <Rbt.Executable>
rbdock ($Id: //depot/dev/client3/rdock/2013.1/src/exe/rbdock.cxx#4 $)

>  <Rbt.Library>
libRbt.so (2013.1, Build901 2013/11/27)

>  <Rbt.Parameter_File>
/export/apps/rDock/src/rDock_2013.1_src/data/scripts/dock_solv.prm

>  <Rbt.Receptor>
prm/blind_docking_40.prm

>  <SCORE>
-22.3328

>  <SCORE.INTER>
-17.0834

>  <SCORE.INTER.CONST>
1

>  <SCORE.INTER.POLAR>
-3.64683

>  <SCORE.INTER.ROT>
5

>  <SCORE.INTER.SOLV>
18.6281

>  <SCORE.INTER.VDW>
-12.3756

>  <SCORE.INTER.norm>
-1.42362

>  <SCORE.INTRA>
-5.24938

>  <SCORE.INTRA.DIHEDRAL>
-3.90147

>  <SCORE.INTRA.DIHEDRAL.0>
7.7847

>  <SCORE.INTRA.POLAR>
0

>  <SCORE.INTRA.POLAR.0>
0

>  <SCORE.INTRA.REPUL>
0

>  <SCORE.INTRA.REPUL.0>
0

>  <SCORE.INTRA.SOLV>
-2.10805

>  <SCORE.INTRA.SOLV.lig_0>
-57.5465

>  <SCORE.INTRA.VDW>
-2.24461

>  <SCORE.INTRA.VDW.0>
1.39369

>  <SCORE.INTRA.norm>
-0.437448

>  <SCORE.RESTR>
0

>  <SCORE.RESTR.CAVITY>
0

>  <SCORE.RESTR.norm>
0

>  <SCORE.SYSTEM>
0

>  <SCORE.SYSTEM.CONST>
0

>  <SCORE.SYSTEM.DIHEDRAL>
0

>  <SCORE.SYSTEM.SOLV>
0

>  <SCORE.SYSTEM.norm>
0

>  <SCORE.heavy>
12

>  <SCORE.norm>
-1.86107

>  <SYMMETRIC_BONDS>
4 1 2

>  <RMSD>
13.631

$$$$
1kod cryst
 OpenBabel11021811393D
libRbt.so/2013.1/901 2013/11/27
 12 11  0  0  0  0  0  0  0  0999 V2000
   -8.9502   -1.1915   27.4484 C   0  0  0  0  0  0  0  0  0  0  0  0
   -8.4547   -0.3131   26.7584 O   0  5  0  0  0  0  0  0  0  0  0  0
  -10.1481   -1.2746   27.6890 O   0  0  0  0  0  0  0  0  0  0  0  0
   -8.0092   -2.2560   28.0466 C   0  0  1  0  0  0  0  0  0  0  0  0
   -8.7923   -3.1623   28.9410 N   0  3  0  0  0  0  0  0  0  0  0  0
   -7.3412   -3.0878   26.9268 C   0  0  0  0  0  0  0  0  0  0  0  0
   -6.2740   -2.2678   26.2136 C   0  0  0  0  0  0  0  0  0  0  0  0
   -5.9480   -2.9034   24.8640 C   0  0  0  0  0  0  0  0  0  0  0  0
   -4.8795   -2.0995   24.1927 N   0  0  0  0  0  0  0  0  0  0  0  0
   -5.1915   -1.1124   23.3962 C   0  0  0  0  0  0  0  0  0  0  0  0
   -4.7399   -1.0603   22.2544 O   0  0  0  0  0  0  0  0  0  0  0  0
   -5.9763   -0.1639   23.8175 N   0  0  0  0  0  0  0  0  0  0  0  0
  1  2  1  0  0  0  0
  1  3  2  0  0  0  0
  4  1  1  6  0  0  0
  4  6  1  0  0  0  0
  4  5  1  0  0  0  0
  6  7  1  0  0  0  0
  7  8  1  0  0  0  0
  8  9  1  0  0  0  0
  9 10  1  0  0  0  0
 10 12  1  0  0  0  0
 10 11  2  0  0  0  0
M  CHG  2   2  -1   5   1
M  END
>  <CHROM.1>
175.35336572,73.37135837,60.70270391,-161.82238402,-178.86524059,89.43824429
-7.08345207,-1.73160567,25.89233535,2.51081935,-0.67857512,2.44165846

>  <Name>
1kod cryst

>  <RI>
0

>  <Rbt.Current_Directory>
/home/itssahil/PROJECTS/Mol_Feturizer/New_Systems/rnas/1kod

>  <Rbt.Executable>
rbdock ($Id: //depot/dev/client3/rdock/2013.1/src/exe/rbdock.cxx#4 $)

>  <Rbt.Library>
libRbt.so (2013.1, Build901 2013/11/27)

>  <Rbt.Parameter_File>
/export/apps/rDock/src/rDock_2013.1_src/data/scripts/dock_solv.prm

>  <Rbt.Receptor>
prm/blind_docking_60.prm

>  <SCORE>
-35.5558

>  <SCORE.INTER>
-31.0348

>  <SCORE.INTER.CONST>
1

>  <SCORE.INTER.POLAR>
-5.30735

>  <SCORE.INTER.ROT>
5

>  <SCORE.INTER.SOLV>
21.7224

>  <SCORE.INTER.VDW>
-17.1728

>  <SCORE.INTER.norm>
-2.58624

>  <SCORE.INTRA>
-4.52099

>  <SCORE.INTRA.DIHEDRAL>
-3.64957

>  <SCORE.INTRA.DIHEDRAL.0>
7.7847

>  <SCORE.INTRA.POLAR>
0

>  <SCORE.INTRA.POLAR.0>
0

>  <SCORE.INTRA.REPUL>
0

>  <SCORE.INTRA.REPUL.0>
0

>  <SCORE.INTRA.SOLV>
-1.39536

>  <SCORE.INTRA.SOLV.lig_0>
-57.5465

>  <SCORE.INTRA.VDW>
-1.99852

>  <SCORE.INTRA.VDW.0>
1.39369

>  <SCORE.INTRA.norm>
-0.376749

>  <SCORE.RESTR>
0

>  <SCORE.RESTR.CAVITY>
0

>  <SCORE.RESTR.norm>
0

>  <SCORE.SYSTEM>
0

>  <SCORE.SYSTEM.CONST>
0

>  <SCORE.SYSTEM.DIHEDRAL>
0

>  <SCORE.SYSTEM.SOLV>
0

>  <SCORE.SYSTEM.norm>
0

>  <SCORE.heavy>
12

>  <SCORE.norm>
-2.96298

>  <SYMMETRIC_BONDS>
4 1 2

>  <RMSD>
13.637

$$$$
1kod cryst
 OpenBabel11021811393D
libRbt.so/2013.1/901 2013/11/27
 12 11  0  0  0  0  0  0  0  0999 V2000
   -8.3300   -2.5080   27.6432 C   0  0  0  0  0  0  0  0  0  0  0  0
   -9.4370   -2.2980   27.1701 O   0  5  0  0  0  0  0  0  0  0  0  0
   -8.1436   -2.9617   28.7652 O   0  0  0  0  0  0  0  0  0  0  0  0
   -7.0999   -2.1837   26.7724 C   0  0  1  0  0  0  0  0  0  0  0  0
   -6.8066   -3.3452   25.8782 N   0  3  0  0  0  0  0  0  0  0  0  0
   -7.3539   -0.9229   25.9134 C   0  0  0  0  0  0  0  0  0  0  0  0
   -6.1140   -0.5670   25.1036 C   0  0  0  0  0  0  0  0  0  0  0  0
   -6.2436    0.8518   24.5541 C   0  0  0  0  0  0  0  0  0  0  0  0
   -5.3189    1.0087   23.3884 N   0  0  0  0  0  0  0  0  0  0  0  0
   -4.9614   -0.0281   22.6790 C   0  0  0  0  0  0  0  0  0  0  0  0
   -3.7736   -0.2739   22.4808 O   0  0  0  0  0  0  0  0  0  0  0  0
   -5.8698   -0.8031   22.1619 N   0  0  0  0  0  0  0  0  0  0  0  0
  1  2  1  0  0  0  0
  1  3  2  0  0  0  0
  4  1  1  6  0  0  0
  4  6  1  0  0  0  0
  4  5  1  0  0  0  0
  6  7  1  0  0  0  0
  7  8  1  0  0  0  0
  8  9  1  0  0  0  0
  9 10  1  0  0  0  0
 10 12  1  0  0  0  0
 10 11  2  0  0  0  0
M  CHG  2   2  -1   5   1
M  END
>  <CHROM.1>
-84.82384546,177.33173693,88.59859499,-165.33917298,-159.19534380,-153.92083815
-6.62266074,-1.20754688,25.19199639,2.55216226,-0.90681140,2.95932252

>  <Name>
1kod cryst

>  <RI>
0

>  <Rbt.Current_Directory>
/home/itssahil/PROJECTS/Mol_Feturizer/New_Systems/rnas/1kod

>  <Rbt.Executable>
rbdock ($Id: //depot/dev/client3/rdock/2013.1/src/exe/rbdock.cxx#4 $)

>  <Rbt.Library>
libRbt.so (2013.1, Build901 2013/11/27)

>  <Rbt.Parameter_File>
/export/apps/rDock/src/rDock_2013.1_src/data/scripts/dock_solv.prm

>  <Rbt.Receptor>
prm/blind_docking_40.prm

>  <SCORE>
-27.2205

>  <SCORE.INTER>
-25.3949

>  <SCORE.INTER.CONST>
1

>  <SCORE.INTER.POLAR>
-4.36009

>  <SCORE.INTER.ROT>
5

>  <SCORE.INTER.SOLV>
26.1548

>  <SCORE.INTER.VDW>
-18.0479

>  <SCORE.INTER.norm>
-2.11624

>  <SCORE.INTRA>
-1.8256

>  <SCORE.INTRA.DIHEDRAL>
-1.51311

>  <SCORE.INTRA.DIHEDRAL.0>
7.7847

>  <SCORE.INTRA.POLAR>
0

>  <SCORE.INTRA.POLAR.0>
0

>  <SCORE.INTRA.REPUL>
0

>  <SCORE.INTRA.REPUL.0>
0

>  <SCORE.INTRA.SOLV>
-2.07005

>  <SCORE.INTRA.SOLV.lig_0>
-57.5465

>  <SCORE.INTRA.VDW>
-0.0340225

>  <SCORE.INTRA.VDW.0>
1.39369

>  <SCORE.INTRA.norm>
-0.152134

>  <SCORE.RESTR>
0

>  <SCORE.RESTR.CAVITY>
0

>  <SCORE.RESTR.norm>
0

>  <SCORE.SYSTEM>
0

>  <SCORE.SYSTEM.CONST>
0

>  <SCORE.SYSTEM.DIHEDRAL>
0

>  <SCORE.SYSTEM.SOLV>
0

>  <SCORE.SYSTEM.norm>
0

>  <SCORE.heavy>
12

>  <SCORE.norm>
-2.26838

>  <SYMMETRIC_BONDS>
4 1 2

>  <RMSD>
13.651

$$$$
1kod cryst
 OpenBabel11021811393D
libRbt.so/2013.1/901 2013/11/27
 12 11  0  0  0  0  0  0  0  0999 V2000
   -6.8873   -2.9685   26.5016 C   0  0  0  0  0  0  0  0  0  0  0  0
   -6.6802   -3.0423   27.7036 O   0  5  0  0  0  0  0  0  0  0  0  0
   -7.9927   -2.7745   26.0114 O   0  0  0  0  0  0  0  0  0  0  0  0
   -5.6840   -3.1267   25.5511 C   0  0  1  0  0  0  0  0  0  0  0  0
   -5.7153   -4.4886   24.9356 N   0  3  0  0  0  0  0  0  0  0  0  0
   -5.7225   -2.0558   24.4358 C   0  0  0  0  0  0  0  0  0  0  0  0
   -4.3863   -1.3307   24.3424 C   0  0  0  0  0  0  0  0  0  0  0  0
   -4.3481   -0.4756   23.0778 C   0  0  0  0  0  0  0  0  0  0  0  0
   -5.5930    0.3517   23.0118 N   0  0  0  0  0  0  0  0  0  0  0  0
   -5.6413    1.5268   23.5800 C   0  0  0  0  0  0  0  0  0  0  0  0
   -6.5366    1.8033   24.3753 O   0  0  0  0  0  0  0  0  0  0  0  0
   -4.7425    2.4225   23.2920 N   0  0  0  0  0  0  0  0  0  0  0  0
  1  2  1  0  0  0  0
  1  3  2  0  0  0  0
  4  1  1  1  0  0  0
  4  6  1  0  0  0  0
  4  5  1  0  0  0  0
  6  7  1  0  0  0  0
  7  8  1  0  0  0  0
  8  9  1  0  0  0  0
  9 10  1  0  0  0  0
 10 12  1  0  0  0  0
 10 11  2  0  0  0  0
M  CHG  2   2  -1   5   1
M  END
>  <CHROM.1>
103.77658900,128.84658645,66.00722112,169.18148401,49.77735493,-91.62798996
-5.84541924,-1.19492868,24.73768640,1.89511209,-0.79187817,2.86831253

>  <Name>
1kod cryst

>  <RI>
0

>  <Rbt.Current_Directory>
/home/itssahil/PROJECTS/Mol_Feturizer/New_Systems/rnas/1kod

>  <Rbt.Executable>
rbdock ($Id: //depot/dev/client3/rdock/2013.1/src/exe/rbdock.cxx#4 $)

>  <Rbt.Library>
libRbt.so (2013.1, Build901 2013/11/27)

>  <Rbt.Parameter_File>
/export/apps/rDock/src/rDock_2013.1_src/data/scripts/dock_solv.prm

>  <Rbt.Receptor>
prm/blind_docking_80.prm

>  <SCORE>
-22.0041

>  <SCORE.INTER>
-18.7892

>  <SCORE.INTER.CONST>
1

>  <SCORE.INTER.POLAR>
-3.50664

>  <SCORE.INTER.ROT>
5

>  <SCORE.INTER.SOLV>
27.9842

>  <SCORE.INTER.VDW>
-17.0987

>  <SCORE.INTER.norm>
-1.56576

>  <SCORE.INTRA>
-3.2149

>  <SCORE.INTRA.DIHEDRAL>
0.274673

>  <SCORE.INTRA.DIHEDRAL.0>
7.7847

>  <SCORE.INTRA.POLAR>
0

>  <SCORE.INTRA.POLAR.0>
0

>  <SCORE.INTRA.REPUL>
0

>  <SCORE.INTRA.REPUL.0>
0

>  <SCORE.INTRA.SOLV>
-2.58136

>  <SCORE.INTRA.SOLV.lig_0>
-57.5465

>  <SCORE.INTRA.VDW>
-2.06156

>  <SCORE.INTRA.VDW.0>
1.39369

>  <SCORE.INTRA.norm>
-0.267908

>  <SCORE.RESTR>
0

>  <SCORE.RESTR.CAVITY>
0

>  <SCORE.RESTR.norm>
0

>  <SCORE.SYSTEM>
0

>  <SCORE.SYSTEM.CONST>
0

>  <SCORE.SYSTEM.DIHEDRAL>
0

>  <SCORE.SYSTEM.SOLV>
0

>  <SCORE.SYSTEM.norm>
0

>  <SCORE.heavy>
12

>  <SCORE.norm>
-1.83367

>  <SYMMETRIC_BONDS>
4 1 2

>  <RMSD>
13.727

$$$$
1kod cryst
 OpenBabel11021811393D
libRbt.so/2013.1/901 2013/11/27
 12 11  0  0  0  0  0  0  0  0999 V2000
   -9.5636   -1.2524   27.5172 C   0  0  0  0  0  0  0  0  0  0  0  0
  -10.5448   -1.8894   27.1640 O   0  5  0  0  0  0  0  0  0  0  0  0
   -9.5020   -0.0295   27.4973 O   0  0  0  0  0  0  0  0  0  0  0  0
   -8.3356   -2.0378   28.0185 C   0  0  1  0  0  0  0  0  0  0  0  0
   -8.7877   -3.1383   28.9235 N   0  3  0  0  0  0  0  0  0  0  0  0
   -7.5470   -2.6379   26.8310 C   0  0  0  0  0  0  0  0  0  0  0  0
   -6.8362   -1.5403   26.0500 C   0  0  0  0  0  0  0  0  0  0  0  0
   -5.9064   -2.1628   25.0109 C   0  0  0  0  0  0  0  0  0  0  0  0
   -5.0909   -1.0804   24.3768 N   0  0  0  0  0  0  0  0  0  0  0  0
   -4.9832   -1.0038   23.0774 C   0  0  0  0  0  0  0  0  0  0  0  0
   -3.8786   -0.9578   22.5406 O   0  0  0  0  0  0  0  0  0  0  0  0
   -6.0547   -0.9599   22.3404 N   0  0  0  0  0  0  0  0  0  0  0  0
  1  2  1  0  0  0  0
  1  3  2  0  0  0  0
  4  1  1  6  0  0  0
  4  6  1  0  0  0  0
  4  5  1  0  0  0  0
  6  7  1  0  0  0  0
  7  8  1  0  0  0  0
  8  9  1  0  0  0  0
  9 10  1  0  0  0  0
 10 12  1  0  0  0  0
 10 11  2  0  0  0  0
M  CHG  2   2  -1   5   1
M  END
>  <CHROM.1>
-43.32654960,70.87260016,-70.69875689,171.88228482,-172.85191612,48.64473622
-7.27456026,-1.56220238,25.78604351,2.40111910,-0.43904074,2.17215017

>  <Name>
1kod cryst

>  <RI>
0

>  <Rbt.Current_Directory>
/home/itssahil/PROJECTS/Mol_Feturizer/New_Systems/rnas/1kod

>  <Rbt.Executable>
rbdock ($Id: //depot/dev/client3/rdock/2013.1/src/exe/rbdock.cxx#4 $)

>  <Rbt.Library>
libRbt.so (2013.1, Build901 2013/11/27)

>  <Rbt.Parameter_File>
/export/apps/rDock/src/rDock_2013.1_src/data/scripts/dock_solv.prm

>  <Rbt.Receptor>
prm/blind_docking_60.prm

>  <SCORE>
-35.7595

>  <SCORE.INTER>
-30.0641

>  <SCORE.INTER.CONST>
1

>  <SCORE.INTER.POLAR>
-5.13431

>  <SCORE.INTER.ROT>
5

>  <SCORE.INTER.SOLV>
24.4613

>  <SCORE.INTER.VDW>
-18.0154

>  <SCORE.INTER.norm>
-2.50534

>  <SCORE.INTRA>
-6.06811

>  <SCORE.INTRA.DIHEDRAL>
-4.39767

>  <SCORE.INTRA.DIHEDRAL.0>
7.7847

>  <SCORE.INTRA.POLAR>
0

>  <SCORE.INTRA.POLAR.0>
0

>  <SCORE.INTRA.REPUL>
0

>  <SCORE.INTRA.REPUL.0>
0

>  <SCORE.INTRA.SOLV>
-2.71426

>  <SCORE.INTRA.SOLV.lig_0>
-57.5465

>  <SCORE.INTRA.VDW>
-2.51215

>  <SCORE.INTRA.VDW.0>
1.39369

>  <SCORE.INTRA.norm>
-0.505676

>  <SCORE.RESTR>
0.372643

>  <SCORE.RESTR.CAVITY>
0.372643

>  <SCORE.RESTR.norm>
0.0310536

>  <SCORE.SYSTEM>
0

>  <SCORE.SYSTEM.CONST>
0

>  <SCORE.SYSTEM.DIHEDRAL>
0

>  <SCORE.SYSTEM.SOLV>
0

>  <SCORE.SYSTEM.norm>
0

>  <SCORE.heavy>
12

>  <SCORE.norm>
-2.97996

>  <SYMMETRIC_BONDS>
4 1 2

>  <RMSD>
13.768

$$$$
1kod cryst
 OpenBabel11021811393D
libRbt.so/2013.1/901 2013/11/27
 12 11  0  0  0  0  0  0  0  0999 V2000
   -9.5733   -1.2692   27.5370 C   0  0  0  0  0  0  0  0  0  0  0  0
   -9.5036   -0.0496   27.5022 O   0  5  0  0  0  0  0  0  0  0  0  0
  -10.5751   -1.9032   27.2304 O   0  0  0  0  0  0  0  0  0  0  0  0
   -8.3246   -2.0505   27.9915 C   0  0  1  0  0  0  0  0  0  0  0  0
   -8.7395   -3.1582   28.9055 N   0  3  0  0  0  0  0  0  0  0  0  0
   -7.5743   -2.6400   26.7742 C   0  0  0  0  0  0  0  0  0  0  0  0
   -7.0103   -1.5266   25.9013 C   0  0  0  0  0  0  0  0  0  0  0  0
   -6.1595   -2.1252   24.7835 C   0  0  0  0  0  0  0  0  0  0  0  0
   -6.1463   -1.1810   23.6229 N   0  0  0  0  0  0  0  0  0  0  0  0
   -5.1137   -0.4119   23.4032 C   0  0  0  0  0  0  0  0  0  0  0  0
   -5.2511    0.8030   23.2777 O   0  0  0  0  0  0  0  0  0  0  0  0
   -3.9268   -0.9353   23.3001 N   0  0  0  0  0  0  0  0  0  0  0  0
  1  2  1  0  0  0  0
  1  3  2  0  0  0  0
  4  1  1  6  0  0  0
  4  6  1  0  0  0  0
  4  5  1  0  0  0  0
  6  7  1  0  0  0  0
  7  8  1  0  0  0  0
  8  9  1  0  0  0  0
  9 10  1  0  0  0  0
 10 12  1  0  0  0  0
 10 11  2  0  0  0  0
M  CHG  2   2  -1   5   1
M  END
>  <CHROM.1>
137.80781010,65.41099911,169.12733979,174.48244513,153.89664042,-78.15898623
-7.33623260,-1.37657462,25.86426924,2.50947837,-0.56697161,2.51284072

>  <Name>
1kod cryst

>  <RI>
0

>  <Rbt.Current_Directory>
/home/itssahil/PROJECTS/Mol_Feturizer/New_Systems/rnas/1kod

>  <Rbt.Executable>
rbdock ($Id: //depot/dev/client3/rdock/2013.1/src/exe/rbdock.cxx#4 $)

>  <Rbt.Library>
libRbt.so (2013.1, Build901 2013/11/27)

>  <Rbt.Parameter_File>
/export/apps/rDock/src/rDock_2013.1_src/data/scripts/dock_solv.prm

>  <Rbt.Receptor>
prm/blind_docking_60.prm

>  <SCORE>
-33.2744

>  <SCORE.INTER>
-28.4913

>  <SCORE.INTER.CONST>
1

>  <SCORE.INTER.POLAR>
-4.36124

>  <SCORE.INTER.ROT>
5

>  <SCORE.INTER.SOLV>
23.7709

>  <SCORE.INTER.VDW>
-19.3137

>  <SCORE.INTER.norm>
-2.37428

>  <SCORE.INTRA>
-5.1362

>  <SCORE.INTRA.DIHEDRAL>
-2.8283

>  <SCORE.INTRA.DIHEDRAL.0>
7.7847

>  <SCORE.INTRA.POLAR>
0

>  <SCORE.INTRA.POLAR.0>
0

>  <SCORE.INTRA.REPUL>
0

>  <SCORE.INTRA.REPUL.0>
0

>  <SCORE.INTRA.SOLV>
-2.57875

>  <SCORE.INTRA.SOLV.lig_0>
-57.5465

>  <SCORE.INTRA.VDW>
-2.43268

>  <SCORE.INTRA.VDW.0>
1.39369

>  <SCORE.INTRA.norm>
-0.428017

>  <SCORE.RESTR>
0.353112

>  <SCORE.RESTR.CAVITY>
0.353112

>  <SCORE.RESTR.norm>
0.029426

>  <SCORE.SYSTEM>
0

>  <SCORE.SYSTEM.CONST>
0

>  <SCORE.SYSTEM.DIHEDRAL>
0

>  <SCORE.SYSTEM.SOLV>
0

>  <SCORE.SYSTEM.norm>
0

>  <SCORE.heavy>
12

>  <SCORE.norm>
-2.77287

>  <SYMMETRIC_BONDS>
4 1 2

>  <RMSD>
13.783

$$$$
1kod cryst
 OpenBabel11021811393D
libRbt.so/2013.1/901 2013/11/27
 12 11  0  0  0  0  0  0  0  0999 V2000
   -9.5667   -1.2872   27.5271 C   0  0  0  0  0  0  0  0  0  0  0  0
   -9.5038   -0.0671   27.4958 O   0  5  0  0  0  0  0  0  0  0  0  0
  -10.5647   -1.9260   27.2176 O   0  0  0  0  0  0  0  0  0  0  0  0
   -8.3141   -2.0628   27.9806 C   0  0  1  0  0  0  0  0  0  0  0  0
   -8.7237   -3.1762   28.8900 N   0  3  0  0  0  0  0  0  0  0  0  0
   -7.5586   -2.6435   26.7623 C   0  0  0  0  0  0  0  0  0  0  0  0
   -7.0213   -1.5236   25.8808 C   0  0  0  0  0  0  0  0  0  0  0  0
   -6.1314   -2.1076   24.7859 C   0  0  0  0  0  0  0  0  0  0  0  0
   -6.1296   -1.1786   23.6130 N   0  0  0  0  0  0  0  0  0  0  0  0
   -5.0976   -0.4156   23.3708 C   0  0  0  0  0  0  0  0  0  0  0  0
   -5.2331    0.7980   23.2311 O   0  0  0  0  0  0  0  0  0  0  0  0
   -3.9136   -0.9439   23.2602 N   0  0  0  0  0  0  0  0  0  0  0  0
  1  2  1  0  0  0  0
  1  3  2  0  0  0  0
  4  1  1  6  0  0  0
  4  6  1  0  0  0  0
  4  5  1  0  0  0  0
  6  7  1  0  0  0  0
  7  8  1  0  0  0  0
  8  9  1  0  0  0  0
  9 10  1  0  0  0  0
 10 12  1  0  0  0  0
 10 11  2  0  0  0  0
M  CHG  2   2  -1   5   1
M  END
>  <CHROM.1>
137.86078049,64.39773246,-70.53873888,172.83506569,154.10819365,-75.46588569
-7.32456473,-1.38412603,25.84614055,2.50406342,-0.56373681,2.50687728

>  <Name>
1kod cryst

>  <RI>
0

>  <Rbt.Current_Directory>
/home/itssahil/PROJECTS/Mol_Feturizer/New_Systems/rnas/1kod

>  <Rbt.Executable>
rbdock ($Id: //depot/dev/client3/rdock/2013.1/src/exe/rbdock.cxx#4 $)

>  <Rbt.Library>
libRbt.so (2013.1, Build901 2013/11/27)

>  <Rbt.Parameter_File>
/export/apps/rDock/src/rDock_2013.1_src/data/scripts/dock_solv.prm

>  <Rbt.Receptor>
prm/blind_docking_60.prm

>  <SCORE>
-33.3099

>  <SCORE.INTER>
-28.5311

>  <SCORE.INTER.CONST>
1

>  <SCORE.INTER.POLAR>
-4.35733

>  <SCORE.INTER.ROT>
5

>  <SCORE.INTER.SOLV>
24.0525

>  <SCORE.INTER.VDW>
-19.4471

>  <SCORE.INTER.norm>
-2.37759

>  <SCORE.INTRA>
-5.11561

>  <SCORE.INTRA.DIHEDRAL>
-2.82331

>  <SCORE.INTRA.DIHEDRAL.0>
7.7847

>  <SCORE.INTRA.POLAR>
0

>  <SCORE.INTRA.POLAR.0>
0

>  <SCORE.INTRA.REPUL>
0

>  <SCORE.INTRA.REPUL.0>
0

>  <SCORE.INTRA.SOLV>
-2.58025

>  <SCORE.INTRA.SOLV.lig_0>
-57.5465

>  <SCORE.INTRA.VDW>
-2.41383

>  <SCORE.INTRA.VDW.0>
1.39369

>  <SCORE.INTRA.norm>
-0.426301

>  <SCORE.RESTR>
0.336808

>  <SCORE.RESTR.CAVITY>
0.336808

>  <SCORE.RESTR.norm>
0.0280673

>  <SCORE.SYSTEM>
0

>  <SCORE.SYSTEM.CONST>
0

>  <SCORE.SYSTEM.DIHEDRAL>
0

>  <SCORE.SYSTEM.SOLV>
0

>  <SCORE.SYSTEM.norm>
0

>  <SCORE.heavy>
12

>  <SCORE.norm>
-2.77582

>  <SYMMETRIC_BONDS>
4 1 2

>  <RMSD>
13.791

$$$$
1kod cryst
 OpenBabel11021811393D
libRbt.so/2013.1/901 2013/11/27
 12 11  0  0  0  0  0  0  0  0999 V2000
   -9.8466   -1.5147   27.9037 C   0  0  0  0  0  0  0  0  0  0  0  0
  -10.6723   -1.6286   28.7974 O   0  5  0  0  0  0  0  0  0  0  0  0
  -10.0415   -0.8835   26.8726 O   0  0  0  0  0  0  0  0  0  0  0  0
   -8.4810   -2.2050   28.0908 C   0  0  1  0  0  0  0  0  0  0  0  0
   -8.6456   -3.3944   28.9811 N   0  3  0  0  0  0  0  0  0  0  0  0
   -7.9042   -2.6563   26.7285 C   0  0  0  0  0  0  0  0  0  0  0  0
   -7.0487   -1.5546   26.1169 C   0  0  0  0  0  0  0  0  0  0  0  0
   -6.2877   -2.0992   24.9102 C   0  0  0  0  0  0  0  0  0  0  0  0
   -5.4214   -1.0149   24.3512 N   0  0  0  0  0  0  0  0  0  0  0  0
   -5.1580   -0.9668   23.0728 C   0  0  0  0  0  0  0  0  0  0  0  0
   -3.9974   -0.9099   22.6726 O   0  0  0  0  0  0  0  0  0  0  0  0
   -6.1327   -0.9635   22.2107 N   0  0  0  0  0  0  0  0  0  0  0  0
  1  2  1  0  0  0  0
  1  3  2  0  0  0  0
  4  1  1  6  0  0  0
  4  6  1  0  0  0  0
  4  5  1  0  0  0  0
  6  7  1  0  0  0  0
  7  8  1  0  0  0  0
  8  9  1  0  0  0  0
  9 10  1  0  0  0  0
 10 12  1  0  0  0  0
 10 11  2  0  0  0  0
M  CHG  2   2  -1   5   1
M  END
>  <CHROM.1>
27.58376566,90.01669995,-71.76001811,169.77915788,-178.21171475,31.32084632
-7.48525122,-1.65738525,25.90198369,2.34004717,-0.40065623,2.12797262

>  <Name>
1kod cryst

>  <RI>
0

>  <Rbt.Current_Directory>
/home/itssahil/PROJECTS/Mol_Feturizer/New_Systems/rnas/1kod

>  <Rbt.Executable>
rbdock ($Id: //depot/dev/client3/rdock/2013.1/src/exe/rbdock.cxx#4 $)

>  <Rbt.Library>
libRbt.so (2013.1, Build901 2013/11/27)

>  <Rbt.Parameter_File>
/export/apps/rDock/src/rDock_2013.1_src/data/scripts/dock_solv.prm

>  <Rbt.Receptor>
prm/blind_docking_60.prm

>  <SCORE>
-32.845

>  <SCORE.INTER>
-28.6832

>  <SCORE.INTER.CONST>
1

>  <SCORE.INTER.POLAR>
-5.24215

>  <SCORE.INTER.ROT>
5

>  <SCORE.INTER.SOLV>
25.3448

>  <SCORE.INTER.VDW>
-17.0299

>  <SCORE.INTER.norm>
-2.39027

>  <SCORE.INTRA>
-4.17825

>  <SCORE.INTRA.DIHEDRAL>
-2.20738

>  <SCORE.INTRA.DIHEDRAL.0>
7.7847

>  <SCORE.INTRA.POLAR>
0

>  <SCORE.INTRA.POLAR.0>
0

>  <SCORE.INTRA.REPUL>
0

>  <SCORE.INTRA.REPUL.0>
0

>  <SCORE.INTRA.SOLV>
-2.63035

>  <SCORE.INTRA.SOLV.lig_0>
-57.5465

>  <SCORE.INTRA.VDW>
-1.75939

>  <SCORE.INTRA.VDW.0>
1.39369

>  <SCORE.INTRA.norm>
-0.348188

>  <SCORE.RESTR>
0.0165361

>  <SCORE.RESTR.CAVITY>
0.0165361

>  <SCORE.RESTR.norm>
0.00137801

>  <SCORE.SYSTEM>
0

>  <SCORE.SYSTEM.CONST>
0

>  <SCORE.SYSTEM.DIHEDRAL>
0

>  <SCORE.SYSTEM.SOLV>
0

>  <SCORE.SYSTEM.norm>
0

>  <SCORE.heavy>
12

>  <SCORE.norm>
-2.73708

>  <SYMMETRIC_BONDS>
4 1 2

>  <RMSD>
13.893

$$$$
1kod cryst
 OpenBabel11021811393D
libRbt.so/2013.1/901 2013/11/27
 12 11  0  0  0  0  0  0  0  0999 V2000
   -5.2748   -2.7255   15.7788 C   0  0  0  0  0  0  0  0  0  0  0  0
   -4.8184   -1.6301   15.4873 O   0  5  0  0  0  0  0  0  0  0  0  0
   -6.1157   -2.9029   16.6512 O   0  0  0  0  0  0  0  0  0  0  0  0
   -4.7612   -3.9519   14.9988 C   0  0  1  0  0  0  0  0  0  0  0  0
   -4.6913   -3.6189   13.5432 N   0  3  0  0  0  0  0  0  0  0  0  0
   -3.3594   -4.3719   15.4996 C   0  0  0  0  0  0  0  0  0  0  0  0
   -3.2439   -5.8894   15.5597 C   0  0  0  0  0  0  0  0  0  0  0  0
   -1.9683   -6.2830   16.3012 C   0  0  0  0  0  0  0  0  0  0  0  0
   -2.2604   -6.3570   17.7668 N   0  0  0  0  0  0  0  0  0  0  0  0
   -1.3140   -6.1562   18.6444 C   0  0  0  0  0  0  0  0  0  0  0  0
   -1.0917   -6.9812   19.5278 O   0  0  0  0  0  0  0  0  0  0  0  0
   -0.6067   -5.0651   18.5955 N   0  0  0  0  0  0  0  0  0  0  0  0
  1  2  1  0  0  0  0
  1  3  2  0  0  0  0
  4  1  1  1  0  0  0
  4  6  1  0  0  0  0
  4  5  1  0  0  0  0
  6  7  1  0  0  0  0
  7  8  1  0  0  0  0
  8  9  1  0  0  0  0
  9 10  1  0  0  0  0
 10 12  1  0  0  0  0
 10 11  2  0  0  0  0
M  CHG  2   2  -1   5   1
M  END
>  <CHROM.1>
-43.54637372,140.28229420,65.01756653,-169.19399376,87.59977351,26.82245424
-3.29738357,-4.63375845,16.52131801,2.84759572,0.85885081,-1.98297485

>  <Name>
1kod cryst

>  <RI>
0

>  <Rbt.Current_Directory>
/home/afrankz/demos/rdock_decoys_rna/rnas/1kod

>  <Rbt.Executable>
rbdock ($Id: //depot/dev/client3/rdock/2013.1/src/exe/rbdock.cxx#4 $)

>  <Rbt.Library>
libRbt.so (2013.1, Build901 2013/11/27)

>  <Rbt.Parameter_File>
/export/apps/rDock/src/rDock_2013.1_src/data/scripts/dock_solv.prm

>  <Rbt.Receptor>
prm/blind_docking_20.prm

>  <SCORE>
-17.7251

>  <SCORE.INTER>
-16.6123

>  <SCORE.INTER.CONST>
1

>  <SCORE.INTER.POLAR>
-3.29353

>  <SCORE.INTER.ROT>
5

>  <SCORE.INTER.SOLV>
18.9225

>  <SCORE.INTER.VDW>
-13.3373

>  <SCORE.INTER.norm>
-1.38436

>  <SCORE.INTRA>
-3.4149

>  <SCORE.INTRA.DIHEDRAL>
1.23164

>  <SCORE.INTRA.DIHEDRAL.0>
7.7847

>  <SCORE.INTRA.POLAR>
0

>  <SCORE.INTRA.POLAR.0>
0

>  <SCORE.INTRA.REPUL>
0

>  <SCORE.INTRA.REPUL.0>
0

>  <SCORE.INTRA.SOLV>
-2.64156

>  <SCORE.INTRA.SOLV.lig_0>
-57.5465

>  <SCORE.INTRA.VDW>
-2.70994

>  <SCORE.INTRA.VDW.0>
1.39369

>  <SCORE.INTRA.norm>
-0.284575

>  <SCORE.RESTR>
2.30211

>  <SCORE.RESTR.CAVITY>
2.30211

>  <SCORE.RESTR.norm>
0.191843

>  <SCORE.SYSTEM>
0

>  <SCORE.SYSTEM.CONST>
0

>  <SCORE.SYSTEM.DIHEDRAL>
0

>  <SCORE.SYSTEM.SOLV>
0

>  <SCORE.SYSTEM.norm>
0

>  <SCORE.heavy>
12

>  <SCORE.norm>
-1.47709

>  <SYMMETRIC_BONDS>
4 1 2

>  <RMSD>
20.563

$$$$
1kod cryst
 OpenBabel11021811393D
libRbt.so/2013.1/901 2013/11/27
 12 11  0  0  0  0  0  0  0  0999 V2000
   -5.9777   -3.4892   16.1061 C   0  0  0  0  0  0  0  0  0  0  0  0
   -6.0384   -2.7679   17.0907 O   0  5  0  0  0  0  0  0  0  0  0  0
   -6.7727   -4.3909   15.8723 O   0  0  0  0  0  0  0  0  0  0  0  0
   -4.8342   -3.2445   15.1018 C   0  0  1  0  0  0  0  0  0  0  0  0
   -4.5389   -1.7806   15.0351 N   0  3  0  0  0  0  0  0  0  0  0  0
   -3.5587   -4.0090   15.5271 C   0  0  0  0  0  0  0  0  0  0  0  0
   -3.7034   -5.4970   15.2363 C   0  0  0  0  0  0  0  0  0  0  0  0
   -2.5331   -6.2613   15.8511 C   0  0  0  0  0  0  0  0  0  0  0  0
   -2.7727   -6.4195   17.3195 N   0  0  0  0  0  0  0  0  0  0  0  0
   -1.7701   -6.4716   18.1550 C   0  0  0  0  0  0  0  0  0  0  0  0
   -1.6641   -7.4018   18.9513 O   0  0  0  0  0  0  0  0  0  0  0  0
   -0.8800   -5.5224   18.1581 N   0  0  0  0  0  0  0  0  0  0  0  0
  1  2  1  0  0  0  0
  1  3  2  0  0  0  0
  4  1  1  1  0  0  0
  4  6  1  0  0  0  0
  4  5  1  0  0  0  0
  6  7  1  0  0  0  0
  7  8  1  0  0  0  0
  8  9  1  0  0  0  0
  9 10  1  0  0  0  0
 10 12  1  0  0  0  0
 10 11  2  0  0  0  0
M  CHG  2   2  -1   5   1
M  END
>  <CHROM.1>
-34.49816723,75.04867636,67.12955980,-171.45491576,78.37093816,30.63883748
-3.75638448,-4.73509392,16.55330594,2.31716105,0.10462797,-0.67692735

>  <Name>
1kod cryst

>  <RI>
0

>  <Rbt.Current_Directory>
/home/afrankz/demos/rdock_decoys_rna/rnas/1kod

>  <Rbt.Executable>
rbdock ($Id: //depot/dev/client3/rdock/2013.1/src/exe/rbdock.cxx#4 $)

>  <Rbt.Library>
libRbt.so (2013.1, Build901 2013/11/27)

>  <Rbt.Parameter_File>
/export/apps/rDock/src/rDock_2013.1_src/data/scripts/dock_solv.prm

>  <Rbt.Receptor>
prm/blind_docking_20.prm

>  <SCORE>
-25.3963

>  <SCORE.INTER>
-22.5801

>  <SCORE.INTER.CONST>
1

>  <SCORE.INTER.POLAR>
-4.94473

>  <SCORE.INTER.ROT>
5

>  <SCORE.INTER.SOLV>
21.1228

>  <SCORE.INTER.VDW>
-12.5452

>  <SCORE.INTER.norm>
-1.88167

>  <SCORE.INTRA>
-5.39242

>  <SCORE.INTRA.DIHEDRAL>
-3.17927

>  <SCORE.INTRA.DIHEDRAL.0>
7.7847

>  <SCORE.INTRA.POLAR>
0

>  <SCORE.INTRA.POLAR.0>
0

>  <SCORE.INTRA.REPUL>
0

>  <SCORE.INTRA.REPUL.0>
0

>  <SCORE.INTRA.SOLV>
-2.3019

>  <SCORE.INTRA.SOLV.lig_0>
-57.5465

>  <SCORE.INTRA.VDW>
-2.65184

>  <SCORE.INTRA.VDW.0>
1.39369

>  <SCORE.INTRA.norm>
-0.449369

>  <SCORE.RESTR>
2.57618

>  <SCORE.RESTR.CAVITY>
2.57618

>  <SCORE.RESTR.norm>
0.214682

>  <SCORE.SYSTEM>
0

>  <SCORE.SYSTEM.CONST>
0

>  <SCORE.SYSTEM.DIHEDRAL>
0

>  <SCORE.SYSTEM.SOLV>
0

>  <SCORE.SYSTEM.norm>
0

>  <SCORE.heavy>
12

>  <SCORE.norm>
-2.11636

>  <SYMMETRIC_BONDS>
4 1 2

>  <RMSD>
20.625

$$$$
1kod cryst
 OpenBabel11021811393D
libRbt.so/2013.1/901 2013/11/27
 12 11  0  0  0  0  0  0  0  0999 V2000
   -6.2596   -2.7336   16.6382 C   0  0  0  0  0  0  0  0  0  0  0  0
   -7.3096   -3.3466   16.7610 O   0  5  0  0  0  0  0  0  0  0  0  0
   -5.6986   -2.1522   17.5584 O   0  0  0  0  0  0  0  0  0  0  0  0
   -5.6057   -2.6949   15.2427 C   0  0  1  0  0  0  0  0  0  0  0  0
   -4.6121   -1.5792   15.1925 N   0  3  0  0  0  0  0  0  0  0  0  0
   -4.8944   -4.0331   14.9338 C   0  0  0  0  0  0  0  0  0  0  0  0
   -3.4840   -4.0359   15.5088 C   0  0  0  0  0  0  0  0  0  0  0  0
   -2.8725   -5.4287   15.3745 C   0  0  0  0  0  0  0  0  0  0  0  0
   -3.0478   -6.1638   16.6658 N   0  0  0  0  0  0  0  0  0  0  0  0
   -2.0140   -6.6463   17.3019 C   0  0  0  0  0  0  0  0  0  0  0  0
   -1.9767   -7.8293   17.6332 O   0  0  0  0  0  0  0  0  0  0  0  0
   -1.0174   -5.8660   17.6034 N   0  0  0  0  0  0  0  0  0  0  0  0
  1  2  1  0  0  0  0
  1  3  2  0  0  0  0
  4  1  1  1  0  0  0
  4  6  1  0  0  0  0
  4  5  1  0  0  0  0
  6  7  1  0  0  0  0
  7  8  1  0  0  0  0
  8  9  1  0  0  0  0
  9 10  1  0  0  0  0
 10 12  1  0  0  0  0
 10 11  2  0  0  0  0
M  CHG  2   2  -1   5   1
M  END
>  <CHROM.1>
162.19324106,-85.17100929,163.20000144,171.79183378,-96.96491027,56.80766451
-4.05281788,-4.35252566,16.39153612,2.44139273,0.47430056,-0.74514631

>  <Name>
1kod cryst

>  <RI>
0

>  <Rbt.Current_Directory>
/home/afrankz/demos/rdock_decoys_rna/rnas/1kod

>  <Rbt.Executable>
rbdock ($Id: //depot/dev/client3/rdock/2013.1/src/exe/rbdock.cxx#4 $)

>  <Rbt.Library>
libRbt.so (2013.1, Build901 2013/11/27)

>  <Rbt.Parameter_File>
/export/apps/rDock/src/rDock_2013.1_src/data/scripts/dock_solv.prm

>  <Rbt.Receptor>
prm/blind_docking_20.prm

>  <SCORE>
-23.4723

>  <SCORE.INTER>
-23.4385

>  <SCORE.INTER.CONST>
1

>  <SCORE.INTER.POLAR>
-5.11371

>  <SCORE.INTER.ROT>
5

>  <SCORE.INTER.SOLV>
22.1333

>  <SCORE.INTER.VDW>
-12.8911

>  <SCORE.INTER.norm>
-1.95321

>  <SCORE.INTRA>
-1.31013

>  <SCORE.INTRA.DIHEDRAL>
1.06079

>  <SCORE.INTRA.DIHEDRAL.0>
7.7847

>  <SCORE.INTRA.POLAR>
0

>  <SCORE.INTRA.POLAR.0>
0

>  <SCORE.INTRA.REPUL>
0

>  <SCORE.INTRA.REPUL.0>
0

>  <SCORE.INTRA.SOLV>
-0.974387

>  <SCORE.INTRA.SOLV.lig_0>
-57.5465

>  <SCORE.INTRA.VDW>
-1.35333

>  <SCORE.INTRA.VDW.0>
1.39369

>  <SCORE.INTRA.norm>
-0.109178

>  <SCORE.RESTR>
1.27635

>  <SCORE.RESTR.CAVITY>
1.27635

>  <SCORE.RESTR.norm>
0.106363

>  <SCORE.SYSTEM>
0

>  <SCORE.SYSTEM.CONST>
0

>  <SCORE.SYSTEM.DIHEDRAL>
0

>  <SCORE.SYSTEM.SOLV>
0

>  <SCORE.SYSTEM.norm>
0

>  <SCORE.heavy>
12

>  <SCORE.norm>
-1.95602

>  <SYMMETRIC_BONDS>
4 1 2

>  <RMSD>
20.636

$$$$
1kod cryst
 OpenBabel11021811393D
libRbt.so/2013.1/901 2013/11/27
 12 11  0  0  0  0  0  0  0  0999 V2000
   -4.8662   -3.2593   15.9847 C   0  0  0  0  0  0  0  0  0  0  0  0
   -3.9206   -2.6592   16.4736 O   0  5  0  0  0  0  0  0  0  0  0  0
   -6.0288   -3.0999   16.3350 O   0  0  0  0  0  0  0  0  0  0  0  0
   -4.5742   -4.2728   14.8605 C   0  0  1  0  0  0  0  0  0  0  0  0
   -4.6998   -3.5920   13.5356 N   0  3  0  0  0  0  0  0  0  0  0  0
   -3.1499   -4.8577   15.0067 C   0  0  0  0  0  0  0  0  0  0  0  0
   -3.1243   -5.9472   16.0708 C   0  0  0  0  0  0  0  0  0  0  0  0
   -1.7389   -6.5874   16.1236 C   0  0  0  0  0  0  0  0  0  0  0  0
   -1.4728   -7.0576   17.5188 N   0  0  0  0  0  0  0  0  0  0  0  0
   -0.2919   -6.9088   18.0567 C   0  0  0  0  0  0  0  0  0  0  0  0
    0.3007   -7.8682   18.5457 O   0  0  0  0  0  0  0  0  0  0  0  0
    0.2601   -5.7310   18.0911 N   0  0  0  0  0  0  0  0  0  0  0  0
  1  2  1  0  0  0  0
  1  3  2  0  0  0  0
  4  1  1  1  0  0  0
  4  6  1  0  0  0  0
  4  5  1  0  0  0  0
  6  7  1  0  0  0  0
  7  8  1  0  0  0  0
  8  9  1  0  0  0  0
  9 10  1  0  0  0  0
 10 12  1  0  0  0  0
 10 11  2  0  0  0  0
M  CHG  2   2  -1   5   1
M  END
>  <CHROM.1>
-92.81993193,79.42049676,-176.85178386,175.55830532,149.80906556,40.24983457
-2.77794858,-5.12461976,16.37759759,3.07198205,0.77067060,-2.12673371

>  <Name>
1kod cryst

>  <RI>
0

>  <Rbt.Current_Directory>
/home/afrankz/demos/rdock_decoys_rna/rnas/1kod

>  <Rbt.Executable>
rbdock ($Id: //depot/dev/client3/rdock/2013.1/src/exe/rbdock.cxx#4 $)

>  <Rbt.Library>
libRbt.so (2013.1, Build901 2013/11/27)

>  <Rbt.Parameter_File>
/export/apps/rDock/src/rDock_2013.1_src/data/scripts/dock_solv.prm

>  <Rbt.Receptor>
prm/blind_docking_20.prm

>  <SCORE>
-14.6862

>  <SCORE.INTER>
-13.2013

>  <SCORE.INTER.CONST>
1

>  <SCORE.INTER.POLAR>
-3.23276

>  <SCORE.INTER.ROT>
5

>  <SCORE.INTER.SOLV>
17.4301

>  <SCORE.INTER.VDW>
-10.7684

>  <SCORE.INTER.norm>
-1.10011

>  <SCORE.INTRA>
-4.15499

>  <SCORE.INTRA.DIHEDRAL>
-1.43494

>  <SCORE.INTRA.DIHEDRAL.0>
7.7847

>  <SCORE.INTRA.POLAR>
0

>  <SCORE.INTRA.POLAR.0>
0

>  <SCORE.INTRA.REPUL>
0

>  <SCORE.INTRA.REPUL.0>
0

>  <SCORE.INTRA.SOLV>
-2.89218

>  <SCORE.INTRA.SOLV.lig_0>
-57.5465

>  <SCORE.INTRA.VDW>
-1.99143

>  <SCORE.INTRA.VDW.0>
1.39369

>  <SCORE.INTRA.norm>
-0.346249

>  <SCORE.RESTR>
2.67007

>  <SCORE.RESTR.CAVITY>
2.67007

>  <SCORE.RESTR.norm>
0.222506

>  <SCORE.SYSTEM>
0

>  <SCORE.SYSTEM.CONST>
0

>  <SCORE.SYSTEM.DIHEDRAL>
0

>  <SCORE.SYSTEM.SOLV>
0

>  <SCORE.SYSTEM.norm>
0

>  <SCORE.heavy>
12

>  <SCORE.norm>
-1.22385

>  <SYMMETRIC_BONDS>
4 1 2

>  <RMSD>
20.750

$$$$
1kod cryst
 OpenBabel11021811393D
libRbt.so/2013.1/901 2013/11/27
 12 11  0  0  0  0  0  0  0  0999 V2000
    0.6260   -7.5171   17.3194 C   0  0  0  0  0  0  0  0  0  0  0  0
    1.4838   -7.0293   18.0403 O   0  5  0  0  0  0  0  0  0  0  0  0
    0.8513   -8.3810   16.4813 O   0  0  0  0  0  0  0  0  0  0  0  0
   -0.8224   -7.0145   17.4799 C   0  0  1  0  0  0  0  0  0  0  0  0
   -0.8327   -5.8078   18.3621 N   0  3  0  0  0  0  0  0  0  0  0  0
   -1.4324   -6.6535   16.1052 C   0  0  0  0  0  0  0  0  0  0  0  0
   -2.8454   -6.1098   16.2716 C   0  0  0  0  0  0  0  0  0  0  0  0
   -3.0396   -4.8887   15.3754 C   0  0  0  0  0  0  0  0  0  0  0  0
   -4.4749   -4.4696   15.4282 N   0  0  0  0  0  0  0  0  0  0  0  0
   -4.8004   -3.2556   15.7834 C   0  0  0  0  0  0  0  0  0  0  0  0
   -5.6100   -3.0618   16.6876 O   0  0  0  0  0  0  0  0  0  0  0  0
   -4.2758   -2.2376   15.1657 N   0  0  0  0  0  0  0  0  0  0  0  0
  1  2  1  0  0  0  0
  1  3  2  0  0  0  0
  4  1  1  6  0  0  0
  4  6  1  0  0  0  0
  4  5  1  0  0  0  0
  6  7  1  0  0  0  0
  7  8  1  0  0  0  0
  8  9  1  0  0  0  0
  9 10  1  0  0  0  0
 10 12  1  0  0  0  0
 10 11  2  0  0  0  0
M  CHG  2   2  -1   5   1
M  END
>  <CHROM.1>
10.28986913,-177.94705477,-46.08985322,136.52953239,173.29647566,-56.47532555
-2.08968308,-5.50709140,16.56244014,0.19134187,0.67622200,-2.24701367

>  <Name>
1kod cryst

>  <RI>
0

>  <Rbt.Current_Directory>
/home/afrankz/demos/rdock_decoys_rna/rnas/1kod

>  <Rbt.Executable>
rbdock ($Id: //depot/dev/client3/rdock/2013.1/src/exe/rbdock.cxx#4 $)

>  <Rbt.Library>
libRbt.so (2013.1, Build901 2013/11/27)

>  <Rbt.Parameter_File>
/export/apps/rDock/src/rDock_2013.1_src/data/scripts/dock_solv.prm

>  <Rbt.Receptor>
prm/blind_docking_20.prm

>  <SCORE>
-12.3208

>  <SCORE.INTER>
-11.1384

>  <SCORE.INTER.CONST>
1

>  <SCORE.INTER.POLAR>
-2.4358

>  <SCORE.INTER.ROT>
5

>  <SCORE.INTER.SOLV>
13.7972

>  <SCORE.INTER.VDW>
-10.8387

>  <SCORE.INTER.norm>
-0.928199

>  <SCORE.INTRA>
-2.59365

>  <SCORE.INTRA.DIHEDRAL>
0.140227

>  <SCORE.INTRA.DIHEDRAL.0>
7.7847

>  <SCORE.INTRA.POLAR>
0

>  <SCORE.INTRA.POLAR.0>
0

>  <SCORE.INTRA.REPUL>
0

>  <SCORE.INTRA.REPUL.0>
0

>  <SCORE.INTRA.SOLV>
-1.64293

>  <SCORE.INTRA.SOLV.lig_0>
-57.5465

>  <SCORE.INTRA.VDW>
-1.8423

>  <SCORE.INTRA.VDW.0>
1.39369

>  <SCORE.INTRA.norm>
-0.216137

>  <SCORE.RESTR>
1.41124

>  <SCORE.RESTR.CAVITY>
1.41124

>  <SCORE.RESTR.norm>
0.117604

>  <SCORE.SYSTEM>
0

>  <SCORE.SYSTEM.CONST>
0

>  <SCORE.SYSTEM.DIHEDRAL>
0

>  <SCORE.SYSTEM.SOLV>
0

>  <SCORE.SYSTEM.norm>
0

>  <SCORE.heavy>
12

>  <SCORE.norm>
-1.02673

>  <SYMMETRIC_BONDS>
4 1 2

>  <RMSD>
20.757

$$$$
1kod cryst
 OpenBabel11021811393D
libRbt.so/2013.1/901 2013/11/27
 12 11  0  0  0  0  0  0  0  0999 V2000
   -5.1283   -2.0525   15.8562 C   0  0  0  0  0  0  0  0  0  0  0  0
   -5.5744   -2.0455   16.9939 O   0  5  0  0  0  0  0  0  0  0  0  0
   -4.4132   -1.1695   15.3995 O   0  0  0  0  0  0  0  0  0  0  0  0
   -5.4869   -3.2453   14.9480 C   0  0  1  0  0  0  0  0  0  0  0  0
   -5.0327   -2.9591   13.5528 N   0  3  0  0  0  0  0  0  0  0  0  0
   -4.8121   -4.5416   15.4543 C   0  0  0  0  0  0  0  0  0  0  0  0
   -3.2959   -4.4258   15.3680 C   0  0  0  0  0  0  0  0  0  0  0  0
   -2.6602   -5.8029   15.5449 C   0  0  0  0  0  0  0  0  0  0  0  0
   -2.9608   -6.3045   16.9222 N   0  0  0  0  0  0  0  0  0  0  0  0
   -1.9933   -6.6274   17.7381 C   0  0  0  0  0  0  0  0  0  0  0  0
   -1.9698   -7.7309   18.2786 O   0  0  0  0  0  0  0  0  0  0  0  0
   -1.0503   -5.7687   17.9961 N   0  0  0  0  0  0  0  0  0  0  0  0
  1  2  1  0  0  0  0
  1  3  2  0  0  0  0
  4  1  1  1  0  0  0
  4  6  1  0  0  0  0
  4  5  1  0  0  0  0
  6  7  1  0  0  0  0
  7  8  1  0  0  0  0
  8  9  1  0  0  0  0
  9 10  1  0  0  0  0
 10 12  1  0  0  0  0
 10 11  2  0  0  0  0
M  CHG  2   2  -1   5   1
M  END
>  <CHROM.1>
171.05317410,-64.14366267,-77.78924820,-166.45197253,-64.13895100,57.42752324
-3.68885303,-4.36974311,16.16561923,-3.04607442,1.00768084,-2.19644161

>  <Name>
1kod cryst

>  <RI>
0

>  <Rbt.Current_Directory>
/home/afrankz/demos/rdock_decoys_rna/rnas/1kod

>  <Rbt.Executable>
rbdock ($Id: //depot/dev/client3/rdock/2013.1/src/exe/rbdock.cxx#4 $)

>  <Rbt.Library>
libRbt.so (2013.1, Build901 2013/11/27)

>  <Rbt.Parameter_File>
/export/apps/rDock/src/rDock_2013.1_src/data/scripts/dock_solv.prm

>  <Rbt.Receptor>
prm/blind_docking_20.prm

>  <SCORE>
-17.2782

>  <SCORE.INTER>
-14.6209

>  <SCORE.INTER.CONST>
1

>  <SCORE.INTER.POLAR>
-3.61581

>  <SCORE.INTER.ROT>
5

>  <SCORE.INTER.SOLV>
21.135

>  <SCORE.INTER.VDW>
-11.6729

>  <SCORE.INTER.norm>
-1.21841

>  <SCORE.INTRA>
-4.13796

>  <SCORE.INTRA.DIHEDRAL>
-3.95153

>  <SCORE.INTRA.DIHEDRAL.0>
7.7847

>  <SCORE.INTRA.POLAR>
0

>  <SCORE.INTRA.POLAR.0>
0

>  <SCORE.INTRA.REPUL>
0

>  <SCORE.INTRA.REPUL.0>
0

>  <SCORE.INTRA.SOLV>
-0.825208

>  <SCORE.INTRA.SOLV.lig_0>
-57.5465

>  <SCORE.INTRA.VDW>
-1.74959

>  <SCORE.INTRA.VDW.0>
1.39369

>  <SCORE.INTRA.norm>
-0.34483

>  <SCORE.RESTR>
1.48061

>  <SCORE.RESTR.CAVITY>
1.48061

>  <SCORE.RESTR.norm>
0.123385

>  <SCORE.SYSTEM>
0

>  <SCORE.SYSTEM.CONST>
0

>  <SCORE.SYSTEM.DIHEDRAL>
0

>  <SCORE.SYSTEM.SOLV>
0

>  <SCORE.SYSTEM.norm>
0

>  <SCORE.heavy>
12

>  <SCORE.norm>
-1.43985

>  <SYMMETRIC_BONDS>
4 1 2

>  <RMSD>
20.776

$$$$
1kod cryst
 OpenBabel11021811393D
libRbt.so/2013.1/901 2013/11/27
 12 11  0  0  0  0  0  0  0  0999 V2000
    1.0850   -7.4114   17.3969 C   0  0  0  0  0  0  0  0  0  0  0  0
    1.2949   -8.1554   16.4504 O   0  5  0  0  0  0  0  0  0  0  0  0
    1.9681   -6.9451   18.1057 O   0  0  0  0  0  0  0  0  0  0  0  0
   -0.3774   -7.0390   17.7114 C   0  0  1  0  0  0  0  0  0  0  0  0
   -0.4076   -5.7553   18.4768 N   0  3  0  0  0  0  0  0  0  0  0  0
   -1.1950   -6.8816   16.4080 C   0  0  0  0  0  0  0  0  0  0  0  0
   -2.5529   -6.2561   16.6990 C   0  0  0  0  0  0  0  0  0  0  0  0
   -3.1155   -5.6244   15.4277 C   0  0  0  0  0  0  0  0  0  0  0  0
   -4.2866   -4.7656   15.7879 N   0  0  0  0  0  0  0  0  0  0  0  0
   -4.4075   -3.5637   15.2911 C   0  0  0  0  0  0  0  0  0  0  0  0
   -4.5719   -2.5936   16.0275 O   0  0  0  0  0  0  0  0  0  0  0  0
   -4.3695   -3.3891   14.0022 N   0  0  0  0  0  0  0  0  0  0  0  0
  1  2  1  0  0  0  0
  1  3  2  0  0  0  0
  4  1  1  6  0  0  0
  4  6  1  0  0  0  0
  4  5  1  0  0  0  0
  6  7  1  0  0  0  0
  7  8  1  0  0  0  0
  8  9  1  0  0  0  0
  9 10  1  0  0  0  0
 10 12  1  0  0  0  0
 10 11  2  0  0  0  0
M  CHG  2   2  -1   5   1
M  END
>  <CHROM.1>
-157.04975299,-169.01930507,71.82857597,158.47058621,-167.71434878,-45.96973276
-1.73556553,-5.66788393,16.49386905,0.05729770,0.67461131,-2.23103783

>  <Name>
1kod cryst

>  <RI>
0

>  <Rbt.Current_Directory>
/home/afrankz/demos/rdock_decoys_rna/rnas/1kod

>  <Rbt.Executable>
rbdock ($Id: //depot/dev/client3/rdock/2013.1/src/exe/rbdock.cxx#4 $)

>  <Rbt.Library>
libRbt.so (2013.1, Build901 2013/11/27)

>  <Rbt.Parameter_File>
/export/apps/rDock/src/rDock_2013.1_src/data/scripts/dock_solv.prm

>  <Rbt.Receptor>
prm/blind_docking_20.prm

>  <SCORE>
-14.0194

>  <SCORE.INTER>
-12.1016

>  <SCORE.INTER.CONST>
1

>  <SCORE.INTER.POLAR>
-2.6622

>  <SCORE.INTER.ROT>
5

>  <SCORE.INTER.SOLV>
14.5616

>  <SCORE.INTER.VDW>
-10.9809

>  <SCORE.INTER.norm>
-1.00847

>  <SCORE.INTRA>
-3.3128

>  <SCORE.INTRA.DIHEDRAL>
-2.49725

>  <SCORE.INTRA.DIHEDRAL.0>
7.7847

>  <SCORE.INTRA.POLAR>
0

>  <SCORE.INTRA.POLAR.0>
0

>  <SCORE.INTRA.REPUL>
0

>  <SCORE.INTRA.REPUL.0>
0

>  <SCORE.INTRA.SOLV>
-1.77631

>  <SCORE.INTRA.SOLV.lig_0>
-57.5465

>  <SCORE.INTRA.VDW>
-1.17602

>  <SCORE.INTRA.VDW.0>
1.39369

>  <SCORE.INTRA.norm>
-0.276067

>  <SCORE.RESTR>
1.39503

>  <SCORE.RESTR.CAVITY>
1.39503

>  <SCORE.RESTR.norm>
0.116252

>  <SCORE.SYSTEM>
0

>  <SCORE.SYSTEM.CONST>
0

>  <SCORE.SYSTEM.DIHEDRAL>
0

>  <SCORE.SYSTEM.SOLV>
0

>  <SCORE.SYSTEM.norm>
0

>  <SCORE.heavy>
12

>  <SCORE.norm>
-1.16828

>  <SYMMETRIC_BONDS>
4 1 2

>  <RMSD>
20.783

$$$$
1kod cryst
 OpenBabel11021811393D
libRbt.so/2013.1/901 2013/11/27
 12 11  0  0  0  0  0  0  0  0999 V2000
   -7.9669   -1.9280   17.9394 C   0  0  0  0  0  0  0  0  0  0  0  0
   -7.8965   -1.6142   19.1184 O   0  5  0  0  0  0  0  0  0  0  0  0
   -8.0587   -3.0843   17.5466 O   0  0  0  0  0  0  0  0  0  0  0  0
   -7.9410   -0.7995   16.8897 C   0  0  1  0  0  0  0  0  0  0  0  0
   -7.6738    0.5040   17.5709 N   0  3  0  0  0  0  0  0  0  0  0  0
   -6.8450   -1.0619   15.8303 C   0  0  0  0  0  0  0  0  0  0  0  0
   -7.2385   -2.2245   14.9283 C   0  0  0  0  0  0  0  0  0  0  0  0
   -6.2309   -2.3603   13.7890 C   0  0  0  0  0  0  0  0  0  0  0  0
   -4.8795   -2.6432   14.3655 N   0  0  0  0  0  0  0  0  0  0  0  0
   -4.7547   -3.3776   15.4384 C   0  0  0  0  0  0  0  0  0  0  0  0
   -4.1286   -2.9651   16.4123 O   0  0  0  0  0  0  0  0  0  0  0  0
   -5.2846   -4.5655   15.4750 N   0  0  0  0  0  0  0  0  0  0  0  0
  1  2  1  0  0  0  0
  1  3  2  0  0  0  0
  4  1  1  1  0  0  0
  4  6  1  0  0  0  0
  4  5  1  0  0  0  0
  6  7  1  0  0  0  0
  7  8  1  0  0  0  0
  8  9  1  0  0  0  0
  9 10  1  0  0  0  0
 10 12  1  0  0  0  0
 10 11  2  0  0  0  0
M  CHG  2   2  -1   5   1
M  END
>  <CHROM.1>
6.32649596,71.03198200,51.86725772,173.18410443,61.26691461,-144.85317993
-6.56716691,-2.16834855,16.31274508,-2.92746142,0.90038790,-0.91874385

>  <Name>
1kod cryst

>  <RI>
0

>  <Rbt.Current_Directory>
/home/afrankz/demos/rdock_decoys_rna/rnas/1kod

>  <Rbt.Executable>
rbdock ($Id: //depot/dev/client3/rdock/2013.1/src/exe/rbdock.cxx#4 $)

>  <Rbt.Library>
libRbt.so (2013.1, Build901 2013/11/27)

>  <Rbt.Parameter_File>
/export/apps/rDock/src/rDock_2013.1_src/data/scripts/dock_solv.prm

>  <Rbt.Receptor>
prm/blind_docking_20.prm

>  <SCORE>
-21.4

>  <SCORE.INTER>
-19.0993

>  <SCORE.INTER.CONST>
1

>  <SCORE.INTER.POLAR>
-4.48803

>  <SCORE.INTER.ROT>
5

>  <SCORE.INTER.SOLV>
21.5512

>  <SCORE.INTER.VDW>
-11.8898

>  <SCORE.INTER.norm>
-1.5916

>  <SCORE.INTRA>
-3.23223

>  <SCORE.INTRA.DIHEDRAL>
-4.76712

>  <SCORE.INTRA.DIHEDRAL.0>
7.7847

>  <SCORE.INTRA.POLAR>
0

>  <SCORE.INTRA.POLAR.0>
0

>  <SCORE.INTRA.REPUL>
0

>  <SCORE.INTRA.REPUL.0>
0

>  <SCORE.INTRA.SOLV>
-0.284697

>  <SCORE.INTRA.SOLV.lig_0>
-57.5465

>  <SCORE.INTRA.VDW>
-0.706324

>  <SCORE.INTRA.VDW.0>
1.39369

>  <SCORE.INTRA.norm>
-0.269353

>  <SCORE.RESTR>
0.931502

>  <SCORE.RESTR.CAVITY>
0.931502

>  <SCORE.RESTR.norm>
0.0776252

>  <SCORE.SYSTEM>
0

>  <SCORE.SYSTEM.CONST>
0

>  <SCORE.SYSTEM.DIHEDRAL>
0

>  <SCORE.SYSTEM.SOLV>
0

>  <SCORE.SYSTEM.norm>
0

>  <SCORE.heavy>
12

>  <SCORE.norm>
-1.78333

>  <SYMMETRIC_BONDS>
4 1 2

>  <RMSD>
20.796

$$$$
1kod cryst
 OpenBabel11021811393D
libRbt.so/2013.1/901 2013/11/27
 12 11  0  0  0  0  0  0  0  0999 V2000
   -6.7243   -2.4395   16.0218 C   0  0  0  0  0  0  0  0  0  0  0  0
   -6.8214   -2.8929   17.1524 O   0  5  0  0  0  0  0  0  0  0  0  0
   -7.5702   -1.7241   15.4998 O   0  0  0  0  0  0  0  0  0  0  0  0
   -5.4610   -2.7887   15.2104 C   0  0  1  0  0  0  0  0  0  0  0  0
   -4.5491   -1.6046   15.1803 N   0  3  0  0  0  0  0  0  0  0  0  0
   -4.7218   -3.9931   15.8391 C   0  0  0  0  0  0  0  0  0  0  0  0
   -3.4912   -4.3551   15.0178 C   0  0  0  0  0  0  0  0  0  0  0  0
   -2.9880   -5.7393   15.4211 C   0  0  0  0  0  0  0  0  0  0  0  0
   -2.0348   -5.5963   16.5655 N   0  0  0  0  0  0  0  0  0  0  0  0
   -1.5783   -6.6509   17.1864 C   0  0  0  0  0  0  0  0  0  0  0  0
   -1.6750   -6.7513   18.4075 O   0  0  0  0  0  0  0  0  0  0  0  0
   -1.0007   -7.6008   16.5103 N   0  0  0  0  0  0  0  0  0  0  0  0
  1  2  1  0  0  0  0
  1  3  2  0  0  0  0
  4  1  1  1  0  0  0
  4  6  1  0  0  0  0
  4  5  1  0  0  0  0
  6  7  1  0  0  0  0
  7  8  1  0  0  0  0
  8  9  1  0  0  0  0
  9 10  1  0  0  0  0
 10 12  1  0  0  0  0
 10 11  2  0  0  0  0
M  CHG  2   2  -1   5   1
M  END
>  <CHROM.1>
-104.30605600,178.74880577,-161.51863371,-165.20092146,-88.01777348,-7.49966386
-4.03955588,-4.32182687,16.17975903,2.58832324,0.56644131,-0.97404691

>  <Name>
1kod cryst

>  <RI>
0

>  <Rbt.Current_Directory>
/home/afrankz/demos/rdock_decoys_rna/rnas/1kod

>  <Rbt.Executable>
rbdock ($Id: //depot/dev/client3/rdock/2013.1/src/exe/rbdock.cxx#4 $)

>  <Rbt.Library>
libRbt.so (2013.1, Build901 2013/11/27)

>  <Rbt.Parameter_File>
/export/apps/rDock/src/rDock_2013.1_src/data/scripts/dock_solv.prm

>  <Rbt.Receptor>
prm/blind_docking_20.prm

>  <SCORE>
-19.1069

>  <SCORE.INTER>
-17.2162

>  <SCORE.INTER.CONST>
1

>  <SCORE.INTER.POLAR>
-3.96961

>  <SCORE.INTER.ROT>
5

>  <SCORE.INTER.SOLV>
18.0059

>  <SCORE.INTER.VDW>
-11.1808

>  <SCORE.INTER.norm>
-1.43469

>  <SCORE.INTRA>
-3.13346

>  <SCORE.INTRA.DIHEDRAL>
-1.41167

>  <SCORE.INTRA.DIHEDRAL.0>
7.7847

>  <SCORE.INTRA.POLAR>
0

>  <SCORE.INTRA.POLAR.0>
0

>  <SCORE.INTRA.REPUL>
0

>  <SCORE.INTRA.REPUL.0>
0

>  <SCORE.INTRA.SOLV>
-2.37318

>  <SCORE.INTRA.SOLV.lig_0>
-57.5465

>  <SCORE.INTRA.VDW>
-1.24103

>  <SCORE.INTRA.VDW.0>
1.39369

>  <SCORE.INTRA.norm>
-0.261122

>  <SCORE.RESTR>
1.24285

>  <SCORE.RESTR.CAVITY>
1.24285

>  <SCORE.RESTR.norm>
0.103571

>  <SCORE.SYSTEM>
0

>  <SCORE.SYSTEM.CONST>
0

>  <SCORE.SYSTEM.DIHEDRAL>
0

>  <SCORE.SYSTEM.SOLV>
0

>  <SCORE.SYSTEM.norm>
0

>  <SCORE.heavy>
12

>  <SCORE.norm>
-1.59224

>  <SYMMETRIC_BONDS>
4 1 2

>  <RMSD>
20.854

$$$$
1kod cryst
 OpenBabel11021811393D
libRbt.so/2013.1/901 2013/11/27
 12 11  0  0  0  0  0  0  0  0999 V2000
   -6.7658   -2.1087   16.2073 C   0  0  0  0  0  0  0  0  0  0  0  0
   -7.9012   -2.4178   15.8777 O   0  5  0  0  0  0  0  0  0  0  0  0
   -6.5015   -1.4510   17.2059 O   0  0  0  0  0  0  0  0  0  0  0  0
   -5.6017   -2.5785   15.3126 C   0  0  1  0  0  0  0  0  0  0  0  0
   -4.5700   -1.4994   15.2357 N   0  3  0  0  0  0  0  0  0  0  0  0
   -4.9598   -3.8662   15.8800 C   0  0  0  0  0  0  0  0  0  0  0  0
   -4.1826   -4.6008   14.7955 C   0  0  0  0  0  0  0  0  0  0  0  0
   -2.8445   -5.0816   15.3524 C   0  0  0  0  0  0  0  0  0  0  0  0
   -3.0996   -6.0286   16.4823 N   0  0  0  0  0  0  0  0  0  0  0  0
   -2.1196   -6.7095   17.0134 C   0  0  0  0  0  0  0  0  0  0  0  0
   -2.1878   -7.9324   17.1155 O   0  0  0  0  0  0  0  0  0  0  0  0
   -1.0644   -6.0887   17.4543 N   0  0  0  0  0  0  0  0  0  0  0  0
  1  2  1  0  0  0  0
  1  3  2  0  0  0  0
  4  1  1  1  0  0  0
  4  6  1  0  0  0  0
  4  5  1  0  0  0  0
  6  7  1  0  0  0  0
  7  8  1  0  0  0  0
  8  9  1  0  0  0  0
  9 10  1  0  0  0  0
 10 12  1  0  0  0  0
 10 11  2  0  0  0  0
M  CHG  2   2  -1   5   1
M  END
>  <CHROM.1>
141.76371052,159.69133799,-43.53329692,136.64298110,61.10362385,-8.83404634
-4.30435839,-4.17181241,16.17933544,2.35476771,0.26697471,-0.43976673

>  <Name>
1kod cryst

>  <RI>
0

>  <Rbt.Current_Directory>
/home/afrankz/demos/rdock_decoys_rna/rnas/1kod

>  <Rbt.Executable>
rbdock ($Id: //depot/dev/client3/rdock/2013.1/src/exe/rbdock.cxx#4 $)

>  <Rbt.Library>
libRbt.so (2013.1, Build901 2013/11/27)

>  <Rbt.Parameter_File>
/export/apps/rDock/src/rDock_2013.1_src/data/scripts/dock_solv.prm

>  <Rbt.Receptor>
prm/blind_docking_20.prm

>  <SCORE>
-24.2832

>  <SCORE.INTER>
-23.9793

>  <SCORE.INTER.CONST>
1

>  <SCORE.INTER.POLAR>
-5.11094

>  <SCORE.INTER.ROT>
5

>  <SCORE.INTER.SOLV>
17.9997

>  <SCORE.INTER.VDW>
-11.883

>  <SCORE.INTER.norm>
-1.99827

>  <SCORE.INTRA>
-2.37751

>  <SCORE.INTRA.DIHEDRAL>
1.44102

>  <SCORE.INTRA.DIHEDRAL.0>
7.7847

>  <SCORE.INTRA.POLAR>
0

>  <SCORE.INTRA.POLAR.0>
0

>  <SCORE.INTRA.REPUL>
0

>  <SCORE.INTRA.REPUL.0>
0

>  <SCORE.INTRA.SOLV>
-2.06146

>  <SCORE.INTRA.SOLV.lig_0>
-57.5465

>  <SCORE.INTRA.VDW>
-2.06729

>  <SCORE.INTRA.VDW.0>
1.39369

>  <SCORE.INTRA.norm>
-0.198126

>  <SCORE.RESTR>
2.07359

>  <SCORE.RESTR.CAVITY>
2.07359

>  <SCORE.RESTR.norm>
0.172799

>  <SCORE.SYSTEM>
0

>  <SCORE.SYSTEM.CONST>
0

>  <SCORE.SYSTEM.DIHEDRAL>
0

>  <SCORE.SYSTEM.SOLV>
0

>  <SCORE.SYSTEM.norm>
0

>  <SCORE.heavy>
12

>  <SCORE.norm>
-2.0236

>  <SYMMETRIC_BONDS>
4 1 2

>  <RMSD>
20.854

$$$$
1kod cryst
 OpenBabel11021811393D
libRbt.so/2013.1/901 2013/11/27
 12 11  0  0  0  0  0  0  0  0999 V2000
   -8.6131   -2.9385   16.9320 C   0  0  0  0  0  0  0  0  0  0  0  0
   -7.8113   -3.8600   16.9701 O   0  5  0  0  0  0  0  0  0  0  0  0
   -9.7025   -3.0059   16.3767 O   0  0  0  0  0  0  0  0  0  0  0  0
   -8.2275   -1.6175   17.6266 C   0  0  1  0  0  0  0  0  0  0  0  0
   -7.5090   -1.9203   18.9020 N   0  3  0  0  0  0  0  0  0  0  0  0
   -7.3179   -0.7632   16.7127 C   0  0  0  0  0  0  0  0  0  0  0  0
   -5.9806   -1.4568   16.4879 C   0  0  0  0  0  0  0  0  0  0  0  0
   -5.7835   -1.7318   14.9988 C   0  0  0  0  0  0  0  0  0  0  0  0
   -4.5730   -2.5926   14.8188 N   0  0  0  0  0  0  0  0  0  0  0  0
   -4.4256   -3.6869   15.5165 C   0  0  0  0  0  0  0  0  0  0  0  0
   -3.4019   -3.8831   16.1678 O   0  0  0  0  0  0  0  0  0  0  0  0
   -5.3638   -4.5885   15.5127 N   0  0  0  0  0  0  0  0  0  0  0  0
  1  2  1  0  0  0  0
  1  3  2  0  0  0  0
  4  1  1  6  0  0  0
  4  6  1  0  0  0  0
  4  5  1  0  0  0  0
  6  7  1  0  0  0  0
  7  8  1  0  0  0  0
  8  9  1  0  0  0  0
  9 10  1  0  0  0  0
 10 12  1  0  0  0  0
 10 11  2  0  0  0  0
M  CHG  2   2  -1   5   1
M  END
>  <CHROM.1>
-38.82365271,-65.58455007,170.66871891,119.47324224,-171.47158187,-129.82257368
-6.55317219,-2.70475365,16.44333537,2.78874863,0.34959997,0.27278168

>  <Name>
1kod cryst

>  <RI>
0

>  <Rbt.Current_Directory>
/home/afrankz/demos/rdock_decoys_rna/rnas/1kod

>  <Rbt.Executable>
rbdock ($Id: //depot/dev/client3/rdock/2013.1/src/exe/rbdock.cxx#4 $)

>  <Rbt.Library>
libRbt.so (2013.1, Build901 2013/11/27)

>  <Rbt.Parameter_File>
/export/apps/rDock/src/rDock_2013.1_src/data/scripts/dock_solv.prm

>  <Rbt.Receptor>
prm/blind_docking_20.prm

>  <SCORE>
-18.1441

>  <SCORE.INTER>
-18.7327

>  <SCORE.INTER.CONST>
1

>  <SCORE.INTER.POLAR>
-3.6431

>  <SCORE.INTER.ROT>
5

>  <SCORE.INTER.SOLV>
18.2641

>  <SCORE.INTER.VDW>
-13.3661

>  <SCORE.INTER.norm>
-1.56106

>  <SCORE.INTRA>
-0.628461

>  <SCORE.INTRA.DIHEDRAL>
1.17139

>  <SCORE.INTRA.DIHEDRAL.0>
7.7847

>  <SCORE.INTRA.POLAR>
0

>  <SCORE.INTRA.POLAR.0>
0

>  <SCORE.INTRA.REPUL>
0

>  <SCORE.INTRA.REPUL.0>
0

>  <SCORE.INTRA.SOLV>
1.71053

>  <SCORE.INTRA.SOLV.lig_0>
-57.5465

>  <SCORE.INTRA.VDW>
-2.06942

>  <SCORE.INTRA.VDW.0>
1.39369

>  <SCORE.INTRA.norm>
-0.0523718

>  <SCORE.RESTR>
1.21704

>  <SCORE.RESTR.CAVITY>
1.21704

>  <SCORE.RESTR.norm>
0.10142

>  <SCORE.SYSTEM>
0

>  <SCORE.SYSTEM.CONST>
0

>  <SCORE.SYSTEM.DIHEDRAL>
0

>  <SCORE.SYSTEM.SOLV>
0

>  <SCORE.SYSTEM.norm>
0

>  <SCORE.heavy>
12

>  <SCORE.norm>
-1.51201

>  <SYMMETRIC_BONDS>
4 1 2

>  <RMSD>
20.868

$$$$
1kod cryst
 OpenBabel11021811393D
libRbt.so/2013.1/901 2013/11/27
 12 11  0  0  0  0  0  0  0  0999 V2000
   -5.7864   -1.6782   16.1088 C   0  0  0  0  0  0  0  0  0  0  0  0
   -5.6868   -1.7445   17.3250 O   0  5  0  0  0  0  0  0  0  0  0  0
   -6.0147   -0.6408   15.4995 O   0  0  0  0  0  0  0  0  0  0  0  0
   -5.6113   -2.9780   15.2987 C   0  0  1  0  0  0  0  0  0  0  0  0
   -5.7301   -2.6720   13.8403 N   0  3  0  0  0  0  0  0  0  0  0  0
   -4.2315   -3.6175   15.5807 C   0  0  0  0  0  0  0  0  0  0  0  0
   -4.2970   -5.1299   15.4126 C   0  0  0  0  0  0  0  0  0  0  0  0
   -2.8948   -5.6860   15.1751 C   0  0  0  0  0  0  0  0  0  0  0  0
   -2.0938   -5.5387   16.4302 N   0  0  0  0  0  0  0  0  0  0  0  0
   -1.7204   -6.5910   17.1080 C   0  0  0  0  0  0  0  0  0  0  0  0
   -1.9707   -6.6864   18.3075 O   0  0  0  0  0  0  0  0  0  0  0  0
   -1.0628   -7.5438   16.5141 N   0  0  0  0  0  0  0  0  0  0  0  0
  1  2  1  0  0  0  0
  1  3  2  0  0  0  0
  4  1  1  1  0  0  0
  4  6  1  0  0  0  0
  4  5  1  0  0  0  0
  6  7  1  0  0  0  0
  7  8  1  0  0  0  0
  8  9  1  0  0  0  0
  9 10  1  0  0  0  0
 10 12  1  0  0  0  0
 10 11  2  0  0  0  0
M  CHG  2   2  -1   5   1
M  END
>  <CHROM.1>
-178.35020627,151.01049002,-170.46141472,158.99015466,68.65818329,-67.65837323
-3.92470540,-4.19456282,16.03821370,-3.09992079,0.90152403,-1.89343032

>  <Name>
1kod cryst

>  <RI>
0

>  <Rbt.Current_Directory>
/home/afrankz/demos/rdock_decoys_rna/rnas/1kod

>  <Rbt.Executable>
rbdock ($Id: //depot/dev/client3/rdock/2013.1/src/exe/rbdock.cxx#4 $)

>  <Rbt.Library>
libRbt.so (2013.1, Build901 2013/11/27)

>  <Rbt.Parameter_File>
/export/apps/rDock/src/rDock_2013.1_src/data/scripts/dock_solv.prm

>  <Rbt.Receptor>
prm/blind_docking_20.prm

>  <SCORE>
-9.25791

>  <SCORE.INTER>
-7.00063

>  <SCORE.INTER.CONST>
1

>  <SCORE.INTER.POLAR>
-2.10751

>  <SCORE.INTER.ROT>
5

>  <SCORE.INTER.SOLV>
16.5364

>  <SCORE.INTER.VDW>
-10.0875

>  <SCORE.INTER.norm>
-0.583386

>  <SCORE.INTRA>
-3.89474

>  <SCORE.INTRA.DIHEDRAL>
-0.936831

>  <SCORE.INTRA.DIHEDRAL.0>
7.7847

>  <SCORE.INTRA.POLAR>
0

>  <SCORE.INTRA.POLAR.0>
0

>  <SCORE.INTRA.REPUL>
0

>  <SCORE.INTRA.REPUL.0>
0

>  <SCORE.INTRA.SOLV>
-2.18798

>  <SCORE.INTRA.SOLV.lig_0>
-57.5465

>  <SCORE.INTRA.VDW>
-2.33233

>  <SCORE.INTRA.VDW.0>
1.39369

>  <SCORE.INTRA.norm>
-0.324561

>  <SCORE.RESTR>
1.63746

>  <SCORE.RESTR.CAVITY>
1.63746

>  <SCORE.RESTR.norm>
0.136455

>  <SCORE.SYSTEM>
0

>  <SCORE.SYSTEM.CONST>
0

>  <SCORE.SYSTEM.DIHEDRAL>
0

>  <SCORE.SYSTEM.SOLV>
0

>  <SCORE.SYSTEM.norm>
0

>  <SCORE.heavy>
12

>  <SCORE.norm>
-0.771493

>  <SYMMETRIC_BONDS>
4 1 2

>  <RMSD>
20.873

$$$$
1kod cryst
 OpenBabel11021811393D
libRbt.so/2013.1/901 2013/11/27
 12 11  0  0  0  0  0  0  0  0999 V2000
    0.3540   -7.5101   17.0795 C   0  0  0  0  0  0  0  0  0  0  0  0
    1.1471   -7.2882   17.9823 O   0  5  0  0  0  0  0  0  0  0  0  0
    0.6440   -8.1042   16.0487 O   0  0  0  0  0  0  0  0  0  0  0  0
   -1.0951   -7.0140   17.2539 C   0  0  1  0  0  0  0  0  0  0  0  0
   -1.1159   -5.8790   18.2265 N   0  3  0  0  0  0  0  0  0  0  0  0
   -1.6799   -6.5447   15.9012 C   0  0  0  0  0  0  0  0  0  0  0  0
   -3.0793   -5.9741   16.0910 C   0  0  0  0  0  0  0  0  0  0  0  0
   -3.2456   -4.7162   15.2414 C   0  0  0  0  0  0  0  0  0  0  0  0
   -4.6463   -4.2112   15.3883 N   0  0  0  0  0  0  0  0  0  0  0  0
   -4.8739   -2.9892   15.7895 C   0  0  0  0  0  0  0  0  0  0  0  0
   -5.6162   -2.7698   16.7441 O   0  0  0  0  0  0  0  0  0  0  0  0
   -4.3228   -1.9896   15.1648 N   0  0  0  0  0  0  0  0  0  0  0  0
  1  2  1  0  0  0  0
  1  3  2  0  0  0  0
  4  1  1  6  0  0  0
  4  6  1  0  0  0  0
  4  5  1  0  0  0  0
  6  7  1  0  0  0  0
  7  8  1  0  0  0  0
  8  9  1  0  0  0  0
  9 10  1  0  0  0  0
 10 12  1  0  0  0  0
 10 11  2  0  0  0  0
M  CHG  2   2  -1   5   1
M  END
>  <CHROM.1>
23.53877550,-176.45097671,-36.94078871,138.38775445,177.17795225,-56.17599134
-2.28569023,-5.38878639,16.43225237,0.09356762,0.73123342,-2.02312266

>  <Name>
1kod cryst

>  <RI>
0

>  <Rbt.Current_Directory>
/home/afrankz/demos/rdock_decoys_rna/rnas/1kod

>  <Rbt.Executable>
rbdock ($Id: //depot/dev/client3/rdock/2013.1/src/exe/rbdock.cxx#4 $)

>  <Rbt.Library>
libRbt.so (2013.1, Build901 2013/11/27)

>  <Rbt.Parameter_File>
/export/apps/rDock/src/rDock_2013.1_src/data/scripts/dock_solv.prm

>  <Rbt.Receptor>
prm/blind_docking_20.prm

>  <SCORE>
-13.5022

>  <SCORE.INTER>
-13.0611

>  <SCORE.INTER.CONST>
1

>  <SCORE.INTER.POLAR>
-2.66706

>  <SCORE.INTER.ROT>
5

>  <SCORE.INTER.SOLV>
13.401

>  <SCORE.INTER.VDW>
-11.2175

>  <SCORE.INTER.norm>
-1.08842

>  <SCORE.INTRA>
-2.11919

>  <SCORE.INTRA.DIHEDRAL>
0.496339

>  <SCORE.INTRA.DIHEDRAL.0>
7.7847

>  <SCORE.INTRA.POLAR>
0

>  <SCORE.INTRA.POLAR.0>
0

>  <SCORE.INTRA.REPUL>
0

>  <SCORE.INTRA.REPUL.0>
0

>  <SCORE.INTRA.SOLV>
-1.64996

>  <SCORE.INTRA.SOLV.lig_0>
-57.5465

>  <SCORE.INTRA.VDW>
-1.54237

>  <SCORE.INTRA.VDW.0>
1.39369

>  <SCORE.INTRA.norm>
-0.176599

>  <SCORE.RESTR>
1.67807

>  <SCORE.RESTR.CAVITY>
1.67807

>  <SCORE.RESTR.norm>
0.139839

>  <SCORE.SYSTEM>
0

>  <SCORE.SYSTEM.CONST>
0

>  <SCORE.SYSTEM.DIHEDRAL>
0

>  <SCORE.SYSTEM.SOLV>
0

>  <SCORE.SYSTEM.norm>
0

>  <SCORE.heavy>
12

>  <SCORE.norm>
-1.12518

>  <SYMMETRIC_BONDS>
4 1 2

>  <RMSD>
20.873

$$$$
1kod cryst
 OpenBabel11021811393D
libRbt.so/2013.1/901 2013/11/27
 12 11  0  0  0  0  0  0  0  0999 V2000
   -6.7969   -1.8677   16.0729 C   0  0  0  0  0  0  0  0  0  0  0  0
   -6.8085   -0.6632   16.2789 O   0  5  0  0  0  0  0  0  0  0  0  0
   -7.6576   -2.6370   16.4816 O   0  0  0  0  0  0  0  0  0  0  0  0
   -5.6307   -2.4474   15.2482 C   0  0  1  0  0  0  0  0  0  0  0  0
   -4.5284   -1.4404   15.1740 N   0  3  0  0  0  0  0  0  0  0  0  0
   -5.0979   -3.7487   15.8925 C   0  0  0  0  0  0  0  0  0  0  0  0
   -4.3609   -4.5944   14.8623 C   0  0  0  0  0  0  0  0  0  0  0  0
   -2.9762   -4.9635   15.3898 C   0  0  0  0  0  0  0  0  0  0  0  0
   -3.1255   -5.9714   16.4855 N   0  0  0  0  0  0  0  0  0  0  0  0
   -2.0774   -6.5658   16.9896 C   0  0  0  0  0  0  0  0  0  0  0  0
   -2.0184   -7.7920   17.0479 O   0  0  0  0  0  0  0  0  0  0  0  0
   -1.0892   -5.8553   17.4501 N   0  0  0  0  0  0  0  0  0  0  0  0
  1  2  1  0  0  0  0
  1  3  2  0  0  0  0
  4  1  1  1  0  0  0
  4  6  1  0  0  0  0
  4  5  1  0  0  0  0
  6  7  1  0  0  0  0
  7  8  1  0  0  0  0
  8  9  1  0  0  0  0
  9 10  1  0  0  0  0
 10 12  1  0  0  0  0
 10 11  2  0  0  0  0
M  CHG  2   2  -1   5   1
M  END
>  <CHROM.1>
15.49606558,158.09126219,77.02089767,127.84364315,71.65217619,-8.31731811
-4.33228394,-4.02008602,16.13134618,2.31839873,0.16948919,-0.34724137

>  <Name>
1kod cryst

>  <RI>
0

>  <Rbt.Current_Directory>
/home/afrankz/demos/rdock_decoys_rna/rnas/1kod

>  <Rbt.Executable>
rbdock ($Id: //depot/dev/client3/rdock/2013.1/src/exe/rbdock.cxx#4 $)

>  <Rbt.Library>
libRbt.so (2013.1, Build901 2013/11/27)

>  <Rbt.Parameter_File>
/export/apps/rDock/src/rDock_2013.1_src/data/scripts/dock_solv.prm

>  <Rbt.Receptor>
prm/blind_docking_20.prm

>  <SCORE>
-26.82

>  <SCORE.INTER>
-27.2115

>  <SCORE.INTER.CONST>
1

>  <SCORE.INTER.POLAR>
-5.80402

>  <SCORE.INTER.ROT>
5

>  <SCORE.INTER.SOLV>
18.6129

>  <SCORE.INTER.VDW>
-11.9319

>  <SCORE.INTER.norm>
-2.26763

>  <SCORE.INTRA>
-1.24677

>  <SCORE.INTRA.DIHEDRAL>
3.00253

>  <SCORE.INTRA.DIHEDRAL.0>
7.7847

>  <SCORE.INTRA.POLAR>
0

>  <SCORE.INTRA.POLAR.0>
0

>  <SCORE.INTRA.REPUL>
0

>  <SCORE.INTRA.REPUL.0>
0

>  <SCORE.INTRA.SOLV>
-1.79512

>  <SCORE.INTRA.SOLV.lig_0>
-57.5465

>  <SCORE.INTRA.VDW>
-1.85048

>  <SCORE.INTRA.VDW.0>
1.39369

>  <SCORE.INTRA.norm>
-0.103898

>  <SCORE.RESTR>
1.63833

>  <SCORE.RESTR.CAVITY>
1.63833

>  <SCORE.RESTR.norm>
0.136527

>  <SCORE.SYSTEM>
0

>  <SCORE.SYSTEM.CONST>
0

>  <SCORE.SYSTEM.DIHEDRAL>
0

>  <SCORE.SYSTEM.SOLV>
0

>  <SCORE.SYSTEM.norm>
0

>  <SCORE.heavy>
12

>  <SCORE.norm>
-2.235

>  <SYMMETRIC_BONDS>
4 1 2

>  <RMSD>
20.879

$$$$
1kod cryst
 OpenBabel11021811393D
libRbt.so/2013.1/901 2013/11/27
 12 11  0  0  0  0  0  0  0  0999 V2000
    0.0583   -7.5536   17.0851 C   0  0  0  0  0  0  0  0  0  0  0  0
    0.0983   -8.1108   15.9983 O   0  5  0  0  0  0  0  0  0  0  0  0
    0.9675   -7.5925   17.9045 O   0  0  0  0  0  0  0  0  0  0  0  0
   -1.2113   -6.7544   17.4398 C   0  0  1  0  0  0  0  0  0  0  0  0
   -0.8458   -5.6192   18.3411 N   0  3  0  0  0  0  0  0  0  0  0  0
   -1.8856   -6.2019   16.1622 C   0  0  0  0  0  0  0  0  0  0  0  0
   -2.9421   -5.1645   16.5191 C   0  0  0  0  0  0  0  0  0  0  0  0
   -3.3444   -4.3837   15.2700 C   0  0  0  0  0  0  0  0  0  0  0  0
   -4.0205   -3.1153   15.6856 N   0  0  0  0  0  0  0  0  0  0  0  0
   -5.2797   -2.9104   15.4052 C   0  0  0  0  0  0  0  0  0  0  0  0
   -5.6344   -1.8898   14.8195 O   0  0  0  0  0  0  0  0  0  0  0  0
   -6.1732   -3.7865   15.7617 N   0  0  0  0  0  0  0  0  0  0  0  0
  1  2  1  0  0  0  0
  1  3  2  0  0  0  0
  4  1  1  6  0  0  0
  4  6  1  0  0  0  0
  4  5  1  0  0  0  0
  6  7  1  0  0  0  0
  7  8  1  0  0  0  0
  8  9  1  0  0  0  0
  9 10  1  0  0  0  0
 10 12  1  0  0  0  0
 10 11  2  0  0  0  0
M  CHG  2   2  -1   5   1
M  END
>  <CHROM.1>
-149.64587987,-167.22238122,-161.77217580,165.85332084,-161.91910952,64.97197985
-2.51054024,-5.24217556,16.38950741,0.16395652,0.71633529,-2.23039011

>  <Name>
1kod cryst

>  <RI>
0

>  <Rbt.Current_Directory>
/home/afrankz/demos/rdock_decoys_rna/rnas/1kod

>  <Rbt.Executable>
rbdock ($Id: //depot/dev/client3/rdock/2013.1/src/exe/rbdock.cxx#4 $)

>  <Rbt.Library>
libRbt.so (2013.1, Build901 2013/11/27)

>  <Rbt.Parameter_File>
/export/apps/rDock/src/rDock_2013.1_src/data/scripts/dock_solv.prm

>  <Rbt.Receptor>
prm/blind_docking_20.prm

>  <SCORE>
8.29562

>  <SCORE.INTER>
10.9736

>  <SCORE.INTER.CONST>
1

>  <SCORE.INTER.POLAR>
-2.97891

>  <SCORE.INTER.ROT>
5

>  <SCORE.INTER.SOLV>
13.2022

>  <SCORE.INTER.VDW>
5.91142

>  <SCORE.INTER.norm>
0.91447

>  <SCORE.INTRA>
-3.20341

>  <SCORE.INTRA.DIHEDRAL>
-2.28234

>  <SCORE.INTRA.DIHEDRAL.0>
7.7847

>  <SCORE.INTRA.POLAR>
0

>  <SCORE.INTRA.POLAR.0>
0

>  <SCORE.INTRA.REPUL>
0

>  <SCORE.INTRA.REPUL.0>
0

>  <SCORE.INTRA.SOLV>
-1.72315

>  <SCORE.INTRA.SOLV.lig_0>
-57.5465

>  <SCORE.INTRA.VDW>
-1.20067

>  <SCORE.INTRA.VDW.0>
1.39369

>  <SCORE.INTRA.norm>
-0.266951

>  <SCORE.RESTR>
0.525384

>  <SCORE.RESTR.CAVITY>
0.525384

>  <SCORE.RESTR.norm>
0.043782

>  <SCORE.SYSTEM>
0

>  <SCORE.SYSTEM.CONST>
0

>  <SCORE.SYSTEM.DIHEDRAL>
0

>  <SCORE.SYSTEM.SOLV>
0

>  <SCORE.SYSTEM.norm>
0

>  <SCORE.heavy>
12

>  <SCORE.norm>
0.691301

>  <SYMMETRIC_BONDS>
4 1 2

>  <RMSD>
20.879

$$$$
1kod cryst
 OpenBabel11021811393D
libRbt.so/2013.1/901 2013/11/27
 12 11  0  0  0  0  0  0  0  0999 V2000
   -6.8093   -1.8329   16.0389 C   0  0  0  0  0  0  0  0  0  0  0  0
   -6.8242   -0.6250   16.2237 O   0  5  0  0  0  0  0  0  0  0  0  0
   -7.6689   -2.5970   16.4596 O   0  0  0  0  0  0  0  0  0  0  0  0
   -5.6403   -2.4242   15.2265 C   0  0  1  0  0  0  0  0  0  0  0  0
   -4.5292   -1.4264   15.1600 N   0  3  0  0  0  0  0  0  0  0  0  0
   -5.1241   -3.7281   15.8789 C   0  0  0  0  0  0  0  0  0  0  0  0
   -4.3906   -4.5857   14.8560 C   0  0  0  0  0  0  0  0  0  0  0  0
   -3.0034   -4.9470   15.3821 C   0  0  0  0  0  0  0  0  0  0  0  0
   -3.1462   -5.9518   16.4815 N   0  0  0  0  0  0  0  0  0  0  0  0
   -2.0952   -6.5456   16.9802 C   0  0  0  0  0  0  0  0  0  0  0  0
   -2.0367   -7.7717   17.0414 O   0  0  0  0  0  0  0  0  0  0  0  0
   -1.1036   -5.8347   17.4324 N   0  0  0  0  0  0  0  0  0  0  0  0
  1  2  1  0  0  0  0
  1  3  2  0  0  0  0
  4  1  1  1  0  0  0
  4  6  1  0  0  0  0
  4  5  1  0  0  0  0
  6  7  1  0  0  0  0
  7  8  1  0  0  0  0
  8  9  1  0  0  0  0
  9 10  1  0  0  0  0
 10 12  1  0  0  0  0
 10 11  2  0  0  0  0
M  CHG  2   2  -1   5   1
M  END
>  <CHROM.1>
16.63232997,157.80416017,-42.26431846,126.89287396,72.21259385,-8.71251048
-4.34899191,-3.99702557,16.11358741,2.31459049,0.15902168,-0.34062938

>  <Name>
1kod cryst

>  <RI>
0

>  <Rbt.Current_Directory>
/home/afrankz/demos/rdock_decoys_rna/rnas/1kod

>  <Rbt.Executable>
rbdock ($Id: //depot/dev/client3/rdock/2013.1/src/exe/rbdock.cxx#4 $)

>  <Rbt.Library>
libRbt.so (2013.1, Build901 2013/11/27)

>  <Rbt.Parameter_File>
/export/apps/rDock/src/rDock_2013.1_src/data/scripts/dock_solv.prm

>  <Rbt.Receptor>
prm/blind_docking_20.prm

>  <SCORE>
-26.718

>  <SCORE.INTER>
-27.214

>  <SCORE.INTER.CONST>
1

>  <SCORE.INTER.POLAR>
-5.82969

>  <SCORE.INTER.ROT>
5

>  <SCORE.INTER.SOLV>
18.5546

>  <SCORE.INTER.VDW>
-11.8286

>  <SCORE.INTER.norm>
-2.26783

>  <SCORE.INTRA>
-1.13558

>  <SCORE.INTRA.DIHEDRAL>
3.19548

>  <SCORE.INTRA.DIHEDRAL.0>
7.7847

>  <SCORE.INTRA.POLAR>
0

>  <SCORE.INTRA.POLAR.0>
0

>  <SCORE.INTRA.REPUL>
0

>  <SCORE.INTRA.REPUL.0>
0

>  <SCORE.INTRA.SOLV>
-1.78997

>  <SCORE.INTRA.SOLV.lig_0>
-57.5465

>  <SCORE.INTRA.VDW>
-1.83834

>  <SCORE.INTRA.VDW.0>
1.39369

>  <SCORE.INTRA.norm>
-0.0946319

>  <SCORE.RESTR>
1.63156

>  <SCORE.RESTR.CAVITY>
1.63156

>  <SCORE.RESTR.norm>
0.135963

>  <SCORE.SYSTEM>
0

>  <SCORE.SYSTEM.CONST>
0

>  <SCORE.SYSTEM.DIHEDRAL>
0

>  <SCORE.SYSTEM.SOLV>
0

>  <SCORE.SYSTEM.norm>
0

>  <SCORE.heavy>
12

>  <SCORE.norm>
-2.2265

>  <SYMMETRIC_BONDS>
4 1 2

>  <RMSD>
20.892

$$$$
1kod cryst
 OpenBabel11021811393D
libRbt.so/2013.1/901 2013/11/27
 12 11  0  0  0  0  0  0  0  0999 V2000
   -6.7480   -2.5185   15.9815 C   0  0  0  0  0  0  0  0  0  0  0  0
   -7.6228   -3.3717   15.9900 O   0  5  0  0  0  0  0  0  0  0  0  0
   -6.8356   -1.4471   16.5681 O   0  0  0  0  0  0  0  0  0  0  0  0
   -5.4602   -2.8135   15.1872 C   0  0  1  0  0  0  0  0  0  0  0  0
   -4.5865   -1.6006   15.1928 N   0  3  0  0  0  0  0  0  0  0  0  0
   -4.6936   -4.0041   15.8093 C   0  0  0  0  0  0  0  0  0  0  0  0
   -3.5021   -4.3871   14.9412 C   0  0  0  0  0  0  0  0  0  0  0  0
   -2.9824   -5.7628   15.3524 C   0  0  0  0  0  0  0  0  0  0  0  0
   -2.0662   -5.6066   16.5250 N   0  0  0  0  0  0  0  0  0  0  0  0
   -1.6196   -6.6545   17.1641 C   0  0  0  0  0  0  0  0  0  0  0  0
   -1.7529   -6.7510   18.3820 O   0  0  0  0  0  0  0  0  0  0  0  0
   -1.0128   -7.6017   16.5101 N   0  0  0  0  0  0  0  0  0  0  0  0
  1  2  1  0  0  0  0
  1  3  2  0  0  0  0
  4  1  1  1  0  0  0
  4  6  1  0  0  0  0
  4  5  1  0  0  0  0
  6  7  1  0  0  0  0
  7  8  1  0  0  0  0
  8  9  1  0  0  0  0
  9 10  1  0  0  0  0
 10 12  1  0  0  0  0
 10 11  2  0  0  0  0
M  CHG  2   2  -1   5   1
M  END
>  <CHROM.1>
174.43106749,174.05408729,-40.67122912,-165.15125947,-83.26670826,-8.34712578
-4.06288063,-4.35348396,16.14679548,2.51038748,0.46783760,-0.79300811

>  <Name>
1kod cryst

>  <RI>
0

>  <Rbt.Current_Directory>
/home/afrankz/demos/rdock_decoys_rna/rnas/1kod

>  <Rbt.Executable>
rbdock ($Id: //depot/dev/client3/rdock/2013.1/src/exe/rbdock.cxx#4 $)

>  <Rbt.Library>
libRbt.so (2013.1, Build901 2013/11/27)

>  <Rbt.Parameter_File>
/export/apps/rDock/src/rDock_2013.1_src/data/scripts/dock_solv.prm

>  <Rbt.Receptor>
prm/blind_docking_20.prm

>  <SCORE>
-20.3067

>  <SCORE.INTER>
-17.715

>  <SCORE.INTER.CONST>
1

>  <SCORE.INTER.POLAR>
-3.95959

>  <SCORE.INTER.ROT>
5

>  <SCORE.INTER.SOLV>
16.9557

>  <SCORE.INTER.VDW>
-11.1966

>  <SCORE.INTER.norm>
-1.47625

>  <SCORE.INTRA>
-3.97273

>  <SCORE.INTRA.DIHEDRAL>
-1.88719

>  <SCORE.INTRA.DIHEDRAL.0>
7.7847

>  <SCORE.INTRA.POLAR>
0

>  <SCORE.INTRA.POLAR.0>
0

>  <SCORE.INTRA.REPUL>
0

>  <SCORE.INTRA.REPUL.0>
0

>  <SCORE.INTRA.SOLV>
-2.21141

>  <SCORE.INTRA.SOLV.lig_0>
-57.5465

>  <SCORE.INTRA.VDW>
-1.92343

>  <SCORE.INTRA.VDW.0>
1.39369

>  <SCORE.INTRA.norm>
-0.331061

>  <SCORE.RESTR>
1.38104

>  <SCORE.RESTR.CAVITY>
1.38104

>  <SCORE.RESTR.norm>
0.115087

>  <SCORE.SYSTEM>
0

>  <SCORE.SYSTEM.CONST>
0

>  <SCORE.SYSTEM.DIHEDRAL>
0

>  <SCORE.SYSTEM.SOLV>
0

>  <SCORE.SYSTEM.norm>
0

>  <SCORE.heavy>
12

>  <SCORE.norm>
-1.69222

>  <SYMMETRIC_BONDS>
4 1 2

>  <RMSD>
20.892

$$$$
1kod cryst
 OpenBabel11021811393D
libRbt.so/2013.1/901 2013/11/27
 12 11  0  0  0  0  0  0  0  0999 V2000
   -7.8876   -2.7611   17.2933 C   0  0  0  0  0  0  0  0  0  0  0  0
   -6.9751   -2.8730   18.0984 O   0  5  0  0  0  0  0  0  0  0  0  0
   -8.4966   -3.7112   16.8176 O   0  0  0  0  0  0  0  0  0  0  0  0
   -8.2939   -1.3399   16.8561 C   0  0  1  0  0  0  0  0  0  0  0  0
   -8.0203   -0.3820   17.9706 N   0  3  0  0  0  0  0  0  0  0  0  0
   -7.5044   -0.9070   15.5985 C   0  0  0  0  0  0  0  0  0  0  0  0
   -6.0668   -1.4049   15.6702 C   0  0  0  0  0  0  0  0  0  0  0  0
   -5.6777   -2.0570   14.3453 C   0  0  0  0  0  0  0  0  0  0  0  0
   -4.4004   -2.8136   14.5318 N   0  0  0  0  0  0  0  0  0  0  0  0
   -4.2982   -3.7273   15.4596 C   0  0  0  0  0  0  0  0  0  0  0  0
   -3.3847   -3.6889   16.2808 O   0  0  0  0  0  0  0  0  0  0  0  0
   -5.1621   -4.6992   15.5090 N   0  0  0  0  0  0  0  0  0  0  0  0
  1  2  1  0  0  0  0
  1  3  2  0  0  0  0
  4  1  1  1  0  0  0
  4  6  1  0  0  0  0
  4  5  1  0  0  0  0
  6  7  1  0  0  0  0
  7  8  1  0  0  0  0
  8  9  1  0  0  0  0
  9 10  1  0  0  0  0
 10 12  1  0  0  0  0
 10 11  2  0  0  0  0
M  CHG  2   2  -1   5   1
M  END
>  <CHROM.1>
-29.71174047,-38.16411257,172.46920516,132.64781018,-166.95689153,-124.69552722
-6.34231654,-2.54000477,16.23811453,2.95808634,0.62166933,-0.48044401

>  <Name>
1kod cryst

>  <RI>
0

>  <Rbt.Current_Directory>
/home/afrankz/demos/rdock_decoys_rna/rnas/1kod

>  <Rbt.Executable>
rbdock ($Id: //depot/dev/client3/rdock/2013.1/src/exe/rbdock.cxx#4 $)

>  <Rbt.Library>
libRbt.so (2013.1, Build901 2013/11/27)

>  <Rbt.Parameter_File>
/export/apps/rDock/src/rDock_2013.1_src/data/scripts/dock_solv.prm

>  <Rbt.Receptor>
prm/blind_docking_20.prm

>  <SCORE>
-15.224

>  <SCORE.INTER>
-15.9759

>  <SCORE.INTER.CONST>
1

>  <SCORE.INTER.POLAR>
-3.65656

>  <SCORE.INTER.ROT>
5

>  <SCORE.INTER.SOLV>
19.6634

>  <SCORE.INTER.VDW>
-11.9499

>  <SCORE.INTER.norm>
-1.33133

>  <SCORE.INTRA>
0.180314

>  <SCORE.INTRA.DIHEDRAL>
2.19

>  <SCORE.INTRA.DIHEDRAL.0>
7.7847

>  <SCORE.INTRA.POLAR>
0

>  <SCORE.INTRA.POLAR.0>
0

>  <SCORE.INTRA.REPUL>
0

>  <SCORE.INTRA.REPUL.0>
0

>  <SCORE.INTRA.SOLV>
1.24012

>  <SCORE.INTRA.SOLV.lig_0>
-57.5465

>  <SCORE.INTRA.VDW>
-1.53474

>  <SCORE.INTRA.VDW.0>
1.39369

>  <SCORE.INTRA.norm>
0.0150262

>  <SCORE.RESTR>
0.57167

>  <SCORE.RESTR.CAVITY>
0.57167

>  <SCORE.RESTR.norm>
0.0476392

>  <SCORE.SYSTEM>
0

>  <SCORE.SYSTEM.CONST>
0

>  <SCORE.SYSTEM.DIHEDRAL>
0

>  <SCORE.SYSTEM.SOLV>
0

>  <SCORE.SYSTEM.norm>
0

>  <SCORE.heavy>
12

>  <SCORE.norm>
-1.26866

>  <SYMMETRIC_BONDS>
4 1 2

>  <RMSD>
20.893

$$$$
1kod cryst
 OpenBabel11021811393D
libRbt.so/2013.1/901 2013/11/27
 12 11  0  0  0  0  0  0  0  0999 V2000
   -8.5292   -1.8974   17.5858 C   0  0  0  0  0  0  0  0  0  0  0  0
   -8.6790   -1.7139   18.7847 O   0  5  0  0  0  0  0  0  0  0  0  0
   -8.7676   -2.9592   17.0242 O   0  0  0  0  0  0  0  0  0  0  0  0
   -8.0124   -0.7206   16.7348 C   0  0  1  0  0  0  0  0  0  0  0  0
   -7.7181    0.4429   17.6260 N   0  3  0  0  0  0  0  0  0  0  0  0
   -6.7298   -1.1205   15.9685 C   0  0  0  0  0  0  0  0  0  0  0  0
   -5.6588   -1.6103   16.9344 C   0  0  0  0  0  0  0  0  0  0  0  0
   -4.5460   -2.3140   16.1608 C   0  0  0  0  0  0  0  0  0  0  0  0
   -5.0658   -3.6152   15.6360 N   0  0  0  0  0  0  0  0  0  0  0  0
   -5.6085   -3.6846   14.4500 C   0  0  0  0  0  0  0  0  0  0  0  0
   -6.7280   -4.1686   14.2991 O   0  0  0  0  0  0  0  0  0  0  0  0
   -4.9537   -3.2517   13.4121 N   0  0  0  0  0  0  0  0  0  0  0  0
  1  2  1  0  0  0  0
  1  3  2  0  0  0  0
  4  1  1  1  0  0  0
  4  6  1  0  0  0  0
  4  5  1  0  0  0  0
  6  7  1  0  0  0  0
  7  8  1  0  0  0  0
  8  9  1  0  0  0  0
  9 10  1  0  0  0  0
 10 12  1  0  0  0  0
 10 11  2  0  0  0  0
M  CHG  2   2  -1   5   1
M  END
>  <CHROM.1>
3.17958227,-56.38842083,-57.43868455,166.18151481,-70.46567607,-88.87479068
-6.76154018,-2.21022299,16.22703366,2.26971712,0.45636171,0.58809630

>  <Name>
1kod cryst

>  <RI>
0

>  <Rbt.Current_Directory>
/home/afrankz/demos/rdock_decoys_rna/rnas/1kod

>  <Rbt.Executable>
rbdock ($Id: //depot/dev/client3/rdock/2013.1/src/exe/rbdock.cxx#4 $)

>  <Rbt.Library>
libRbt.so (2013.1, Build901 2013/11/27)

>  <Rbt.Parameter_File>
/export/apps/rDock/src/rDock_2013.1_src/data/scripts/dock_solv.prm

>  <Rbt.Receptor>
prm/blind_docking_20.prm

>  <SCORE>
-18.8585

>  <SCORE.INTER>
-16.7576

>  <SCORE.INTER.CONST>
1

>  <SCORE.INTER.POLAR>
-3.79045

>  <SCORE.INTER.ROT>
5

>  <SCORE.INTER.SOLV>
16.6166

>  <SCORE.INTER.VDW>
-11.0091

>  <SCORE.INTER.norm>
-1.39646

>  <SCORE.INTRA>
-3.96638

>  <SCORE.INTRA.DIHEDRAL>
-4.30833

>  <SCORE.INTRA.DIHEDRAL.0>
7.7847

>  <SCORE.INTRA.POLAR>
0

>  <SCORE.INTRA.POLAR.0>
0

>  <SCORE.INTRA.REPUL>
0

>  <SCORE.INTRA.REPUL.0>
0

>  <SCORE.INTRA.SOLV>
0.574621

>  <SCORE.INTRA.SOLV.lig_0>
-57.5465

>  <SCORE.INTRA.VDW>
-2.09953

>  <SCORE.INTRA.VDW.0>
1.39369

>  <SCORE.INTRA.norm>
-0.330532

>  <SCORE.RESTR>
1.86547

>  <SCORE.RESTR.CAVITY>
1.86547

>  <SCORE.RESTR.norm>
0.155455

>  <SCORE.SYSTEM>
0

>  <SCORE.SYSTEM.CONST>
0

>  <SCORE.SYSTEM.DIHEDRAL>
0

>  <SCORE.SYSTEM.SOLV>
0

>  <SCORE.SYSTEM.norm>
0

>  <SCORE.heavy>
12

>  <SCORE.norm>
-1.57154

>  <SYMMETRIC_BONDS>
4 1 2

>  <RMSD>
20.920

$$$$
1kod cryst
 OpenBabel11021811393D
libRbt.so/2013.1/901 2013/11/27
 12 11  0  0  0  0  0  0  0  0999 V2000
    0.1259   -7.5668   17.0597 C   0  0  0  0  0  0  0  0  0  0  0  0
    0.8390   -7.5509   18.0519 O   0  5  0  0  0  0  0  0  0  0  0  0
    0.4704   -8.0322   15.9806 O   0  0  0  0  0  0  0  0  0  0  0  0
   -1.2894   -6.9676   17.1787 C   0  0  1  0  0  0  0  0  0  0  0  0
   -1.2490   -5.7789   18.0842 N   0  3  0  0  0  0  0  0  0  0  0  0
   -1.8220   -6.5408   15.7908 C   0  0  0  0  0  0  0  0  0  0  0  0
   -3.1981   -5.9004   15.9182 C   0  0  0  0  0  0  0  0  0  0  0  0
   -3.1534   -4.4674   15.3926 C   0  0  0  0  0  0  0  0  0  0  0  0
   -4.5375   -4.0447   15.0128 N   0  0  0  0  0  0  0  0  0  0  0  0
   -5.3715   -3.6084   15.9184 C   0  0  0  0  0  0  0  0  0  0  0  0
   -6.4886   -4.1072   16.0356 O   0  0  0  0  0  0  0  0  0  0  0  0
   -5.0254   -2.6248   16.6968 N   0  0  0  0  0  0  0  0  0  0  0  0
  1  2  1  0  0  0  0
  1  3  2  0  0  0  0
  4  1  1  6  0  0  0
  4  6  1  0  0  0  0
  4  5  1  0  0  0  0
  6  7  1  0  0  0  0
  7  8  1  0  0  0  0
  8  9  1  0  0  0  0
  9 10  1  0  0  0  0
 10 12  1  0  0  0  0
 10 11  2  0  0  0  0
M  CHG  2   2  -1   5   1
M  END
>  <CHROM.1>
36.19969673,-177.82645266,100.19133515,119.85622486,157.68935991,-97.73847966
-2.55283856,-5.57583838,16.45475887,0.10072639,0.62765948,-2.05084925

>  <Name>
1kod cryst

>  <RI>
0

>  <Rbt.Current_Directory>
/home/afrankz/demos/rdock_decoys_rna/rnas/1kod

>  <Rbt.Executable>
rbdock ($Id: //depot/dev/client3/rdock/2013.1/src/exe/rbdock.cxx#4 $)

>  <Rbt.Library>
libRbt.so (2013.1, Build901 2013/11/27)

>  <Rbt.Parameter_File>
/export/apps/rDock/src/rDock_2013.1_src/data/scripts/dock_solv.prm

>  <Rbt.Receptor>
prm/blind_docking_20.prm

>  <SCORE>
-7.415

>  <SCORE.INTER>
-9.75826

>  <SCORE.INTER.CONST>
1

>  <SCORE.INTER.POLAR>
-2.4237

>  <SCORE.INTER.ROT>
5

>  <SCORE.INTER.SOLV>
12.7618

>  <SCORE.INTER.VDW>
-9.61378

>  <SCORE.INTER.norm>
-0.813189

>  <SCORE.INTRA>
0.783569

>  <SCORE.INTRA.DIHEDRAL>
4.98227

>  <SCORE.INTRA.DIHEDRAL.0>
7.7847

>  <SCORE.INTRA.POLAR>
0

>  <SCORE.INTRA.POLAR.0>
0

>  <SCORE.INTRA.REPUL>
0

>  <SCORE.INTRA.REPUL.0>
0

>  <SCORE.INTRA.SOLV>
-1.25966

>  <SCORE.INTRA.SOLV.lig_0>
-57.5465

>  <SCORE.INTRA.VDW>
-1.07774

>  <SCORE.INTRA.VDW.0>
1.39369

>  <SCORE.INTRA.norm>
0.0652974

>  <SCORE.RESTR>
1.55969

>  <SCORE.RESTR.CAVITY>
1.55969

>  <SCORE.RESTR.norm>
0.129974

>  <SCORE.SYSTEM>
0

>  <SCORE.SYSTEM.CONST>
0

>  <SCORE.SYSTEM.DIHEDRAL>
0

>  <SCORE.SYSTEM.SOLV>
0

>  <SCORE.SYSTEM.norm>
0

>  <SCORE.heavy>
12

>  <SCORE.norm>
-0.617917

>  <SYMMETRIC_BONDS>
4 1 2

>  <RMSD>
20.945

$$$$
1kod cryst
 OpenBabel11021811393D
libRbt.so/2013.1/901 2013/11/27
 12 11  0  0  0  0  0  0  0  0999 V2000
   -6.7267   -3.0314   15.0339 C   0  0  0  0  0  0  0  0  0  0  0  0
   -7.4514   -3.6029   15.8349 O   0  5  0  0  0  0  0  0  0  0  0  0
   -7.1332   -2.4885   14.0142 O   0  0  0  0  0  0  0  0  0  0  0  0
   -5.2144   -2.9918   15.3297 C   0  0  1  0  0  0  0  0  0  0  0  0
   -4.9651   -2.1190   16.5174 N   0  3  0  0  0  0  0  0  0  0  0  0
   -4.6741   -4.4133   15.6119 C   0  0  0  0  0  0  0  0  0  0  0  0
   -3.1699   -4.4711   15.3794 C   0  0  0  0  0  0  0  0  0  0  0  0
   -2.6438   -5.8600   15.7344 C   0  0  0  0  0  0  0  0  0  0  0  0
   -1.8456   -5.7701   16.9967 N   0  0  0  0  0  0  0  0  0  0  0  0
   -1.8565   -6.7489   17.8615 C   0  0  0  0  0  0  0  0  0  0  0  0
   -2.1291   -6.5409   19.0417 O   0  0  0  0  0  0  0  0  0  0  0  0
   -1.5613   -7.9563   17.4765 N   0  0  0  0  0  0  0  0  0  0  0  0
  1  2  1  0  0  0  0
  1  3  2  0  0  0  0
  4  1  1  1  0  0  0
  4  6  1  0  0  0  0
  4  5  1  0  0  0  0
  6  7  1  0  0  0  0
  7  8  1  0  0  0  0
  8  9  1  0  0  0  0
  9 10  1  0  0  0  0
 10 12  1  0  0  0  0
 10 11  2  0  0  0  0
M  CHG  2   2  -1   5   1
M  END
>  <CHROM.1>
-68.63603635,158.40977216,-43.48050628,176.98426665,-108.71535667,-34.97209439
-4.12031151,-4.65255516,16.26565190,2.78017609,0.71954081,-1.61668063

>  <Name>
1kod cryst

>  <RI>
0

>  <Rbt.Current_Directory>
/home/afrankz/demos/rdock_decoys_rna/rnas/1kod

>  <Rbt.Executable>
rbdock ($Id: //depot/dev/client3/rdock/2013.1/src/exe/rbdock.cxx#4 $)

>  <Rbt.Library>
libRbt.so (2013.1, Build901 2013/11/27)

>  <Rbt.Parameter_File>
/export/apps/rDock/src/rDock_2013.1_src/data/scripts/dock_solv.prm

>  <Rbt.Receptor>
prm/blind_docking_20.prm

>  <SCORE>
-9.5969

>  <SCORE.INTER>
-7.96905

>  <SCORE.INTER.CONST>
1

>  <SCORE.INTER.POLAR>
-2.19804

>  <SCORE.INTER.ROT>
5

>  <SCORE.INTER.SOLV>
14.4058

>  <SCORE.INTER.VDW>
-9.72118

>  <SCORE.INTER.norm>
-0.664087

>  <SCORE.INTRA>
-2.94747

>  <SCORE.INTRA.DIHEDRAL>
1.65425

>  <SCORE.INTRA.DIHEDRAL.0>
7.7847

>  <SCORE.INTRA.POLAR>
0

>  <SCORE.INTRA.POLAR.0>
0

>  <SCORE.INTRA.REPUL>
0

>  <SCORE.INTRA.REPUL.0>
0

>  <SCORE.INTRA.SOLV>
-2.81015

>  <SCORE.INTRA.SOLV.lig_0>
-57.5465

>  <SCORE.INTRA.VDW>
-2.36952

>  <SCORE.INTRA.VDW.0>
1.39369

>  <SCORE.INTRA.norm>
-0.245623

>  <SCORE.RESTR>
1.31961

>  <SCORE.RESTR.CAVITY>
1.31961

>  <SCORE.RESTR.norm>
0.109968

>  <SCORE.SYSTEM>
0

>  <SCORE.SYSTEM.CONST>
0

>  <SCORE.SYSTEM.DIHEDRAL>
0

>  <SCORE.SYSTEM.SOLV>
0

>  <SCORE.SYSTEM.norm>
0

>  <SCORE.heavy>
12

>  <SCORE.norm>
-0.799742

>  <SYMMETRIC_BONDS>
4 1 2

>  <RMSD>
20.968

$$$$
1kod cryst
 OpenBabel11021811393D
libRbt.so/2013.1/901 2013/11/27
 12 11  0  0  0  0  0  0  0  0999 V2000
   -6.3973   -1.8241   15.9912 C   0  0  0  0  0  0  0  0  0  0  0  0
   -6.0366   -0.7222   15.6050 O   0  5  0  0  0  0  0  0  0  0  0  0
   -7.0903   -2.0044   16.9846 O   0  0  0  0  0  0  0  0  0  0  0  0
   -5.9541   -3.0551   15.1761 C   0  0  1  0  0  0  0  0  0  0  0  0
   -5.7718   -2.6618   13.7455 N   0  3  0  0  0  0  0  0  0  0  0  0
   -4.6270   -3.6277   15.7267 C   0  0  0  0  0  0  0  0  0  0  0  0
   -4.2885   -4.9470   15.0450 C   0  0  0  0  0  0  0  0  0  0  0  0
   -2.8936   -5.4045   15.4653 C   0  0  0  0  0  0  0  0  0  0  0  0
   -3.0018   -6.1983   16.7289 N   0  0  0  0  0  0  0  0  0  0  0  0
   -1.9351   -6.6959   17.2950 C   0  0  0  0  0  0  0  0  0  0  0  0
   -1.8705   -7.8919   17.5707 O   0  0  0  0  0  0  0  0  0  0  0  0
   -0.9336   -5.9176   17.5857 N   0  0  0  0  0  0  0  0  0  0  0  0
  1  2  1  0  0  0  0
  1  3  2  0  0  0  0
  4  1  1  1  0  0  0
  4  6  1  0  0  0  0
  4  5  1  0  0  0  0
  6  7  1  0  0  0  0
  7  8  1  0  0  0  0
  8  9  1  0  0  0  0
  9 10  1  0  0  0  0
 10 12  1  0  0  0  0
 10 11  2  0  0  0  0
M  CHG  2   2  -1   5   1
M  END
>  <CHROM.1>
-28.81529243,172.38773643,71.45094396,172.66769274,87.10927895,0.36041213
-4.23274113,-4.22733745,16.06959594,3.00081671,0.85080346,-1.72052458

>  <Name>
1kod cryst

>  <RI>
0

>  <Rbt.Current_Directory>
/home/afrankz/demos/rdock_decoys_rna/rnas/1kod

>  <Rbt.Executable>
rbdock ($Id: //depot/dev/client3/rdock/2013.1/src/exe/rbdock.cxx#4 $)

>  <Rbt.Library>
libRbt.so (2013.1, Build901 2013/11/27)

>  <Rbt.Parameter_File>
/export/apps/rDock/src/rDock_2013.1_src/data/scripts/dock_solv.prm

>  <Rbt.Receptor>
prm/blind_docking_20.prm

>  <SCORE>
-17.693

>  <SCORE.INTER>
-14.8563

>  <SCORE.INTER.CONST>
1

>  <SCORE.INTER.POLAR>
-3.41865

>  <SCORE.INTER.ROT>
5

>  <SCORE.INTER.SOLV>
13.4915

>  <SCORE.INTER.VDW>
-9.9392

>  <SCORE.INTER.norm>
-1.23802

>  <SCORE.INTRA>
-4.60365

>  <SCORE.INTRA.DIHEDRAL>
-2.45678

>  <SCORE.INTRA.DIHEDRAL.0>
7.7847

>  <SCORE.INTRA.POLAR>
0

>  <SCORE.INTRA.POLAR.0>
0

>  <SCORE.INTRA.REPUL>
0

>  <SCORE.INTRA.REPUL.0>
0

>  <SCORE.INTRA.SOLV>
-2.25269

>  <SCORE.INTRA.SOLV.lig_0>
-57.5465

>  <SCORE.INTRA.VDW>
-2.24891

>  <SCORE.INTRA.VDW.0>
1.39369

>  <SCORE.INTRA.norm>
-0.383637

>  <SCORE.RESTR>
1.76699

>  <SCORE.RESTR.CAVITY>
1.76699

>  <SCORE.RESTR.norm>
0.147249

>  <SCORE.SYSTEM>
0

>  <SCORE.SYSTEM.CONST>
0

>  <SCORE.SYSTEM.DIHEDRAL>
0

>  <SCORE.SYSTEM.SOLV>
0

>  <SCORE.SYSTEM.norm>
0

>  <SCORE.heavy>
12

>  <SCORE.norm>
-1.47441

>  <SYMMETRIC_BONDS>
4 1 2

>  <RMSD>
20.981

$$$$
1kod cryst
 OpenBabel11021811393D
libRbt.so/2013.1/901 2013/11/27
 12 11  0  0  0  0  0  0  0  0999 V2000
   -4.4469   -3.9575   15.2286 C   0  0  0  0  0  0  0  0  0  0  0  0
   -4.8742   -4.2689   14.1268 O   0  5  0  0  0  0  0  0  0  0  0  0
   -3.5818   -4.5854   15.8261 O   0  0  0  0  0  0  0  0  0  0  0  0
   -5.0319   -2.6993   15.9001 C   0  0  1  0  0  0  0  0  0  0  0  0
   -4.3964   -1.4821   15.3092 N   0  3  0  0  0  0  0  0  0  0  0  0
   -6.5637   -2.6318   15.6965 C   0  0  0  0  0  0  0  0  0  0  0  0
   -7.2830   -3.4454   16.7644 C   0  0  0  0  0  0  0  0  0  0  0  0
   -8.2481   -2.5486   17.5366 C   0  0  0  0  0  0  0  0  0  0  0  0
   -7.5300   -1.3028   17.9498 N   0  0  0  0  0  0  0  0  0  0  0  0
   -7.8617   -0.1452   17.4437 C   0  0  0  0  0  0  0  0  0  0  0  0
   -7.0158    0.5769   16.9206 O   0  0  0  0  0  0  0  0  0  0  0  0
   -9.0972    0.2583   17.5055 N   0  0  0  0  0  0  0  0  0  0  0  0
  1  2  1  0  0  0  0
  1  3  2  0  0  0  0
  4  1  1  6  0  0  0
  4  6  1  0  0  0  0
  4  5  1  0  0  0  0
  6  7  1  0  0  0  0
  7  8  1  0  0  0  0
  8  9  1  0  0  0  0
  9 10  1  0  0  0  0
 10 12  1  0  0  0  0
 10 11  2  0  0  0  0
M  CHG  2   2  -1   5   1
M  END
>  <CHROM.1>
-79.27073865,85.01780873,21.09311209,121.92123308,-48.60364114,-66.90801121
-6.30340866,-2.15435591,16.33522866,0.69875007,-0.51359865,-3.09218265

>  <Name>
1kod cryst

>  <RI>
0

>  <Rbt.Current_Directory>
/home/afrankz/demos/rdock_decoys_rna/rnas/1kod

>  <Rbt.Executable>
rbdock ($Id: //depot/dev/client3/rdock/2013.1/src/exe/rbdock.cxx#4 $)

>  <Rbt.Library>
libRbt.so (2013.1, Build901 2013/11/27)

>  <Rbt.Parameter_File>
/export/apps/rDock/src/rDock_2013.1_src/data/scripts/dock_solv.prm

>  <Rbt.Receptor>
prm/blind_docking_20.prm

>  <SCORE>
-25.7116

>  <SCORE.INTER>
-27.5984

>  <SCORE.INTER.CONST>
1

>  <SCORE.INTER.POLAR>
-5.50024

>  <SCORE.INTER.ROT>
5

>  <SCORE.INTER.SOLV>
21.6965

>  <SCORE.INTER.VDW>
-14.2303

>  <SCORE.INTER.norm>
-2.29987

>  <SCORE.INTRA>
0.459085

>  <SCORE.INTRA.DIHEDRAL>
5.54513

>  <SCORE.INTRA.DIHEDRAL.0>
7.7847

>  <SCORE.INTRA.POLAR>
0

>  <SCORE.INTRA.POLAR.0>
0

>  <SCORE.INTRA.REPUL>
0

>  <SCORE.INTRA.REPUL.0>
0

>  <SCORE.INTRA.SOLV>
-1.11696

>  <SCORE.INTRA.SOLV.lig_0>
-57.5465

>  <SCORE.INTRA.VDW>
-1.755

>  <SCORE.INTRA.VDW.0>
1.39369

>  <SCORE.INTRA.norm>
0.0382571

>  <SCORE.RESTR>
1.42776

>  <SCORE.RESTR.CAVITY>
1.42776

>  <SCORE.RESTR.norm>
0.11898

>  <SCORE.SYSTEM>
0

>  <SCORE.SYSTEM.CONST>
0

>  <SCORE.SYSTEM.DIHEDRAL>
0

>  <SCORE.SYSTEM.SOLV>
0

>  <SCORE.SYSTEM.norm>
0

>  <SCORE.heavy>
12

>  <SCORE.norm>
-2.14263

>  <SYMMETRIC_BONDS>
4 1 2

>  <RMSD>
20.991

$$$$
1kod cryst
 OpenBabel11021811393D
libRbt.so/2013.1/901 2013/11/27
 12 11  0  0  0  0  0  0  0  0999 V2000
   -6.5151   -3.0895   14.6863 C   0  0  0  0  0  0  0  0  0  0  0  0
   -7.0988   -3.0413   15.7588 O   0  5  0  0  0  0  0  0  0  0  0  0
   -7.0833   -3.1080   13.6017 O   0  0  0  0  0  0  0  0  0  0  0  0
   -4.9741   -3.1265   14.7047 C   0  0  1  0  0  0  0  0  0  0  0  0
   -4.4515   -1.7835   15.1019 N   0  3  0  0  0  0  0  0  0  0  0  0
   -4.4636   -4.1938   15.7010 C   0  0  0  0  0  0  0  0  0  0  0  0
   -3.0779   -4.6825   15.2999 C   0  0  0  0  0  0  0  0  0  0  0  0
   -2.7172   -5.9316   16.1008 C   0  0  0  0  0  0  0  0  0  0  0  0
   -1.7215   -5.5632   17.1551 N   0  0  0  0  0  0  0  0  0  0  0  0
   -1.4216   -6.4034   18.1090 C   0  0  0  0  0  0  0  0  0  0  0  0
   -1.4985   -6.0675   19.2888 O   0  0  0  0  0  0  0  0  0  0  0  0
   -1.0218   -7.6054   17.8111 N   0  0  0  0  0  0  0  0  0  0  0  0
  1  2  1  0  0  0  0
  1  3  2  0  0  0  0
  4  1  1  1  0  0  0
  4  6  1  0  0  0  0
  4  5  1  0  0  0  0
  6  7  1  0  0  0  0
  7  8  1  0  0  0  0
  8  9  1  0  0  0  0
  9 10  1  0  0  0  0
 10 12  1  0  0  0  0
 10 11  2  0  0  0  0
M  CHG  2   2  -1   5   1
M  END
>  <CHROM.1>
-72.07403987,154.39386519,117.66112224,-167.87127512,-105.01867064,-11.39381227
-3.83461965,-4.52525774,16.12306882,2.70394363,-0.69470804,0.20415723

>  <Name>
1kod cryst

>  <RI>
0

>  <Rbt.Current_Directory>
/home/afrankz/demos/rdock_decoys_rna/rnas/1kod

>  <Rbt.Executable>
rbdock ($Id: //depot/dev/client3/rdock/2013.1/src/exe/rbdock.cxx#4 $)

>  <Rbt.Library>
libRbt.so (2013.1, Build901 2013/11/27)

>  <Rbt.Parameter_File>
/export/apps/rDock/src/rDock_2013.1_src/data/scripts/dock_solv.prm

>  <Rbt.Receptor>
prm/blind_docking_20.prm

>  <SCORE>
-13.4741

>  <SCORE.INTER>
-14.403

>  <SCORE.INTER.CONST>
1

>  <SCORE.INTER.POLAR>
-3.85594

>  <SCORE.INTER.ROT>
5

>  <SCORE.INTER.SOLV>
15.6374

>  <SCORE.INTER.VDW>
-8.89468

>  <SCORE.INTER.norm>
-1.20025

>  <SCORE.INTRA>
-0.192331

>  <SCORE.INTRA.DIHEDRAL>
5.3319

>  <SCORE.INTRA.DIHEDRAL.0>
7.7847

>  <SCORE.INTRA.POLAR>
0

>  <SCORE.INTRA.POLAR.0>
0

>  <SCORE.INTRA.REPUL>
0

>  <SCORE.INTRA.REPUL.0>
0

>  <SCORE.INTRA.SOLV>
-2.85739

>  <SCORE.INTRA.SOLV.lig_0>
-57.5465

>  <SCORE.INTRA.VDW>
-1.42959

>  <SCORE.INTRA.VDW.0>
1.39369

>  <SCORE.INTRA.norm>
-0.0160276

>  <SCORE.RESTR>
1.12122

>  <SCORE.RESTR.CAVITY>
1.12122

>  <SCORE.RESTR.norm>
0.093435

>  <SCORE.SYSTEM>
0

>  <SCORE.SYSTEM.CONST>
0

>  <SCORE.SYSTEM.DIHEDRAL>
0

>  <SCORE.SYSTEM.SOLV>
0

>  <SCORE.SYSTEM.norm>
0

>  <SCORE.heavy>
12

>  <SCORE.norm>
-1.12285

>  <SYMMETRIC_BONDS>
4 1 2

>  <RMSD>
21.018

$$$$
1kod cryst
 OpenBabel11021811393D
libRbt.so/2013.1/901 2013/11/27
 12 11  0  0  0  0  0  0  0  0999 V2000
   -4.8730   -2.0113   15.8229 C   0  0  0  0  0  0  0  0  0  0  0  0
   -5.0268   -2.0863   17.0329 O   0  5  0  0  0  0  0  0  0  0  0  0
   -4.2676   -1.1028   15.2682 O   0  0  0  0  0  0  0  0  0  0  0  0
   -5.4755   -3.1287   14.9485 C   0  0  1  0  0  0  0  0  0  0  0  0
   -5.0407   -2.9368   13.5312 N   0  3  0  0  0  0  0  0  0  0  0  0
   -5.0169   -4.5200   15.4447 C   0  0  0  0  0  0  0  0  0  0  0  0
   -3.4965   -4.6077   15.4650 C   0  0  0  0  0  0  0  0  0  0  0  0
   -3.0638   -5.9976   15.9261 C   0  0  0  0  0  0  0  0  0  0  0  0
   -1.7308   -5.8946   16.5979 N   0  0  0  0  0  0  0  0  0  0  0  0
   -0.9156   -6.9149   16.6178 C   0  0  0  0  0  0  0  0  0  0  0  0
   -0.4499   -7.3258   17.6783 O   0  0  0  0  0  0  0  0  0  0  0  0
   -0.5783   -7.4959   15.5034 N   0  0  0  0  0  0  0  0  0  0  0  0
  1  2  1  0  0  0  0
  1  3  2  0  0  0  0
  4  1  1  1  0  0  0
  4  6  1  0  0  0  0
  4  5  1  0  0  0  0
  6  7  1  0  0  0  0
  7  8  1  0  0  0  0
  8  9  1  0  0  0  0
  9 10  1  0  0  0  0
 10 12  1  0  0  0  0
 10 11  2  0  0  0  0
M  CHG  2   2  -1   5   1
M  END
>  <CHROM.1>
-173.37019901,-56.69047679,32.69947184,-178.69209631,-151.39798313,26.72375166
-3.30712146,-4.48898297,15.79752360,-2.87476614,0.85483703,-2.18986113

>  <Name>
1kod cryst

>  <RI>
0

>  <Rbt.Current_Directory>
/home/afrankz/demos/rdock_decoys_rna/rnas/1kod

>  <Rbt.Executable>
rbdock ($Id: //depot/dev/client3/rdock/2013.1/src/exe/rbdock.cxx#4 $)

>  <Rbt.Library>
libRbt.so (2013.1, Build901 2013/11/27)

>  <Rbt.Parameter_File>
/export/apps/rDock/src/rDock_2013.1_src/data/scripts/dock_solv.prm

>  <Rbt.Receptor>
prm/blind_docking_20.prm

>  <SCORE>
-9.60888

>  <SCORE.INTER>
-7.84302

>  <SCORE.INTER.CONST>
1

>  <SCORE.INTER.POLAR>
-2.5864

>  <SCORE.INTER.ROT>
5

>  <SCORE.INTER.SOLV>
21.8234

>  <SCORE.INTER.VDW>
-10.8152

>  <SCORE.INTER.norm>
-0.653585

>  <SCORE.INTRA>
-2.63956

>  <SCORE.INTRA.DIHEDRAL>
-1.39151

>  <SCORE.INTRA.DIHEDRAL.0>
7.7847

>  <SCORE.INTRA.POLAR>
0

>  <SCORE.INTRA.POLAR.0>
0

>  <SCORE.INTRA.REPUL>
0

>  <SCORE.INTRA.REPUL.0>
0

>  <SCORE.INTRA.SOLV>
-1.23712

>  <SCORE.INTRA.SOLV.lig_0>
-57.5465

>  <SCORE.INTRA.VDW>
-1.32524

>  <SCORE.INTRA.VDW.0>
1.39369

>  <SCORE.INTRA.norm>
-0.219963

>  <SCORE.RESTR>
0.873701

>  <SCORE.RESTR.CAVITY>
0.873701

>  <SCORE.RESTR.norm>
0.0728084

>  <SCORE.SYSTEM>
0

>  <SCORE.SYSTEM.CONST>
0

>  <SCORE.SYSTEM.DIHEDRAL>
0

>  <SCORE.SYSTEM.SOLV>
0

>  <SCORE.SYSTEM.norm>
0

>  <SCORE.heavy>
12

>  <SCORE.norm>
-0.80074

>  <SYMMETRIC_BONDS>
4 1 2

>  <RMSD>
21.027

$$$$
1kod cryst
 OpenBabel11021811393D
libRbt.so/2013.1/901 2013/11/27
 12 11  0  0  0  0  0  0  0  0999 V2000
   -5.2631   -2.5999   15.7103 C   0  0  0  0  0  0  0  0  0  0  0  0
   -4.8277   -1.5234   15.3296 O   0  5  0  0  0  0  0  0  0  0  0  0
   -6.0564   -2.7254   16.6347 O   0  0  0  0  0  0  0  0  0  0  0  0
   -4.7852   -3.8705   14.9799 C   0  0  1  0  0  0  0  0  0  0  0  0
   -4.7011   -3.5960   13.5129 N   0  3  0  0  0  0  0  0  0  0  0  0
   -3.3984   -4.3136   15.5020 C   0  0  0  0  0  0  0  0  0  0  0  0
   -3.1818   -5.8006   15.2533 C   0  0  0  0  0  0  0  0  0  0  0  0
   -2.8159   -6.4970   16.5621 C   0  0  0  0  0  0  0  0  0  0  0  0
   -1.4474   -6.0597   16.9801 N   0  0  0  0  0  0  0  0  0  0  0  0
   -0.4777   -6.9274   17.0931 C   0  0  0  0  0  0  0  0  0  0  0  0
    0.1743   -7.0086   18.1318 O   0  0  0  0  0  0  0  0  0  0  0  0
   -0.1856   -7.7058   16.0921 N   0  0  0  0  0  0  0  0  0  0  0  0
  1  2  1  0  0  0  0
  1  3  2  0  0  0  0
  4  1  1  1  0  0  0
  4  6  1  0  0  0  0
  4  5  1  0  0  0  0
  6  7  1  0  0  0  0
  7  8  1  0  0  0  0
  8  9  1  0  0  0  0
  9 10  1  0  0  0  0
 10 12  1  0  0  0  0
 10 11  2  0  0  0  0
M  CHG  2   2  -1   5   1
M  END
>  <CHROM.1>
-39.59971840,156.29813992,-174.29804120,-125.82775747,-69.51904762,61.40575794
-3.07498152,-4.86947939,15.95769240,3.10236456,0.79004279,-1.90492643

>  <Name>
1kod cryst

>  <RI>
0

>  <Rbt.Current_Directory>
/home/afrankz/demos/rdock_decoys_rna/rnas/1kod

>  <Rbt.Executable>
rbdock ($Id: //depot/dev/client3/rdock/2013.1/src/exe/rbdock.cxx#4 $)

>  <Rbt.Library>
libRbt.so (2013.1, Build901 2013/11/27)

>  <Rbt.Parameter_File>
/export/apps/rDock/src/rDock_2013.1_src/data/scripts/dock_solv.prm

>  <Rbt.Receptor>
prm/blind_docking_20.prm

>  <SCORE>
-12.7687

>  <SCORE.INTER>
-11.8049

>  <SCORE.INTER.CONST>
1

>  <SCORE.INTER.POLAR>
-2.99268

>  <SCORE.INTER.ROT>
5

>  <SCORE.INTER.SOLV>
17.0624

>  <SCORE.INTER.VDW>
-10.5151

>  <SCORE.INTER.norm>
-0.983742

>  <SCORE.INTRA>
-2.59954

>  <SCORE.INTRA.DIHEDRAL>
2.59283

>  <SCORE.INTRA.DIHEDRAL.0>
7.7847

>  <SCORE.INTRA.POLAR>
0

>  <SCORE.INTRA.POLAR.0>
0

>  <SCORE.INTRA.REPUL>
0

>  <SCORE.INTRA.REPUL.0>
0

>  <SCORE.INTRA.SOLV>
-2.37394

>  <SCORE.INTRA.SOLV.lig_0>
-57.5465

>  <SCORE.INTRA.VDW>
-2.70899

>  <SCORE.INTRA.VDW.0>
1.39369

>  <SCORE.INTRA.norm>
-0.216629

>  <SCORE.RESTR>
1.63571

>  <SCORE.RESTR.CAVITY>
1.63571

>  <SCORE.RESTR.norm>
0.136309

>  <SCORE.SYSTEM>
0

>  <SCORE.SYSTEM.CONST>
0

>  <SCORE.SYSTEM.DIHEDRAL>
0

>  <SCORE.SYSTEM.SOLV>
0

>  <SCORE.SYSTEM.norm>
0

>  <SCORE.heavy>
12

>  <SCORE.norm>
-1.06406

>  <SYMMETRIC_BONDS>
4 1 2

>  <RMSD>
21.031

$$$$
1kod cryst
 OpenBabel11021811393D
libRbt.so/2013.1/901 2013/11/27
 12 11  0  0  0  0  0  0  0  0999 V2000
   -4.5884   -3.3097   15.6334 C   0  0  0  0  0  0  0  0  0  0  0  0
   -4.3569   -4.2387   14.8740 O   0  5  0  0  0  0  0  0  0  0  0  0
   -3.8262   -2.9500   16.5218 O   0  0  0  0  0  0  0  0  0  0  0  0
   -5.9169   -2.5478   15.4573 C   0  0  1  0  0  0  0  0  0  0  0  0
   -5.9273   -1.8729   14.1235 N   0  3  0  0  0  0  0  0  0  0  0  0
   -7.1200   -3.5147   15.5554 C   0  0  0  0  0  0  0  0  0  0  0  0
   -8.3078   -2.8275   16.2162 C   0  0  0  0  0  0  0  0  0  0  0  0
   -8.0773   -2.7292   17.7225 C   0  0  0  0  0  0  0  0  0  0  0  0
   -7.3637   -1.4489   18.0233 N   0  0  0  0  0  0  0  0  0  0  0  0
   -7.7578   -0.3259   17.4853 C   0  0  0  0  0  0  0  0  0  0  0  0
   -6.9678    0.3867   16.8699 O   0  0  0  0  0  0  0  0  0  0  0  0
   -8.9958    0.0538   17.6129 N   0  0  0  0  0  0  0  0  0  0  0  0
  1  2  1  0  0  0  0
  1  3  2  0  0  0  0
  4  1  1  6  0  0  0
  4  6  1  0  0  0  0
  4  5  1  0  0  0  0
  6  7  1  0  0  0  0
  7  8  1  0  0  0  0
  8  9  1  0  0  0  0
  9 10  1  0  0  0  0
 10 12  1  0  0  0  0
 10 11  2  0  0  0  0
M  CHG  2   2  -1   5   1
M  END
>  <CHROM.1>
-64.05144008,145.43906777,-157.67955168,-75.89629519,89.41991930,-133.69297004
-6.58293671,-2.08313610,16.31772587,-0.73623305,0.35858430,0.30150308

>  <Name>
1kod cryst

>  <RI>
0

>  <Rbt.Current_Directory>
/home/afrankz/demos/rdock_decoys_rna/rnas/1kod

>  <Rbt.Executable>
rbdock ($Id: //depot/dev/client3/rdock/2013.1/src/exe/rbdock.cxx#4 $)

>  <Rbt.Library>
libRbt.so (2013.1, Build901 2013/11/27)

>  <Rbt.Parameter_File>
/export/apps/rDock/src/rDock_2013.1_src/data/scripts/dock_solv.prm

>  <Rbt.Receptor>
prm/blind_docking_20.prm

>  <SCORE>
-12.4512

>  <SCORE.INTER>
-12.5042

>  <SCORE.INTER.CONST>
1

>  <SCORE.INTER.POLAR>
-2.80725

>  <SCORE.INTER.ROT>
5

>  <SCORE.INTER.SOLV>
16.9845

>  <SCORE.INTER.VDW>
-11.5735

>  <SCORE.INTER.norm>
-1.04202

>  <SCORE.INTRA>
-1.3436

>  <SCORE.INTRA.DIHEDRAL>
2.40329

>  <SCORE.INTRA.DIHEDRAL.0>
7.7847

>  <SCORE.INTRA.POLAR>
0

>  <SCORE.INTRA.POLAR.0>
0

>  <SCORE.INTRA.REPUL>
0

>  <SCORE.INTRA.REPUL.0>
0

>  <SCORE.INTRA.SOLV>
-0.493037

>  <SCORE.INTRA.SOLV.lig_0>
-57.5465

>  <SCORE.INTRA.VDW>
-2.29873

>  <SCORE.INTRA.VDW.0>
1.39369

>  <SCORE.INTRA.norm>
-0.111967

>  <SCORE.RESTR>
1.39661

>  <SCORE.RESTR.CAVITY>
1.39661

>  <SCORE.RESTR.norm>
0.116384

>  <SCORE.SYSTEM>
0

>  <SCORE.SYSTEM.CONST>
0

>  <SCORE.SYSTEM.DIHEDRAL>
0

>  <SCORE.SYSTEM.SOLV>
0

>  <SCORE.SYSTEM.norm>
0

>  <SCORE.heavy>
12

>  <SCORE.norm>
-1.0376

>  <SYMMETRIC_BONDS>
4 1 2

>  <RMSD>
21.049

$$$$
1kod cryst
 OpenBabel11021811393D
libRbt.so/2013.1/901 2013/11/27
 12 11  0  0  0  0  0  0  0  0999 V2000
   -8.0073   -0.3622   17.1711 C   0  0  0  0  0  0  0  0  0  0  0  0
   -7.5805    0.7557   16.9231 O   0  5  0  0  0  0  0  0  0  0  0  0
   -9.1539   -0.5879   17.5373 O   0  0  0  0  0  0  0  0  0  0  0  0
   -7.0437   -1.5546   17.0098 C   0  0  1  0  0  0  0  0  0  0  0  0
   -6.6527   -2.0613   18.3607 N   0  3  0  0  0  0  0  0  0  0  0  0
   -7.7121   -2.6940   16.2053 C   0  0  0  0  0  0  0  0  0  0  0  0
   -6.6898   -3.7612   15.8365 C   0  0  0  0  0  0  0  0  0  0  0  0
   -6.4875   -3.7840   14.3231 C   0  0  0  0  0  0  0  0  0  0  0  0
   -5.9090   -2.4739   13.8896 N   0  0  0  0  0  0  0  0  0  0  0  0
   -5.2062   -1.7503   14.7193 C   0  0  0  0  0  0  0  0  0  0  0  0
   -5.4913   -0.5721   14.9217 O   0  0  0  0  0  0  0  0  0  0  0  0
   -4.1829   -2.2745   15.3288 N   0  0  0  0  0  0  0  0  0  0  0  0
  1  2  1  0  0  0  0
  1  3  2  0  0  0  0
  4  1  1  1  0  0  0
  4  6  1  0  0  0  0
  4  5  1  0  0  0  0
  6  7  1  0  0  0  0
  7  8  1  0  0  0  0
  8  9  1  0  0  0  0
  9 10  1  0  0  0  0
 10 12  1  0  0  0  0
 10 11  2  0  0  0  0
M  CHG  2   2  -1   5   1
M  END
>  <CHROM.1>
107.24272321,170.05428563,-156.58808954,-113.40699240,63.69093635,-154.10359669
-6.66227265,-1.73994948,16.05261780,-2.51584976,-0.75934440,-2.97410632

>  <Name>
1kod cryst

>  <RI>
0

>  <Rbt.Current_Directory>
/home/afrankz/demos/rdock_decoys_rna/rnas/1kod

>  <Rbt.Executable>
rbdock ($Id: //depot/dev/client3/rdock/2013.1/src/exe/rbdock.cxx#4 $)

>  <Rbt.Library>
libRbt.so (2013.1, Build901 2013/11/27)

>  <Rbt.Parameter_File>
/export/apps/rDock/src/rDock_2013.1_src/data/scripts/dock_solv.prm

>  <Rbt.Receptor>
prm/blind_docking_20.prm

>  <SCORE>
-16.8214

>  <SCORE.INTER>
-18.8275

>  <SCORE.INTER.CONST>
1

>  <SCORE.INTER.POLAR>
-3.95005

>  <SCORE.INTER.ROT>
5

>  <SCORE.INTER.SOLV>
19.9057

>  <SCORE.INTER.VDW>
-12.9534

>  <SCORE.INTER.norm>
-1.56896

>  <SCORE.INTRA>
1.02617

>  <SCORE.INTRA.DIHEDRAL>
1.98101

>  <SCORE.INTRA.DIHEDRAL.0>
7.7847

>  <SCORE.INTRA.POLAR>
0

>  <SCORE.INTRA.POLAR.0>
0

>  <SCORE.INTRA.REPUL>
0

>  <SCORE.INTRA.REPUL.0>
0

>  <SCORE.INTRA.SOLV>
0.940065

>  <SCORE.INTRA.SOLV.lig_0>
-57.5465

>  <SCORE.INTRA.VDW>
-0.434366

>  <SCORE.INTRA.VDW.0>
1.39369

>  <SCORE.INTRA.norm>
0.0855141

>  <SCORE.RESTR>
0.979903

>  <SCORE.RESTR.CAVITY>
0.979903

>  <SCORE.RESTR.norm>
0.0816586

>  <SCORE.SYSTEM>
0

>  <SCORE.SYSTEM.CONST>
0

>  <SCORE.SYSTEM.DIHEDRAL>
0

>  <SCORE.SYSTEM.SOLV>
0

>  <SCORE.SYSTEM.norm>
0

>  <SCORE.heavy>
12

>  <SCORE.norm>
-1.40178

>  <SYMMETRIC_BONDS>
4 1 2

>  <RMSD>
21.088

$$$$
1kod cryst
 OpenBabel11021811393D
libRbt.so/2013.1/901 2013/11/27
 12 11  0  0  0  0  0  0  0  0999 V2000
   -7.8590   -0.2140   17.1340 C   0  0  0  0  0  0  0  0  0  0  0  0
   -7.2479    0.7990   16.8279 O   0  5  0  0  0  0  0  0  0  0  0  0
   -9.0318   -0.2218   17.4865 O   0  0  0  0  0  0  0  0  0  0  0  0
   -7.1068   -1.5579   17.0687 C   0  0  1  0  0  0  0  0  0  0  0  0
   -7.1794   -2.2311   18.4014 N   0  3  0  0  0  0  0  0  0  0  0  0
   -7.7245   -2.4796   15.9911 C   0  0  0  0  0  0  0  0  0  0  0  0
   -7.0851   -3.8613   16.0367 C   0  0  0  0  0  0  0  0  0  0  0  0
   -5.5722   -3.7379   15.8700 C   0  0  0  0  0  0  0  0  0  0  0  0
   -5.2745   -3.2154   14.4999 N   0  0  0  0  0  0  0  0  0  0  0  0
   -5.3645   -1.9383   14.2413 C   0  0  0  0  0  0  0  0  0  0  0  0
   -6.0496   -1.5342   13.3043 O   0  0  0  0  0  0  0  0  0  0  0  0
   -4.7112   -1.0822   14.9717 N   0  0  0  0  0  0  0  0  0  0  0  0
  1  2  1  0  0  0  0
  1  3  2  0  0  0  0
  4  1  1  1  0  0  0
  4  6  1  0  0  0  0
  4  5  1  0  0  0  0
  6  7  1  0  0  0  0
  7  8  1  0  0  0  0
  8  9  1  0  0  0  0
  9 10  1  0  0  0  0
 10 12  1  0  0  0  0
 10 11  2  0  0  0  0
M  CHG  2   2  -1   5   1
M  END
>  <CHROM.1>
123.97305529,-173.53521287,53.79264359,-56.40247113,-65.34487464,-99.43379007
-6.68263897,-1.75160424,16.00864584,-2.89511568,-0.93714723,2.86270839

>  <Name>
1kod cryst

>  <RI>
0

>  <Rbt.Current_Directory>
/home/afrankz/demos/rdock_decoys_rna/rnas/1kod

>  <Rbt.Executable>
rbdock ($Id: //depot/dev/client3/rdock/2013.1/src/exe/rbdock.cxx#4 $)

>  <Rbt.Library>
libRbt.so (2013.1, Build901 2013/11/27)

>  <Rbt.Parameter_File>
/export/apps/rDock/src/rDock_2013.1_src/data/scripts/dock_solv.prm

>  <Rbt.Receptor>
prm/blind_docking_20.prm

>  <SCORE>
-15.6325

>  <SCORE.INTER>
-13.7902

>  <SCORE.INTER.CONST>
1

>  <SCORE.INTER.POLAR>
-3.27934

>  <SCORE.INTER.ROT>
5

>  <SCORE.INTER.SOLV>
19.5387

>  <SCORE.INTER.VDW>
-11.7086

>  <SCORE.INTER.norm>
-1.14918

>  <SCORE.INTRA>
-3.16636

>  <SCORE.INTRA.DIHEDRAL>
-5.13988

>  <SCORE.INTRA.DIHEDRAL.0>
7.7847

>  <SCORE.INTRA.POLAR>
0

>  <SCORE.INTRA.POLAR.0>
0

>  <SCORE.INTRA.REPUL>
0

>  <SCORE.INTRA.REPUL.0>
0

>  <SCORE.INTRA.SOLV>
1.07155

>  <SCORE.INTRA.SOLV.lig_0>
-57.5465

>  <SCORE.INTRA.VDW>
-1.13219

>  <SCORE.INTRA.VDW.0>
1.39369

>  <SCORE.INTRA.norm>
-0.263863

>  <SCORE.RESTR>
1.32403

>  <SCORE.RESTR.CAVITY>
1.32403

>  <SCORE.RESTR.norm>
0.110336

>  <SCORE.SYSTEM>
0

>  <SCORE.SYSTEM.CONST>
0

>  <SCORE.SYSTEM.DIHEDRAL>
0

>  <SCORE.SYSTEM.SOLV>
0

>  <SCORE.SYSTEM.norm>
0

>  <SCORE.heavy>
12

>  <SCORE.norm>
-1.30271

>  <SYMMETRIC_BONDS>
4 1 2

>  <RMSD>
21.121

$$$$
1kod cryst
 OpenBabel11021811393D
libRbt.so/2013.1/901 2013/11/27
 12 11  0  0  0  0  0  0  0  0999 V2000
   -6.6942   -1.3435   16.9921 C   0  0  0  0  0  0  0  0  0  0  0  0
   -5.8989   -1.7538   17.8243 O   0  5  0  0  0  0  0  0  0  0  0  0
   -6.7135   -0.1911   16.5783 O   0  0  0  0  0  0  0  0  0  0  0  0
   -7.7297   -2.3385   16.4316 C   0  0  1  0  0  0  0  0  0  0  0  0
   -9.0792   -2.0134   16.9863 N   0  3  0  0  0  0  0  0  0  0  0  0
   -7.7764   -2.2686   14.8873 C   0  0  0  0  0  0  0  0  0  0  0  0
   -7.5221   -3.6423   14.2803 C   0  0  0  0  0  0  0  0  0  0  0  0
   -6.0194   -3.8832   14.1549 C   0  0  0  0  0  0  0  0  0  0  0  0
   -5.4193   -3.9385   15.5244 N   0  0  0  0  0  0  0  0  0  0  0  0
   -4.3431   -3.2545   15.8068 C   0  0  0  0  0  0  0  0  0  0  0  0
   -3.3594   -3.8054   16.2961 O   0  0  0  0  0  0  0  0  0  0  0  0
   -4.3133   -1.9729   15.5834 N   0  0  0  0  0  0  0  0  0  0  0  0
  1  2  1  0  0  0  0
  1  3  2  0  0  0  0
  4  1  1  1  0  0  0
  4  6  1  0  0  0  0
  4  5  1  0  0  0  0
  6  7  1  0  0  0  0
  7  8  1  0  0  0  0
  8  9  1  0  0  0  0
  9 10  1  0  0  0  0
 10 12  1  0  0  0  0
 10 11  2  0  0  0  0
M  CHG  2   2  -1   5   1
M  END
>  <CHROM.1>
107.65618021,124.05581156,59.89895630,-85.16037496,65.07989335,47.96351574
-6.24584110,-2.50838488,15.98110386,-2.69216991,0.16739783,-2.35260294

>  <Name>
1kod cryst

>  <RI>
0

>  <Rbt.Current_Directory>
/home/afrankz/demos/rdock_decoys_rna/rnas/1kod

>  <Rbt.Executable>
rbdock ($Id: //depot/dev/client3/rdock/2013.1/src/exe/rbdock.cxx#4 $)

>  <Rbt.Library>
libRbt.so (2013.1, Build901 2013/11/27)

>  <Rbt.Parameter_File>
/export/apps/rDock/src/rDock_2013.1_src/data/scripts/dock_solv.prm

>  <Rbt.Receptor>
prm/blind_docking_20.prm

>  <SCORE>
-8.68895

>  <SCORE.INTER>
-9.45034

>  <SCORE.INTER.CONST>
1

>  <SCORE.INTER.POLAR>
-2.59879

>  <SCORE.INTER.ROT>
5

>  <SCORE.INTER.SOLV>
13.3407

>  <SCORE.INTER.VDW>
-9.01785

>  <SCORE.INTER.norm>
-0.787528

>  <SCORE.INTRA>
-0.244284

>  <SCORE.INTRA.DIHEDRAL>
1.9243

>  <SCORE.INTRA.DIHEDRAL.0>
7.7847

>  <SCORE.INTRA.POLAR>
0

>  <SCORE.INTRA.POLAR.0>
0

>  <SCORE.INTRA.REPUL>
0

>  <SCORE.INTRA.REPUL.0>
0

>  <SCORE.INTRA.SOLV>
4.30466

>  <SCORE.INTRA.SOLV.lig_0>
-57.5465

>  <SCORE.INTRA.VDW>
-3.35877

>  <SCORE.INTRA.VDW.0>
1.39369

>  <SCORE.INTRA.norm>
-0.020357

>  <SCORE.RESTR>
1.00567

>  <SCORE.RESTR.CAVITY>
1.00567

>  <SCORE.RESTR.norm>
0.0838058

>  <SCORE.SYSTEM>
0

>  <SCORE.SYSTEM.CONST>
0

>  <SCORE.SYSTEM.DIHEDRAL>
0

>  <SCORE.SYSTEM.SOLV>
0

>  <SCORE.SYSTEM.norm>
0

>  <SCORE.heavy>
12

>  <SCORE.norm>
-0.72408

>  <SYMMETRIC_BONDS>
4 1 2

>  <RMSD>
21.122

$$$$
1kod cryst
 OpenBabel11021811393D
libRbt.so/2013.1/901 2013/11/27
 12 11  0  0  0  0  0  0  0  0999 V2000
   -8.0523   -2.6098   16.9121 C   0  0  0  0  0  0  0  0  0  0  0  0
   -9.1214   -3.0307   16.4958 O   0  5  0  0  0  0  0  0  0  0  0  0
   -7.3155   -3.2420   17.6585 O   0  0  0  0  0  0  0  0  0  0  0  0
   -7.6085   -1.2022   16.4672 C   0  0  1  0  0  0  0  0  0  0  0  0
   -7.6627   -0.2733   17.6372 N   0  3  0  0  0  0  0  0  0  0  0  0
   -6.1695   -1.2350   15.9011 C   0  0  0  0  0  0  0  0  0  0  0  0
   -6.1895   -1.1541   14.3803 C   0  0  0  0  0  0  0  0  0  0  0  0
   -5.8678   -2.5228   13.7843 C   0  0  0  0  0  0  0  0  0  0  0  0
   -4.5285   -2.9675   14.2814 N   0  0  0  0  0  0  0  0  0  0  0  0
   -4.4231   -3.6434   15.3941 C   0  0  0  0  0  0  0  0  0  0  0  0
   -3.6662   -3.2687   16.2870 O   0  0  0  0  0  0  0  0  0  0  0  0
   -5.1136   -4.7341   15.5569 N   0  0  0  0  0  0  0  0  0  0  0  0
  1  2  1  0  0  0  0
  1  3  2  0  0  0  0
  4  1  1  1  0  0  0
  4  6  1  0  0  0  0
  4  5  1  0  0  0  0
  6  7  1  0  0  0  0
  7  8  1  0  0  0  0
  8  9  1  0  0  0  0
  9 10  1  0  0  0  0
 10 12  1  0  0  0  0
 10 11  2  0  0  0  0
M  CHG  2   2  -1   5   1
M  END
>  <CHROM.1>
110.63720590,103.76061914,-170.47932920,-105.71094910,-58.12833384,-91.22811033
-6.31529916,-2.49660719,15.93724135,2.99382162,0.62642667,-0.44897429

>  <Name>
1kod cryst

>  <RI>
0

>  <Rbt.Current_Directory>
/home/afrankz/demos/rdock_decoys_rna/rnas/1kod

>  <Rbt.Executable>
rbdock ($Id: //depot/dev/client3/rdock/2013.1/src/exe/rbdock.cxx#4 $)

>  <Rbt.Library>
libRbt.so (2013.1, Build901 2013/11/27)

>  <Rbt.Parameter_File>
/export/apps/rDock/src/rDock_2013.1_src/data/scripts/dock_solv.prm

>  <Rbt.Receptor>
prm/blind_docking_20.prm

>  <SCORE>
-16.8492

>  <SCORE.INTER>
-16.3317

>  <SCORE.INTER.CONST>
1

>  <SCORE.INTER.POLAR>
-3.59523

>  <SCORE.INTER.ROT>
5

>  <SCORE.INTER.SOLV>
17.3854

>  <SCORE.INTER.VDW>
-11.6322

>  <SCORE.INTER.norm>
-1.36097

>  <SCORE.INTRA>
-0.710479

>  <SCORE.INTRA.DIHEDRAL>
4.24941

>  <SCORE.INTRA.DIHEDRAL.0>
7.7847

>  <SCORE.INTRA.POLAR>
0

>  <SCORE.INTRA.POLAR.0>
0

>  <SCORE.INTRA.REPUL>
0

>  <SCORE.INTRA.REPUL.0>
0

>  <SCORE.INTRA.SOLV>
0.0114136

>  <SCORE.INTRA.SOLV.lig_0>
-57.5465

>  <SCORE.INTRA.VDW>
-2.84089

>  <SCORE.INTRA.VDW.0>
1.39369

>  <SCORE.INTRA.norm>
-0.0592066

>  <SCORE.RESTR>
0.192968

>  <SCORE.RESTR.CAVITY>
0.192968

>  <SCORE.RESTR.norm>
0.0160807

>  <SCORE.SYSTEM>
0

>  <SCORE.SYSTEM.CONST>
0

>  <SCORE.SYSTEM.DIHEDRAL>
0

>  <SCORE.SYSTEM.SOLV>
0

>  <SCORE.SYSTEM.norm>
0

>  <SCORE.heavy>
12

>  <SCORE.norm>
-1.4041

>  <SYMMETRIC_BONDS>
4 1 2

>  <RMSD>
21.125

$$$$
1kod cryst
 OpenBabel11021811393D
libRbt.so/2013.1/901 2013/11/27
 12 11  0  0  0  0  0  0  0  0999 V2000
   -7.7798   -2.6544   17.0565 C   0  0  0  0  0  0  0  0  0  0  0  0
   -7.0826   -2.9302   18.0215 O   0  5  0  0  0  0  0  0  0  0  0  0
   -8.6155   -3.4128   16.5810 O   0  0  0  0  0  0  0  0  0  0  0  0
   -7.5949   -1.2696   16.4050 C   0  0  1  0  0  0  0  0  0  0  0  0
   -7.7066   -0.2104   17.4538 N   0  3  0  0  0  0  0  0  0  0  0  0
   -6.2143   -1.1688   15.7152 C   0  0  0  0  0  0  0  0  0  0  0  0
   -6.3614   -1.2749   14.2029 C   0  0  0  0  0  0  0  0  0  0  0  0
   -5.9803   -2.6801   13.7426 C   0  0  0  0  0  0  0  0  0  0  0  0
   -4.6174   -3.0104   14.2642 N   0  0  0  0  0  0  0  0  0  0  0  0
   -4.4754   -3.6759   15.3791 C   0  0  0  0  0  0  0  0  0  0  0  0
   -3.7693   -3.2392   16.2854 O   0  0  0  0  0  0  0  0  0  0  0  0
   -5.0741   -4.8213   15.5301 N   0  0  0  0  0  0  0  0  0  0  0  0
  1  2  1  0  0  0  0
  1  3  2  0  0  0  0
  4  1  1  1  0  0  0
  4  6  1  0  0  0  0
  4  5  1  0  0  0  0
  6  7  1  0  0  0  0
  7  8  1  0  0  0  0
  8  9  1  0  0  0  0
  9 10  1  0  0  0  0
 10 12  1  0  0  0  0
 10 11  2  0  0  0  0
M  CHG  2   2  -1   5   1
M  END
>  <CHROM.1>
-52.60060042,104.61080254,-55.19186932,-101.64387269,-53.49886133,-84.85926896
-6.27566155,-2.53246645,15.92769437,3.10286088,0.73183120,-0.66375079

>  <Name>
1kod cryst

>  <RI>
0

>  <Rbt.Current_Directory>
/home/afrankz/demos/rdock_decoys_rna/rnas/1kod

>  <Rbt.Executable>
rbdock ($Id: //depot/dev/client3/rdock/2013.1/src/exe/rbdock.cxx#4 $)

>  <Rbt.Library>
libRbt.so (2013.1, Build901 2013/11/27)

>  <Rbt.Parameter_File>
/export/apps/rDock/src/rDock_2013.1_src/data/scripts/dock_solv.prm

>  <Rbt.Receptor>
prm/blind_docking_20.prm

>  <SCORE>
-17.1897

>  <SCORE.INTER>
-16.4321

>  <SCORE.INTER.CONST>
1

>  <SCORE.INTER.POLAR>
-3.64056

>  <SCORE.INTER.ROT>
5

>  <SCORE.INTER.SOLV>
17.8304

>  <SCORE.INTER.VDW>
-11.6963

>  <SCORE.INTER.norm>
-1.36934

>  <SCORE.INTRA>
-0.962421

>  <SCORE.INTRA.DIHEDRAL>
3.82622

>  <SCORE.INTRA.DIHEDRAL.0>
7.7847

>  <SCORE.INTRA.POLAR>
0

>  <SCORE.INTRA.POLAR.0>
0

>  <SCORE.INTRA.REPUL>
0

>  <SCORE.INTRA.REPUL.0>
0

>  <SCORE.INTRA.SOLV>
0.429213

>  <SCORE.INTRA.SOLV.lig_0>
-57.5465

>  <SCORE.INTRA.VDW>
-3.09014

>  <SCORE.INTRA.VDW.0>
1.39369

>  <SCORE.INTRA.norm>
-0.0802018

>  <SCORE.RESTR>
0.204794

>  <SCORE.RESTR.CAVITY>
0.204794

>  <SCORE.RESTR.norm>
0.0170662

>  <SCORE.SYSTEM>
0

>  <SCORE.SYSTEM.CONST>
0

>  <SCORE.SYSTEM.DIHEDRAL>
0

>  <SCORE.SYSTEM.SOLV>
0

>  <SCORE.SYSTEM.norm>
0

>  <SCORE.heavy>
12

>  <SCORE.norm>
-1.43247

>  <SYMMETRIC_BONDS>
4 1 2

>  <RMSD>
21.132

$$$$
1kod cryst
 OpenBabel11021811393D
libRbt.so/2013.1/901 2013/11/27
 12 11  0  0  0  0  0  0  0  0999 V2000
   -6.1940   -1.4731   14.3959 C   0  0  0  0  0  0  0  0  0  0  0  0
   -6.5991   -1.7501   13.2768 O   0  5  0  0  0  0  0  0  0  0  0  0
   -6.2925   -0.3616   14.9003 O   0  0  0  0  0  0  0  0  0  0  0  0
   -5.5230   -2.5916   15.2176 C   0  0  1  0  0  0  0  0  0  0  0  0
   -4.0499   -2.3453   15.2784 N   0  3  0  0  0  0  0  0  0  0  0  0
   -6.0979   -2.6370   16.6528 C   0  0  0  0  0  0  0  0  0  0  0  0
   -7.6021   -2.8746   16.6206 C   0  0  0  0  0  0  0  0  0  0  0  0
   -8.2354   -2.3617   17.9120 C   0  0  0  0  0  0  0  0  0  0  0  0
   -7.6753   -1.0101   18.2255 N   0  0  0  0  0  0  0  0  0  0  0  0
   -8.0566    0.0406   17.5498 C   0  0  0  0  0  0  0  0  0  0  0  0
   -7.2305    0.7773   17.0156 O   0  0  0  0  0  0  0  0  0  0  0  0
   -9.3231    0.3227   17.4517 N   0  0  0  0  0  0  0  0  0  0  0  0
  1  2  1  0  0  0  0
  1  3  2  0  0  0  0
  4  1  1  6  0  0  0
  4  6  1  0  0  0  0
  4  5  1  0  0  0  0
  6  7  1  0  0  0  0
  7  8  1  0  0  0  0
  8  9  1  0  0  0  0
  9 10  1  0  0  0  0
 10 12  1  0  0  0  0
 10 11  2  0  0  0  0
M  CHG  2   2  -1   5   1
M  END
>  <CHROM.1>
107.18506373,58.86647446,76.34006621,-156.84800557,45.32718183,-105.09593377
-6.88170487,-1.32528380,16.19420436,0.18479261,0.85477721,-0.75625088

>  <Name>
1kod cryst

>  <RI>
0

>  <Rbt.Current_Directory>
/home/afrankz/demos/rdock_decoys_rna/rnas/1kod

>  <Rbt.Executable>
rbdock ($Id: //depot/dev/client3/rdock/2013.1/src/exe/rbdock.cxx#4 $)

>  <Rbt.Library>
libRbt.so (2013.1, Build901 2013/11/27)

>  <Rbt.Parameter_File>
/export/apps/rDock/src/rDock_2013.1_src/data/scripts/dock_solv.prm

>  <Rbt.Receptor>
prm/blind_docking_20.prm

>  <SCORE>
-31.4635

>  <SCORE.INTER>
-30.6054

>  <SCORE.INTER.CONST>
1

>  <SCORE.INTER.POLAR>
-5.8729

>  <SCORE.INTER.ROT>
5

>  <SCORE.INTER.SOLV>
19.9846

>  <SCORE.INTER.VDW>
-14.4221

>  <SCORE.INTER.norm>
-2.55045

>  <SCORE.INTRA>
-2.59285

>  <SCORE.INTRA.DIHEDRAL>
-2.15539

>  <SCORE.INTRA.DIHEDRAL.0>
7.7847

>  <SCORE.INTRA.POLAR>
0

>  <SCORE.INTRA.POLAR.0>
0

>  <SCORE.INTRA.REPUL>
0

>  <SCORE.INTRA.REPUL.0>
0

>  <SCORE.INTRA.SOLV>
0.573052

>  <SCORE.INTRA.SOLV.lig_0>
-57.5465

>  <SCORE.INTRA.VDW>
-1.80168

>  <SCORE.INTRA.VDW.0>
1.39369

>  <SCORE.INTRA.norm>
-0.216071

>  <SCORE.RESTR>
1.73475

>  <SCORE.RESTR.CAVITY>
1.73475

>  <SCORE.RESTR.norm>
0.144563

>  <SCORE.SYSTEM>
0

>  <SCORE.SYSTEM.CONST>
0

>  <SCORE.SYSTEM.DIHEDRAL>
0

>  <SCORE.SYSTEM.SOLV>
0

>  <SCORE.SYSTEM.norm>
0

>  <SCORE.heavy>
12

>  <SCORE.norm>
-2.62196

>  <SYMMETRIC_BONDS>
4 1 2

>  <RMSD>
21.137

$$$$
1kod cryst
 OpenBabel11021811393D
libRbt.so/2013.1/901 2013/11/27
 12 11  0  0  0  0  0  0  0  0999 V2000
   -6.4712   -3.1681   15.5857 C   0  0  0  0  0  0  0  0  0  0  0  0
   -6.5844   -2.9130   16.7754 O   0  5  0  0  0  0  0  0  0  0  0  0
   -7.4109   -3.4725   14.8618 O   0  0  0  0  0  0  0  0  0  0  0  0
   -5.0623   -3.0989   14.9639 C   0  0  1  0  0  0  0  0  0  0  0  0
   -4.5775   -1.6851   14.9929 N   0  3  0  0  0  0  0  0  0  0  0  0
   -4.0749   -3.9988   15.7432 C   0  0  0  0  0  0  0  0  0  0  0  0
   -3.6996   -5.2230   14.9183 C   0  0  0  0  0  0  0  0  0  0  0  0
   -3.1999   -6.3345   15.8384 C   0  0  0  0  0  0  0  0  0  0  0  0
   -1.9478   -5.8775   16.5182 N   0  0  0  0  0  0  0  0  0  0  0  0
   -1.0229   -6.7359   16.8552 C   0  0  0  0  0  0  0  0  0  0  0  0
   -0.6006   -6.7835   18.0085 O   0  0  0  0  0  0  0  0  0  0  0  0
   -0.5296   -7.5410   15.9598 N   0  0  0  0  0  0  0  0  0  0  0  0
  1  2  1  0  0  0  0
  1  3  2  0  0  0  0
  4  1  1  1  0  0  0
  4  6  1  0  0  0  0
  4  5  1  0  0  0  0
  6  7  1  0  0  0  0
  7  8  1  0  0  0  0
  8  9  1  0  0  0  0
  9 10  1  0  0  0  0
 10 12  1  0  0  0  0
 10 11  2  0  0  0  0
M  CHG  2   2  -1   5   1
M  END
>  <CHROM.1>
-65.84585336,108.85295009,84.46923268,-158.04541774,-63.58093762,30.66226451
-3.75719170,-4.70727211,15.92353029,2.49079025,-0.24108995,-0.01612105

>  <Name>
1kod cryst

>  <RI>
0

>  <Rbt.Current_Directory>
/home/afrankz/demos/rdock_decoys_rna/rnas/1kod

>  <Rbt.Executable>
rbdock ($Id: //depot/dev/client3/rdock/2013.1/src/exe/rbdock.cxx#4 $)

>  <Rbt.Library>
libRbt.so (2013.1, Build901 2013/11/27)

>  <Rbt.Parameter_File>
/export/apps/rDock/src/rDock_2013.1_src/data/scripts/dock_solv.prm

>  <Rbt.Receptor>
prm/blind_docking_20.prm

>  <SCORE>
-14.666

>  <SCORE.INTER>
-14.4839

>  <SCORE.INTER.CONST>
1

>  <SCORE.INTER.POLAR>
-3.69004

>  <SCORE.INTER.ROT>
5

>  <SCORE.INTER.SOLV>
17.1298

>  <SCORE.INTER.VDW>
-9.99908

>  <SCORE.INTER.norm>
-1.20699

>  <SCORE.INTRA>
-2.19454

>  <SCORE.INTRA.DIHEDRAL>
2.30222

>  <SCORE.INTRA.DIHEDRAL.0>
7.7847

>  <SCORE.INTRA.POLAR>
0

>  <SCORE.INTRA.POLAR.0>
0

>  <SCORE.INTRA.REPUL>
0

>  <SCORE.INTRA.REPUL.0>
0

>  <SCORE.INTRA.SOLV>
-2.8936

>  <SCORE.INTRA.SOLV.lig_0>
-57.5465

>  <SCORE.INTRA.VDW>
-1.89885

>  <SCORE.INTRA.VDW.0>
1.39369

>  <SCORE.INTRA.norm>
-0.182878

>  <SCORE.RESTR>
2.01242

>  <SCORE.RESTR.CAVITY>
2.01242

>  <SCORE.RESTR.norm>
0.167702

>  <SCORE.SYSTEM>
0

>  <SCORE.SYSTEM.CONST>
0

>  <SCORE.SYSTEM.DIHEDRAL>
0

>  <SCORE.SYSTEM.SOLV>
0

>  <SCORE.SYSTEM.norm>
0

>  <SCORE.heavy>
12

>  <SCORE.norm>
-1.22217

>  <SYMMETRIC_BONDS>
4 1 2

>  <RMSD>
21.163

$$$$
1kod cryst
 OpenBabel11021811393D
libRbt.so/2013.1/901 2013/11/27
 12 11  0  0  0  0  0  0  0  0999 V2000
   -7.7843   -0.5688   17.0379 C   0  0  0  0  0  0  0  0  0  0  0  0
   -8.8789   -0.8532   17.5008 O   0  5  0  0  0  0  0  0  0  0  0  0
   -7.3521    0.5747   16.9643 O   0  0  0  0  0  0  0  0  0  0  0  0
   -6.8986   -1.7195   16.5204 C   0  0  1  0  0  0  0  0  0  0  0  0
   -6.7054   -2.7240   17.6105 N   0  3  0  0  0  0  0  0  0  0  0  0
   -7.5509   -2.4051   15.2971 C   0  0  0  0  0  0  0  0  0  0  0  0
   -6.9305   -1.8954   14.0027 C   0  0  0  0  0  0  0  0  0  0  0  0
   -5.9745   -2.9440   13.4384 C   0  0  0  0  0  0  0  0  0  0  0  0
   -4.6906   -2.8949   14.2051 N   0  0  0  0  0  0  0  0  0  0  0  0
   -4.6048   -3.4306   15.3932 C   0  0  0  0  0  0  0  0  0  0  0  0
   -4.1952   -2.7757   16.3491 O   0  0  0  0  0  0  0  0  0  0  0  0
   -4.9411   -4.6754   15.5679 N   0  0  0  0  0  0  0  0  0  0  0  0
  1  2  1  0  0  0  0
  1  3  2  0  0  0  0
  4  1  1  1  0  0  0
  4  6  1  0  0  0  0
  4  5  1  0  0  0  0
  6  7  1  0  0  0  0
  7  8  1  0  0  0  0
  8  9  1  0  0  0  0
  9 10  1  0  0  0  0
 10 12  1  0  0  0  0
 10 11  2  0  0  0  0
M  CHG  2   2  -1   5   1
M  END
>  <CHROM.1>
-55.54302946,99.52531502,-66.33341822,104.01412800,-77.97370360,-102.71758207
-6.36728004,-2.20834764,15.86987606,-2.63561080,0.75371431,-1.58508104

>  <Name>
1kod cryst

>  <RI>
0

>  <Rbt.Current_Directory>
/home/afrankz/demos/rdock_decoys_rna/rnas/1kod

>  <Rbt.Executable>
rbdock ($Id: //depot/dev/client3/rdock/2013.1/src/exe/rbdock.cxx#4 $)

>  <Rbt.Library>
libRbt.so (2013.1, Build901 2013/11/27)

>  <Rbt.Parameter_File>
/export/apps/rDock/src/rDock_2013.1_src/data/scripts/dock_solv.prm

>  <Rbt.Receptor>
prm/blind_docking_20.prm

>  <SCORE>
-15.8981

>  <SCORE.INTER>
-16.8657

>  <SCORE.INTER.CONST>
1

>  <SCORE.INTER.POLAR>
-3.72619

>  <SCORE.INTER.ROT>
5

>  <SCORE.INTER.SOLV>
18.1064

>  <SCORE.INTER.VDW>
-11.792

>  <SCORE.INTER.norm>
-1.40547

>  <SCORE.INTRA>
0.545003

>  <SCORE.INTRA.DIHEDRAL>
4.59117

>  <SCORE.INTRA.DIHEDRAL.0>
7.7847

>  <SCORE.INTRA.POLAR>
0

>  <SCORE.INTRA.POLAR.0>
0

>  <SCORE.INTRA.REPUL>
0

>  <SCORE.INTRA.REPUL.0>
0

>  <SCORE.INTRA.SOLV>
2.90505

>  <SCORE.INTRA.SOLV.lig_0>
-57.5465

>  <SCORE.INTRA.VDW>
-3.2031

>  <SCORE.INTRA.VDW.0>
1.39369

>  <SCORE.INTRA.norm>
0.0454169

>  <SCORE.RESTR>
0.422603

>  <SCORE.RESTR.CAVITY>
0.422603

>  <SCORE.RESTR.norm>
0.0352169

>  <SCORE.SYSTEM>
0

>  <SCORE.SYSTEM.CONST>
0

>  <SCORE.SYSTEM.DIHEDRAL>
0

>  <SCORE.SYSTEM.SOLV>
0

>  <SCORE.SYSTEM.norm>
0

>  <SCORE.heavy>
12

>  <SCORE.norm>
-1.32484

>  <SYMMETRIC_BONDS>
4 1 2

>  <RMSD>
21.169

$$$$
1kod cryst
 OpenBabel11021811393D
libRbt.so/2013.1/901 2013/11/27
 12 11  0  0  0  0  0  0  0  0999 V2000
   -8.5041   -3.0910   16.6474 C   0  0  0  0  0  0  0  0  0  0  0  0
   -8.0049   -3.6767   17.5967 O   0  5  0  0  0  0  0  0  0  0  0  0
   -8.9969   -3.6577   15.6801 O   0  0  0  0  0  0  0  0  0  0  0  0
   -8.5144   -1.5498   16.6749 C   0  0  1  0  0  0  0  0  0  0  0  0
   -8.9745   -1.0818   18.0180 N   0  3  0  0  0  0  0  0  0  0  0  0
   -7.1022   -0.9875   16.3888 C   0  0  0  0  0  0  0  0  0  0  0  0
   -6.7079   -1.2402   14.9395 C   0  0  0  0  0  0  0  0  0  0  0  0
   -5.2084   -1.0114   14.7630 C   0  0  0  0  0  0  0  0  0  0  0  0
   -4.4632   -1.9904   15.6144 N   0  0  0  0  0  0  0  0  0  0  0  0
   -4.4494   -3.2606   15.3102 C   0  0  0  0  0  0  0  0  0  0  0  0
   -4.7763   -4.1080   16.1382 O   0  0  0  0  0  0  0  0  0  0  0  0
   -4.0715   -3.6381   14.1237 N   0  0  0  0  0  0  0  0  0  0  0  0
  1  2  1  0  0  0  0
  1  3  2  0  0  0  0
  4  1  1  1  0  0  0
  4  6  1  0  0  0  0
  4  5  1  0  0  0  0
  6  7  1  0  0  0  0
  7  8  1  0  0  0  0
  8  9  1  0  0  0  0
  9 10  1  0  0  0  0
 10 12  1  0  0  0  0
 10 11  2  0  0  0  0
M  CHG  2   2  -1   5   1
M  END
>  <CHROM.1>
-46.20934201,69.31290751,67.88133471,-165.63408971,62.23847105,-109.68602682
-6.65711262,-2.46153048,16.01980082,3.01436701,0.47535191,-0.06480673

>  <Name>
1kod cryst

>  <RI>
0

>  <Rbt.Current_Directory>
/home/afrankz/demos/rdock_decoys_rna/rnas/1kod

>  <Rbt.Executable>
rbdock ($Id: //depot/dev/client3/rdock/2013.1/src/exe/rbdock.cxx#4 $)

>  <Rbt.Library>
libRbt.so (2013.1, Build901 2013/11/27)

>  <Rbt.Parameter_File>
/export/apps/rDock/src/rDock_2013.1_src/data/scripts/dock_solv.prm

>  <Rbt.Receptor>
prm/blind_docking_20.prm

>  <SCORE>
-13.702

>  <SCORE.INTER>
-9.71564

>  <SCORE.INTER.CONST>
1

>  <SCORE.INTER.POLAR>
-2.48125

>  <SCORE.INTER.ROT>
5

>  <SCORE.INTER.SOLV>
13.3526

>  <SCORE.INTER.VDW>
-9.59046

>  <SCORE.INTER.norm>
-0.809637

>  <SCORE.INTRA>
-5.49317

>  <SCORE.INTRA.DIHEDRAL>
-4.24699

>  <SCORE.INTRA.DIHEDRAL.0>
7.7847

>  <SCORE.INTRA.POLAR>
0

>  <SCORE.INTRA.POLAR.0>
0

>  <SCORE.INTRA.REPUL>
0

>  <SCORE.INTRA.REPUL.0>
0

>  <SCORE.INTRA.SOLV>
-1.20176

>  <SCORE.INTRA.SOLV.lig_0>
-57.5465

>  <SCORE.INTRA.VDW>
-2.7688

>  <SCORE.INTRA.VDW.0>
1.39369

>  <SCORE.INTRA.norm>
-0.457764

>  <SCORE.RESTR>
1.50682

>  <SCORE.RESTR.CAVITY>
1.50682

>  <SCORE.RESTR.norm>
0.125568

>  <SCORE.SYSTEM>
0

>  <SCORE.SYSTEM.CONST>
0

>  <SCORE.SYSTEM.DIHEDRAL>
0

>  <SCORE.SYSTEM.SOLV>
0

>  <SCORE.SYSTEM.norm>
0

>  <SCORE.heavy>
12

>  <SCORE.norm>
-1.14183

>  <SYMMETRIC_BONDS>
4 1 2

>  <RMSD>
21.221

$$$$
1kod cryst
 OpenBabel11021811393D
libRbt.so/2013.1/901 2013/11/27
 12 11  0  0  0  0  0  0  0  0999 V2000
   -7.5351   -3.5530   15.5433 C   0  0  0  0  0  0  0  0  0  0  0  0
   -7.6406   -3.0424   14.4381 O   0  5  0  0  0  0  0  0  0  0  0  0
   -7.0034   -4.6377   15.7446 O   0  0  0  0  0  0  0  0  0  0  0  0
   -8.1033   -2.7824   16.7514 C   0  0  1  0  0  0  0  0  0  0  0  0
   -9.1106   -3.6352   17.4532 N   0  3  0  0  0  0  0  0  0  0  0  0
   -6.9746   -2.4003   17.7374 C   0  0  0  0  0  0  0  0  0  0  0  0
   -6.2010   -1.1924   17.2249 C   0  0  0  0  0  0  0  0  0  0  0  0
   -5.5786   -1.5134   15.8680 C   0  0  0  0  0  0  0  0  0  0  0  0
   -4.3388   -2.3236   16.0806 N   0  0  0  0  0  0  0  0  0  0  0  0
   -4.1545   -3.4404   15.4288 C   0  0  0  0  0  0  0  0  0  0  0  0
   -3.8966   -4.4819   16.0282 O   0  0  0  0  0  0  0  0  0  0  0  0
   -4.2286   -3.4516   14.1297 N   0  0  0  0  0  0  0  0  0  0  0  0
  1  2  1  0  0  0  0
  1  3  2  0  0  0  0
  4  1  1  6  0  0  0
  4  6  1  0  0  0  0
  4  5  1  0  0  0  0
  6  7  1  0  0  0  0
  7  8  1  0  0  0  0
  8  9  1  0  0  0  0
  9 10  1  0  0  0  0
 10 12  1  0  0  0  0
 10 11  2  0  0  0  0
M  CHG  2   2  -1   5   1
M  END
>  <CHROM.1>
122.64811246,78.19465689,-57.85701120,-59.98587682,-79.19325213,-50.75258241
-6.24298509,-3.07556972,16.02637690,2.87153962,0.25209252,0.72327462

>  <Name>
1kod cryst

>  <RI>
0

>  <Rbt.Current_Directory>
/home/afrankz/demos/rdock_decoys_rna/rnas/1kod

>  <Rbt.Executable>
rbdock ($Id: //depot/dev/client3/rdock/2013.1/src/exe/rbdock.cxx#4 $)

>  <Rbt.Library>
libRbt.so (2013.1, Build901 2013/11/27)

>  <Rbt.Parameter_File>
/export/apps/rDock/src/rDock_2013.1_src/data/scripts/dock_solv.prm

>  <Rbt.Receptor>
prm/blind_docking_20.prm

>  <SCORE>
-13.7803

>  <SCORE.INTER>
-13.0671

>  <SCORE.INTER.CONST>
1

>  <SCORE.INTER.POLAR>
-2.59277

>  <SCORE.INTER.ROT>
5

>  <SCORE.INTER.SOLV>
12.405

>  <SCORE.INTER.VDW>
-11.1372

>  <SCORE.INTER.norm>
-1.08892

>  <SCORE.INTRA>
-1.85097

>  <SCORE.INTRA.DIHEDRAL>
-3.1737

>  <SCORE.INTRA.DIHEDRAL.0>
7.7847

>  <SCORE.INTRA.POLAR>
0

>  <SCORE.INTRA.POLAR.0>
0

>  <SCORE.INTRA.REPUL>
0

>  <SCORE.INTRA.REPUL.0>
0

>  <SCORE.INTRA.SOLV>
3.44241

>  <SCORE.INTRA.SOLV.lig_0>
-57.5465

>  <SCORE.INTRA.VDW>
-1.98533

>  <SCORE.INTRA.VDW.0>
1.39369

>  <SCORE.INTRA.norm>
-0.154247

>  <SCORE.RESTR>
1.1378

>  <SCORE.RESTR.CAVITY>
1.1378

>  <SCORE.RESTR.norm>
0.0948164

>  <SCORE.SYSTEM>
0

>  <SCORE.SYSTEM.CONST>
0

>  <SCORE.SYSTEM.DIHEDRAL>
0

>  <SCORE.SYSTEM.SOLV>
0

>  <SCORE.SYSTEM.norm>
0

>  <SCORE.heavy>
12

>  <SCORE.norm>
-1.14836

>  <SYMMETRIC_BONDS>
4 1 2

>  <RMSD>
21.260

$$$$
1kod cryst
 OpenBabel11021811393D
libRbt.so/2013.1/901 2013/11/27
 12 11  0  0  0  0  0  0  0  0999 V2000
   -8.4275   -1.7211   17.3989 C   0  0  0  0  0  0  0  0  0  0  0  0
   -8.1148   -1.7180   18.5802 O   0  5  0  0  0  0  0  0  0  0  0  0
   -9.5456   -2.0095   16.9910 O   0  0  0  0  0  0  0  0  0  0  0  0
   -7.3495   -1.3367   16.3662 C   0  0  1  0  0  0  0  0  0  0  0  0
   -5.9991   -1.4385   16.9991 N   0  3  0  0  0  0  0  0  0  0  0  0
   -7.4134   -2.2701   15.1345 C   0  0  0  0  0  0  0  0  0  0  0  0
   -6.5010   -1.7595   14.0269 C   0  0  0  0  0  0  0  0  0  0  0  0
   -5.7777   -2.9327   13.3695 C   0  0  0  0  0  0  0  0  0  0  0  0
   -4.4750   -3.1560   14.0707 N   0  0  0  0  0  0  0  0  0  0  0  0
   -4.4389   -3.7502   15.2333 C   0  0  0  0  0  0  0  0  0  0  0  0
   -3.8727   -3.2252   16.1894 O   0  0  0  0  0  0  0  0  0  0  0  0
   -4.9941   -4.9177   15.3810 N   0  0  0  0  0  0  0  0  0  0  0  0
  1  2  1  0  0  0  0
  1  3  2  0  0  0  0
  4  1  1  1  0  0  0
  4  6  1  0  0  0  0
  4  5  1  0  0  0  0
  6  7  1  0  0  0  0
  7  8  1  0  0  0  0
  8  9  1  0  0  0  0
  9 10  1  0  0  0  0
 10 12  1  0  0  0  0
 10 11  2  0  0  0  0
M  CHG  2   2  -1   5   1
M  END
>  <CHROM.1>
17.50155145,171.18138037,-54.09236286,139.29385025,-91.31071754,-103.23872952
-6.38734103,-2.53080815,15.85193661,-2.55388152,0.44768909,-1.58801854

>  <Name>
1kod cryst

>  <RI>
0

>  <Rbt.Current_Directory>
/home/afrankz/demos/rdock_decoys_rna/rnas/1kod

>  <Rbt.Executable>
rbdock ($Id: //depot/dev/client3/rdock/2013.1/src/exe/rbdock.cxx#4 $)

>  <Rbt.Library>
libRbt.so (2013.1, Build901 2013/11/27)

>  <Rbt.Parameter_File>
/export/apps/rDock/src/rDock_2013.1_src/data/scripts/dock_solv.prm

>  <Rbt.Receptor>
prm/blind_docking_20.prm

>  <SCORE>
-15.8236

>  <SCORE.INTER>
-16.7653

>  <SCORE.INTER.CONST>
1

>  <SCORE.INTER.POLAR>
-3.55666

>  <SCORE.INTER.ROT>
5

>  <SCORE.INTER.SOLV>
14.699

>  <SCORE.INTER.VDW>
-11.1544

>  <SCORE.INTER.norm>
-1.39711

>  <SCORE.INTRA>
-0.404805

>  <SCORE.INTRA.DIHEDRAL>
2.45027

>  <SCORE.INTRA.DIHEDRAL.0>
7.7847

>  <SCORE.INTRA.POLAR>
0

>  <SCORE.INTRA.POLAR.0>
0

>  <SCORE.INTRA.REPUL>
0

>  <SCORE.INTRA.REPUL.0>
0

>  <SCORE.INTRA.SOLV>
2.74236

>  <SCORE.INTRA.SOLV.lig_0>
-57.5465

>  <SCORE.INTRA.VDW>
-3.00112

>  <SCORE.INTRA.VDW.0>
1.39369

>  <SCORE.INTRA.norm>
-0.0337338

>  <SCORE.RESTR>
1.34654

>  <SCORE.RESTR.CAVITY>
1.34654

>  <SCORE.RESTR.norm>
0.112212

>  <SCORE.SYSTEM>
0

>  <SCORE.SYSTEM.CONST>
0

>  <SCORE.SYSTEM.DIHEDRAL>
0

>  <SCORE.SYSTEM.SOLV>
0

>  <SCORE.SYSTEM.norm>
0

>  <SCORE.heavy>
12

>  <SCORE.norm>
-1.31863

>  <SYMMETRIC_BONDS>
4 1 2

>  <RMSD>
21.273

$$$$
1kod cryst
 OpenBabel11021811393D
libRbt.so/2013.1/901 2013/11/27
 12 11  0  0  0  0  0  0  0  0999 V2000
   -0.8283   -7.2445   16.1097 C   0  0  0  0  0  0  0  0  0  0  0  0
    0.1697   -7.5968   16.7204 O   0  5  0  0  0  0  0  0  0  0  0  0
   -1.0347   -7.5084   14.9318 O   0  0  0  0  0  0  0  0  0  0  0  0
   -1.8874   -6.4226   16.8708 C   0  0  1  0  0  0  0  0  0  0  0  0
   -1.2632   -5.8153   18.0858 N   0  3  0  0  0  0  0  0  0  0  0  0
   -2.4618   -5.3028   15.9717 C   0  0  0  0  0  0  0  0  0  0  0  0
   -3.7723   -5.7461   15.3345 C   0  0  0  0  0  0  0  0  0  0  0  0
   -4.8425   -4.6793   15.5549 C   0  0  0  0  0  0  0  0  0  0  0  0
   -4.3209   -3.3607   15.0776 N   0  0  0  0  0  0  0  0  0  0  0  0
   -4.9613   -2.2549   15.3481 C   0  0  0  0  0  0  0  0  0  0  0  0
   -5.2762   -1.4762   14.4510 O   0  0  0  0  0  0  0  0  0  0  0  0
   -5.2576   -1.9636   16.5812 N   0  0  0  0  0  0  0  0  0  0  0  0
  1  2  1  0  0  0  0
  1  3  2  0  0  0  0
  4  1  1  6  0  0  0
  4  6  1  0  0  0  0
  4  5  1  0  0  0  0
  6  7  1  0  0  0  0
  7  8  1  0  0  0  0
  8  9  1  0  0  0  0
  9 10  1  0  0  0  0
 10 12  1  0  0  0  0
 10 11  2  0  0  0  0
M  CHG  2   2  -1   5   1
M  END
>  <CHROM.1>
19.69950483,96.86977542,-35.70908431,129.72748220,53.16035218,10.85478705
-2.95289188,-4.93128874,15.94713097,0.22529911,0.82805938,-2.09813388

>  <Name>
1kod cryst

>  <RI>
0

>  <Rbt.Current_Directory>
/home/afrankz/demos/rdock_decoys_rna/rnas/1kod

>  <Rbt.Executable>
rbdock ($Id: //depot/dev/client3/rdock/2013.1/src/exe/rbdock.cxx#4 $)

>  <Rbt.Library>
libRbt.so (2013.1, Build901 2013/11/27)

>  <Rbt.Parameter_File>
/export/apps/rDock/src/rDock_2013.1_src/data/scripts/dock_solv.prm

>  <Rbt.Receptor>
prm/blind_docking_20.prm

>  <SCORE>
-4.21986

>  <SCORE.INTER>
-6.76194

>  <SCORE.INTER.CONST>
1

>  <SCORE.INTER.POLAR>
-2.20093

>  <SCORE.INTER.ROT>
5

>  <SCORE.INTER.SOLV>
14.8554

>  <SCORE.INTER.VDW>
-9.05667

>  <SCORE.INTER.norm>
-0.563495

>  <SCORE.INTRA>
0.186578

>  <SCORE.INTRA.DIHEDRAL>
5.09571

>  <SCORE.INTRA.DIHEDRAL.0>
7.7847

>  <SCORE.INTRA.POLAR>
0

>  <SCORE.INTRA.POLAR.0>
0

>  <SCORE.INTRA.REPUL>
0

>  <SCORE.INTRA.REPUL.0>
0

>  <SCORE.INTRA.SOLV>
-2.33193

>  <SCORE.INTRA.SOLV.lig_0>
-57.5465

>  <SCORE.INTRA.VDW>
-1.19531

>  <SCORE.INTRA.VDW.0>
1.39369

>  <SCORE.INTRA.norm>
0.0155481

>  <SCORE.RESTR>
2.3555

>  <SCORE.RESTR.CAVITY>
2.3555

>  <SCORE.RESTR.norm>
0.196292

>  <SCORE.SYSTEM>
0

>  <SCORE.SYSTEM.CONST>
0

>  <SCORE.SYSTEM.DIHEDRAL>
0

>  <SCORE.SYSTEM.SOLV>
0

>  <SCORE.SYSTEM.norm>
0

>  <SCORE.heavy>
12

>  <SCORE.norm>
-0.351655

>  <SYMMETRIC_BONDS>
4 1 2

>  <RMSD>
21.282

$$$$
1kod cryst
 OpenBabel11021811393D
libRbt.so/2013.1/901 2013/11/27
 12 11  0  0  0  0  0  0  0  0999 V2000
   -4.0251   -4.7432   15.7176 C   0  0  0  0  0  0  0  0  0  0  0  0
   -5.0036   -5.4752   15.7280 O   0  5  0  0  0  0  0  0  0  0  0  0
   -2.9864   -4.9859   16.3192 O   0  0  0  0  0  0  0  0  0  0  0  0
   -4.1067   -3.4413   14.8962 C   0  0  1  0  0  0  0  0  0  0  0  0
   -4.4900   -3.7675   13.4886 N   0  3  0  0  0  0  0  0  0  0  0  0
   -5.1500   -2.4747   15.5040 C   0  0  0  0  0  0  0  0  0  0  0  0
   -5.9607   -1.8005   14.4048 C   0  0  0  0  0  0  0  0  0  0  0  0
   -7.0734   -0.9580   15.0243 C   0  0  0  0  0  0  0  0  0  0  0  0
   -7.7579   -1.7602   16.0857 N   0  0  0  0  0  0  0  0  0  0  0  0
   -7.3734   -1.6803   17.3314 C   0  0  0  0  0  0  0  0  0  0  0  0
   -7.0876   -2.6930   17.9665 O   0  0  0  0  0  0  0  0  0  0  0  0
   -7.3054   -0.5191   17.9147 N   0  0  0  0  0  0  0  0  0  0  0  0
  1  2  1  0  0  0  0
  1  3  2  0  0  0  0
  4  1  1  1  0  0  0
  4  6  1  0  0  0  0
  4  5  1  0  0  0  0
  6  7  1  0  0  0  0
  7  8  1  0  0  0  0
  8  9  1  0  0  0  0
  9 10  1  0  0  0  0
 10 12  1  0  0  0  0
 10 11  2  0  0  0  0
M  CHG  2   2  -1   5   1
M  END
>  <CHROM.1>
-54.60810526,-139.12546573,67.19384915,174.44379653,-46.15687663,-87.15808504
-5.69477629,-2.88067214,15.86230425,-0.08807025,-0.83108280,1.93722872

>  <Name>
1kod cryst

>  <RI>
0

>  <Rbt.Current_Directory>
/home/afrankz/demos/rdock_decoys_rna/rnas/1kod

>  <Rbt.Executable>
rbdock ($Id: //depot/dev/client3/rdock/2013.1/src/exe/rbdock.cxx#4 $)

>  <Rbt.Library>
libRbt.so (2013.1, Build901 2013/11/27)

>  <Rbt.Parameter_File>
/export/apps/rDock/src/rDock_2013.1_src/data/scripts/dock_solv.prm

>  <Rbt.Receptor>
prm/blind_docking_20.prm

>  <SCORE>
-4.21482

>  <SCORE.INTER>
-5.43963

>  <SCORE.INTER.CONST>
1

>  <SCORE.INTER.POLAR>
-1.90752

>  <SCORE.INTER.ROT>
5

>  <SCORE.INTER.SOLV>
17.5935

>  <SCORE.INTER.VDW>
-10.0659

>  <SCORE.INTER.norm>
-0.453302

>  <SCORE.INTRA>
0.177348

>  <SCORE.INTRA.DIHEDRAL>
-0.646938

>  <SCORE.INTRA.DIHEDRAL.0>
7.7847

>  <SCORE.INTRA.POLAR>
0

>  <SCORE.INTRA.POLAR.0>
0

>  <SCORE.INTRA.REPUL>
0

>  <SCORE.INTRA.REPUL.0>
0

>  <SCORE.INTRA.SOLV>
-0.500041

>  <SCORE.INTRA.SOLV.lig_0>
-57.5465

>  <SCORE.INTRA.VDW>
0.750838

>  <SCORE.INTRA.VDW.0>
1.39369

>  <SCORE.INTRA.norm>
0.014779

>  <SCORE.RESTR>
1.04746

>  <SCORE.RESTR.CAVITY>
1.04746

>  <SCORE.RESTR.norm>
0.0872881

>  <SCORE.SYSTEM>
0

>  <SCORE.SYSTEM.CONST>
0

>  <SCORE.SYSTEM.DIHEDRAL>
0

>  <SCORE.SYSTEM.SOLV>
0

>  <SCORE.SYSTEM.norm>
0

>  <SCORE.heavy>
12

>  <SCORE.norm>
-0.351235

>  <SYMMETRIC_BONDS>
4 1 2

>  <RMSD>
21.289

$$$$
1kod cryst
 OpenBabel11021811393D
libRbt.so/2013.1/901 2013/11/27
 12 11  0  0  0  0  0  0  0  0999 V2000
   -5.3665   -1.2922   15.0111 C   0  0  0  0  0  0  0  0  0  0  0  0
   -6.1739   -0.4839   15.4448 O   0  5  0  0  0  0  0  0  0  0  0  0
   -4.1540   -1.1211   15.0300 O   0  0  0  0  0  0  0  0  0  0  0  0
   -5.9102   -2.6029   14.4087 C   0  0  1  0  0  0  0  0  0  0  0  0
   -6.5265   -2.3172   13.0771 N   0  3  0  0  0  0  0  0  0  0  0  0
   -4.7754   -3.6402   14.2398 C   0  0  0  0  0  0  0  0  0  0  0  0
   -4.3814   -4.2282   15.5885 C   0  0  0  0  0  0  0  0  0  0  0  0
   -3.2490   -5.2359   15.4034 C   0  0  0  0  0  0  0  0  0  0  0  0
   -3.2275   -6.1647   16.5762 N   0  0  0  0  0  0  0  0  0  0  0  0
   -2.1003   -6.6622   17.0098 C   0  0  0  0  0  0  0  0  0  0  0  0
   -1.9611   -7.8756   17.1469 O   0  0  0  0  0  0  0  0  0  0  0  0
   -1.1167   -5.8670   17.3155 N   0  0  0  0  0  0  0  0  0  0  0  0
  1  2  1  0  0  0  0
  1  3  2  0  0  0  0
  4  1  1  6  0  0  0
  4  6  1  0  0  0  0
  4  5  1  0  0  0  0
  6  7  1  0  0  0  0
  7  8  1  0  0  0  0
  8  9  1  0  0  0  0
  9 10  1  0  0  0  0
 10 12  1  0  0  0  0
 10 11  2  0  0  0  0
M  CHG  2   2  -1   5   1
M  END
>  <CHROM.1>
73.43994823,74.51463788,173.95372855,-179.28353406,-158.40252753,32.62025933
-4.08293259,-3.94085530,15.51139039,-2.40790381,0.74540570,-2.94874408

>  <Name>
1kod cryst

>  <RI>
0

>  <Rbt.Current_Directory>
/home/afrankz/demos/rdock_decoys_rna/rnas/1kod

>  <Rbt.Executable>
rbdock ($Id: //depot/dev/client3/rdock/2013.1/src/exe/rbdock.cxx#4 $)

>  <Rbt.Library>
libRbt.so (2013.1, Build901 2013/11/27)

>  <Rbt.Parameter_File>
/export/apps/rDock/src/rDock_2013.1_src/data/scripts/dock_solv.prm

>  <Rbt.Receptor>
prm/blind_docking_20.prm

>  <SCORE>
-10.0004

>  <SCORE.INTER>
-6.87766

>  <SCORE.INTER.CONST>
1

>  <SCORE.INTER.POLAR>
-2.05616

>  <SCORE.INTER.ROT>
5

>  <SCORE.INTER.SOLV>
17.6226

>  <SCORE.INTER.VDW>
-10.5388

>  <SCORE.INTER.norm>
-0.573138

>  <SCORE.INTRA>
-4.48468

>  <SCORE.INTRA.DIHEDRAL>
-3.15932

>  <SCORE.INTRA.DIHEDRAL.0>
7.7847

>  <SCORE.INTRA.POLAR>
0

>  <SCORE.INTRA.POLAR.0>
0

>  <SCORE.INTRA.REPUL>
0

>  <SCORE.INTRA.REPUL.0>
0

>  <SCORE.INTRA.SOLV>
-2.73822

>  <SCORE.INTRA.SOLV.lig_0>
-57.5465

>  <SCORE.INTRA.VDW>
-1.5359

>  <SCORE.INTRA.VDW.0>
1.39369

>  <SCORE.INTRA.norm>
-0.373723

>  <SCORE.RESTR>
1.36191

>  <SCORE.RESTR.CAVITY>
1.36191

>  <SCORE.RESTR.norm>
0.113493

>  <SCORE.SYSTEM>
0

>  <SCORE.SYSTEM.CONST>
0

>  <SCORE.SYSTEM.DIHEDRAL>
0

>  <SCORE.SYSTEM.SOLV>
0

>  <SCORE.SYSTEM.norm>
0

>  <SCORE.heavy>
12

>  <SCORE.norm>
-0.833369

>  <SYMMETRIC_BONDS>
4 1 2

>  <RMSD>
21.325

$$$$
1kod cryst
 OpenBabel11021811393D
libRbt.so/2013.1/901 2013/11/27
 12 11  0  0  0  0  0  0  0  0999 V2000
   -5.6184   -3.3221   14.1028 C   0  0  0  0  0  0  0  0  0  0  0  0
   -6.0031   -4.3105   13.4959 O   0  5  0  0  0  0  0  0  0  0  0  0
   -5.5681   -2.1999   13.6150 O   0  0  0  0  0  0  0  0  0  0  0  0
   -5.1741   -3.5026   15.5678 C   0  0  1  0  0  0  0  0  0  0  0  0
   -3.7251   -3.1564   15.6918 N   0  3  0  0  0  0  0  0  0  0  0  0
   -6.0031   -2.5958   16.5073 C   0  0  0  0  0  0  0  0  0  0  0  0
   -7.4851   -2.9330   16.4078 C   0  0  0  0  0  0  0  0  0  0  0  0
   -8.2067   -2.4751   17.6733 C   0  0  0  0  0  0  0  0  0  0  0  0
   -7.6421   -1.1590   18.1064 N   0  0  0  0  0  0  0  0  0  0  0  0
   -7.9884   -0.0550   17.5003 C   0  0  0  0  0  0  0  0  0  0  0  0
   -7.1365    0.7082   17.0507 O   0  0  0  0  0  0  0  0  0  0  0  0
   -9.2476    0.2512   17.3825 N   0  0  0  0  0  0  0  0  0  0  0  0
  1  2  1  0  0  0  0
  1  3  2  0  0  0  0
  4  1  1  6  0  0  0
  4  6  1  0  0  0  0
  4  5  1  0  0  0  0
  6  7  1  0  0  0  0
  7  8  1  0  0  0  0
  8  9  1  0  0  0  0
  9 10  1  0  0  0  0
 10 12  1  0  0  0  0
 10 11  2  0  0  0  0
M  CHG  2   2  -1   5   1
M  END
>  <CHROM.1>
117.01000132,59.72665474,-112.06013236,157.43268706,39.00180398,-102.16919844
-6.62208816,-2.04282817,16.07875495,0.95063965,-0.21342655,-2.51198808

>  <Name>
1kod cryst

>  <RI>
0

>  <Rbt.Current_Directory>
/home/afrankz/demos/rdock_decoys_rna/rnas/1kod

>  <Rbt.Executable>
rbdock ($Id: //depot/dev/client3/rdock/2013.1/src/exe/rbdock.cxx#4 $)

>  <Rbt.Library>
libRbt.so (2013.1, Build901 2013/11/27)

>  <Rbt.Parameter_File>
/export/apps/rDock/src/rDock_2013.1_src/data/scripts/dock_solv.prm

>  <Rbt.Receptor>
prm/blind_docking_20.prm

>  <SCORE>
-21.1491

>  <SCORE.INTER>
-21.7839

>  <SCORE.INTER.CONST>
1

>  <SCORE.INTER.POLAR>
-4.42651

>  <SCORE.INTER.ROT>
5

>  <SCORE.INTER.SOLV>
19.1506

>  <SCORE.INTER.VDW>
-13.0844

>  <SCORE.INTER.norm>
-1.81532

>  <SCORE.INTRA>
-0.940839

>  <SCORE.INTRA.DIHEDRAL>
1.30683

>  <SCORE.INTRA.DIHEDRAL.0>
7.7847

>  <SCORE.INTRA.POLAR>
0

>  <SCORE.INTRA.POLAR.0>
0

>  <SCORE.INTRA.REPUL>
0

>  <SCORE.INTRA.REPUL.0>
0

>  <SCORE.INTRA.SOLV>
-1.95855

>  <SCORE.INTRA.SOLV.lig_0>
-57.5465

>  <SCORE.INTRA.VDW>
-0.614978

>  <SCORE.INTRA.VDW.0>
1.39369

>  <SCORE.INTRA.norm>
-0.0784032

>  <SCORE.RESTR>
1.57557

>  <SCORE.RESTR.CAVITY>
1.57557

>  <SCORE.RESTR.norm>
0.131297

>  <SCORE.SYSTEM>
0

>  <SCORE.SYSTEM.CONST>
0

>  <SCORE.SYSTEM.DIHEDRAL>
0

>  <SCORE.SYSTEM.SOLV>
0

>  <SCORE.SYSTEM.norm>
0

>  <SCORE.heavy>
12

>  <SCORE.norm>
-1.76243

>  <SYMMETRIC_BONDS>
4 1 2

>  <RMSD>
21.363

$$$$
1kod cryst
 OpenBabel11021811393D
libRbt.so/2013.1/901 2013/11/27
 12 11  0  0  0  0  0  0  0  0999 V2000
   -6.6316   -3.9716   14.8762 C   0  0  0  0  0  0  0  0  0  0  0  0
   -6.9999   -4.7045   15.7821 O   0  5  0  0  0  0  0  0  0  0  0  0
   -7.3747   -3.5419   14.0029 O   0  0  0  0  0  0  0  0  0  0  0  0
   -5.1452   -3.5652   14.8360 C   0  0  1  0  0  0  0  0  0  0  0  0
   -4.6828   -3.5198   13.4152 N   0  3  0  0  0  0  0  0  0  0  0  0
   -4.9385   -2.1790   15.4902 C   0  0  0  0  0  0  0  0  0  0  0  0
   -4.9862   -2.2901   17.0085 C   0  0  0  0  0  0  0  0  0  0  0  0
   -6.4321   -2.4557   17.4707 C   0  0  0  0  0  0  0  0  0  0  0  0
   -6.9855   -1.1125   17.8289 N   0  0  0  0  0  0  0  0  0  0  0  0
   -7.7946   -0.4883   17.0154 C   0  0  0  0  0  0  0  0  0  0  0  0
   -7.5604    0.6644   16.6589 O   0  0  0  0  0  0  0  0  0  0  0  0
   -8.8693   -1.0842   16.5876 N   0  0  0  0  0  0  0  0  0  0  0  0
  1  2  1  0  0  0  0
  1  3  2  0  0  0  0
  4  1  1  6  0  0  0
  4  6  1  0  0  0  0
  4  5  1  0  0  0  0
  6  7  1  0  0  0  0
  7  8  1  0  0  0  0
  8  9  1  0  0  0  0
  9 10  1  0  0  0  0
 10 12  1  0  0  0  0
 10 11  2  0  0  0  0
M  CHG  2   2  -1   5   1
M  END
>  <CHROM.1>
142.44818975,76.78648744,150.36712107,-75.85468225,-94.79601732,-77.19221254
-6.55103041,-2.35427834,15.87847834,1.13081811,0.05067631,-2.42196148

>  <Name>
1kod cryst

>  <RI>
0

>  <Rbt.Current_Directory>
/home/afrankz/demos/rdock_decoys_rna/rnas/1kod

>  <Rbt.Executable>
rbdock ($Id: //depot/dev/client3/rdock/2013.1/src/exe/rbdock.cxx#4 $)

>  <Rbt.Library>
libRbt.so (2013.1, Build901 2013/11/27)

>  <Rbt.Parameter_File>
/export/apps/rDock/src/rDock_2013.1_src/data/scripts/dock_solv.prm

>  <Rbt.Receptor>
prm/blind_docking_20.prm

>  <SCORE>
-17.5013

>  <SCORE.INTER>
-17.9064

>  <SCORE.INTER.CONST>
1

>  <SCORE.INTER.POLAR>
-3.8933

>  <SCORE.INTER.ROT>
5

>  <SCORE.INTER.SOLV>
13.5967

>  <SCORE.INTER.VDW>
-10.4255

>  <SCORE.INTER.norm>
-1.4922

>  <SCORE.INTRA>
-1.06622

>  <SCORE.INTRA.DIHEDRAL>
1.58855

>  <SCORE.INTRA.DIHEDRAL.0>
7.7847

>  <SCORE.INTRA.POLAR>
0

>  <SCORE.INTRA.POLAR.0>
0

>  <SCORE.INTRA.REPUL>
0

>  <SCORE.INTRA.REPUL.0>
0

>  <SCORE.INTRA.SOLV>
0.355829

>  <SCORE.INTRA.SOLV.lig_0>
-57.5465

>  <SCORE.INTRA.VDW>
-2.03841

>  <SCORE.INTRA.VDW.0>
1.39369

>  <SCORE.INTRA.norm>
-0.0888519

>  <SCORE.RESTR>
1.47137

>  <SCORE.RESTR.CAVITY>
1.47137

>  <SCORE.RESTR.norm>
0.122614

>  <SCORE.SYSTEM>
0

>  <SCORE.SYSTEM.CONST>
0

>  <SCORE.SYSTEM.DIHEDRAL>
0

>  <SCORE.SYSTEM.SOLV>
0

>  <SCORE.SYSTEM.norm>
0

>  <SCORE.heavy>
12

>  <SCORE.norm>
-1.45844

>  <SYMMETRIC_BONDS>
4 1 2

>  <RMSD>
21.485

$$$$
1kod cryst
 OpenBabel11021811393D
libRbt.so/2013.1/901 2013/11/27
 12 11  0  0  0  0  0  0  0  0999 V2000
   -5.9844   -2.5414   13.2557 C   0  0  0  0  0  0  0  0  0  0  0  0
   -5.7878   -3.5291   12.5636 O   0  5  0  0  0  0  0  0  0  0  0  0
   -6.5141   -1.5164   12.8451 O   0  0  0  0  0  0  0  0  0  0  0  0
   -5.5408   -2.5942   14.7311 C   0  0  1  0  0  0  0  0  0  0  0  0
   -4.5797   -1.4811   14.9990 N   0  3  0  0  0  0  0  0  0  0  0  0
   -6.7593   -2.4617   15.6745 C   0  0  0  0  0  0  0  0  0  0  0  0
   -6.4043   -2.9336   17.0785 C   0  0  0  0  0  0  0  0  0  0  0  0
   -7.5172   -2.5497   18.0510 C   0  0  0  0  0  0  0  0  0  0  0  0
   -7.4581   -1.0757   18.3010 N   0  0  0  0  0  0  0  0  0  0  0  0
   -8.0897   -0.2427   17.5180 C   0  0  0  0  0  0  0  0  0  0  0  0
   -7.4975    0.6982   16.9941 O   0  0  0  0  0  0  0  0  0  0  0  0
   -9.3631   -0.3982   17.2998 N   0  0  0  0  0  0  0  0  0  0  0  0
  1  2  1  0  0  0  0
  1  3  2  0  0  0  0
  4  1  1  6  0  0  0
  4  6  1  0  0  0  0
  4  5  1  0  0  0  0
  6  7  1  0  0  0  0
  7  8  1  0  0  0  0
  8  9  1  0  0  0  0
  9 10  1  0  0  0  0
 10 12  1  0  0  0  0
 10 11  2  0  0  0  0
M  CHG  2   2  -1   5   1
M  END
>  <CHROM.1>
122.24894911,162.59279307,-52.97168899,169.14676169,-73.51551497,-92.45251248
-6.78041895,-1.68373171,15.75830423,0.71702754,0.94731566,-1.22316748

>  <Name>
1kod cryst

>  <RI>
0

>  <Rbt.Current_Directory>
/home/afrankz/demos/rdock_decoys_rna/rnas/1kod

>  <Rbt.Executable>
rbdock ($Id: //depot/dev/client3/rdock/2013.1/src/exe/rbdock.cxx#4 $)

>  <Rbt.Library>
libRbt.so (2013.1, Build901 2013/11/27)

>  <Rbt.Parameter_File>
/export/apps/rDock/src/rDock_2013.1_src/data/scripts/dock_solv.prm

>  <Rbt.Receptor>
prm/blind_docking_20.prm

>  <SCORE>
-28.8441

>  <SCORE.INTER>
-24.6582

>  <SCORE.INTER.CONST>
1

>  <SCORE.INTER.POLAR>
-5.18432

>  <SCORE.INTER.ROT>
5

>  <SCORE.INTER.SOLV>
20.232

>  <SCORE.INTER.VDW>
-12.8351

>  <SCORE.INTER.norm>
-2.05485

>  <SCORE.INTRA>
-5.31304

>  <SCORE.INTRA.DIHEDRAL>
-3.2797

>  <SCORE.INTRA.DIHEDRAL.0>
7.7847

>  <SCORE.INTRA.POLAR>
0

>  <SCORE.INTRA.POLAR.0>
0

>  <SCORE.INTRA.REPUL>
0

>  <SCORE.INTRA.REPUL.0>
0

>  <SCORE.INTRA.SOLV>
-1.59223

>  <SCORE.INTRA.SOLV.lig_0>
-57.5465

>  <SCORE.INTRA.VDW>
-2.87708

>  <SCORE.INTRA.VDW.0>
1.39369

>  <SCORE.INTRA.norm>
-0.442753

>  <SCORE.RESTR>
1.12708

>  <SCORE.RESTR.CAVITY>
1.12708

>  <SCORE.RESTR.norm>
0.093923

>  <SCORE.SYSTEM>
0

>  <SCORE.SYSTEM.CONST>
0

>  <SCORE.SYSTEM.DIHEDRAL>
0

>  <SCORE.SYSTEM.SOLV>
0

>  <SCORE.SYSTEM.norm>
0

>  <SCORE.heavy>
12

>  <SCORE.norm>
-2.40368

>  <SYMMETRIC_BONDS>
4 1 2

>  <RMSD>
21.591

$$$$
1kod cryst
 OpenBabel11021811393D
libRbt.so/2013.1/901 2013/11/27
 12 11  0  0  0  0  0  0  0  0999 V2000
   -6.0259   -2.5072   13.2585 C   0  0  0  0  0  0  0  0  0  0  0  0
   -6.3891   -1.4340   12.8006 O   0  5  0  0  0  0  0  0  0  0  0  0
   -5.9897   -3.5465   12.6117 O   0  0  0  0  0  0  0  0  0  0  0  0
   -5.5865   -2.5499   14.7354 C   0  0  1  0  0  0  0  0  0  0  0  0
   -4.5778   -1.4748   14.9829 N   0  3  0  0  0  0  0  0  0  0  0  0
   -6.7988   -2.3455   15.6738 C   0  0  0  0  0  0  0  0  0  0  0  0
   -6.5416   -2.9889   17.0301 C   0  0  0  0  0  0  0  0  0  0  0  0
   -7.6129   -2.5472   18.0246 C   0  0  0  0  0  0  0  0  0  0  0  0
   -7.4576   -1.0828   18.2890 N   0  0  0  0  0  0  0  0  0  0  0  0
   -8.0750   -0.2038   17.5459 C   0  0  0  0  0  0  0  0  0  0  0  0
   -7.4539    0.7092   17.0063 O   0  0  0  0  0  0  0  0  0  0  0  0
   -9.3638   -0.2831   17.3849 N   0  0  0  0  0  0  0  0  0  0  0  0
  1  2  1  0  0  0  0
  1  3  2  0  0  0  0
  4  1  1  6  0  0  0
  4  6  1  0  0  0  0
  4  5  1  0  0  0  0
  6  7  1  0  0  0  0
  7  8  1  0  0  0  0
  8  9  1  0  0  0  0
  9 10  1  0  0  0  0
 10 12  1  0  0  0  0
 10 11  2  0  0  0  0
M  CHG  2   2  -1   5   1
M  END
>  <CHROM.1>
-51.06266122,154.24775651,-51.30658812,168.85071183,-66.90313757,-90.70917782
-6.80992411,-1.65293504,15.76134115,0.57593759,1.02538044,-1.04828964

>  <Name>
1kod cryst

>  <RI>
0

>  <Rbt.Current_Directory>
/home/afrankz/demos/rdock_decoys_rna/rnas/1kod

>  <Rbt.Executable>
rbdock ($Id: //depot/dev/client3/rdock/2013.1/src/exe/rbdock.cxx#4 $)

>  <Rbt.Library>
libRbt.so (2013.1, Build901 2013/11/27)

>  <Rbt.Parameter_File>
/export/apps/rDock/src/rDock_2013.1_src/data/scripts/dock_solv.prm

>  <Rbt.Receptor>
prm/blind_docking_20.prm

>  <SCORE>
-28.9365

>  <SCORE.INTER>
-25.1989

>  <SCORE.INTER.CONST>
1

>  <SCORE.INTER.POLAR>
-5.20744

>  <SCORE.INTER.ROT>
5

>  <SCORE.INTER.SOLV>
20.3816

>  <SCORE.INTER.VDW>
-13.1683

>  <SCORE.INTER.norm>
-2.09991

>  <SCORE.INTRA>
-4.97593

>  <SCORE.INTRA.DIHEDRAL>
-2.6686

>  <SCORE.INTRA.DIHEDRAL.0>
7.7847

>  <SCORE.INTRA.POLAR>
0

>  <SCORE.INTRA.POLAR.0>
0

>  <SCORE.INTRA.REPUL>
0

>  <SCORE.INTRA.REPUL.0>
0

>  <SCORE.INTRA.SOLV>
-1.65072

>  <SCORE.INTRA.SOLV.lig_0>
-57.5465

>  <SCORE.INTRA.VDW>
-2.81628

>  <SCORE.INTRA.VDW.0>
1.39369

>  <SCORE.INTRA.norm>
-0.414661

>  <SCORE.RESTR>
1.2383

>  <SCORE.RESTR.CAVITY>
1.2383

>  <SCORE.RESTR.norm>
0.103191

>  <SCORE.SYSTEM>
0

>  <SCORE.SYSTEM.CONST>
0

>  <SCORE.SYSTEM.DIHEDRAL>
0

>  <SCORE.SYSTEM.SOLV>
0

>  <SCORE.SYSTEM.norm>
0

>  <SCORE.heavy>
12

>  <SCORE.norm>
-2.41138

>  <SYMMETRIC_BONDS>
4 1 2

>  <RMSD>
21.600

$$$$
1kod cryst
 OpenBabel11021811393D
libRbt.so/2013.1/901 2013/11/27
 12 11  0  0  0  0  0  0  0  0999 V2000
   -6.5342   -2.9262   13.7984 C   0  0  0  0  0  0  0  0  0  0  0  0
   -7.5574   -2.9993   14.4625 O   0  5  0  0  0  0  0  0  0  0  0  0
   -6.4999   -2.5249   12.6419 O   0  0  0  0  0  0  0  0  0  0  0  0
   -5.2121   -3.3630   14.4599 C   0  0  1  0  0  0  0  0  0  0  0  0
   -4.2770   -3.8699   13.4095 N   0  3  0  0  0  0  0  0  0  0  0  0
   -4.5555   -2.1782   15.2065 C   0  0  0  0  0  0  0  0  0  0  0  0
   -5.5766   -1.4646   16.0829 C   0  0  0  0  0  0  0  0  0  0  0  0
   -5.8811   -2.3105   17.3172 C   0  0  0  0  0  0  0  0  0  0  0  0
   -6.9137   -1.6111   18.1439 N   0  0  0  0  0  0  0  0  0  0  0  0
   -8.1736   -1.6435   17.8009 C   0  0  0  0  0  0  0  0  0  0  0  0
   -8.8179   -0.6041   17.6784 O   0  0  0  0  0  0  0  0  0  0  0  0
   -8.7609   -2.7873   17.6007 N   0  0  0  0  0  0  0  0  0  0  0  0
  1  2  1  0  0  0  0
  1  3  2  0  0  0  0
  4  1  1  6  0  0  0
  4  6  1  0  0  0  0
  4  5  1  0  0  0  0
  6  7  1  0  0  0  0
  7  8  1  0  0  0  0
  8  9  1  0  0  0  0
  9 10  1  0  0  0  0
 10 12  1  0  0  0  0
 10 11  2  0  0  0  0
M  CHG  2   2  -1   5   1
M  END
>  <CHROM.1>
151.14766360,48.01606111,-147.15433000,74.30361454,-178.39559780,-102.19637236
-6.57399658,-2.37296538,15.69095068,1.01932600,0.06554709,-1.88422161

>  <Name>
1kod cryst

>  <RI>
0

>  <Rbt.Current_Directory>
/home/afrankz/demos/rdock_decoys_rna/rnas/1kod

>  <Rbt.Executable>
rbdock ($Id: //depot/dev/client3/rdock/2013.1/src/exe/rbdock.cxx#4 $)

>  <Rbt.Library>
libRbt.so (2013.1, Build901 2013/11/27)

>  <Rbt.Parameter_File>
/export/apps/rDock/src/rDock_2013.1_src/data/scripts/dock_solv.prm

>  <Rbt.Receptor>
prm/blind_docking_20.prm

>  <SCORE>
-16.2279

>  <SCORE.INTER>
-15.0406

>  <SCORE.INTER.CONST>
1

>  <SCORE.INTER.POLAR>
-2.97312

>  <SCORE.INTER.ROT>
5

>  <SCORE.INTER.SOLV>
13.3321

>  <SCORE.INTER.VDW>
-11.494

>  <SCORE.INTER.norm>
-1.25338

>  <SCORE.INTRA>
-2.55973

>  <SCORE.INTRA.DIHEDRAL>
-2.16026

>  <SCORE.INTRA.DIHEDRAL.0>
7.7847

>  <SCORE.INTRA.POLAR>
0

>  <SCORE.INTRA.POLAR.0>
0

>  <SCORE.INTRA.REPUL>
0

>  <SCORE.INTRA.REPUL.0>
0

>  <SCORE.INTRA.SOLV>
0.00825174

>  <SCORE.INTRA.SOLV.lig_0>
-57.5465

>  <SCORE.INTRA.VDW>
-1.48373

>  <SCORE.INTRA.VDW.0>
1.39369

>  <SCORE.INTRA.norm>
-0.213311

>  <SCORE.RESTR>
1.37238

>  <SCORE.RESTR.CAVITY>
1.37238

>  <SCORE.RESTR.norm>
0.114365

>  <SCORE.SYSTEM>
0

>  <SCORE.SYSTEM.CONST>
0

>  <SCORE.SYSTEM.DIHEDRAL>
0

>  <SCORE.SYSTEM.SOLV>
0

>  <SCORE.SYSTEM.norm>
0

>  <SCORE.heavy>
12

>  <SCORE.norm>
-1.35233

>  <SYMMETRIC_BONDS>
4 1 2

>  <RMSD>
21.654

$$$$
1kod cryst
 OpenBabel11021811393D
libRbt.so/2013.1/901 2013/11/27
 12 11  0  0  0  0  0  0  0  0999 V2000
   -6.3071   -1.9265   13.4087 C   0  0  0  0  0  0  0  0  0  0  0  0
   -6.9887   -2.0158   12.3983 O   0  5  0  0  0  0  0  0  0  0  0  0
   -5.9102   -0.8642   13.8709 O   0  0  0  0  0  0  0  0  0  0  0  0
   -5.9296   -3.2289   14.1418 C   0  0  1  0  0  0  0  0  0  0  0  0
   -4.5335   -3.6168   13.7745 N   0  3  0  0  0  0  0  0  0  0  0  0
   -6.0270   -3.0429   15.6742 C   0  0  0  0  0  0  0  0  0  0  0  0
   -7.4827   -3.0379   16.1223 C   0  0  0  0  0  0  0  0  0  0  0  0
   -7.5574   -2.8751   17.6388 C   0  0  0  0  0  0  0  0  0  0  0  0
   -7.2359   -1.4573   17.9925 N   0  0  0  0  0  0  0  0  0  0  0  0
   -7.9136   -0.4712   17.4688 C   0  0  0  0  0  0  0  0  0  0  0  0
   -7.3383    0.4517   16.8962 O   0  0  0  0  0  0  0  0  0  0  0  0
   -9.2111   -0.4542   17.5655 N   0  0  0  0  0  0  0  0  0  0  0  0
  1  2  1  0  0  0  0
  1  3  2  0  0  0  0
  4  1  1  6  0  0  0
  4  6  1  0  0  0  0
  4  5  1  0  0  0  0
  6  7  1  0  0  0  0
  7  8  1  0  0  0  0
  8  9  1  0  0  0  0
  9 10  1  0  0  0  0
 10 12  1  0  0  0  0
 10 11  2  0  0  0  0
M  CHG  2   2  -1   5   1
M  END
>  <CHROM.1>
99.93879466,75.33879868,-84.97355607,179.12758771,74.13688182,-124.24840240
-6.85004559,-1.86149764,15.55867633,0.48405763,1.02470027,-0.96790761

>  <Name>
1kod cryst

>  <RI>
0

>  <Rbt.Current_Directory>
/home/afrankz/demos/rdock_decoys_rna/rnas/1kod

>  <Rbt.Executable>
rbdock ($Id: //depot/dev/client3/rdock/2013.1/src/exe/rbdock.cxx#4 $)

>  <Rbt.Library>
libRbt.so (2013.1, Build901 2013/11/27)

>  <Rbt.Parameter_File>
/export/apps/rDock/src/rDock_2013.1_src/data/scripts/dock_solv.prm

>  <Rbt.Receptor>
prm/blind_docking_20.prm

>  <SCORE>
-22.7181

>  <SCORE.INTER>
-19.5045

>  <SCORE.INTER.CONST>
1

>  <SCORE.INTER.POLAR>
-4.11203

>  <SCORE.INTER.ROT>
5

>  <SCORE.INTER.SOLV>
15.6947

>  <SCORE.INTER.VDW>
-11.4612

>  <SCORE.INTER.norm>
-1.62538

>  <SCORE.INTRA>
-4.07221

>  <SCORE.INTRA.DIHEDRAL>
-2.70212

>  <SCORE.INTRA.DIHEDRAL.0>
7.7847

>  <SCORE.INTRA.POLAR>
0

>  <SCORE.INTRA.POLAR.0>
0

>  <SCORE.INTRA.REPUL>
0

>  <SCORE.INTRA.REPUL.0>
0

>  <SCORE.INTRA.SOLV>
-1.59815

>  <SCORE.INTRA.SOLV.lig_0>
-57.5465

>  <SCORE.INTRA.VDW>
-1.92207

>  <SCORE.INTRA.VDW.0>
1.39369

>  <SCORE.INTRA.norm>
-0.339351

>  <SCORE.RESTR>
0.858611

>  <SCORE.RESTR.CAVITY>
0.858611

>  <SCORE.RESTR.norm>
0.0715509

>  <SCORE.SYSTEM>
0

>  <SCORE.SYSTEM.CONST>
0

>  <SCORE.SYSTEM.DIHEDRAL>
0

>  <SCORE.SYSTEM.SOLV>
0

>  <SCORE.SYSTEM.norm>
0

>  <SCORE.heavy>
12

>  <SCORE.norm>
-1.89318

>  <SYMMETRIC_BONDS>
4 1 2

>  <RMSD>
21.835

$$$$
1kod cryst
 OpenBabel11021811393D
libRbt.so/2013.1/901 2013/11/27
 12 11  0  0  0  0  0  0  0  0999 V2000
   -6.5824   -2.4962   13.0595 C   0  0  0  0  0  0  0  0  0  0  0  0
   -6.6146   -1.3026   13.3195 O   0  5  0  0  0  0  0  0  0  0  0  0
   -7.0392   -2.9823   12.0325 O   0  0  0  0  0  0  0  0  0  0  0  0
   -5.9252   -3.4406   14.0854 C   0  0  1  0  0  0  0  0  0  0  0  0
   -4.4949   -3.6603   13.7106 N   0  3  0  0  0  0  0  0  0  0  0  0
   -5.9988   -2.8396   15.5087 C   0  0  0  0  0  0  0  0  0  0  0  0
   -7.4117   -2.9531   16.0663 C   0  0  0  0  0  0  0  0  0  0  0  0
   -7.3778   -2.8464   17.5892 C   0  0  0  0  0  0  0  0  0  0  0  0
   -7.1332   -1.4208   17.9719 N   0  0  0  0  0  0  0  0  0  0  0  0
   -7.8467   -0.4600   17.4486 C   0  0  0  0  0  0  0  0  0  0  0  0
   -7.3048    0.4989   16.9033 O   0  0  0  0  0  0  0  0  0  0  0  0
   -9.1453   -0.5072   17.5166 N   0  0  0  0  0  0  0  0  0  0  0  0
  1  2  1  0  0  0  0
  1  3  2  0  0  0  0
  4  1  1  6  0  0  0
  4  6  1  0  0  0  0
  4  5  1  0  0  0  0
  6  7  1  0  0  0  0
  7  8  1  0  0  0  0
  8  9  1  0  0  0  0
  9 10  1  0  0  0  0
 10 12  1  0  0  0  0
 10 11  2  0  0  0  0
M  CHG  2   2  -1   5   1
M  END
>  <CHROM.1>
-94.62710845,74.70883472,-64.32894069,159.43951543,74.38908112,-130.26515845
-6.88899597,-2.01957569,15.41181446,0.88133797,0.94809679,-1.44813693

>  <Name>
1kod cryst

>  <RI>
0

>  <Rbt.Current_Directory>
/home/afrankz/demos/rdock_decoys_rna/rnas/1kod

>  <Rbt.Executable>
rbdock ($Id: //depot/dev/client3/rdock/2013.1/src/exe/rbdock.cxx#4 $)

>  <Rbt.Library>
libRbt.so (2013.1, Build901 2013/11/27)

>  <Rbt.Parameter_File>
/export/apps/rDock/src/rDock_2013.1_src/data/scripts/dock_solv.prm

>  <Rbt.Receptor>
prm/blind_docking_20.prm

>  <SCORE>
-21.9918

>  <SCORE.INTER>
-19.0908

>  <SCORE.INTER.CONST>
1

>  <SCORE.INTER.POLAR>
-4.01145

>  <SCORE.INTER.ROT>
5

>  <SCORE.INTER.SOLV>
13.4279

>  <SCORE.INTER.VDW>
-10.765

>  <SCORE.INTER.norm>
-1.5909

>  <SCORE.INTRA>
-3.69408

>  <SCORE.INTRA.DIHEDRAL>
-2.41915

>  <SCORE.INTRA.DIHEDRAL.0>
7.7847

>  <SCORE.INTRA.POLAR>
0

>  <SCORE.INTRA.POLAR.0>
0

>  <SCORE.INTRA.REPUL>
0

>  <SCORE.INTRA.REPUL.0>
0

>  <SCORE.INTRA.SOLV>
-1.95097

>  <SCORE.INTRA.SOLV.lig_0>
-57.5465

>  <SCORE.INTRA.VDW>
-1.50902

>  <SCORE.INTRA.VDW.0>
1.39369

>  <SCORE.INTRA.norm>
-0.30784

>  <SCORE.RESTR>
0.793129

>  <SCORE.RESTR.CAVITY>
0.793129

>  <SCORE.RESTR.norm>
0.0660941

>  <SCORE.SYSTEM>
0

>  <SCORE.SYSTEM.CONST>
0

>  <SCORE.SYSTEM.DIHEDRAL>
0

>  <SCORE.SYSTEM.SOLV>
0

>  <SCORE.SYSTEM.norm>
0

>  <SCORE.heavy>
12

>  <SCORE.norm>
-1.83265

>  <SYMMETRIC_BONDS>
4 1 2

>  <RMSD>
22.050

$$$$
1kod cryst
 OpenBabel11021811393D
libRbt.so/2013.1/901 2013/11/27
 12 11  0  0  0  0  0  0  0  0999 V2000
   -6.6173   -2.0786   12.6209 C   0  0  0  0  0  0  0  0  0  0  0  0
   -6.8489   -0.9244   12.9489 O   0  5  0  0  0  0  0  0  0  0  0  0
   -6.5288   -2.4516   11.4578 O   0  0  0  0  0  0  0  0  0  0  0  0
   -6.4236   -3.1215   13.7395 C   0  0  1  0  0  0  0  0  0  0  0  0
   -6.4221   -4.4923   13.1432 N   0  3  0  0  0  0  0  0  0  0  0  0
   -5.0904   -2.8825   14.4862 C   0  0  0  0  0  0  0  0  0  0  0  0
   -5.1691   -1.6189   15.3329 C   0  0  0  0  0  0  0  0  0  0  0  0
   -5.0432   -1.9776   16.8119 C   0  0  0  0  0  0  0  0  0  0  0  0
   -6.3687   -1.7764   17.4761 N   0  0  0  0  0  0  0  0  0  0  0  0
   -7.4574   -2.2714   16.9510 C   0  0  0  0  0  0  0  0  0  0  0  0
   -8.4316   -1.5544   16.7332 O   0  0  0  0  0  0  0  0  0  0  0  0
   -7.5209   -3.5399   16.6680 N   0  0  0  0  0  0  0  0  0  0  0  0
  1  2  1  0  0  0  0
  1  3  2  0  0  0  0
  4  1  1  6  0  0  0
  4  6  1  0  0  0  0
  4  5  1  0  0  0  0
  6  7  1  0  0  0  0
  7  8  1  0  0  0  0
  8  9  1  0  0  0  0
  9 10  1  0  0  0  0
 10 12  1  0  0  0  0
 10 11  2  0  0  0  0
M  CHG  2   2  -1   5   1
M  END
>  <CHROM.1>
168.94318539,70.71729489,-176.62790774,115.77981737,-109.27876302,-131.07854532
-6.51799784,-2.41994083,14.84068629,-1.39924005,0.95985467,1.31158246

>  <Name>
1kod cryst

>  <RI>
0

>  <Rbt.Current_Directory>
/home/afrankz/demos/rdock_decoys_rna/rnas/1kod

>  <Rbt.Executable>
rbdock ($Id: //depot/dev/client3/rdock/2013.1/src/exe/rbdock.cxx#4 $)

>  <Rbt.Library>
libRbt.so (2013.1, Build901 2013/11/27)

>  <Rbt.Parameter_File>
/export/apps/rDock/src/rDock_2013.1_src/data/scripts/dock_solv.prm

>  <Rbt.Receptor>
prm/blind_docking_20.prm

>  <SCORE>
-4.46952

>  <SCORE.INTER>
-5.45168

>  <SCORE.INTER.CONST>
1

>  <SCORE.INTER.POLAR>
-1.29839

>  <SCORE.INTER.ROT>
5

>  <SCORE.INTER.SOLV>
10.9355

>  <SCORE.INTER.VDW>
-9.88499

>  <SCORE.INTER.norm>
-0.454307

>  <SCORE.INTRA>
0.287184

>  <SCORE.INTRA.DIHEDRAL>
6.01973

>  <SCORE.INTRA.DIHEDRAL.0>
7.7847

>  <SCORE.INTRA.POLAR>
0

>  <SCORE.INTRA.POLAR.0>
0

>  <SCORE.INTRA.REPUL>
0

>  <SCORE.INTRA.REPUL.0>
0

>  <SCORE.INTRA.SOLV>
-0.198309

>  <SCORE.INTRA.SOLV.lig_0>
-57.5465

>  <SCORE.INTRA.VDW>
-2.62353

>  <SCORE.INTRA.VDW.0>
1.39369

>  <SCORE.INTRA.norm>
0.023932

>  <SCORE.RESTR>
0.694973

>  <SCORE.RESTR.CAVITY>
0.694973

>  <SCORE.RESTR.norm>
0.0579144

>  <SCORE.SYSTEM>
0

>  <SCORE.SYSTEM.CONST>
0

>  <SCORE.SYSTEM.DIHEDRAL>
0

>  <SCORE.SYSTEM.SOLV>
0

>  <SCORE.SYSTEM.norm>
0

>  <SCORE.heavy>
12

>  <SCORE.norm>
-0.37246

>  <SYMMETRIC_BONDS>
4 1 2

>  <RMSD>
22.363

$$$$
1kod cryst
 OpenBabel11021811393D
libRbt.so/2013.1/901 2013/11/27
 12 11  0  0  0  0  0  0  0  0999 V2000
   -6.7425   -2.3189   11.1365 C   0  0  0  0  0  0  0  0  0  0  0  0
   -7.0995   -1.9716   10.0205 O   0  5  0  0  0  0  0  0  0  0  0  0
   -6.5792   -3.4868   11.4667 O   0  0  0  0  0  0  0  0  0  0  0  0
   -6.4815   -1.2197   12.1852 C   0  0  1  0  0  0  0  0  0  0  0  0
   -7.4326   -0.0880   11.9632 N   0  3  0  0  0  0  0  0  0  0  0  0
   -6.6651   -1.7742   13.6173 C   0  0  0  0  0  0  0  0  0  0  0  0
   -6.0430   -0.8330   14.6406 C   0  0  0  0  0  0  0  0  0  0  0  0
   -5.3028   -1.6405   15.7045 C   0  0  0  0  0  0  0  0  0  0  0  0
   -4.3434   -2.5698   15.0302 N   0  0  0  0  0  0  0  0  0  0  0  0
   -4.2397   -3.8133   15.4163 C   0  0  0  0  0  0  0  0  0  0  0  0
   -3.1463   -4.2893   15.7136 O   0  0  0  0  0  0  0  0  0  0  0  0
   -5.3009   -4.5641   15.4733 N   0  0  0  0  0  0  0  0  0  0  0  0
  1  2  1  0  0  0  0
  1  3  2  0  0  0  0
  4  1  1  6  0  0  0
  4  6  1  0  0  0  0
  4  5  1  0  0  0  0
  6  7  1  0  0  0  0
  7  8  1  0  0  0  0
  8  9  1  0  0  0  0
  9 10  1  0  0  0  0
 10 12  1  0  0  0  0
 10 11  2  0  0  0  0
M  CHG  2   2  -1   5   1
M  END
>  <CHROM.1>
33.96893767,164.18313929,150.06097879,-138.33122027,53.02211106,44.31891604
-5.79803704,-2.38469880,13.50478331,-2.88775646,-1.02871503,0.74297244

>  <Name>
1kod cryst

>  <RI>
0

>  <Rbt.Current_Directory>
/home/afrankz/demos/rdock_decoys_rna/rnas/1kod

>  <Rbt.Executable>
rbdock ($Id: //depot/dev/client3/rdock/2013.1/src/exe/rbdock.cxx#4 $)

>  <Rbt.Library>
libRbt.so (2013.1, Build901 2013/11/27)

>  <Rbt.Parameter_File>
/export/apps/rDock/src/rDock_2013.1_src/data/scripts/dock_solv.prm

>  <Rbt.Receptor>
prm/blind_docking_20.prm

>  <SCORE>
-11.215

>  <SCORE.INTER>
-11.017

>  <SCORE.INTER.CONST>
1

>  <SCORE.INTER.POLAR>
-2.37443

>  <SCORE.INTER.ROT>
5

>  <SCORE.INTER.SOLV>
15.6824

>  <SCORE.INTER.VDW>
-11.5907

>  <SCORE.INTER.norm>
-0.918083

>  <SCORE.INTRA>
-1.1337

>  <SCORE.INTRA.DIHEDRAL>
2.08155

>  <SCORE.INTRA.DIHEDRAL.0>
7.7847

>  <SCORE.INTRA.POLAR>
0

>  <SCORE.INTRA.POLAR.0>
0

>  <SCORE.INTRA.REPUL>
0

>  <SCORE.INTRA.REPUL.0>
0

>  <SCORE.INTRA.SOLV>
-1.61379

>  <SCORE.INTRA.SOLV.lig_0>
-57.5465

>  <SCORE.INTRA.VDW>
-1.36758

>  <SCORE.INTRA.VDW.0>
1.39369

>  <SCORE.INTRA.norm>
-0.0944746

>  <SCORE.RESTR>
0.935649

>  <SCORE.RESTR.CAVITY>
0.935649

>  <SCORE.RESTR.norm>
0.0779707

>  <SCORE.SYSTEM>
0

>  <SCORE.SYSTEM.CONST>
0

>  <SCORE.SYSTEM.DIHEDRAL>
0

>  <SCORE.SYSTEM.SOLV>
0

>  <SCORE.SYSTEM.norm>
0

>  <SCORE.heavy>
12

>  <SCORE.norm>
-0.934587

>  <SYMMETRIC_BONDS>
4 1 2

>  <RMSD>
23.241

$$$$
