lig.pdb
 OpenBabel03051820513D

 22 23  0  0  0  0  0  0  0  0999 V2000
    2.1260    3.3000   -4.6910 N   0  0  0  0  0  0  0  0  0  0  0  0
    3.3920    2.7990   -4.8710 C   0  0  0  0  0  0  0  0  0  0  0  0
    3.7940    1.7340   -4.1860 N   0  0  0  0  0  0  0  0  0  0  0  0
    2.9700    1.1060   -3.2910 C   0  0  0  0  0  0  0  0  0  0  0  0
    1.6580    1.5960   -3.0680 C   0  0  0  0  0  0  0  0  0  0  0  0
    1.2420    2.7360   -3.8130 C   0  0  0  0  0  0  0  0  0  0  0  0
    0.1260    3.2040   -3.6780 O   0  0  0  0  0  0  0  0  0  0  0  0
    1.0570    0.7380   -2.0470 C   0  0  0  0  0  0  0  0  0  0  0  0
   -0.3050    0.8880   -1.4250 C   0  0  0  0  0  0  0  0  0  0  0  0
   -1.3300    0.8900   -2.4780 N   0  0  0  0  0  0  0  0  0  0  0  0
    1.9750   -0.1930   -1.7580 C   0  0  0  0  0  0  0  0  0  0  0  0
    3.1160    0.0240   -2.4840 N   0  0  0  0  0  0  0  0  0  0  0  0
    4.2400    3.3950   -5.7670 N   0  0  0  0  0  0  0  0  0  0  0  0
    1.8140    4.1000   -5.2080 H   0  0  0  0  0  0  0  0  0  0  0  0
   -0.3450    1.8260   -0.8760 H   0  0  0  0  0  0  0  0  0  0  0  0
   -0.4880    0.0610   -0.7390 H   0  0  0  0  0  0  0  0  0  0  0  0
   -1.9550    0.1030   -2.5750 H   0  0  0  0  0  0  0  0  0  0  0  0
   -1.3880    1.6640   -3.1240 H   0  0  0  0  0  0  0  0  0  0  0  0
    1.8920   -1.0160   -1.0520 H   0  0  0  0  0  0  0  0  0  0  0  0
    3.9240   -0.5680   -2.3900 H   0  0  0  0  0  0  0  0  0  0  0  0
    3.9380    4.2040   -6.2910 H   0  0  0  0  0  0  0  0  0  0  0  0
    5.1640    3.0260   -5.9040 H   0  0  0  0  0  0  0  0  0  0  0  0
  1  6  1  0  0  0  0
  2  1  1  0  0  0  0
  2  3  2  0  0  0  0
  3  4  1  0  0  0  0
  4  5  2  0  0  0  0
  4 12  1  0  0  0  0
  5  8  1  0  0  0  0
  6  7  2  0  0  0  0
  6  5  1  0  0  0  0
  8 11  2  0  0  0  0
  8  9  1  0  0  0  0
  9 15  1  0  0  0  0
  9 16  1  0  0  0  0
 10  9  1  0  0  0  0
 11 19  1  0  0  0  0
 12 20  1  0  0  0  0
 12 11  1  0  0  0  0
 13  2  1  0  0  0  0
 14  1  1  0  0  0  0
 17 10  1  0  0  0  0
 18 10  1  0  0  0  0
 21 13  1  0  0  0  0
 22 13  1  0  0  0  0
M  END
$$$$
